# generated using pymatgen
data_V18P9C2
_symmetry_space_group_name_H-M   'P 1'
_cell_length_a   3.19136200
_cell_length_b   13.05851200
_cell_length_c   17.07361800
_cell_angle_alpha   90.00000000
_cell_angle_beta   90.00000000
_cell_angle_gamma   90.00000000
_symmetry_Int_Tables_number   1
_chemical_formula_structural   V18P9C2
_chemical_formula_sum   'V36 P18 C4'
_cell_volume   711.53345140
_cell_formula_units_Z   2
loop_
 _symmetry_equiv_pos_site_id
 _symmetry_equiv_pos_as_xyz
  1  'x, y, z'
loop_
 _atom_site_type_symbol
 _atom_site_label
 _atom_site_symmetry_multiplicity
 _atom_site_fract_x
 _atom_site_fract_y
 _atom_site_fract_z
 _atom_site_occupancy
  V  V0  1  0.50000000  0.00000000  0.50000000  1
  V  V1  1  0.50000000  0.00000000  0.00000000  1
  V  V2  1  0.00000000  0.50000000  0.50000000  1
  V  V3  1  0.00000000  0.50000000  0.00000000  1
  V  V4  1  0.00000000  0.56235500  0.25000000  1
  V  V5  1  0.00000000  0.43764500  0.75000000  1
  V  V6  1  0.50000000  0.40010800  0.25000000  1
  V  V7  1  0.50000000  0.59989200  0.75000000  1
  V  V8  1  0.50000000  0.09804800  0.25000000  1
  V  V9  1  0.50000000  0.90195200  0.75000000  1
  V  V10  1  0.50000000  0.89377500  0.25000000  1
  V  V11  1  0.50000000  0.10622500  0.75000000  1
  V  V12  1  0.00000000  0.00347800  0.36685800  1
  V  V13  1  0.00000000  0.99652200  0.63314200  1
  V  V14  1  0.00000000  0.00347800  0.13314200  1
  V  V15  1  0.00000000  0.99652200  0.86685800  1
  V  V16  1  0.00000000  0.16104500  0.49889100  1
  V  V17  1  0.00000000  0.83895500  0.50110800  1
  V  V18  1  0.00000000  0.16104500  0.00110900  1
  V  V19  1  0.00000000  0.83895500  0.99889200  1
  V  V20  1  0.00000000  0.75933200  0.33808500  1
  V  V21  1  0.00000000  0.24066800  0.66191500  1
  V  V22  1  0.00000000  0.75933200  0.16191500  1
  V  V23  1  0.00000000  0.24066800  0.83808500  1
  V  V24  1  0.00000000  0.24463700  0.33023200  1
  V  V25  1  0.00000000  0.75536300  0.66976800  1
  V  V26  1  0.00000000  0.24463700  0.16976800  1
  V  V27  1  0.00000000  0.75536300  0.83023200  1
  V  V28  1  0.50000000  0.34622500  0.44205000  1
  V  V29  1  0.50000000  0.65377500  0.55795000  1
  V  V30  1  0.50000000  0.34622500  0.05795000  1
  V  V31  1  0.50000000  0.65377500  0.94205000  1
  V  V32  1  0.50000000  0.57195700  0.37806900  1
  V  V33  1  0.50000000  0.42804300  0.62193100  1
  V  V34  1  0.50000000  0.57195700  0.12193100  1
  V  V35  1  0.50000000  0.42804300  0.87806900  1
  P  P36  1  0.00000000  0.43316800  0.35763800  1
  P  P37  1  0.00000000  0.56683200  0.64236200  1
  P  P38  1  0.00000000  0.43316800  0.14236200  1
  P  P39  1  0.00000000  0.56683200  0.85763800  1
  P  P40  1  0.00000000  0.67100500  0.45381600  1
  P  P41  1  0.00000000  0.32899500  0.54618400  1
  P  P42  1  0.00000000  0.67100500  0.04618400  1
  P  P43  1  0.00000000  0.32899500  0.95381600  1
  P  P44  1  0.50000000  0.13931200  0.39851000  1
  P  P45  1  0.50000000  0.86068800  0.60149000  1
  P  P46  1  0.50000000  0.13931200  0.10149000  1
  P  P47  1  0.50000000  0.86068800  0.89851000  1
  P  P48  1  0.50000000  0.87053500  0.39641700  1
  P  P49  1  0.50000000  0.12946500  0.60358300  1
  P  P50  1  0.50000000  0.87053500  0.10358300  1
  P  P51  1  0.50000000  0.12946500  0.89641700  1
  P  P52  1  0.50000000  0.69205800  0.25000000  1
  P  P53  1  0.50000000  0.30794200  0.75000000  1
  C  C54  1  0.00000000  0.99600900  0.25000000  1
  C  C55  1  0.00000000  0.00399100  0.75000000  1
  C  C56  1  0.50000000  0.25017600  0.25000000  1
  C  C57  1  0.50000000  0.74982400  0.75000000  1
