# generated using pymatgen
data_Dy3Pd4
_symmetry_space_group_name_H-M   'P 1'
_cell_length_a   7.89125169
_cell_length_b   7.89125169
_cell_length_c   7.89125171
_cell_angle_alpha   114.33867635
_cell_angle_beta   114.33867635
_cell_angle_gamma   114.33867516
_symmetry_Int_Tables_number   1
_chemical_formula_structural   Dy3Pd4
_chemical_formula_sum   'Dy6 Pd8'
_cell_volume   290.90339974
_cell_formula_units_Z   2
loop_
 _symmetry_equiv_pos_site_id
 _symmetry_equiv_pos_as_xyz
  1  'x, y, z'
loop_
 _atom_site_type_symbol
 _atom_site_label
 _atom_site_symmetry_multiplicity
 _atom_site_fract_x
 _atom_site_fract_y
 _atom_site_fract_z
 _atom_site_occupancy
  Dy  Dy0  1  0.40314300  0.02604100  0.28062200  1
  Dy  Dy1  1  0.02604100  0.28062200  0.40314300  1
  Dy  Dy2  1  0.28062200  0.40314300  0.02604100  1
  Dy  Dy3  1  0.59685700  0.97395900  0.71937800  1
  Dy  Dy4  1  0.97395900  0.71937800  0.59685700  1
  Dy  Dy5  1  0.71937800  0.59685700  0.97395900  1
  Pd  Pd6  1  0.00000000  0.00000000  0.00000000  1
  Pd  Pd7  1  0.50000000  0.50000000  0.50000000  1
  Pd  Pd8  1  0.22376200  0.06032000  0.55144300  1
  Pd  Pd9  1  0.06032000  0.55144300  0.22376200  1
  Pd  Pd10  1  0.55144300  0.22376200  0.06032000  1
  Pd  Pd11  1  0.77623800  0.93968000  0.44855700  1
  Pd  Pd12  1  0.93968000  0.44855700  0.77623800  1
  Pd  Pd13  1  0.44855700  0.77623800  0.93968000  1
