# generated using pymatgen
data_HgRhF6
_symmetry_space_group_name_H-M   'P 1'
_cell_length_a   5.81910087
_cell_length_b   5.81910087
_cell_length_c   5.81910107
_cell_angle_alpha   54.06830284
_cell_angle_beta   54.06830284
_cell_angle_gamma   54.06831385
_symmetry_Int_Tables_number   1
_chemical_formula_structural   HgRhF6
_chemical_formula_sum   'Hg1 Rh1 F6'
_cell_volume   120.03294930
_cell_formula_units_Z   1
loop_
 _symmetry_equiv_pos_site_id
 _symmetry_equiv_pos_as_xyz
  1  'x, y, z'
loop_
 _atom_site_type_symbol
 _atom_site_label
 _atom_site_symmetry_multiplicity
 _atom_site_fract_x
 _atom_site_fract_y
 _atom_site_fract_z
 _atom_site_occupancy
  Hg  Hg0  1  0.50000000  0.50000000  0.50000000  1
  Rh  Rh1  1  0.00000000  0.00000000  0.00000000  1
  F  F2  1  0.05919300  0.38467600  0.78532500  1
  F  F3  1  0.78532500  0.05919300  0.38467600  1
  F  F4  1  0.61532400  0.21467500  0.94080700  1
  F  F5  1  0.21467500  0.94080700  0.61532400  1
  F  F6  1  0.94080700  0.61532400  0.21467500  1
  F  F7  1  0.38467600  0.78532500  0.05919300  1
