# generated using pymatgen
data_K2UF6
_symmetry_space_group_name_H-M   'P 1'
_cell_length_a   7.27186889
_cell_length_b   7.27186889
_cell_length_c   7.27186889
_cell_angle_alpha   146.81963882
_cell_angle_beta   129.63772267
_cell_angle_gamma   61.64826144
_symmetry_Int_Tables_number   1
_chemical_formula_structural   K2UF6
_chemical_formula_sum   'K2 U1 F6'
_cell_volume   160.46684240
_cell_formula_units_Z   1
loop_
 _symmetry_equiv_pos_site_id
 _symmetry_equiv_pos_as_xyz
  1  'x, y, z'
loop_
 _atom_site_type_symbol
 _atom_site_label
 _atom_site_symmetry_multiplicity
 _atom_site_fract_x
 _atom_site_fract_y
 _atom_site_fract_z
 _atom_site_occupancy
  K  K0  1  0.66749300  0.66749300  0.00000000  1
  K  K1  1  0.33250700  0.33250700  0.00000000  1
  U  U2  1  0.00000000  0.00000000  0.00000000  1
  F  F3  1  0.63628500  0.86155800  0.77472800  1
  F  F4  1  0.19756600  0.50000000  0.69756600  1
  F  F5  1  0.91317000  0.13844200  0.77472800  1
  F  F6  1  0.08683000  0.86155800  0.22527200  1
  F  F7  1  0.80243400  0.50000000  0.30243400  1
  F  F8  1  0.36371500  0.13844200  0.22527200  1
