# generated using pymatgen
data_NdB4
_symmetry_space_group_name_H-M   'P 1'
_cell_length_a   7.23841700
_cell_length_b   7.23841700
_cell_length_c   4.11995800
_cell_angle_alpha   90.00000000
_cell_angle_beta   90.00000000
_cell_angle_gamma   90.00000000
_symmetry_Int_Tables_number   1
_chemical_formula_structural   NdB4
_chemical_formula_sum   'Nd4 B16'
_cell_volume   215.86388377
_cell_formula_units_Z   4
loop_
 _symmetry_equiv_pos_site_id
 _symmetry_equiv_pos_as_xyz
  1  'x, y, z'
loop_
 _atom_site_type_symbol
 _atom_site_label
 _atom_site_symmetry_multiplicity
 _atom_site_fract_x
 _atom_site_fract_y
 _atom_site_fract_z
 _atom_site_occupancy
  Nd  Nd0  1  0.18285300  0.68285300  0.00000000  1
  Nd  Nd1  1  0.68285300  0.81714700  0.00000000  1
  Nd  Nd2  1  0.31714700  0.18285300  0.00000000  1
  Nd  Nd3  1  0.81714700  0.31714700  0.00000000  1
  B  B4  1  0.91198900  0.58801100  0.50000000  1
  B  B5  1  0.58801100  0.08801100  0.50000000  1
  B  B6  1  0.41198900  0.91198900  0.50000000  1
  B  B7  1  0.08801100  0.41198900  0.50000000  1
  B  B8  1  0.03887000  0.17422000  0.50000000  1
  B  B9  1  0.17422000  0.96113000  0.50000000  1
  B  B10  1  0.82578000  0.03887000  0.50000000  1
  B  B11  1  0.96113000  0.82578000  0.50000000  1
  B  B12  1  0.46113000  0.67422000  0.50000000  1
  B  B13  1  0.53887000  0.32578000  0.50000000  1
  B  B14  1  0.67422000  0.53887000  0.50000000  1
  B  B15  1  0.32578000  0.46113000  0.50000000  1
  B  B16  1  0.00000000  0.00000000  0.20479600  1
  B  B17  1  0.50000000  0.50000000  0.79520400  1
  B  B18  1  0.00000000  0.00000000  0.79520400  1
  B  B19  1  0.50000000  0.50000000  0.20479600  1
