# generated using pymatgen
data_YUTe6
_symmetry_space_group_name_H-M   'P 1'
_cell_length_a   12.94428801
_cell_length_b   12.94428801
_cell_length_c   4.37496000
_cell_angle_alpha   90.00000000
_cell_angle_beta   90.00000000
_cell_angle_gamma   160.56102152
_symmetry_Int_Tables_number   1
_chemical_formula_structural   YUTe6
_chemical_formula_sum   'Y1 U1 Te6'
_cell_volume   243.95925841
_cell_formula_units_Z   1
loop_
 _symmetry_equiv_pos_site_id
 _symmetry_equiv_pos_as_xyz
  1  'x, y, z'
loop_
 _atom_site_type_symbol
 _atom_site_label
 _atom_site_symmetry_multiplicity
 _atom_site_fract_x
 _atom_site_fract_y
 _atom_site_fract_z
 _atom_site_occupancy
  Y  Y0  1  0.83230100  0.16769900  0.00000000  1
  U  U1  1  0.16706700  0.83293300  0.50000000  1
  Te  Te2  1  0.42736800  0.57263200  0.00000000  1
  Te  Te3  1  0.57417900  0.42582100  0.50000000  1
  Te  Te4  1  0.70391700  0.29608300  0.00000000  1
  Te  Te5  1  0.29313300  0.70686700  0.50000000  1
  Te  Te6  1  0.07421900  0.92578100  0.00000000  1
  Te  Te7  1  0.92781500  0.07218500  0.50000000  1
