# generated using pymatgen
data_NdDyFe14B
_symmetry_space_group_name_H-M   'P 1'
_cell_length_a   8.74846800
_cell_length_b   8.74846800
_cell_length_c   12.05316700
_cell_angle_alpha   90.00000000
_cell_angle_beta   90.00000000
_cell_angle_gamma   90.00000000
_symmetry_Int_Tables_number   1
_chemical_formula_structural   NdDyFe14B
_chemical_formula_sum   'Nd4 Dy4 Fe56 B4'
_cell_volume   922.49748132
_cell_formula_units_Z   4
loop_
 _symmetry_equiv_pos_site_id
 _symmetry_equiv_pos_as_xyz
  1  'x, y, z'
loop_
 _atom_site_type_symbol
 _atom_site_label
 _atom_site_symmetry_multiplicity
 _atom_site_fract_x
 _atom_site_fract_y
 _atom_site_fract_z
 _atom_site_occupancy
  Nd  Nd0  1  0.64013600  0.64013600  0.50000000  1
  Nd  Nd1  1  0.35986400  0.35986400  0.50000000  1
  Nd  Nd2  1  0.85986400  0.14013600  0.00000000  1
  Nd  Nd3  1  0.14013600  0.85986400  0.00000000  1
  Dy  Dy4  1  0.22932800  0.77067200  0.50000000  1
  Dy  Dy5  1  0.77067200  0.22932800  0.50000000  1
  Dy  Dy6  1  0.27067200  0.27067200  0.00000000  1
  Dy  Dy7  1  0.72932800  0.72932800  0.00000000  1
  Fe  Fe8  1  0.18197600  0.81802400  0.25554600  1
  Fe  Fe9  1  0.81802400  0.18197600  0.25554600  1
  Fe  Fe10  1  0.31802400  0.31802400  0.75554600  1
  Fe  Fe11  1  0.68197600  0.68197600  0.75554600  1
  Fe  Fe12  1  0.81802400  0.18197600  0.74445400  1
  Fe  Fe13  1  0.18197600  0.81802400  0.74445400  1
  Fe  Fe14  1  0.68197600  0.68197600  0.24445400  1
  Fe  Fe15  1  0.31802400  0.31802400  0.24445400  1
  Fe  Fe16  1  0.50000000  0.50000000  0.11389100  1
  Fe  Fe17  1  0.00000000  0.00000000  0.61389100  1
  Fe  Fe18  1  0.50000000  0.50000000  0.88610900  1
  Fe  Fe19  1  0.00000000  0.00000000  0.38610900  1
  Fe  Fe20  1  0.40180800  0.59819200  0.29552400  1
  Fe  Fe21  1  0.59819200  0.40180800  0.29552400  1
  Fe  Fe22  1  0.09819200  0.09819200  0.79552400  1
  Fe  Fe23  1  0.90180800  0.90180800  0.79552400  1
  Fe  Fe24  1  0.59819200  0.40180800  0.70447600  1
  Fe  Fe25  1  0.40180800  0.59819200  0.70447600  1
  Fe  Fe26  1  0.90180800  0.90180800  0.20447600  1
  Fe  Fe27  1  0.09819200  0.09819200  0.20447600  1
  Fe  Fe28  1  0.93319700  0.72419200  0.37341800  1
  Fe  Fe29  1  0.06680300  0.27580800  0.37341800  1
  Fe  Fe30  1  0.56680300  0.22419200  0.87341800  1
  Fe  Fe31  1  0.43319700  0.77580800  0.87341800  1
  Fe  Fe32  1  0.06680300  0.27580800  0.62658200  1
  Fe  Fe33  1  0.93319700  0.72419200  0.62658200  1
  Fe  Fe34  1  0.43319700  0.77580800  0.12658200  1
  Fe  Fe35  1  0.56680300  0.22419200  0.12658200  1
  Fe  Fe36  1  0.72419200  0.93319700  0.37341800  1
  Fe  Fe37  1  0.27580800  0.06680300  0.37341800  1
  Fe  Fe38  1  0.22419200  0.56680300  0.87341800  1
  Fe  Fe39  1  0.77580800  0.43319700  0.87341800  1
  Fe  Fe40  1  0.27580800  0.06680300  0.62658200  1
  Fe  Fe41  1  0.72419200  0.93319700  0.62658200  1
  Fe  Fe42  1  0.77580800  0.43319700  0.12658200  1
  Fe  Fe43  1  0.22419200  0.56680300  0.12658200  1
  Fe  Fe44  1  0.14025700  0.53873900  0.32474800  1
  Fe  Fe45  1  0.85974300  0.46126100  0.32474800  1
  Fe  Fe46  1  0.35974300  0.03873900  0.82474800  1
  Fe  Fe47  1  0.64025700  0.96126100  0.82474800  1
  Fe  Fe48  1  0.85974300  0.46126100  0.67525200  1
  Fe  Fe49  1  0.14025700  0.53873900  0.67525200  1
  Fe  Fe50  1  0.64025700  0.96126100  0.17525200  1
  Fe  Fe51  1  0.35974300  0.03873900  0.17525200  1
  Fe  Fe52  1  0.53873900  0.14025700  0.32474800  1
  Fe  Fe53  1  0.46126100  0.85974300  0.32474800  1
  Fe  Fe54  1  0.03873900  0.35974300  0.82474800  1
  Fe  Fe55  1  0.96126100  0.64025700  0.82474800  1
  Fe  Fe56  1  0.46126100  0.85974300  0.67525200  1
  Fe  Fe57  1  0.53873900  0.14025700  0.67525200  1
  Fe  Fe58  1  0.96126100  0.64025700  0.17525200  1
  Fe  Fe59  1  0.03873900  0.35974300  0.17525200  1
  Fe  Fe60  1  0.00000000  0.50000000  0.50000000  1
  Fe  Fe61  1  0.50000000  0.00000000  0.00000000  1
  Fe  Fe62  1  0.50000000  0.00000000  0.50000000  1
  Fe  Fe63  1  0.00000000  0.50000000  0.00000000  1
  B  B64  1  0.87455700  0.87455700  0.50000000  1
  B  B65  1  0.12544300  0.12544300  0.50000000  1
  B  B66  1  0.62544300  0.37455700  0.00000000  1
  B  B67  1  0.37455700  0.62544300  0.00000000  1
