# generated using pymatgen
data_Sc4Mn4Si7
_symmetry_space_group_name_H-M   'P 1'
_cell_length_a   5.08374000
_cell_length_b   9.62961293
_cell_length_c   9.62961293
_cell_angle_alpha   86.00456861
_cell_angle_beta   74.69460447
_cell_angle_gamma   74.69460447
_symmetry_Int_Tables_number   1
_chemical_formula_structural   Sc4Mn4Si7
_chemical_formula_sum   'Sc8 Mn8 Si14'
_cell_volume   438.56582107
_cell_formula_units_Z   2
loop_
 _symmetry_equiv_pos_site_id
 _symmetry_equiv_pos_as_xyz
  1  'x, y, z'
loop_
 _atom_site_type_symbol
 _atom_site_label
 _atom_site_symmetry_multiplicity
 _atom_site_fract_x
 _atom_site_fract_y
 _atom_site_fract_z
 _atom_site_occupancy
  Sc  Sc0  1  0.19856800  0.80143200  0.80143200  1
  Sc  Sc1  1  0.80143200  0.19856800  0.19856800  1
  Sc  Sc2  1  0.00000000  0.19856800  0.80143200  1
  Sc  Sc3  1  0.00000000  0.80143200  0.19856800  1
  Sc  Sc4  1  0.36042900  0.00000000  0.27914300  1
  Sc  Sc5  1  0.63957100  0.00000000  0.72085700  1
  Sc  Sc6  1  0.63957100  0.72085700  0.00000000  1
  Sc  Sc7  1  0.36042900  0.27914300  0.00000000  1
  Mn  Mn8  1  0.39759000  0.50000000  0.20482100  1
  Mn  Mn9  1  0.60241000  0.50000000  0.79517900  1
  Mn  Mn10  1  0.10241000  0.50000000  0.79517900  1
  Mn  Mn11  1  0.60241000  0.79517900  0.50000000  1
  Mn  Mn12  1  0.89759000  0.50000000  0.20482100  1
  Mn  Mn13  1  0.39759000  0.20482100  0.50000000  1
  Mn  Mn14  1  0.89759000  0.20482100  0.50000000  1
  Mn  Mn15  1  0.10241000  0.79517900  0.50000000  1
  Si  Si16  1  0.40975500  0.59024500  0.59024500  1
  Si  Si17  1  0.59024500  0.40975500  0.40975500  1
  Si  Si18  1  0.00000000  0.40975500  0.59024500  1
  Si  Si19  1  0.00000000  0.59024500  0.40975500  1
  Si  Si20  1  0.25009200  0.00000000  0.00000000  1
  Si  Si21  1  0.74990800  0.00000000  0.00000000  1
  Si  Si22  1  0.20236400  0.29763600  0.29763600  1
  Si  Si23  1  0.79763600  0.70236400  0.70236400  1
  Si  Si24  1  0.50000000  0.70236400  0.29763600  1
  Si  Si25  1  0.50000000  0.29763600  0.70236400  1
  Si  Si26  1  0.21002300  0.00000000  0.57995500  1
  Si  Si27  1  0.78997700  0.00000000  0.42004500  1
  Si  Si28  1  0.78997700  0.42004500  0.00000000  1
  Si  Si29  1  0.21002300  0.57995500  0.00000000  1
