# generated using pymatgen
data_CuAs12P4S12Cl
_symmetry_space_group_name_H-M   'P 1'
_cell_length_a   13.79825357
_cell_length_b   13.79825357
_cell_length_c   21.93252100
_cell_angle_alpha   90.00000000
_cell_angle_beta   90.00000000
_cell_angle_gamma   119.99999796
_symmetry_Int_Tables_number   1
_chemical_formula_structural   CuAs12P4S12Cl
_chemical_formula_sum   'Cu4 As48 P16 S48 Cl4'
_cell_volume   3616.32487040
_cell_formula_units_Z   4
loop_
 _symmetry_equiv_pos_site_id
 _symmetry_equiv_pos_as_xyz
  1  'x, y, z'
loop_
 _atom_site_type_symbol
 _atom_site_label
 _atom_site_symmetry_multiplicity
 _atom_site_fract_x
 _atom_site_fract_y
 _atom_site_fract_z
 _atom_site_occupancy
  Cu  Cu0  1  0.33333300  0.66666700  0.06285300  1
  Cu  Cu1  1  0.66666700  0.33333300  0.56285300  1
  Cu  Cu2  1  0.00000000  0.00000000  0.30794800  1
  Cu  Cu3  1  0.00000000  0.00000000  0.80794800  1
  As  As4  1  0.58037100  0.51761900  0.19452000  1
  As  As5  1  0.93724800  0.41962900  0.19452000  1
  As  As6  1  0.48238100  0.06275200  0.19452000  1
  As  As7  1  0.06275200  0.48238100  0.69452000  1
  As  As8  1  0.51761900  0.58037100  0.69452000  1
  As  As9  1  0.41962900  0.93724800  0.69452000  1
  As  As10  1  0.43869800  0.34275200  0.14001200  1
  As  As11  1  0.90405400  0.56130200  0.14001200  1
  As  As12  1  0.65724800  0.09594600  0.14001200  1
  As  As13  1  0.09594600  0.65724800  0.64001200  1
  As  As14  1  0.34275200  0.43869800  0.64001200  1
  As  As15  1  0.56130200  0.90405400  0.64001200  1
  As  As16  1  0.61335800  0.48427400  0.08502600  1
  As  As17  1  0.87091500  0.38664200  0.08502600  1
  As  As18  1  0.51572600  0.12908500  0.08502600  1
  As  As19  1  0.12908500  0.51572600  0.58502600  1
  As  As20  1  0.48427400  0.61335800  0.58502600  1
  As  As21  1  0.38664200  0.87091500  0.58502600  1
  As  As22  1  0.29717700  0.54766600  0.81727900  1
  As  As23  1  0.25048900  0.70282300  0.81727900  1
  As  As24  1  0.45233400  0.74951100  0.81727900  1
  As  As25  1  0.74951100  0.45233400  0.31727900  1
  As  As26  1  0.54766600  0.29717700  0.31727900  1
  As  As27  1  0.70282300  0.25048900  0.31727900  1
  As  As28  1  0.26298400  0.40145100  0.43974900  1
  As  As29  1  0.13846700  0.73701600  0.43974900  1
  As  As30  1  0.59854900  0.86153300  0.43974900  1
  As  As31  1  0.86153300  0.59854900  0.93974900  1
  As  As32  1  0.40145100  0.26298400  0.93974900  1
  As  As33  1  0.73701600  0.13846700  0.93974900  1
  As  As34  1  0.11333200  0.42847200  0.39046500  1
  As  As35  1  0.31514000  0.88666800  0.39046500  1
  As  As36  1  0.57152800  0.68486000  0.39046500  1
  As  As37  1  0.68486000  0.57152800  0.89046500  1
  As  As38  1  0.42847200  0.11333200  0.89046500  1
  As  As39  1  0.88666800  0.31514000  0.89046500  1
  As  As40  1  0.28587800  0.46927200  0.33097200  1
  As  As41  1  0.18339400  0.71412200  0.33097200  1
  As  As42  1  0.53072800  0.81660600  0.33097200  1
  As  As43  1  0.81660600  0.53072800  0.83097200  1
  As  As44  1  0.46927200  0.28587800  0.83097200  1
  As  As45  1  0.71412200  0.18339400  0.83097200  1
  As  As46  1  0.11131700  0.01299000  0.06126200  1
  As  As47  1  0.90167300  0.88868300  0.06126200  1
  As  As48  1  0.98701000  0.09832700  0.06126200  1
  As  As49  1  0.09832700  0.98701000  0.56126200  1
  As  As50  1  0.01299000  0.11131700  0.56126200  1
  As  As51  1  0.88868300  0.90167300  0.56126200  1
  P  P52  1  0.42059700  0.57066400  0.09569000  1
  P  P53  1  0.15006700  0.57940300  0.09569000  1
  P  P54  1  0.42933600  0.84993300  0.09569000  1
  P  P55  1  0.84993300  0.42933600  0.59569000  1
  P  P56  1  0.57066400  0.42059700  0.59569000  1
  P  P57  1  0.57940300  0.15006700  0.59569000  1
  P  P58  1  0.33333300  0.66666700  0.95785200  1
  P  P59  1  0.66666700  0.33333300  0.45785200  1
  P  P60  1  0.10190800  0.18703100  0.34022700  1
  P  P61  1  0.08512300  0.89809200  0.34022700  1
  P  P62  1  0.81296900  0.91487700  0.34022700  1
  P  P63  1  0.91487700  0.81296900  0.84022700  1
  P  P64  1  0.18703100  0.10190800  0.84022700  1
  P  P65  1  0.89809200  0.08512300  0.84022700  1
  P  P66  1  0.00000000  0.00000000  0.20202000  1
  P  P67  1  0.00000000  0.00000000  0.70202000  1
  S  S68  1  0.50039800  0.62464500  0.18043600  1
  S  S69  1  0.12424700  0.49960200  0.18043600  1
  S  S70  1  0.37535500  0.87575300  0.18043600  1
  S  S71  1  0.87575300  0.37535500  0.68043600  1
  S  S72  1  0.62464500  0.50039800  0.68043600  1
  S  S73  1  0.49960200  0.12424700  0.68043600  1
  S  S74  1  0.31755100  0.39655100  0.10669700  1
  S  S75  1  0.07900000  0.68244900  0.10669700  1
  S  S76  1  0.60344900  0.92100000  0.10669700  1
  S  S77  1  0.92100000  0.60344900  0.60669700  1
  S  S78  1  0.39655100  0.31755100  0.60669700  1
  S  S79  1  0.68244900  0.07900000  0.60669700  1
  S  S80  1  0.54864000  0.58610500  0.03732300  1
  S  S81  1  0.03746600  0.45136000  0.03732300  1
  S  S82  1  0.41389500  0.96253400  0.03732300  1
  S  S83  1  0.96253400  0.41389500  0.53732300  1
  S  S84  1  0.58610500  0.54864000  0.53732300  1
  S  S85  1  0.45136000  0.03746600  0.53732300  1
  S  S86  1  0.28705800  0.51096500  0.91841000  1
  S  S87  1  0.22390700  0.71294200  0.91841000  1
  S  S88  1  0.48903500  0.77609300  0.91841000  1
  S  S89  1  0.77609300  0.48903500  0.41841000  1
  S  S90  1  0.51096500  0.28705800  0.41841000  1
  S  S91  1  0.71294200  0.22390700  0.41841000  1
  S  S92  1  0.19028800  0.21535200  0.42265700  1
  S  S93  1  0.02506400  0.80971200  0.42265700  1
  S  S94  1  0.78464800  0.97493600  0.42265700  1
  S  S95  1  0.97493600  0.78464800  0.92265700  1
  S  S96  1  0.21535200  0.19028800  0.92265700  1
  S  S97  1  0.80971200  0.02506400  0.92265700  1
  S  S98  1  0.99543000  0.25223500  0.35697200  1
  S  S99  1  0.25680500  0.00457000  0.35697200  1
  S  S100  1  0.74776500  0.74319500  0.35697200  1
  S  S101  1  0.74319500  0.74776500  0.85697200  1
  S  S102  1  0.25223500  0.99543000  0.85697200  1
  S  S103  1  0.00457000  0.25680500  0.85697200  1
  S  S104  1  0.22285500  0.30480800  0.28051100  1
  S  S105  1  0.08195300  0.77714500  0.28051100  1
  S  S106  1  0.69519200  0.91804700  0.28051100  1
  S  S107  1  0.91804700  0.69519200  0.78051100  1
  S  S108  1  0.30480800  0.22285500  0.78051100  1
  S  S109  1  0.77714500  0.08195300  0.78051100  1
  S  S110  1  0.14607600  0.01797300  0.16191800  1
  S  S111  1  0.87189700  0.85392400  0.16191800  1
  S  S112  1  0.98202700  0.12810300  0.16191800  1
  S  S113  1  0.12810300  0.98202700  0.66191800  1
  S  S114  1  0.01797300  0.14607600  0.66191800  1
  S  S115  1  0.85392400  0.87189700  0.66191800  1
  Cl  Cl116  1  0.66666700  0.33333300  0.18189100  1
  Cl  Cl117  1  0.33333300  0.66666700  0.68189100  1
  Cl  Cl118  1  0.33333300  0.66666700  0.43099400  1
  Cl  Cl119  1  0.66666700  0.33333300  0.93099400  1
