# generated using pymatgen
data_Ba5V5O14
_symmetry_space_group_name_H-M   'P 1'
_cell_length_a   5.89410315
_cell_length_b   13.51542455
_cell_length_c   10.17975908
_cell_angle_alpha   112.38304610
_cell_angle_beta   90.01884552
_cell_angle_gamma   77.41410379
_symmetry_Int_Tables_number   1
_chemical_formula_structural   Ba5V5O14
_chemical_formula_sum   'Ba10 V10 O28'
_cell_volume   728.74248429
_cell_formula_units_Z   2
loop_
 _symmetry_equiv_pos_site_id
 _symmetry_equiv_pos_as_xyz
  1  'x, y, z'
loop_
 _atom_site_type_symbol
 _atom_site_label
 _atom_site_symmetry_multiplicity
 _atom_site_fract_x
 _atom_site_fract_y
 _atom_site_fract_z
 _atom_site_occupancy
  Ba  Ba0  1  0.95711900  0.00084900  0.00030700  1
  Ba  Ba1  1  0.45800800  0.99917500  0.49971200  1
  Ba  Ba2  1  0.11059800  0.76718300  0.55091800  1
  Ba  Ba3  1  0.61097600  0.76765700  0.05125800  1
  Ba  Ba4  1  0.87877800  0.23232000  0.44869500  1
  Ba  Ba5  1  0.37805600  0.23283600  0.94910400  1
  Ba  Ba6  1  0.28316100  0.42460000  0.37924000  1
  Ba  Ba7  1  0.78429900  0.42428200  0.87866700  1
  Ba  Ba8  1  0.70861600  0.57575600  0.62147500  1
  Ba  Ba9  1  0.20736600  0.57541100  0.12083200  1
  V  V10  1  0.73945000  0.50002500  0.25008500  1
  V  V11  1  0.24178600  0.50004200  0.75013400  1
  V  V12  1  0.13668600  0.71472600  0.85734000  1
  V  V13  1  0.63874900  0.71142500  0.35689700  1
  V  V14  1  0.85067500  0.28858800  0.14304300  1
  V  V15  1  0.35251600  0.28528900  0.64263100  1
  V  V16  1  0.43216600  0.12907600  0.23098700  1
  V  V17  1  0.93141200  0.12812100  0.73086600  1
  V  V18  1  0.55915900  0.87187700  0.76906500  1
  V  V19  1  0.06090200  0.87092700  0.26893900  1
  O  O20  1  0.92204700  0.60149900  0.37520400  1
  O  O21  1  0.41830300  0.60301100  0.87522200  1
  O  O22  1  0.52251700  0.39655900  0.62454300  1
  O  O23  1  0.02408600  0.39843800  0.12504800  1
  O  O24  1  0.19639300  0.60647500  0.65262400  1
  O  O25  1  0.69862000  0.60200400  0.14956600  1
  O  O26  1  0.80083000  0.39802800  0.35054100  1
  O  O27  1  0.30260400  0.39359600  0.84744600  1
  O  O28  1  0.46731400  0.59645100  0.37647400  1
  O  O29  1  0.97192800  0.59866100  0.87837800  1
  O  O30  1  0.07147400  0.40169900  0.62199500  1
  O  O31  1  0.56431000  0.40356600  0.12332600  1
  O  O32  1  0.15468000  0.17997500  0.17231900  1
  O  O33  1  0.65461500  0.17745700  0.67062200  1
  O  O34  1  0.33183400  0.82248700  0.82926100  1
  O  O35  1  0.83458000  0.81989900  0.32749500  1
  O  O36  1  0.40067500  0.19254300  0.43042700  1
  O  O37  1  0.89828600  0.19481400  0.93064300  1
  O  O38  1  0.59318100  0.80518100  0.56929500  1
  O  O39  1  0.09356200  0.80740700  0.06944600  1
  O  O40  1  0.64154300  0.19903100  0.18232200  1
  O  O41  1  0.14067300  0.19662300  0.67955700  1
  O  O42  1  0.83689300  0.80338100  0.82043200  1
  O  O43  1  0.34028800  0.80104200  0.31767300  1
  O  O44  1  0.08010200  0.98949800  0.66816400  1
  O  O45  1  0.57911400  0.99025300  0.16654700  1
  O  O46  1  0.06894600  0.00974800  0.33343000  1
  O  O47  1  0.56933400  0.01050600  0.83179800  1
