# generated using pymatgen
data_Li2La(NO3)5
_symmetry_space_group_name_H-M   'P 1'
_cell_length_a   9.05679600
_cell_length_b   10.72426600
_cell_length_c   11.92698400
_cell_angle_alpha   90.00000000
_cell_angle_beta   90.00000000
_cell_angle_gamma   90.00000000
_symmetry_Int_Tables_number   1
_chemical_formula_structural   Li2La(NO3)5
_chemical_formula_sum   'Li8 La4 N20 O60'
_cell_volume   1158.43801217
_cell_formula_units_Z   4
loop_
 _symmetry_equiv_pos_site_id
 _symmetry_equiv_pos_as_xyz
  1  'x, y, z'
loop_
 _atom_site_type_symbol
 _atom_site_label
 _atom_site_symmetry_multiplicity
 _atom_site_fract_x
 _atom_site_fract_y
 _atom_site_fract_z
 _atom_site_occupancy
  Li  Li0  1  0.11666000  0.22794200  0.32122600  1
  Li  Li1  1  0.88334000  0.77205800  0.67877400  1
  Li  Li2  1  0.88334000  0.77205800  0.32122600  1
  Li  Li3  1  0.38334000  0.72794200  0.17877400  1
  Li  Li4  1  0.11666000  0.22794200  0.67877400  1
  Li  Li5  1  0.61666000  0.27205800  0.82122600  1
  Li  Li6  1  0.61666000  0.27205800  0.17877400  1
  Li  Li7  1  0.38334000  0.72794200  0.82122600  1
  La  La8  1  0.00000000  0.00000000  0.00000000  1
  La  La9  1  0.50000000  0.50000000  0.50000000  1
  La  La10  1  0.00000000  0.50000000  0.00000000  1
  La  La11  1  0.50000000  0.00000000  0.50000000  1
  N  N12  1  0.00000000  0.00000000  0.26143400  1
  N  N13  1  0.00000000  0.00000000  0.73856600  1
  N  N14  1  0.50000000  0.50000000  0.23856600  1
  N  N15  1  0.50000000  0.50000000  0.76143400  1
  N  N16  1  0.17698700  0.24907900  0.00000000  1
  N  N17  1  0.82301300  0.75092100  0.00000000  1
  N  N18  1  0.32301300  0.74907900  0.50000000  1
  N  N19  1  0.67698700  0.25092100  0.50000000  1
  N  N20  1  0.39938300  0.15571700  0.29027200  1
  N  N21  1  0.60061700  0.84428300  0.70972800  1
  N  N22  1  0.60061700  0.84428300  0.29027200  1
  N  N23  1  0.10061700  0.65571700  0.20972800  1
  N  N24  1  0.39938300  0.15571700  0.70972800  1
  N  N25  1  0.89938300  0.34428300  0.79027200  1
  N  N26  1  0.89938300  0.34428300  0.20972800  1
  N  N27  1  0.10061700  0.65571700  0.79027200  1
  N  N28  1  0.70452500  0.14790300  0.00000000  1
  N  N29  1  0.29547500  0.85209700  0.00000000  1
  N  N30  1  0.79547500  0.64790300  0.50000000  1
  N  N31  1  0.20452500  0.35209700  0.50000000  1
  O  O32  1  0.31075700  0.11395500  0.36604600  1
  O  O33  1  0.68924300  0.88604500  0.63395400  1
  O  O34  1  0.68924300  0.88604500  0.36604600  1
  O  O35  1  0.18924300  0.61395500  0.13395400  1
  O  O36  1  0.31075700  0.11395500  0.63395400  1
  O  O37  1  0.81075700  0.38604500  0.86604600  1
  O  O38  1  0.81075700  0.38604500  0.13395400  1
  O  O39  1  0.18924300  0.61395500  0.86604600  1
  O  O40  1  0.03278500  0.24772700  0.00000000  1
  O  O41  1  0.96721500  0.75227300  0.00000000  1
  O  O42  1  0.46721500  0.74772700  0.50000000  1
  O  O43  1  0.53278500  0.25227300  0.50000000  1
  O  O44  1  0.03566200  0.37337400  0.20261200  1
  O  O45  1  0.96433800  0.62662600  0.79738800  1
  O  O46  1  0.96433800  0.62662600  0.20261200  1
  O  O47  1  0.46433800  0.87337400  0.29738800  1
  O  O48  1  0.03566200  0.37337400  0.79738800  1
  O  O49  1  0.53566200  0.12662600  0.70261200  1
  O  O50  1  0.53566200  0.12662600  0.29738800  1
  O  O51  1  0.46433800  0.87337400  0.70261200  1
  O  O52  1  0.24284400  0.14688100  0.00000000  1
  O  O53  1  0.75715600  0.85311900  0.00000000  1
  O  O54  1  0.25715600  0.64688100  0.50000000  1
  O  O55  1  0.74284400  0.35311900  0.50000000  1
  O  O56  1  0.59631900  0.22127000  0.00000000  1
  O  O57  1  0.40368100  0.77873000  0.00000000  1
  O  O58  1  0.90368100  0.72127000  0.50000000  1
  O  O59  1  0.09631900  0.27873000  0.50000000  1
  O  O60  1  0.00000000  0.00000000  0.36440200  1
  O  O61  1  0.00000000  0.00000000  0.63559800  1
  O  O62  1  0.50000000  0.50000000  0.13559800  1
  O  O63  1  0.50000000  0.50000000  0.86440200  1
  O  O64  1  0.24041700  0.35278700  0.00000000  1
  O  O65  1  0.75958300  0.64721300  0.00000000  1
  O  O66  1  0.25958300  0.85278700  0.50000000  1
  O  O67  1  0.74041700  0.14721300  0.50000000  1
  O  O68  1  0.26145500  0.38843500  0.40805000  1
  O  O69  1  0.73854500  0.61156500  0.59195000  1
  O  O70  1  0.73854500  0.61156500  0.40805000  1
  O  O71  1  0.23854500  0.88843500  0.09195000  1
  O  O72  1  0.26145500  0.38843500  0.59195000  1
  O  O73  1  0.76145500  0.11156500  0.90805000  1
  O  O74  1  0.76145500  0.11156500  0.09195000  1
  O  O75  1  0.23854500  0.88843500  0.90805000  1
  O  O76  1  0.05734100  0.08964900  0.20412600  1
  O  O77  1  0.94265900  0.91035100  0.79587400  1
  O  O78  1  0.94265900  0.91035100  0.20412600  1
  O  O79  1  0.44265900  0.58964900  0.29587400  1
  O  O80  1  0.05734100  0.08964900  0.79587400  1
  O  O81  1  0.55734100  0.41035100  0.70412600  1
  O  O82  1  0.55734100  0.41035100  0.29587400  1
  O  O83  1  0.44265900  0.58964900  0.70412600  1
  O  O84  1  0.35336300  0.22481600  0.21465000  1
  O  O85  1  0.64663700  0.77518400  0.78535000  1
  O  O86  1  0.64663700  0.77518400  0.21465000  1
  O  O87  1  0.14663700  0.72481600  0.28535000  1
  O  O88  1  0.35336300  0.22481600  0.78535000  1
  O  O89  1  0.85336300  0.27518400  0.71465000  1
  O  O90  1  0.85336300  0.27518400  0.28535000  1
  O  O91  1  0.14663700  0.72481600  0.71465000  1
