# generated using pymatgen
data_Ba(ZnSb)2
_symmetry_space_group_name_H-M   'P 1'
_cell_length_a   4.56016700
_cell_length_b   10.71026500
_cell_length_c   11.76650500
_cell_angle_alpha   90.00000000
_cell_angle_beta   90.00000000
_cell_angle_gamma   90.00000000
_symmetry_Int_Tables_number   1
_chemical_formula_structural   Ba(ZnSb)2
_chemical_formula_sum   'Ba4 Zn8 Sb8'
_cell_volume   574.68312897
_cell_formula_units_Z   4
loop_
 _symmetry_equiv_pos_site_id
 _symmetry_equiv_pos_as_xyz
  1  'x, y, z'
loop_
 _atom_site_type_symbol
 _atom_site_label
 _atom_site_symmetry_multiplicity
 _atom_site_fract_x
 _atom_site_fract_y
 _atom_site_fract_z
 _atom_site_occupancy
  Ba  Ba0  1  0.25000000  0.74707600  0.32007200  1
  Ba  Ba1  1  0.75000000  0.25292400  0.67992800  1
  Ba  Ba2  1  0.25000000  0.24707600  0.17992800  1
  Ba  Ba3  1  0.75000000  0.75292400  0.82007200  1
  Zn  Zn4  1  0.75000000  0.40277300  0.95260100  1
  Zn  Zn5  1  0.25000000  0.59722700  0.04739900  1
  Zn  Zn6  1  0.25000000  0.09722700  0.45260100  1
  Zn  Zn7  1  0.75000000  0.90277300  0.54739900  1
  Zn  Zn8  1  0.75000000  0.94576500  0.12002100  1
  Zn  Zn9  1  0.25000000  0.05423500  0.87997900  1
  Zn  Zn10  1  0.75000000  0.44576500  0.37997900  1
  Zn  Zn11  1  0.25000000  0.55423500  0.62002100  1
  Sb  Sb12  1  0.75000000  0.65017700  0.53481400  1
  Sb  Sb13  1  0.25000000  0.34982300  0.46518600  1
  Sb  Sb14  1  0.25000000  0.84982300  0.03481400  1
  Sb  Sb15  1  0.75000000  0.15017700  0.96518600  1
  Sb  Sb16  1  0.75000000  0.52562200  0.16223300  1
  Sb  Sb17  1  0.25000000  0.47437800  0.83776700  1
  Sb  Sb18  1  0.75000000  0.02562200  0.33776700  1
  Sb  Sb19  1  0.25000000  0.97437800  0.66223300  1
