# generated using pymatgen
data_Cs2K2B10O17
_symmetry_space_group_name_H-M   'P 1'
_cell_length_a   11.99284791
_cell_length_b   11.99284791
_cell_length_c   11.46085205
_cell_angle_alpha   77.68643169
_cell_angle_beta   77.68643169
_cell_angle_gamma   32.34790583
_symmetry_Int_Tables_number   1
_chemical_formula_structural   Cs2K2B10O17
_chemical_formula_sum   'Cs4 K4 B20 O34'
_cell_volume   859.97026923
_cell_formula_units_Z   2
loop_
 _symmetry_equiv_pos_site_id
 _symmetry_equiv_pos_as_xyz
  1  'x, y, z'
loop_
 _atom_site_type_symbol
 _atom_site_label
 _atom_site_symmetry_multiplicity
 _atom_site_fract_x
 _atom_site_fract_y
 _atom_site_fract_z
 _atom_site_occupancy
  Cs  Cs0  1  0.74709200  0.36256400  0.90634600  1
  Cs  Cs1  1  0.63743600  0.25290800  0.59365400  1
  Cs  Cs2  1  0.25290800  0.63743600  0.09365400  1
  Cs  Cs3  1  0.36256400  0.74709200  0.40634600  1
  K  K4  1  0.81110000  0.64653600  0.82587800  1
  K  K5  1  0.35346400  0.18890000  0.67412200  1
  K  K6  1  0.18890000  0.35346400  0.17412200  1
  K  K7  1  0.64653600  0.81110000  0.32587800  1
  B  B8  1  0.22616900  0.87699500  0.76574700  1
  B  B9  1  0.12300500  0.77383100  0.73425300  1
  B  B10  1  0.77383100  0.12300500  0.23425300  1
  B  B11  1  0.87699500  0.22616900  0.26574700  1
  B  B12  1  0.11001100  0.22422900  0.01497400  1
  B  B13  1  0.77577100  0.88998900  0.48502600  1
  B  B14  1  0.88998900  0.77577100  0.98502600  1
  B  B15  1  0.22422900  0.11001100  0.51497400  1
  B  B16  1  0.44191200  0.85836800  0.07409600  1
  B  B17  1  0.14163200  0.55808800  0.42590400  1
  B  B18  1  0.55808800  0.14163200  0.92590400  1
  B  B19  1  0.85836800  0.44191200  0.57409600  1
  B  B20  1  0.31706000  0.95357700  0.87096300  1
  B  B21  1  0.04642300  0.68294000  0.62903700  1
  B  B22  1  0.68294000  0.04642300  0.12903700  1
  B  B23  1  0.95357700  0.31706000  0.37096300  1
  B  B24  1  0.49130700  0.79716400  0.66361600  1
  B  B25  1  0.20283600  0.50869300  0.83638400  1
  B  B26  1  0.50869300  0.20283600  0.33638400  1
  B  B27  1  0.79716400  0.49130700  0.16361600  1
  O  O28  1  0.09922200  0.56375700  0.73920500  1
  O  O29  1  0.43624300  0.90077800  0.76079500  1
  O  O30  1  0.90077800  0.43624300  0.26079500  1
  O  O31  1  0.56375700  0.09922200  0.23920500  1
  O  O32  1  0.91968200  0.42717400  0.04527800  1
  O  O33  1  0.57282600  0.08031800  0.45472200  1
  O  O34  1  0.08031800  0.57282600  0.95472200  1
  O  O35  1  0.42717400  0.91968200  0.54527800  1
  O  O36  1  0.76891900  0.38839000  0.18095100  1
  O  O37  1  0.61161000  0.23108100  0.31904900  1
  O  O38  1  0.23108100  0.61161000  0.81904900  1
  O  O39  1  0.38839000  0.76891900  0.68095100  1
  O  O40  1  0.46226400  0.80120800  0.97098500  1
  O  O41  1  0.19879200  0.53773600  0.52901500  1
  O  O42  1  0.53773600  0.19879200  0.02901500  1
  O  O43  1  0.80120800  0.46226400  0.47098500  1
  O  O44  1  0.73972100  0.92935400  0.90010400  1
  O  O45  1  0.07064600  0.26027900  0.59989600  1
  O  O46  1  0.26027900  0.07064600  0.09989600  1
  O  O47  1  0.92935400  0.73972100  0.40010400  1
  O  O48  1  0.15438100  0.17309000  0.89994200  1
  O  O49  1  0.82691000  0.84561900  0.60005800  1
  O  O50  1  0.84561900  0.82691000  0.10005800  1
  O  O51  1  0.17309000  0.15438100  0.39994200  1
  O  O52  1  0.20158900  0.94399100  0.86481800  1
  O  O53  1  0.05600900  0.79841100  0.63518200  1
  O  O54  1  0.79841100  0.05600900  0.13518200  1
  O  O55  1  0.94399100  0.20158900  0.36481800  1
  O  O56  1  0.07834800  0.92165200  0.75000000  1
  O  O57  1  0.92165200  0.07834800  0.25000000  1
  O  O58  1  0.72223600  0.58767400  0.65792900  1
  O  O59  1  0.41232600  0.27776400  0.84207100  1
  O  O60  1  0.27776400  0.41232600  0.34207100  1
  O  O61  1  0.58767400  0.72223600  0.15792900  1
