# generated using pymatgen
data_HoAl7Au3
_symmetry_space_group_name_H-M   'P 1'
_cell_length_a   8.45346425
_cell_length_b   8.45346425
_cell_length_c   8.45346425
_cell_angle_alpha   57.20219383
_cell_angle_beta   57.20219383
_cell_angle_gamma   57.20220004
_symmetry_Int_Tables_number   1
_chemical_formula_structural   HoAl7Au3
_chemical_formula_sum   'Ho2 Al14 Au6'
_cell_volume   399.63000750
_cell_formula_units_Z   2
loop_
 _symmetry_equiv_pos_site_id
 _symmetry_equiv_pos_as_xyz
  1  'x, y, z'
loop_
 _atom_site_type_symbol
 _atom_site_label
 _atom_site_symmetry_multiplicity
 _atom_site_fract_x
 _atom_site_fract_y
 _atom_site_fract_z
 _atom_site_occupancy
  Ho  Ho0  1  0.00000000  0.00000000  0.00000000  1
  Ho  Ho1  1  0.50000000  0.50000000  0.50000000  1
  Al  Al2  1  0.93024700  0.14722000  0.33289400  1
  Al  Al3  1  0.33289400  0.93024700  0.14722000  1
  Al  Al4  1  0.14722000  0.33289400  0.93024700  1
  Al  Al5  1  0.56975300  0.16710600  0.35278000  1
  Al  Al6  1  0.35278000  0.56975300  0.16710600  1
  Al  Al7  1  0.16710600  0.35278000  0.56975300  1
  Al  Al8  1  0.06975300  0.85278000  0.66710600  1
  Al  Al9  1  0.66710600  0.06975300  0.85278000  1
  Al  Al10  1  0.75000000  0.75000000  0.75000000  1
  Al  Al11  1  0.25000000  0.25000000  0.25000000  1
  Al  Al12  1  0.83289400  0.64722000  0.43024700  1
  Al  Al13  1  0.64722000  0.43024700  0.83289400  1
  Al  Al14  1  0.43024700  0.83289400  0.64722000  1
  Al  Al15  1  0.85278000  0.66710600  0.06975300  1
  Au  Au16  1  0.25000000  0.57419100  0.92580900  1
  Au  Au17  1  0.92580900  0.25000000  0.57419100  1
  Au  Au18  1  0.57419100  0.92580900  0.25000000  1
  Au  Au19  1  0.75000000  0.42580900  0.07419100  1
  Au  Au20  1  0.07419100  0.75000000  0.42580900  1
  Au  Au21  1  0.42580900  0.07419100  0.75000000  1
