# generated using pymatgen
data_BaEu2O4
_symmetry_space_group_name_H-M   'P 1'
_cell_length_a   3.58064900
_cell_length_b   10.60788800
_cell_length_c   12.46558000
_cell_angle_alpha   90.00000000
_cell_angle_beta   90.00000000
_cell_angle_gamma   90.00000000
_symmetry_Int_Tables_number   1
_chemical_formula_structural   BaEu2O4
_chemical_formula_sum   'Ba4 Eu8 O16'
_cell_volume   473.48166538
_cell_formula_units_Z   4
loop_
 _symmetry_equiv_pos_site_id
 _symmetry_equiv_pos_as_xyz
  1  'x, y, z'
loop_
 _atom_site_type_symbol
 _atom_site_label
 _atom_site_symmetry_multiplicity
 _atom_site_fract_x
 _atom_site_fract_y
 _atom_site_fract_z
 _atom_site_occupancy
  Ba  Ba0  1  0.25000000  0.74754500  0.85008200  1
  Ba  Ba1  1  0.25000000  0.24754500  0.64991800  1
  Ba  Ba2  1  0.75000000  0.25245500  0.14991800  1
  Ba  Ba3  1  0.75000000  0.75245500  0.35008200  1
  Eu  Eu4  1  0.25000000  0.57798300  0.10917300  1
  Eu  Eu5  1  0.25000000  0.07798300  0.39082700  1
  Eu  Eu6  1  0.75000000  0.42201700  0.89082700  1
  Eu  Eu7  1  0.75000000  0.92201700  0.60917300  1
  Eu  Eu8  1  0.25000000  0.07471500  0.88812800  1
  Eu  Eu9  1  0.25000000  0.57471500  0.61187200  1
  Eu  Eu10  1  0.75000000  0.92528500  0.11187200  1
  Eu  Eu11  1  0.75000000  0.42528500  0.38812800  1
  O  O12  1  0.25000000  0.78701300  0.16794100  1
  O  O13  1  0.25000000  0.28701300  0.33205900  1
  O  O14  1  0.75000000  0.21298700  0.83205900  1
  O  O15  1  0.75000000  0.71298700  0.66794100  1
  O  O16  1  0.25000000  0.88198600  0.48114200  1
  O  O17  1  0.25000000  0.38198600  0.01885800  1
  O  O18  1  0.75000000  0.11801400  0.51885800  1
  O  O19  1  0.75000000  0.61801400  0.98114200  1
  O  O20  1  0.25000000  0.98508500  0.71636700  1
  O  O21  1  0.25000000  0.48508500  0.78363300  1
  O  O22  1  0.75000000  0.01491500  0.28363300  1
  O  O23  1  0.75000000  0.51491500  0.21636700  1
  O  O24  1  0.25000000  0.57277500  0.42448700  1
  O  O25  1  0.25000000  0.07277500  0.07551300  1
  O  O26  1  0.75000000  0.42722500  0.57551300  1
  O  O27  1  0.75000000  0.92722500  0.92448700  1
