# generated using pymatgen
data_SbF3
_symmetry_space_group_name_H-M   'P 1'
_cell_length_a   4.62041886
_cell_length_b   4.62041886
_cell_length_c   7.11611700
_cell_angle_alpha   90.00000000
_cell_angle_beta   90.00000000
_cell_angle_gamma   112.63417930
_symmetry_Int_Tables_number   1
_chemical_formula_structural   SbF3
_chemical_formula_sum   'Sb2 F6'
_cell_volume   140.21628157
_cell_formula_units_Z   2
loop_
 _symmetry_equiv_pos_site_id
 _symmetry_equiv_pos_as_xyz
  1  'x, y, z'
loop_
 _atom_site_type_symbol
 _atom_site_label
 _atom_site_symmetry_multiplicity
 _atom_site_fract_x
 _atom_site_fract_y
 _atom_site_fract_z
 _atom_site_occupancy
  Sb  Sb0  1  0.79384400  0.23007000  0.25000000  1
  Sb  Sb1  1  0.23007000  0.79384400  0.75000000  1
  F  F2  1  0.40299100  0.30914100  0.25000000  1
  F  F3  1  0.30914100  0.40299100  0.75000000  1
  F  F4  1  0.57470200  0.96827600  0.93801000  1
  F  F5  1  0.96827600  0.57470200  0.06199000  1
  F  F6  1  0.57470200  0.96827600  0.56199000  1
  F  F7  1  0.96827600  0.57470200  0.43801000  1
