# generated using pymatgen
data_SmV2IO9
_symmetry_space_group_name_H-M   'P 1'
_cell_length_a   7.06086200
_cell_length_b   7.27972700
_cell_length_c   14.58919200
_cell_angle_alpha   90.00000000
_cell_angle_beta   90.00000000
_cell_angle_gamma   90.00000000
_symmetry_Int_Tables_number   1
_chemical_formula_structural   SmV2IO9
_chemical_formula_sum   'Sm4 V8 I4 O36'
_cell_volume   749.90121347
_cell_formula_units_Z   4
loop_
 _symmetry_equiv_pos_site_id
 _symmetry_equiv_pos_as_xyz
  1  'x, y, z'
loop_
 _atom_site_type_symbol
 _atom_site_label
 _atom_site_symmetry_multiplicity
 _atom_site_fract_x
 _atom_site_fract_y
 _atom_site_fract_z
 _atom_site_occupancy
  Sm  Sm0  1  0.85058900  0.25000000  0.95219700  1
  Sm  Sm1  1  0.14941100  0.75000000  0.04780300  1
  Sm  Sm2  1  0.85058900  0.75000000  0.54780300  1
  Sm  Sm3  1  0.14941100  0.25000000  0.45219700  1
  V  V4  1  0.46011200  0.00000000  0.25000000  1
  V  V5  1  0.53988800  0.50000000  0.75000000  1
  V  V6  1  0.53988800  0.00000000  0.75000000  1
  V  V7  1  0.46011200  0.50000000  0.25000000  1
  V  V8  1  0.81908000  0.25000000  0.22848000  1
  V  V9  1  0.18092000  0.75000000  0.77152000  1
  V  V10  1  0.81908000  0.75000000  0.27152000  1
  V  V11  1  0.18092000  0.25000000  0.72848000  1
  I  I12  1  0.29841200  0.25000000  0.05437100  1
  I  I13  1  0.70158800  0.75000000  0.94562900  1
  I  I14  1  0.29841200  0.75000000  0.44562900  1
  I  I15  1  0.70158800  0.25000000  0.55437100  1
  O  O16  1  0.17239500  0.06893100  0.98918900  1
  O  O17  1  0.82760500  0.56893100  0.01081100  1
  O  O18  1  0.17239500  0.93106900  0.51081100  1
  O  O19  1  0.82760500  0.43106900  0.48918900  1
  O  O20  1  0.82760500  0.93106900  0.01081100  1
  O  O21  1  0.17239500  0.43106900  0.98918900  1
  O  O22  1  0.82760500  0.06893100  0.48918900  1
  O  O23  1  0.17239500  0.56893100  0.51081100  1
  O  O24  1  0.52794100  0.25000000  0.99880000  1
  O  O25  1  0.47205900  0.75000000  0.00120000  1
  O  O26  1  0.52794100  0.75000000  0.50120000  1
  O  O27  1  0.47205900  0.25000000  0.49880000  1
  O  O28  1  0.32471700  0.95295400  0.15713400  1
  O  O29  1  0.67528300  0.45295400  0.84286600  1
  O  O30  1  0.32471700  0.04704600  0.34286600  1
  O  O31  1  0.67528300  0.54704600  0.65713400  1
  O  O32  1  0.67528300  0.04704600  0.84286600  1
  O  O33  1  0.32471700  0.54704600  0.15713400  1
  O  O34  1  0.67528300  0.95295400  0.65713400  1
  O  O35  1  0.32471700  0.45295400  0.34286600  1
  O  O36  1  0.52833200  0.75000000  0.28091200  1
  O  O37  1  0.47166800  0.25000000  0.71908800  1
  O  O38  1  0.52833200  0.25000000  0.21908800  1
  O  O39  1  0.47166800  0.75000000  0.78091200  1
  O  O40  1  0.73763700  0.00000000  0.25000000  1
  O  O41  1  0.26236300  0.50000000  0.75000000  1
  O  O42  1  0.26236300  0.00000000  0.75000000  1
  O  O43  1  0.73763700  0.50000000  0.25000000  1
  O  O44  1  0.98883200  0.25000000  0.30871700  1
  O  O45  1  0.01116800  0.75000000  0.69128300  1
  O  O46  1  0.98883200  0.75000000  0.19128300  1
  O  O47  1  0.01116800  0.25000000  0.80871700  1
  O  O48  1  0.91814200  0.25000000  0.12338800  1
  O  O49  1  0.08185800  0.75000000  0.87661200  1
  O  O50  1  0.91814200  0.75000000  0.37661200  1
  O  O51  1  0.08185800  0.25000000  0.62338800  1
