# generated using pymatgen
data_HgS4
_symmetry_space_group_name_H-M   'P 1'
_cell_length_a   9.68937700
_cell_length_b   12.17338700
_cell_length_c   13.19251900
_cell_angle_alpha   90.00000000
_cell_angle_beta   90.00000000
_cell_angle_gamma   90.00000000
_symmetry_Int_Tables_number   1
_chemical_formula_structural   HgS4
_chemical_formula_sum   'Hg4 S16'
_cell_volume   1556.09107241
_cell_formula_units_Z   4
loop_
 _symmetry_equiv_pos_site_id
 _symmetry_equiv_pos_as_xyz
  1  'x, y, z'
loop_
 _atom_site_type_symbol
 _atom_site_label
 _atom_site_symmetry_multiplicity
 _atom_site_fract_x
 _atom_site_fract_y
 _atom_site_fract_z
 _atom_site_occupancy
  Hg  Hg0  1  0.60463200  0.90584700  0.25000000  1
  Hg  Hg1  1  0.39536800  0.09415300  0.75000000  1
  Hg  Hg2  1  0.89536800  0.90584700  0.75000000  1
  Hg  Hg3  1  0.10463200  0.09415300  0.25000000  1
  S  S4  1  0.88180600  0.47559900  0.66887400  1
  S  S5  1  0.11819400  0.52440100  0.16887400  1
  S  S6  1  0.61819400  0.47559900  0.33112600  1
  S  S7  1  0.38180600  0.52440100  0.83112600  1
  S  S8  1  0.11819400  0.52440100  0.33112600  1
  S  S9  1  0.88180600  0.47559900  0.83112600  1
  S  S10  1  0.38180600  0.52440100  0.66887400  1
  S  S11  1  0.61819400  0.47559900  0.16887400  1
  S  S12  1  0.63011600  0.62650100  0.12986500  1
  S  S13  1  0.36988400  0.37349900  0.62986500  1
  S  S14  1  0.86988400  0.62650100  0.87013500  1
  S  S15  1  0.13011600  0.37349900  0.37013500  1
  S  S16  1  0.36988400  0.37349900  0.87013500  1
  S  S17  1  0.63011600  0.62650100  0.37013500  1
  S  S18  1  0.13011600  0.37349900  0.12986500  1
  S  S19  1  0.86988400  0.62650100  0.62986500  1
