# generated using pymatgen
data_Y2Se3
_symmetry_space_group_name_H-M   'P 1'
_cell_length_a   13.61434139
_cell_length_b   12.99519921
_cell_length_c   7.11644508
_cell_angle_alpha   79.35423667
_cell_angle_beta   69.73383606
_cell_angle_gamma   30.91192727
_symmetry_Int_Tables_number   1
_chemical_formula_structural   Y2Se3
_chemical_formula_sum   'Y8 Se12'
_cell_volume   590.01001834
_cell_formula_units_Z   4
loop_
 _symmetry_equiv_pos_site_id
 _symmetry_equiv_pos_as_xyz
  1  'x, y, z'
loop_
 _atom_site_type_symbol
 _atom_site_label
 _atom_site_symmetry_multiplicity
 _atom_site_fract_x
 _atom_site_fract_y
 _atom_site_fract_z
 _atom_site_occupancy
  Y  Y0  1  0.33363500  0.33363500  0.16636500  1
  Y  Y1  1  0.16636500  0.16636500  0.33363500  1
  Y  Y2  1  0.91636500  0.91636500  0.08363500  1
  Y  Y3  1  0.08363500  0.08363500  0.91636500  1
  Y  Y4  1  0.99762400  0.99762400  0.50237600  1
  Y  Y5  1  0.50237600  0.50237600  0.99762400  1
  Y  Y6  1  0.25237600  0.25237600  0.74762400  1
  Y  Y7  1  0.74762400  0.74762400  0.25237600  1
  Se  Se8  1  0.00840000  0.49160000  0.49160000  1
  Se  Se9  1  0.49160000  0.00840000  0.00840000  1
  Se  Se10  1  0.24160000  0.75840000  0.75840000  1
  Se  Se11  1  0.75840000  0.24160000  0.24160000  1
  Se  Se12  1  0.66376700  0.17402100  0.84223700  1
  Se  Se13  1  0.84223700  0.31997400  0.66376700  1
  Se  Se14  1  0.31997400  0.84223700  0.17402100  1
  Se  Se15  1  0.17402100  0.66376700  0.31997400  1
  Se  Se16  1  0.58623300  0.07597900  0.40776300  1
  Se  Se17  1  0.40776300  0.93002600  0.58623300  1
  Se  Se18  1  0.93002600  0.40776300  0.07597900  1
  Se  Se19  1  0.07597900  0.58623300  0.93002600  1
