# generated using pymatgen
data_RbY(TeO3)2
_symmetry_space_group_name_H-M   'P 1'
_cell_length_a   6.14459200
_cell_length_b   8.81386700
_cell_length_c   14.00441500
_cell_angle_alpha   90.00000000
_cell_angle_beta   90.00000000
_cell_angle_gamma   90.00000000
_symmetry_Int_Tables_number   1
_chemical_formula_structural   RbY(TeO3)2
_chemical_formula_sum   'Rb4 Y4 Te8 O24'
_cell_volume   758.44573908
_cell_formula_units_Z   4
loop_
 _symmetry_equiv_pos_site_id
 _symmetry_equiv_pos_as_xyz
  1  'x, y, z'
loop_
 _atom_site_type_symbol
 _atom_site_label
 _atom_site_symmetry_multiplicity
 _atom_site_fract_x
 _atom_site_fract_y
 _atom_site_fract_z
 _atom_site_occupancy
  Rb  Rb0  1  0.25000000  0.00603600  0.63443000  1
  Rb  Rb1  1  0.25000000  0.49396400  0.13443000  1
  Rb  Rb2  1  0.75000000  0.99396400  0.36557000  1
  Rb  Rb3  1  0.75000000  0.50603600  0.86557000  1
  Y  Y4  1  0.25000000  0.78841500  0.90759500  1
  Y  Y5  1  0.25000000  0.71158500  0.40759500  1
  Y  Y6  1  0.75000000  0.21158500  0.09240500  1
  Y  Y7  1  0.75000000  0.28841500  0.59240500  1
  Te  Te8  1  0.75000000  0.00451400  0.80465400  1
  Te  Te9  1  0.75000000  0.49548600  0.30465400  1
  Te  Te10  1  0.25000000  0.99548600  0.19534600  1
  Te  Te11  1  0.25000000  0.50451400  0.69534600  1
  Te  Te12  1  0.75000000  0.71652300  0.57625600  1
  Te  Te13  1  0.75000000  0.78347700  0.07625600  1
  Te  Te14  1  0.25000000  0.28347700  0.42374400  1
  Te  Te15  1  0.25000000  0.21652300  0.92374400  1
  O  O16  1  0.98726200  0.86808800  0.80191300  1
  O  O17  1  0.51273800  0.63191200  0.30191300  1
  O  O18  1  0.48726200  0.13191200  0.19808700  1
  O  O19  1  0.01273800  0.36808800  0.69808700  1
  O  O20  1  0.01273800  0.13191200  0.19808700  1
  O  O21  1  0.48726200  0.36808800  0.69808700  1
  O  O22  1  0.51273800  0.86808800  0.80191300  1
  O  O23  1  0.98726200  0.63191200  0.30191300  1
  O  O24  1  0.75000000  0.05851900  0.67331800  1
  O  O25  1  0.75000000  0.44148100  0.17331800  1
  O  O26  1  0.25000000  0.94148100  0.32668200  1
  O  O27  1  0.25000000  0.55851900  0.82668200  1
  O  O28  1  0.98729200  0.80003000  0.50829800  1
  O  O29  1  0.51270800  0.69997000  0.00829800  1
  O  O30  1  0.48729200  0.19997000  0.49170200  1
  O  O31  1  0.01270800  0.30003000  0.99170200  1
  O  O32  1  0.01270800  0.19997000  0.49170200  1
  O  O33  1  0.48729200  0.30003000  0.99170200  1
  O  O34  1  0.51270800  0.80003000  0.50829800  1
  O  O35  1  0.98729200  0.69997000  0.00829800  1
  O  O36  1  0.75000000  0.52024500  0.52323600  1
  O  O37  1  0.75000000  0.97975500  0.02323600  1
  O  O38  1  0.25000000  0.47975500  0.47676400  1
  O  O39  1  0.25000000  0.02024500  0.97676400  1
