# generated using pymatgen
data_Rb2Cu3P4(O3F)4
_symmetry_space_group_name_H-M   'P 1'
_cell_length_a   9.61414800
_cell_length_b   7.86967100
_cell_length_c   9.37608890
_cell_angle_alpha   84.60750628
_cell_angle_beta   90.00000000
_cell_angle_gamma   90.00000000
_symmetry_Int_Tables_number   1
_chemical_formula_structural   Rb2Cu3P4(O3F)4
_chemical_formula_sum   'Rb4 Cu6 P8 O24 F8'
_cell_volume   706.25700253
_cell_formula_units_Z   2
loop_
 _symmetry_equiv_pos_site_id
 _symmetry_equiv_pos_as_xyz
  1  'x, y, z'
loop_
 _atom_site_type_symbol
 _atom_site_label
 _atom_site_symmetry_multiplicity
 _atom_site_fract_x
 _atom_site_fract_y
 _atom_site_fract_z
 _atom_site_occupancy
  Rb  Rb0  1  0.53969400  0.38102900  0.18649700  1
  Rb  Rb1  1  0.03969400  0.61897100  0.31350300  1
  Rb  Rb2  1  0.46030600  0.61897100  0.81350300  1
  Rb  Rb3  1  0.96030600  0.38102900  0.68649700  1
  Cu  Cu4  1  0.64561000  0.88835600  0.18411900  1
  Cu  Cu5  1  0.14561000  0.11164400  0.31588100  1
  Cu  Cu6  1  0.35439000  0.11164400  0.81588100  1
  Cu  Cu7  1  0.85439000  0.88835600  0.68411900  1
  Cu  Cu8  1  0.50000000  0.00000000  0.50000000  1
  Cu  Cu9  1  0.00000000  0.00000000  0.00000000  1
  P  P10  1  0.68869500  0.10845100  0.88813300  1
  P  P11  1  0.18869500  0.89154900  0.61186700  1
  P  P12  1  0.31130500  0.89154900  0.11186700  1
  P  P13  1  0.81130500  0.10845100  0.38813300  1
  P  P14  1  0.81452300  0.68771200  0.98196800  1
  P  P15  1  0.31452300  0.31228800  0.51803200  1
  P  P16  1  0.18547700  0.31228800  0.01803200  1
  P  P17  1  0.68547700  0.68771200  0.48196800  1
  O  O18  1  0.65936400  0.09373500  0.04878800  1
  O  O19  1  0.15936400  0.90626500  0.45121200  1
  O  O20  1  0.34063600  0.90626500  0.95121200  1
  O  O21  1  0.84063600  0.09373500  0.54878800  1
  O  O22  1  0.66621700  0.73149600  0.02731800  1
  O  O23  1  0.16621700  0.26850400  0.47268200  1
  O  O24  1  0.33378300  0.26850400  0.97268200  1
  O  O25  1  0.83378300  0.73149600  0.52731800  1
  O  O26  1  0.16857200  0.31786700  0.17946200  1
  O  O27  1  0.66857200  0.68213300  0.32053800  1
  O  O28  1  0.83142800  0.68213300  0.82053800  1
  O  O29  1  0.33142800  0.31786700  0.67946200  1
  O  O30  1  0.66314500  0.04050300  0.35417000  1
  O  O31  1  0.16314500  0.95949700  0.14583000  1
  O  O32  1  0.33685500  0.95949700  0.64583000  1
  O  O33  1  0.83685500  0.04050300  0.85417000  1
  O  O34  1  0.42903800  0.22074800  0.44214600  1
  O  O35  1  0.92903800  0.77925200  0.05785400  1
  O  O36  1  0.57096200  0.77925200  0.55785400  1
  O  O37  1  0.07096200  0.22074800  0.94214600  1
  O  O38  1  0.42003300  0.94393800  0.21376600  1
  O  O39  1  0.92003300  0.05606200  0.28623400  1
  O  O40  1  0.57996700  0.05606200  0.78623400  1
  O  O41  1  0.07996700  0.94393800  0.71376600  1
  F  F42  1  0.70285700  0.31279100  0.85281200  1
  F  F43  1  0.20285700  0.68720900  0.64718800  1
  F  F44  1  0.29714300  0.68720900  0.14718800  1
  F  F45  1  0.79714300  0.31279100  0.35281200  1
  F  F46  1  0.83598300  0.49416200  0.04590700  1
  F  F47  1  0.33598300  0.50583800  0.45409300  1
  F  F48  1  0.16401700  0.50583800  0.95409300  1
  F  F49  1  0.66401700  0.49416200  0.54590700  1
