# generated using pymatgen
data_Cu2H10N4O17
_symmetry_space_group_name_H-M   'P 1'
_cell_length_a   5.03613100
_cell_length_b   11.52232715
_cell_length_c   12.36805799
_cell_angle_alpha   85.47066553
_cell_angle_beta   78.25278217
_cell_angle_gamma   77.37682957
_symmetry_Int_Tables_number   1
_chemical_formula_structural   Cu2H10N4O17
_chemical_formula_sum   'Cu4 H20 N8 O34'
_cell_volume   685.23021900
_cell_formula_units_Z   2
loop_
 _symmetry_equiv_pos_site_id
 _symmetry_equiv_pos_as_xyz
  1  'x, y, z'
loop_
 _atom_site_type_symbol
 _atom_site_label
 _atom_site_symmetry_multiplicity
 _atom_site_fract_x
 _atom_site_fract_y
 _atom_site_fract_z
 _atom_site_occupancy
  Cu  Cu0  1  0.88571700  0.73868900  0.51087200  1
  Cu  Cu1  1  0.86472200  0.23868900  0.01087200  1
  Cu  Cu2  1  0.11428300  0.26131100  0.48912800  1
  Cu  Cu3  1  0.13527800  0.76131100  0.98912800  1
  H  H4  1  0.85199900  0.89030400  0.64963300  1
  H  H5  1  0.60806400  0.39030400  0.14963300  1
  H  H6  1  0.14800100  0.10969600  0.35036700  1
  H  H7  1  0.39193600  0.60969600  0.85036700  1
  H  H8  1  0.54737700  0.86562000  0.66309300  1
  H  H9  1  0.92391000  0.36562000  0.16309300  1
  H  H10  1  0.45262300  0.13438000  0.33690700  1
  H  H11  1  0.07609000  0.63438000  0.83690700  1
  H  H12  1  0.08038000  0.56432100  0.38480600  1
  H  H13  1  0.97049300  0.06432100  0.88480600  1
  H  H14  1  0.91962000  0.43567900  0.61519400  1
  H  H15  1  0.02950700  0.93567900  0.11519400  1
  H  H16  1  0.20156000  0.67762500  0.32956400  1
  H  H17  1  0.79125200  0.17762500  0.82956400  1
  H  H18  1  0.79844000  0.32237500  0.67043600  1
  H  H19  1  0.20874800  0.82237500  0.17043600  1
  H  H20  1  0.49225800  0.20017000  0.70562500  1
  H  H21  1  0.60194700  0.70017000  0.20562500  1
  H  H22  1  0.50774200  0.79983000  0.29437500  1
  H  H23  1  0.39805300  0.29983000  0.79437500  1
  N  N24  1  0.80466600  0.94705000  0.38908200  1
  N  N25  1  0.85920200  0.44705000  0.88908200  1
  N  N26  1  0.19533400  0.05295000  0.61091800  1
  N  N27  1  0.14079800  0.55295000  0.11091800  1
  N  N28  1  0.67783500  0.88989300  0.91356900  1
  N  N29  1  0.51870400  0.38989300  0.41356900  1
  N  N30  1  0.32216500  0.11010700  0.08643100  1
  N  N31  1  0.48129600  0.61010700  0.58643100  1
  O  O32  1  0.84100700  0.04412100  0.34068800  1
  O  O33  1  0.77418400  0.54412100  0.84068800  1
  O  O34  1  0.15899300  0.95587900  0.65931200  1
  O  O35  1  0.22581600  0.45587900  0.15931200  1
  O  O36  1  0.00491000  0.88261300  0.43274900  1
  O  O37  1  0.67972800  0.38261300  0.93274900  1
  O  O38  1  0.99509000  0.11738700  0.56725100  1
  O  O39  1  0.32027200  0.61738700  0.06725100  1
  O  O40  1  0.58338900  0.91112800  0.39726900  1
  O  O41  1  0.10821400  0.41112800  0.89726900  1
  O  O42  1  0.41661100  0.08887200  0.60273100  1
  O  O43  1  0.89178600  0.58887200  0.10273100  1
  O  O44  1  0.52442900  0.97342700  0.87322700  1
  O  O45  1  0.62891700  0.47342700  0.37322700  1
  O  O46  1  0.47557100  0.02657300  0.12677300  1
  O  O47  1  0.37108300  0.52657300  0.62677300  1
  O  O48  1  0.61176300  0.79334700  0.95102500  1
  O  O49  1  0.64386500  0.29334700  0.45102500  1
  O  O50  1  0.38823700  0.20665300  0.04897500  1
  O  O51  1  0.35613500  0.70665300  0.54897500  1
  O  O52  1  0.92973500  0.90246600  0.91770700  1
  O  O53  1  0.25009200  0.40246600  0.41770700  1
  O  O54  1  0.07026500  0.09753400  0.08229300  1
  O  O55  1  0.74990800  0.59753400  0.58229300  1
  O  O56  1  0.74620700  0.82710200  0.65041500  1
  O  O57  1  0.77627600  0.32710200  0.15041500  1
  O  O58  1  0.25379300  0.17289800  0.34958500  1
  O  O59  1  0.22372400  0.67289800  0.84958500  1
  O  O60  1  0.03030100  0.65165000  0.37169500  1
  O  O61  1  0.94635300  0.15165000  0.87169500  1
  O  O62  1  0.96969900  0.34835000  0.62830500  1
  O  O63  1  0.05364700  0.84835000  0.12830500  1
  O  O64  1  0.56144300  0.25000000  0.75000000  1
  O  O65  1  0.43855700  0.75000000  0.25000000  1
