# generated using pymatgen
data_Lu5Co19P12
_symmetry_space_group_name_H-M   'P 1'
_cell_length_a   11.93222974
_cell_length_b   11.93222974
_cell_length_c   3.64045400
_cell_angle_alpha   90.00000000
_cell_angle_beta   90.00000000
_cell_angle_gamma   119.99999854
_symmetry_Int_Tables_number   1
_chemical_formula_structural   Lu5Co19P12
_chemical_formula_sum   'Lu5 Co19 P12'
_cell_volume   448.87911427
_cell_formula_units_Z   1
loop_
 _symmetry_equiv_pos_site_id
 _symmetry_equiv_pos_as_xyz
  1  'x, y, z'
loop_
 _atom_site_type_symbol
 _atom_site_label
 _atom_site_symmetry_multiplicity
 _atom_site_fract_x
 _atom_site_fract_y
 _atom_site_fract_z
 _atom_site_occupancy
  Lu  Lu0  1  0.33333300  0.66666700  0.50000000  1
  Lu  Lu1  1  0.66666700  0.33333300  0.50000000  1
  Lu  Lu2  1  0.18605100  0.00000000  0.00000000  1
  Lu  Lu3  1  0.00000000  0.18605100  0.00000000  1
  Lu  Lu4  1  0.81394900  0.81394900  0.00000000  1
  Co  Co5  1  0.19855600  0.37698200  0.50000000  1
  Co  Co6  1  0.62301800  0.82157400  0.50000000  1
  Co  Co7  1  0.17842600  0.80144400  0.50000000  1
  Co  Co8  1  0.82157400  0.62301800  0.50000000  1
  Co  Co9  1  0.80144400  0.17842600  0.50000000  1
  Co  Co10  1  0.37698200  0.19855600  0.50000000  1
  Co  Co11  1  0.55182900  0.00000000  0.50000000  1
  Co  Co12  1  0.00000000  0.55182900  0.50000000  1
  Co  Co13  1  0.44817100  0.44817100  0.50000000  1
  Co  Co14  1  0.12622200  0.48376100  0.00000000  1
  Co  Co15  1  0.51623900  0.64246100  0.00000000  1
  Co  Co16  1  0.35753900  0.87377800  0.00000000  1
  Co  Co17  1  0.64246100  0.51623900  0.00000000  1
  Co  Co18  1  0.87377800  0.35753900  0.00000000  1
  Co  Co19  1  0.48376100  0.12622200  0.00000000  1
  Co  Co20  1  0.71529400  0.00000000  0.00000000  1
  Co  Co21  1  0.00000000  0.71529400  0.00000000  1
  Co  Co22  1  0.28470600  0.28470600  0.00000000  1
  Co  Co23  1  0.00000000  0.00000000  0.50000000  1
  P  P24  1  0.36611300  0.00000000  0.50000000  1
  P  P25  1  0.00000000  0.36611300  0.50000000  1
  P  P26  1  0.63388700  0.63388700  0.50000000  1
  P  P27  1  0.31529500  0.48152400  0.00000000  1
  P  P28  1  0.51847600  0.83377100  0.00000000  1
  P  P29  1  0.16622900  0.68470500  0.00000000  1
  P  P30  1  0.83377100  0.51847600  0.00000000  1
  P  P31  1  0.68470500  0.16622900  0.00000000  1
  P  P32  1  0.48152400  0.31529500  0.00000000  1
  P  P33  1  0.82092600  0.00000000  0.50000000  1
  P  P34  1  0.00000000  0.82092600  0.50000000  1
  P  P35  1  0.17907400  0.17907400  0.50000000  1
