# generated using pymatgen
data_Li6Yb(BO3)3
_symmetry_space_group_name_H-M   'P 1'
_cell_length_a   16.62595400
_cell_length_b   6.67655900
_cell_length_c   7.28102848
_cell_angle_alpha   75.32364710
_cell_angle_beta   90.00000000
_cell_angle_gamma   90.00000000
_symmetry_Int_Tables_number   1
_chemical_formula_structural   Li6Yb(BO3)3
_chemical_formula_sum   'Li24 Yb4 B12 O36'
_cell_volume   781.85404663
_cell_formula_units_Z   4
loop_
 _symmetry_equiv_pos_site_id
 _symmetry_equiv_pos_as_xyz
  1  'x, y, z'
loop_
 _atom_site_type_symbol
 _atom_site_label
 _atom_site_symmetry_multiplicity
 _atom_site_fract_x
 _atom_site_fract_y
 _atom_site_fract_z
 _atom_site_occupancy
  Li  Li0  1  0.02939500  0.33005900  0.54563800  1
  Li  Li1  1  0.52939500  0.16994100  0.45436200  1
  Li  Li2  1  0.97060500  0.66994100  0.45436200  1
  Li  Li3  1  0.47060500  0.83005900  0.54563800  1
  Li  Li4  1  0.20736300  0.04475500  0.43181000  1
  Li  Li5  1  0.70736300  0.45524500  0.56819000  1
  Li  Li6  1  0.79263700  0.95524500  0.56819000  1
  Li  Li7  1  0.29263700  0.54475500  0.43181000  1
  Li  Li8  1  0.94446600  0.39903600  0.13920000  1
  Li  Li9  1  0.44446600  0.10096400  0.86080000  1
  Li  Li10  1  0.05553400  0.60096400  0.86080000  1
  Li  Li11  1  0.55553400  0.89903600  0.13920000  1
  Li  Li12  1  0.20905900  0.63884100  0.72269900  1
  Li  Li13  1  0.70905900  0.86115900  0.27730100  1
  Li  Li14  1  0.79094100  0.36115900  0.27730100  1
  Li  Li15  1  0.29094100  0.13884100  0.72269900  1
  Li  Li16  1  0.04598900  0.05964400  0.29631900  1
  Li  Li17  1  0.54598900  0.44035600  0.70368100  1
  Li  Li18  1  0.95401100  0.94035600  0.70368100  1
  Li  Li19  1  0.45401100  0.55964400  0.29631900  1
  Li  Li20  1  0.99766600  0.82066800  0.07699100  1
  Li  Li21  1  0.49766600  0.67933200  0.92300900  1
  Li  Li22  1  0.00233400  0.17933200  0.92300900  1
  Li  Li23  1  0.50233400  0.32066800  0.07699100  1
  Yb  Yb24  1  0.30751700  0.34381000  0.08150400  1
  Yb  Yb25  1  0.80751700  0.15619000  0.91849600  1
  Yb  Yb26  1  0.69248300  0.65619000  0.91849600  1
  Yb  Yb27  1  0.19248300  0.84381000  0.08150400  1
  B  B28  1  0.88136000  0.00149300  0.28748000  1
  B  B29  1  0.38136000  0.49850700  0.71252000  1
  B  B30  1  0.11864000  0.99850700  0.71252000  1
  B  B31  1  0.61864000  0.50149300  0.28748000  1
  B  B32  1  0.13701000  0.34152600  0.07896400  1
  B  B33  1  0.63701000  0.15847400  0.92103600  1
  B  B34  1  0.86299000  0.65847400  0.92103600  1
  B  B35  1  0.36299000  0.84152600  0.07896400  1
  B  B36  1  0.38496900  0.18769700  0.44065500  1
  B  B37  1  0.88496900  0.31230300  0.55934500  1
  B  B38  1  0.61503100  0.81230300  0.55934500  1
  B  B39  1  0.11503100  0.68769700  0.44065500  1
  O  O40  1  0.93087600  0.05177400  0.12954000  1
  O  O41  1  0.43087600  0.44822600  0.87046000  1
  O  O42  1  0.06912400  0.94822600  0.87046000  1
  O  O43  1  0.56912400  0.55177400  0.12954000  1
  O  O44  1  0.80049100  0.05024500  0.26275300  1
  O  O45  1  0.30049100  0.44975500  0.73724700  1
  O  O46  1  0.19950900  0.94975500  0.73724700  1
  O  O47  1  0.69950900  0.55024500  0.26275300  1
  O  O48  1  0.91118700  0.91014300  0.46478400  1
  O  O49  1  0.41118700  0.58985700  0.53521600  1
  O  O50  1  0.08881300  0.08985700  0.53521600  1
  O  O51  1  0.58881300  0.41014300  0.46478400  1
  O  O52  1  0.05416000  0.33110000  0.07988800  1
  O  O53  1  0.55416000  0.16890000  0.92011200  1
  O  O54  1  0.94584000  0.66890000  0.92011200  1
  O  O55  1  0.44584000  0.83110000  0.07988800  1
  O  O56  1  0.32597500  0.02764900  0.99618300  1
  O  O57  1  0.82597500  0.47235100  0.00381700  1
  O  O58  1  0.67402500  0.97235100  0.00381700  1
  O  O59  1  0.17402500  0.52764900  0.99618300  1
  O  O60  1  0.18139000  0.16578000  0.15518600  1
  O  O61  1  0.68139000  0.33422000  0.84481400  1
  O  O62  1  0.81861000  0.83422000  0.84481400  1
  O  O63  1  0.31861000  0.66578000  0.15518600  1
  O  O64  1  0.42240100  0.07635000  0.60490500  1
  O  O65  1  0.92240100  0.42365000  0.39509500  1
  O  O66  1  0.57759900  0.92365000  0.39509500  1
  O  O67  1  0.07759900  0.57635000  0.60490500  1
  O  O68  1  0.30299200  0.22448400  0.42891500  1
  O  O69  1  0.80299200  0.27551600  0.57108500  1
  O  O70  1  0.69700800  0.77551600  0.57108500  1
  O  O71  1  0.19700800  0.72448400  0.42891500  1
  O  O72  1  0.43160700  0.26847800  0.28140700  1
  O  O73  1  0.93160700  0.23152200  0.71859300  1
  O  O74  1  0.56839300  0.73152200  0.71859300  1
  O  O75  1  0.06839300  0.76847800  0.28140700  1
