# generated using pymatgen
data_Ho2Ge2Ru
_symmetry_space_group_name_H-M   'P 1'
_cell_length_a   5.78156093
_cell_length_b   5.78156093
_cell_length_c   10.17122963
_cell_angle_alpha   63.93517329
_cell_angle_beta   63.93517329
_cell_angle_gamma   43.58363245
_symmetry_Int_Tables_number   1
_chemical_formula_structural   Ho2Ge2Ru
_chemical_formula_sum   'Ho4 Ge4 Ru2'
_cell_volume   206.48843831
_cell_formula_units_Z   2
loop_
 _symmetry_equiv_pos_site_id
 _symmetry_equiv_pos_as_xyz
  1  'x, y, z'
loop_
 _atom_site_type_symbol
 _atom_site_label
 _atom_site_symmetry_multiplicity
 _atom_site_fract_x
 _atom_site_fract_y
 _atom_site_fract_z
 _atom_site_occupancy
  Ho  Ho0  1  0.99899000  0.99899000  0.32784300  1
  Ho  Ho1  1  0.00101000  0.00101000  0.67215700  1
  Ho  Ho2  1  0.81617900  0.81617900  0.11000100  1
  Ho  Ho3  1  0.18382100  0.18382100  0.88999900  1
  Ge  Ge4  1  0.64502200  0.64502200  0.43257600  1
  Ge  Ge5  1  0.35497800  0.35497800  0.56742400  1
  Ge  Ge6  1  0.51189700  0.51189700  0.12459400  1
  Ge  Ge7  1  0.48810300  0.48810300  0.87540600  1
  Ru  Ru8  1  0.72857600  0.72857600  0.62718000  1
  Ru  Ru9  1  0.27142400  0.27142400  0.37282000  1
