# generated using pymatgen
data_Tl4Si5O12
_symmetry_space_group_name_H-M   'P 1'
_cell_length_a   7.53613865
_cell_length_b   7.53613865
_cell_length_c   13.32759550
_cell_angle_alpha   87.16538404
_cell_angle_beta   87.16538404
_cell_angle_gamma   103.07285370
_symmetry_Int_Tables_number   1
_chemical_formula_structural   Tl4Si5O12
_chemical_formula_sum   'Tl8 Si10 O24'
_cell_volume   734.96844872
_cell_formula_units_Z   2
loop_
 _symmetry_equiv_pos_site_id
 _symmetry_equiv_pos_as_xyz
  1  'x, y, z'
loop_
 _atom_site_type_symbol
 _atom_site_label
 _atom_site_symmetry_multiplicity
 _atom_site_fract_x
 _atom_site_fract_y
 _atom_site_fract_z
 _atom_site_occupancy
  Tl  Tl0  1  0.07539400  0.13344400  0.62278700  1
  Tl  Tl1  1  0.86655600  0.92460600  0.87721300  1
  Tl  Tl2  1  0.92460600  0.86655600  0.37721300  1
  Tl  Tl3  1  0.13344400  0.07539400  0.12278700  1
  Tl  Tl4  1  0.03389700  0.62920000  0.63210500  1
  Tl  Tl5  1  0.37080000  0.96610300  0.86789500  1
  Tl  Tl6  1  0.96610300  0.37080000  0.36789500  1
  Tl  Tl7  1  0.62920000  0.03389700  0.13210500  1
  Si  Si8  1  0.63763100  0.24603200  0.58214100  1
  Si  Si9  1  0.75396800  0.36236900  0.91785900  1
  Si  Si10  1  0.36236900  0.75396800  0.41785900  1
  Si  Si11  1  0.24603200  0.63763100  0.08214100  1
  Si  Si12  1  0.38187400  0.16694400  0.39797900  1
  Si  Si13  1  0.83305600  0.61812600  0.10202100  1
  Si  Si14  1  0.61812600  0.83305600  0.60202100  1
  Si  Si15  1  0.16694400  0.38187400  0.89797900  1
  Si  Si16  1  0.51051600  0.48948400  0.75000000  1
  Si  Si17  1  0.48948400  0.51051600  0.25000000  1
  O  O18  1  0.53435800  0.35938600  0.65925300  1
  O  O19  1  0.64061400  0.46564200  0.84074700  1
  O  O20  1  0.46564200  0.64061400  0.34074700  1
  O  O21  1  0.35938600  0.53435800  0.15925300  1
  O  O22  1  0.56436900  0.70267900  0.70798900  1
  O  O23  1  0.29732100  0.43563100  0.79201100  1
  O  O24  1  0.43563100  0.29732100  0.29201100  1
  O  O25  1  0.70267900  0.56436900  0.20798900  1
  O  O26  1  0.85360200  0.33111900  0.56386200  1
  O  O27  1  0.66888100  0.14639800  0.93613800  1
  O  O28  1  0.14639800  0.66888100  0.43613800  1
  O  O29  1  0.33111900  0.85360200  0.06386200  1
  O  O30  1  0.53834400  0.24786900  0.47535400  1
  O  O31  1  0.75213100  0.46165600  0.02464600  1
  O  O32  1  0.46165600  0.75213100  0.52464600  1
  O  O33  1  0.24786900  0.53834400  0.97535400  1
  O  O34  1  0.59055200  0.03498300  0.63252900  1
  O  O35  1  0.96501700  0.40944800  0.86747100  1
  O  O36  1  0.40944800  0.96501700  0.36747100  1
  O  O37  1  0.03498300  0.59055200  0.13252900  1
  O  O38  1  0.17646400  0.15819500  0.44059800  1
  O  O39  1  0.84180500  0.82353600  0.05940200  1
  O  O40  1  0.82353600  0.84180500  0.55940200  1
  O  O41  1  0.15819500  0.17646400  0.94059800  1
