# generated using pymatgen
data_Er6MnTe2
_symmetry_space_group_name_H-M   'P 1'
_cell_length_a   8.19958619
_cell_length_b   8.19958619
_cell_length_c   4.06231200
_cell_angle_alpha   90.00000000
_cell_angle_beta   90.00000000
_cell_angle_gamma   120.00000156
_symmetry_Int_Tables_number   1
_chemical_formula_structural   Er6MnTe2
_chemical_formula_sum   'Er6 Mn1 Te2'
_cell_volume   236.53083862
_cell_formula_units_Z   1
loop_
 _symmetry_equiv_pos_site_id
 _symmetry_equiv_pos_as_xyz
  1  'x, y, z'
loop_
 _atom_site_type_symbol
 _atom_site_label
 _atom_site_symmetry_multiplicity
 _atom_site_fract_x
 _atom_site_fract_y
 _atom_site_fract_z
 _atom_site_occupancy
  Er  Er0  1  0.39239000  0.00000000  0.50000000  1
  Er  Er1  1  0.00000000  0.39239000  0.50000000  1
  Er  Er2  1  0.60761000  0.60761000  0.50000000  1
  Er  Er3  1  0.76333300  0.00000000  0.00000000  1
  Er  Er4  1  0.00000000  0.76333300  0.00000000  1
  Er  Er5  1  0.23666700  0.23666700  0.00000000  1
  Mn  Mn6  1  0.00000000  0.00000000  0.50000000  1
  Te  Te7  1  0.33333300  0.66666700  0.00000000  1
  Te  Te8  1  0.66666700  0.33333300  0.00000000  1
