# generated using pymatgen
data_Tb7MnI12
_symmetry_space_group_name_H-M   'P 1'
_cell_length_a   9.82283317
_cell_length_b   9.82283317
_cell_length_c   9.82283304
_cell_angle_alpha   107.11135575
_cell_angle_beta   107.11135575
_cell_angle_gamma   107.11135658
_symmetry_Int_Tables_number   1
_chemical_formula_structural   Tb7MnI12
_chemical_formula_sum   'Tb7 Mn1 I12'
_cell_volume   786.91524967
_cell_formula_units_Z   1
loop_
 _symmetry_equiv_pos_site_id
 _symmetry_equiv_pos_as_xyz
  1  'x, y, z'
loop_
 _atom_site_type_symbol
 _atom_site_label
 _atom_site_symmetry_multiplicity
 _atom_site_fract_x
 _atom_site_fract_y
 _atom_site_fract_z
 _atom_site_occupancy
  Tb  Tb0  1  0.90768700  0.71025800  0.97724400  1
  Tb  Tb1  1  0.97724400  0.90768700  0.71025800  1
  Tb  Tb2  1  0.71025800  0.97724400  0.90768700  1
  Tb  Tb3  1  0.09231300  0.28974200  0.02275600  1
  Tb  Tb4  1  0.02275600  0.09231300  0.28974200  1
  Tb  Tb5  1  0.28974200  0.02275600  0.09231300  1
  Tb  Tb6  1  0.50000000  0.50000000  0.50000000  1
  Mn  Mn7  1  0.00000000  0.00000000  0.00000000  1
  I  I8  1  0.77589600  0.31642800  0.92645600  1
  I  I9  1  0.92645600  0.77589600  0.31642800  1
  I  I10  1  0.31642800  0.92645600  0.77589600  1
  I  I11  1  0.22410400  0.68357200  0.07354400  1
  I  I12  1  0.07354400  0.22410400  0.68357200  1
  I  I13  1  0.68357200  0.07354400  0.22410400  1
  I  I14  1  0.53851300  0.61503700  0.83939500  1
  I  I15  1  0.83939500  0.53851300  0.61503700  1
  I  I16  1  0.61503700  0.83939500  0.53851300  1
  I  I17  1  0.46148700  0.38496300  0.16060500  1
  I  I18  1  0.16060500  0.46148700  0.38496300  1
  I  I19  1  0.38496300  0.16060500  0.46148700  1
