# generated using pymatgen
data_Ti5CoSb2
_symmetry_space_group_name_H-M   'P 1'
_cell_length_a   5.04471000
_cell_length_b   7.84447279
_cell_length_c   7.84447279
_cell_angle_alpha   84.06549726
_cell_angle_beta   71.24358348
_cell_angle_gamma   71.24358348
_symmetry_Int_Tables_number   1
_chemical_formula_structural   Ti5CoSb2
_chemical_formula_sum   'Ti10 Co2 Sb4'
_cell_volume   278.33419950
_cell_formula_units_Z   2
loop_
 _symmetry_equiv_pos_site_id
 _symmetry_equiv_pos_as_xyz
  1  'x, y, z'
loop_
 _atom_site_type_symbol
 _atom_site_label
 _atom_site_symmetry_multiplicity
 _atom_site_fract_x
 _atom_site_fract_y
 _atom_site_fract_z
 _atom_site_occupancy
  Ti  Ti0  1  0.25000000  0.50000000  0.50000000  1
  Ti  Ti1  1  0.75000000  0.50000000  0.50000000  1
  Ti  Ti2  1  0.07040700  0.13004100  0.72914500  1
  Ti  Ti3  1  0.92959300  0.86995900  0.27085500  1
  Ti  Ti4  1  0.79955200  0.27085500  0.13004100  1
  Ti  Ti5  1  0.42959300  0.27085500  0.86995900  1
  Ti  Ti6  1  0.20044800  0.72914500  0.86995900  1
  Ti  Ti7  1  0.57040700  0.72914500  0.13004100  1
  Ti  Ti8  1  0.70044800  0.86995900  0.72914500  1
  Ti  Ti9  1  0.29955200  0.13004100  0.27085500  1
  Co  Co10  1  0.25000000  0.00000000  0.00000000  1
  Co  Co11  1  0.75000000  0.00000000  0.00000000  1
  Sb  Sb12  1  0.16459800  0.50000000  0.17080400  1
  Sb  Sb13  1  0.83540200  0.50000000  0.82919600  1
  Sb  Sb14  1  0.33540200  0.82919600  0.50000000  1
  Sb  Sb15  1  0.66459800  0.17080400  0.50000000  1
