# generated using pymatgen
data_SrTi3Al8O19
_symmetry_space_group_name_H-M   'P 1'
_cell_length_a   12.76085970
_cell_length_b   12.76085970
_cell_length_c   9.86034616
_cell_angle_alpha   82.34930268
_cell_angle_beta   82.34930268
_cell_angle_gamma   51.95482767
_symmetry_Int_Tables_number   1
_chemical_formula_structural   SrTi3Al8O19
_chemical_formula_sum   'Sr4 Ti12 Al32 O76'
_cell_volume   1250.54945998
_cell_formula_units_Z   4
loop_
 _symmetry_equiv_pos_site_id
 _symmetry_equiv_pos_as_xyz
  1  'x, y, z'
loop_
 _atom_site_type_symbol
 _atom_site_label
 _atom_site_symmetry_multiplicity
 _atom_site_fract_x
 _atom_site_fract_y
 _atom_site_fract_z
 _atom_site_occupancy
  Sr  Sr0  1  0.42062700  0.68680800  0.81286800  1
  Sr  Sr1  1  0.31319200  0.57937300  0.18713200  1
  Sr  Sr2  1  0.57652600  0.31390500  0.68865200  1
  Sr  Sr3  1  0.68609500  0.42347400  0.31134800  1
  Ti  Ti4  1  0.06819800  0.30984300  0.62024900  1
  Ti  Ti5  1  0.69015700  0.93180200  0.37975100  1
  Ti  Ti6  1  0.93451800  0.69046900  0.88261400  1
  Ti  Ti7  1  0.30953100  0.06548200  0.11738600  1
  Ti  Ti8  1  0.27974300  0.51734800  0.88007500  1
  Ti  Ti9  1  0.48265200  0.72025700  0.11992500  1
  Ti  Ti10  1  0.72407600  0.47760300  0.61333800  1
  Ti  Ti11  1  0.52239700  0.27592400  0.38666200  1
  Ti  Ti12  1  0.39237000  0.60763000  0.50000000  1
  Ti  Ti13  1  0.60795700  0.39204300  0.00000000  1
  Ti  Ti14  1  0.70001100  0.68865000  0.83806800  1
  Ti  Ti15  1  0.31135000  0.29998900  0.16193200  1
  Al  Al16  1  0.23423000  0.97119500  0.63703700  1
  Al  Al17  1  0.02880500  0.76577000  0.36296300  1
  Al  Al18  1  0.76563600  0.02866900  0.86301500  1
  Al  Al19  1  0.97133100  0.23436400  0.13698500  1
  Al  Al20  1  0.15541800  0.63069200  0.61512700  1
  Al  Al21  1  0.36930800  0.84458200  0.38487300  1
  Al  Al22  1  0.84687400  0.36312100  0.88275300  1
  Al  Al23  1  0.63687900  0.15312600  0.11724700  1
  Al  Al24  1  0.88456500  0.90993200  0.61632900  1
  Al  Al25  1  0.09006800  0.11543500  0.38367100  1
  Al  Al26  1  0.11538700  0.08969700  0.88339800  1
  Al  Al27  1  0.91030300  0.88461300  0.11660200  1
  Al  Al28  1  0.43850600  0.17446200  0.90188500  1
  Al  Al29  1  0.82553800  0.56149400  0.09811500  1
  Al  Al30  1  0.55921100  0.82820300  0.59013800  1
  Al  Al31  1  0.17179700  0.44078900  0.40986200  1
  Al  Al32  1  0.09608900  0.84834500  0.83488300  1
  Al  Al33  1  0.15165500  0.90391100  0.16511700  1
  Al  Al34  1  0.90459200  0.15022600  0.66516800  1
  Al  Al35  1  0.84977400  0.09540800  0.33483200  1
  Al  Al36  1  0.12224900  0.87775100  0.50000000  1
  Al  Al37  1  0.87815100  0.12184900  0.00000000  1
  Al  Al38  1  0.34992100  0.10392700  0.43445700  1
  Al  Al39  1  0.89607300  0.65007900  0.56554300  1
  Al  Al40  1  0.64842900  0.89674200  0.07040600  1
  Al  Al41  1  0.10325800  0.35157100  0.92959400  1
  Al  Al42  1  0.56669500  0.04477200  0.65642300  1
  Al  Al43  1  0.95522800  0.43330500  0.34357700  1
  Al  Al44  1  0.43096100  0.95961900  0.84062000  1
  Al  Al45  1  0.04038100  0.56903900  0.15938000  1
  Al  Al46  1  0.29959800  0.30866000  0.65987000  1
  Al  Al47  1  0.69134000  0.70040200  0.34013000  1
  O  O48  1  0.13600800  0.35466100  0.74951700  1
  O  O49  1  0.64533900  0.86399200  0.25048300  1
  O  O50  1  0.86666000  0.64425900  0.74697000  1
  O  O51  1  0.35574100  0.13334000  0.25303000  1
  O  O52  1  0.70786700  0.18802800  0.94634400  1
  O  O53  1  0.81197200  0.29213300  0.05365600  1
  O  O54  1  0.29258100  0.81168600  0.55387000  1
  O  O55  1  0.18831400  0.70741900  0.44613000  1
  O  O56  1  0.51836200  0.77694700  0.94207800  1
  O  O57  1  0.22305300  0.48163800  0.05792200  1
  O  O58  1  0.47846700  0.22601700  0.55889900  1
  O  O59  1  0.77398300  0.52153300  0.44110100  1
  O  O60  1  0.39760300  0.12533800  0.75533100  1
  O  O61  1  0.87466200  0.60239700  0.24466900  1
  O  O62  1  0.60069300  0.87790700  0.74190300  1
  O  O63  1  0.12209300  0.39930700  0.25809700  1
  O  O64  1  0.21663800  0.69155700  0.91395400  1
  O  O65  1  0.30844300  0.78336200  0.08604600  1
  O  O66  1  0.78424700  0.30685600  0.58471600  1
  O  O67  1  0.69314400  0.21575300  0.41528400  1
  O  O68  1  0.14637000  0.13964600  0.70252200  1
  O  O69  1  0.86035400  0.85363000  0.29747800  1
  O  O70  1  0.85372700  0.85990500  0.79760700  1
  O  O71  1  0.14009500  0.14627300  0.20239300  1
  O  O72  1  0.06797600  0.82743700  0.66826500  1
  O  O73  1  0.17256300  0.93202400  0.33173500  1
  O  O74  1  0.93135800  0.17337500  0.83118600  1
  O  O75  1  0.82662500  0.06864200  0.16881400  1
  O  O76  1  0.25932700  0.24613600  0.01022900  1
  O  O77  1  0.75386400  0.74067300  0.98977100  1
  O  O78  1  0.73967500  0.75176600  0.48663000  1
  O  O79  1  0.24823400  0.26032500  0.51337000  1
  O  O80  1  0.94363600  0.95166800  0.94274100  1
  O  O81  1  0.04833200  0.05636400  0.05725900  1
  O  O82  1  0.05651800  0.04823900  0.55713700  1
  O  O83  1  0.95176100  0.94348200  0.44286300  1
  O  O84  1  0.68038800  0.42860400  0.83054300  1
  O  O85  1  0.57139600  0.31961200  0.16945700  1
  O  O86  1  0.31978200  0.57174200  0.67012000  1
  O  O87  1  0.42825800  0.68021800  0.32988000  1
  O  O88  1  0.39679400  0.90120800  0.69729400  1
  O  O89  1  0.09879200  0.60320600  0.30270600  1
  O  O90  1  0.60381000  0.09879200  0.80179100  1
  O  O91  1  0.90120800  0.39619000  0.19820900  1
  O  O92  1  0.27378800  0.03313900  0.94799500  1
  O  O93  1  0.96686100  0.72621200  0.05200500  1
  O  O94  1  0.72610000  0.96625000  0.55150700  1
  O  O95  1  0.03375000  0.27390000  0.44849300  1
  O  O96  1  0.64493400  0.65549000  0.69280200  1
  O  O97  1  0.34451000  0.35506600  0.30719800  1
  O  O98  1  0.35305600  0.34535100  0.80527800  1
  O  O99  1  0.65464900  0.64694400  0.19472200  1
  O  O100  1  0.17247000  0.93044700  0.80544400  1
  O  O101  1  0.06955300  0.82753000  0.19455600  1
  O  O102  1  0.82722900  0.06965900  0.69467500  1
  O  O103  1  0.93034100  0.17277100  0.30532500  1
  O  O104  1  0.45463700  0.45721400  0.91490300  1
  O  O105  1  0.54278600  0.54536300  0.08509700  1
  O  O106  1  0.54559700  0.54229000  0.58543400  1
  O  O107  1  0.45771000  0.45440300  0.41456600  1
  O  O108  1  0.00110400  0.49019800  0.49364500  1
  O  O109  1  0.50980200  0.99889600  0.50635500  1
  O  O110  1  0.99710200  0.51027200  0.00608100  1
  O  O111  1  0.48972800  0.00289800  0.99391900  1
  O  O112  1  0.21723900  0.47122300  0.55757900  1
  O  O113  1  0.52877700  0.78276100  0.44242100  1
  O  O114  1  0.78349600  0.52632700  0.94513200  1
  O  O115  1  0.47367300  0.21650400  0.05486800  1
  O  O116  1  0.10478400  0.60392100  0.79587400  1
  O  O117  1  0.39607900  0.89521600  0.20412600  1
  O  O118  1  0.89430800  0.39735300  0.70413300  1
  O  O119  1  0.60264700  0.10569200  0.29586700  1
  O  O120  1  0.02170300  0.27153100  0.95269200  1
  O  O121  1  0.72846900  0.97829700  0.04730800  1
  O  O122  1  0.97780400  0.72905000  0.54618700  1
  O  O123  1  0.27095000  0.02219600  0.45381300  1
