# generated using pymatgen
data_Lu4MgGe4
_symmetry_space_group_name_H-M   'P 1'
_cell_length_a   7.10767100
_cell_length_b   7.64138400
_cell_length_c   14.30192300
_cell_angle_alpha   90.00000000
_cell_angle_beta   90.00000000
_cell_angle_gamma   90.00000000
_symmetry_Int_Tables_number   1
_chemical_formula_structural   Lu4MgGe4
_chemical_formula_sum   'Lu16 Mg4 Ge16'
_cell_volume   776.77238426
_cell_formula_units_Z   4
loop_
 _symmetry_equiv_pos_site_id
 _symmetry_equiv_pos_as_xyz
  1  'x, y, z'
loop_
 _atom_site_type_symbol
 _atom_site_label
 _atom_site_symmetry_multiplicity
 _atom_site_fract_x
 _atom_site_fract_y
 _atom_site_fract_z
 _atom_site_occupancy
  Lu  Lu0  1  0.33295300  0.17635200  0.62630800  1
  Lu  Lu1  1  0.66704700  0.82364800  0.37369200  1
  Lu  Lu2  1  0.16704700  0.67635200  0.37369200  1
  Lu  Lu3  1  0.66704700  0.82364800  0.12630800  1
  Lu  Lu4  1  0.83295300  0.32364800  0.62630800  1
  Lu  Lu5  1  0.33295300  0.17635200  0.87369200  1
  Lu  Lu6  1  0.83295300  0.32364800  0.87369200  1
  Lu  Lu7  1  0.16704700  0.67635200  0.12630800  1
  Lu  Lu8  1  0.00677800  0.18247800  0.09340000  1
  Lu  Lu9  1  0.99322200  0.81752200  0.90660000  1
  Lu  Lu10  1  0.49322200  0.68247800  0.90660000  1
  Lu  Lu11  1  0.99322200  0.81752200  0.59340000  1
  Lu  Lu12  1  0.50677800  0.31752200  0.09340000  1
  Lu  Lu13  1  0.00677800  0.18247800  0.40660000  1
  Lu  Lu14  1  0.50677800  0.31752200  0.40660000  1
  Lu  Lu15  1  0.49322200  0.68247800  0.59340000  1
  Mg  Mg16  1  0.16326600  0.51531200  0.75000000  1
  Mg  Mg17  1  0.83673400  0.48468800  0.25000000  1
  Mg  Mg18  1  0.33673400  0.01531200  0.25000000  1
  Mg  Mg19  1  0.66326600  0.98468800  0.75000000  1
  Ge  Ge20  1  0.02737200  0.09252200  0.75000000  1
  Ge  Ge21  1  0.97262800  0.90747800  0.25000000  1
  Ge  Ge22  1  0.47262800  0.59252200  0.25000000  1
  Ge  Ge23  1  0.52737200  0.40747800  0.75000000  1
  Ge  Ge24  1  0.17560300  0.46520900  0.53600400  1
  Ge  Ge25  1  0.82439700  0.53479100  0.46399600  1
  Ge  Ge26  1  0.32439700  0.96520900  0.46399600  1
  Ge  Ge27  1  0.82439700  0.53479100  0.03600400  1
  Ge  Ge28  1  0.67560300  0.03479100  0.53600400  1
  Ge  Ge29  1  0.17560300  0.46520900  0.96399600  1
  Ge  Ge30  1  0.67560300  0.03479100  0.96399600  1
  Ge  Ge31  1  0.32439700  0.96520900  0.03600400  1
  Ge  Ge32  1  0.29302200  0.85961600  0.75000000  1
  Ge  Ge33  1  0.70697800  0.14038400  0.25000000  1
  Ge  Ge34  1  0.20697800  0.35961600  0.25000000  1
  Ge  Ge35  1  0.79302200  0.64038400  0.75000000  1
