# generated using pymatgen
data_BaAl4(SbO6)2
_symmetry_space_group_name_H-M   'P 1'
_cell_length_a   8.34902820
_cell_length_b   8.34902820
_cell_length_c   8.34902820
_cell_angle_alpha   106.44233039
_cell_angle_beta   106.44233039
_cell_angle_gamma   115.71530386
_symmetry_Int_Tables_number   1
_chemical_formula_structural   BaAl4(SbO6)2
_chemical_formula_sum   'Ba2 Al8 Sb4 O24'
_cell_volume   443.97472680
_cell_formula_units_Z   2
loop_
 _symmetry_equiv_pos_site_id
 _symmetry_equiv_pos_as_xyz
  1  'x, y, z'
loop_
 _atom_site_type_symbol
 _atom_site_label
 _atom_site_symmetry_multiplicity
 _atom_site_fract_x
 _atom_site_fract_y
 _atom_site_fract_z
 _atom_site_occupancy
  Ba  Ba0  1  0.21567700  0.21567700  0.00000000  1
  Ba  Ba1  1  0.78432300  0.78432300  0.00000000  1
  Al  Al2  1  0.98415700  0.49938700  0.81494500  1
  Al  Al3  1  0.68444300  0.16921300  0.18505500  1
  Al  Al4  1  0.16921300  0.98415700  0.48477000  1
  Al  Al5  1  0.49938700  0.68444300  0.51523000  1
  Al  Al6  1  0.01584300  0.50061300  0.18505500  1
  Al  Al7  1  0.31555700  0.83078700  0.81494500  1
  Al  Al8  1  0.83078700  0.01584300  0.51523000  1
  Al  Al9  1  0.50061300  0.31555700  0.48477000  1
  Sb  Sb10  1  0.64941900  0.16456000  0.81398000  1
  Sb  Sb11  1  0.35058100  0.83544000  0.18602000  1
  Sb  Sb12  1  0.83544000  0.64941900  0.48485900  1
  Sb  Sb13  1  0.16456000  0.35058100  0.51514100  1
  O  O14  1  0.85031100  0.20111900  0.05143000  1
  O  O15  1  0.14968900  0.79888100  0.94857000  1
  O  O16  1  0.79888100  0.85031100  0.64919100  1
  O  O17  1  0.20111900  0.14968900  0.35080900  1
  O  O18  1  0.17412100  0.53215700  0.04667300  1
  O  O19  1  0.48548500  0.12744900  0.95332700  1
  O  O20  1  0.12744900  0.17412100  0.64196400  1
  O  O21  1  0.53215700  0.48548500  0.35803600  1
  O  O22  1  0.82587900  0.46784300  0.95332700  1
  O  O23  1  0.51451500  0.87255100  0.04667300  1
  O  O24  1  0.87255100  0.82587900  0.35803600  1
  O  O25  1  0.46784300  0.51451500  0.64196400  1
  O  O26  1  0.45202200  0.16141900  0.61344100  1
  O  O27  1  0.54797800  0.83858100  0.38655900  1
  O  O28  1  0.83858100  0.45202200  0.29060300  1
  O  O29  1  0.16141900  0.54797800  0.70939700  1
  O  O30  1  0.78793300  0.49397200  0.62953700  1
  O  O31  1  0.86443500  0.15839600  0.37046300  1
  O  O32  1  0.15839600  0.78793300  0.29396100  1
  O  O33  1  0.49397200  0.86443500  0.70603900  1
  O  O34  1  0.21206700  0.50602800  0.37046300  1
  O  O35  1  0.13556500  0.84160400  0.62953700  1
  O  O36  1  0.84160400  0.21206700  0.70603900  1
  O  O37  1  0.50602800  0.13556500  0.29396100  1
