# generated using pymatgen
data_La2Bi
_symmetry_space_group_name_H-M   'P 1'
_cell_length_a   9.84711290
_cell_length_b   9.84711290
_cell_length_c   9.84711290
_cell_angle_alpha   152.19263511
_cell_angle_beta   152.19263511
_cell_angle_gamma   39.73205774
_symmetry_Int_Tables_number   1
_chemical_formula_structural   La2Bi
_chemical_formula_sum   'La4 Bi2'
_cell_volume   207.40239795
_cell_formula_units_Z   2
loop_
 _symmetry_equiv_pos_site_id
 _symmetry_equiv_pos_as_xyz
  1  'x, y, z'
loop_
 _atom_site_type_symbol
 _atom_site_label
 _atom_site_symmetry_multiplicity
 _atom_site_fract_x
 _atom_site_fract_y
 _atom_site_fract_z
 _atom_site_occupancy
  La  La0  1  0.00000000  0.50000000  0.50000000  1
  La  La1  1  0.50000000  0.00000000  0.50000000  1
  La  La2  1  0.67806400  0.67806400  0.00000000  1
  La  La3  1  0.32193600  0.32193600  0.00000000  1
  Bi  Bi4  1  0.86156000  0.86156000  0.00000000  1
  Bi  Bi5  1  0.13844000  0.13844000  0.00000000  1
