# generated using pymatgen
data_KNd9(Si3O13)2
_symmetry_space_group_name_H-M   'P 1'
_cell_length_a   9.65317854
_cell_length_b   9.65317854
_cell_length_c   7.16388100
_cell_angle_alpha   90.00000000
_cell_angle_beta   90.00000000
_cell_angle_gamma   120.00000371
_symmetry_Int_Tables_number   1
_chemical_formula_structural   KNd9(Si3O13)2
_chemical_formula_sum   'K1 Nd9 Si6 O26'
_cell_volume   578.12221263
_cell_formula_units_Z   1
loop_
 _symmetry_equiv_pos_site_id
 _symmetry_equiv_pos_as_xyz
  1  'x, y, z'
loop_
 _atom_site_type_symbol
 _atom_site_label
 _atom_site_symmetry_multiplicity
 _atom_site_fract_x
 _atom_site_fract_y
 _atom_site_fract_z
 _atom_site_occupancy
  K  K0  1  0.00000000  0.00000000  0.00495500  1
  Nd  Nd1  1  0.09147800  0.43498400  0.25450700  1
  Nd  Nd2  1  0.56501600  0.65649500  0.25450700  1
  Nd  Nd3  1  0.34350500  0.90852200  0.25450700  1
  Nd  Nd4  1  0.57874700  0.89969100  0.75849200  1
  Nd  Nd5  1  0.10030900  0.67905600  0.75849200  1
  Nd  Nd6  1  0.32094400  0.42125300  0.75849200  1
  Nd  Nd7  1  0.00000000  0.00000000  0.50567600  1
  Nd  Nd8  1  0.66666700  0.33333300  0.00391500  1
  Nd  Nd9  1  0.66666700  0.33333300  0.50431400  1
  Si  Si10  1  0.96422300  0.69461600  0.26062100  1
  Si  Si11  1  0.30538400  0.26960700  0.26062100  1
  Si  Si12  1  0.73039300  0.03577700  0.26062100  1
  Si  Si13  1  0.69973300  0.63404800  0.74927200  1
  Si  Si14  1  0.36595200  0.06568500  0.74927200  1
  Si  Si15  1  0.93431500  0.30026700  0.74927200  1
  O  O16  1  0.33333300  0.66666700  0.25947200  1
  O  O17  1  0.33333300  0.66666700  0.75711800  1
  O  O18  1  0.84620800  0.49734800  0.25399000  1
  O  O19  1  0.50265200  0.34886000  0.25399000  1
  O  O20  1  0.65114000  0.15379200  0.25399000  1
  O  O21  1  0.80287000  0.82661300  0.73589600  1
  O  O22  1  0.17338700  0.97625700  0.73589600  1
  O  O23  1  0.02374300  0.19713000  0.73589600  1
  O  O24  1  0.08616600  0.75330500  0.44153100  1
  O  O25  1  0.24669500  0.33286100  0.44153100  1
  O  O26  1  0.66713900  0.91383400  0.44153100  1
  O  O27  1  0.58673500  0.57032300  0.93905500  1
  O  O28  1  0.42967700  0.01641200  0.93905500  1
  O  O29  1  0.98358800  0.41326500  0.93905500  1
  O  O30  1  0.08588500  0.74819300  0.07976200  1
  O  O31  1  0.25180700  0.33769200  0.07976200  1
  O  O32  1  0.66230800  0.91411500  0.07976200  1
  O  O33  1  0.57768500  0.55860000  0.56851900  1
  O  O34  1  0.44140000  0.01908500  0.56851900  1
  O  O35  1  0.98091500  0.42231500  0.56851900  1
  O  O36  1  0.85655100  0.78125600  0.27928100  1
  O  O37  1  0.21874400  0.07529400  0.27928100  1
  O  O38  1  0.92470600  0.14344900  0.27928100  1
  O  O39  1  0.80350200  0.54011200  0.75372400  1
  O  O40  1  0.45988800  0.26339000  0.75372400  1
  O  O41  1  0.73661000  0.19649800  0.75372400  1
