# generated using pymatgen
data_Tb3Pd4
_symmetry_space_group_name_H-M   'P 1'
_cell_length_a   7.92332524
_cell_length_b   7.92332524
_cell_length_c   7.92332477
_cell_angle_alpha   114.36226982
_cell_angle_beta   114.36226982
_cell_angle_gamma   114.36226962
_symmetry_Int_Tables_number   1
_chemical_formula_structural   Tb3Pd4
_chemical_formula_sum   'Tb6 Pd8'
_cell_volume   293.91369153
_cell_formula_units_Z   2
loop_
 _symmetry_equiv_pos_site_id
 _symmetry_equiv_pos_as_xyz
  1  'x, y, z'
loop_
 _atom_site_type_symbol
 _atom_site_label
 _atom_site_symmetry_multiplicity
 _atom_site_fract_x
 _atom_site_fract_y
 _atom_site_fract_z
 _atom_site_occupancy
  Tb  Tb0  1  0.97406300  0.59653300  0.72049400  1
  Tb  Tb1  1  0.72049400  0.97406300  0.59653300  1
  Tb  Tb2  1  0.59653300  0.72049400  0.97406300  1
  Tb  Tb3  1  0.02593700  0.40346700  0.27950600  1
  Tb  Tb4  1  0.27950600  0.02593700  0.40346700  1
  Tb  Tb5  1  0.40346700  0.27950600  0.02593700  1
  Pd  Pd6  1  0.00000000  0.00000000  0.00000000  1
  Pd  Pd7  1  0.50000000  0.50000000  0.50000000  1
  Pd  Pd8  1  0.93911900  0.77541600  0.44829500  1
  Pd  Pd9  1  0.44829500  0.93911900  0.77541600  1
  Pd  Pd10  1  0.77541600  0.44829500  0.93911900  1
  Pd  Pd11  1  0.06088100  0.22458400  0.55170500  1
  Pd  Pd12  1  0.55170500  0.06088100  0.22458400  1
  Pd  Pd13  1  0.22458400  0.55170500  0.06088100  1
