# generated using pymatgen
data_KAgF3
_symmetry_space_group_name_H-M   'P 1'
_cell_length_a   6.16051200
_cell_length_b   6.42635300
_cell_length_c   8.59046300
_cell_angle_alpha   90.00000000
_cell_angle_beta   90.00000000
_cell_angle_gamma   90.00000000
_symmetry_Int_Tables_number   1
_chemical_formula_structural   KAgF3
_chemical_formula_sum   'K4 Ag4 F12'
_cell_volume   340.09320679
_cell_formula_units_Z   4
loop_
 _symmetry_equiv_pos_site_id
 _symmetry_equiv_pos_as_xyz
  1  'x, y, z'
loop_
 _atom_site_type_symbol
 _atom_site_label
 _atom_site_symmetry_multiplicity
 _atom_site_fract_x
 _atom_site_fract_y
 _atom_site_fract_z
 _atom_site_occupancy
  K  K0  1  0.01025200  0.55258600  0.25000000  1
  K  K1  1  0.48974800  0.05258600  0.25000000  1
  K  K2  1  0.98974800  0.44741400  0.75000000  1
  K  K3  1  0.51025200  0.94741400  0.75000000  1
  Ag  Ag4  1  0.50000000  0.50000000  0.00000000  1
  Ag  Ag5  1  0.00000000  0.00000000  0.50000000  1
  Ag  Ag6  1  0.50000000  0.50000000  0.50000000  1
  Ag  Ag7  1  0.00000000  0.00000000  0.00000000  1
  F  F8  1  0.92897800  0.98012200  0.25000000  1
  F  F9  1  0.57102200  0.48012200  0.25000000  1
  F  F10  1  0.07102200  0.01987800  0.75000000  1
  F  F11  1  0.42897800  0.51987800  0.75000000  1
  F  F12  1  0.27444400  0.80948100  0.46458000  1
  F  F13  1  0.22555600  0.30948100  0.03542000  1
  F  F14  1  0.72555600  0.19051900  0.96458000  1
  F  F15  1  0.77444400  0.69051900  0.53542000  1
  F  F16  1  0.72555600  0.19051900  0.53542000  1
  F  F17  1  0.77444400  0.69051900  0.96458000  1
  F  F18  1  0.27444400  0.80948100  0.03542000  1
  F  F19  1  0.22555600  0.30948100  0.46458000  1
