# generated using pymatgen
data_Re2S(ClO2)4
_symmetry_space_group_name_H-M   'P 1'
_cell_length_a   11.11595881
_cell_length_b   11.11595881
_cell_length_c   9.74184335
_cell_angle_alpha   84.08767510
_cell_angle_beta   84.08767510
_cell_angle_gamma   91.71653868
_symmetry_Int_Tables_number   1
_chemical_formula_structural   Re2S(ClO2)4
_chemical_formula_sum   'Re8 S4 Cl16 O32'
_cell_volume   1189.97279455
_cell_formula_units_Z   4
loop_
 _symmetry_equiv_pos_site_id
 _symmetry_equiv_pos_as_xyz
  1  'x, y, z'
loop_
 _atom_site_type_symbol
 _atom_site_label
 _atom_site_symmetry_multiplicity
 _atom_site_fract_x
 _atom_site_fract_y
 _atom_site_fract_z
 _atom_site_occupancy
  Re  Re0  1  0.23969900  0.57048400  0.03554200  1
  Re  Re1  1  0.42951600  0.76030100  0.46445800  1
  Re  Re2  1  0.76030100  0.42951600  0.96445800  1
  Re  Re3  1  0.57048400  0.23969900  0.53554200  1
  Re  Re4  1  0.27117400  0.08908800  0.03541800  1
  Re  Re5  1  0.91091200  0.72882600  0.46458200  1
  Re  Re6  1  0.72882600  0.91091200  0.96458200  1
  Re  Re7  1  0.08908800  0.27117400  0.53541800  1
  S  S8  1  0.42572900  0.81907000  0.10241600  1
  S  S9  1  0.18093000  0.57427100  0.39758400  1
  S  S10  1  0.57427100  0.18093000  0.89758400  1
  S  S11  1  0.81907000  0.42572900  0.60241600  1
  Cl  Cl12  1  0.13511300  0.73983600  0.98184600  1
  Cl  Cl13  1  0.26016400  0.86488700  0.51815400  1
  Cl  Cl14  1  0.86488700  0.26016400  0.01815400  1
  Cl  Cl15  1  0.73983600  0.13511300  0.48184600  1
  Cl  Cl16  1  0.36920400  0.44756600  0.14522300  1
  Cl  Cl17  1  0.55243400  0.63079600  0.35477700  1
  Cl  Cl18  1  0.63079600  0.55243400  0.85477700  1
  Cl  Cl19  1  0.44756600  0.36920400  0.64522300  1
  Cl  Cl20  1  0.22900900  0.04192400  0.82208300  1
  Cl  Cl21  1  0.95807600  0.77099100  0.67791700  1
  Cl  Cl22  1  0.77099100  0.95807600  0.17791700  1
  Cl  Cl23  1  0.04192400  0.22900900  0.32208300  1
  Cl  Cl24  1  0.38101600  0.11549200  0.21709000  1
  Cl  Cl25  1  0.88450800  0.61898400  0.28291000  1
  Cl  Cl26  1  0.61898400  0.88450800  0.78291000  1
  Cl  Cl27  1  0.11549200  0.38101600  0.71709000  1
  O  O28  1  0.29779500  0.55252200  0.87003700  1
  O  O29  1  0.44747800  0.70220500  0.62996300  1
  O  O30  1  0.70220500  0.44747800  0.12996300  1
  O  O31  1  0.55252200  0.29779500  0.37003700  1
  O  O32  1  0.11718100  0.47110700  0.05960800  1
  O  O33  1  0.52889300  0.88281900  0.44039200  1
  O  O34  1  0.88281900  0.52889300  0.94039200  1
  O  O35  1  0.47110700  0.11718100  0.55960800  1
  O  O36  1  0.21471700  0.23063300  0.02135500  1
  O  O37  1  0.76936700  0.78528300  0.47864500  1
  O  O38  1  0.78528300  0.76936700  0.97864500  1
  O  O39  1  0.23063300  0.21471700  0.52135500  1
  O  O40  1  0.15372300  0.00639000  0.13113800  1
  O  O41  1  0.99361000  0.84627700  0.36886200  1
  O  O42  1  0.84627700  0.99361000  0.86886200  1
  O  O43  1  0.00639000  0.15372300  0.63113800  1
  O  O44  1  0.39259300  0.70616800  0.04303100  1
  O  O45  1  0.29383200  0.60740700  0.45696900  1
  O  O46  1  0.60740700  0.29383200  0.95696900  1
  O  O47  1  0.70616800  0.39259300  0.54303100  1
  O  O48  1  0.37506100  0.92319000  0.02209600  1
  O  O49  1  0.07681000  0.62493900  0.47790400  1
  O  O50  1  0.62493900  0.07681000  0.97790400  1
  O  O51  1  0.92319000  0.37506100  0.52209600  1
  O  O52  1  0.18740400  0.62373400  0.24925200  1
  O  O53  1  0.37626600  0.81259600  0.25074800  1
  O  O54  1  0.81259600  0.37626600  0.75074800  1
  O  O55  1  0.62373400  0.18740400  0.74925200  1
  O  O56  1  0.44038500  0.16641500  0.90950200  1
  O  O57  1  0.83358500  0.55961500  0.59049800  1
  O  O58  1  0.55961500  0.83358500  0.09049800  1
  O  O59  1  0.16641500  0.44038500  0.40950200  1
