# generated using pymatgen
data_Ce2HfSe5
_symmetry_space_group_name_H-M   'P 1'
_cell_length_a   7.70753900
_cell_length_b   8.44992500
_cell_length_c   11.97107600
_cell_angle_alpha   90.00000000
_cell_angle_beta   90.00000000
_cell_angle_gamma   90.00000000
_symmetry_Int_Tables_number   1
_chemical_formula_structural   Ce2HfSe5
_chemical_formula_sum   'Ce8 Hf4 Se20'
_cell_volume   779.65375188
_cell_formula_units_Z   4
loop_
 _symmetry_equiv_pos_site_id
 _symmetry_equiv_pos_as_xyz
  1  'x, y, z'
loop_
 _atom_site_type_symbol
 _atom_site_label
 _atom_site_symmetry_multiplicity
 _atom_site_fract_x
 _atom_site_fract_y
 _atom_site_fract_z
 _atom_site_occupancy
  Ce  Ce0  1  0.55190800  0.50146700  0.67370900  1
  Ce  Ce1  1  0.05190800  0.49853300  0.82629100  1
  Ce  Ce2  1  0.94809200  0.99853300  0.17370900  1
  Ce  Ce3  1  0.44809200  0.00146700  0.32629100  1
  Ce  Ce4  1  0.44809200  0.49853300  0.32629100  1
  Ce  Ce5  1  0.94809200  0.50146700  0.17370900  1
  Ce  Ce6  1  0.05190800  0.00146700  0.82629100  1
  Ce  Ce7  1  0.55190800  0.99853300  0.67370900  1
  Hf  Hf8  1  0.07533100  0.25000000  0.50910500  1
  Hf  Hf9  1  0.57533100  0.75000000  0.99089500  1
  Hf  Hf10  1  0.42466900  0.25000000  0.00910500  1
  Hf  Hf11  1  0.92466900  0.75000000  0.49089500  1
  Se  Se12  1  0.33479500  0.25000000  0.79103700  1
  Se  Se13  1  0.83479500  0.75000000  0.70896300  1
  Se  Se14  1  0.16520500  0.25000000  0.29103700  1
  Se  Se15  1  0.66520500  0.75000000  0.20896300  1
  Se  Se16  1  0.05481100  0.25000000  0.00572300  1
  Se  Se17  1  0.55481100  0.75000000  0.49427700  1
  Se  Se18  1  0.44518900  0.25000000  0.50572300  1
  Se  Se19  1  0.94518900  0.75000000  0.99427700  1
  Se  Se20  1  0.85333000  0.25000000  0.68981000  1
  Se  Se21  1  0.35333000  0.75000000  0.81019000  1
  Se  Se22  1  0.64667000  0.25000000  0.18981000  1
  Se  Se23  1  0.14667000  0.75000000  0.31019000  1
  Se  Se24  1  0.67637000  0.46230000  0.92297500  1
  Se  Se25  1  0.17637000  0.53770000  0.57702500  1
  Se  Se26  1  0.82363000  0.03770000  0.42297500  1
  Se  Se27  1  0.32363000  0.96230000  0.07702500  1
  Se  Se28  1  0.32363000  0.53770000  0.07702500  1
  Se  Se29  1  0.82363000  0.46230000  0.42297500  1
  Se  Se30  1  0.17637000  0.96230000  0.57702500  1
  Se  Se31  1  0.67637000  0.03770000  0.92297500  1
