# generated using pymatgen
data_Ca4YB3O10
_symmetry_space_group_name_H-M   'P 1'
_cell_length_a   9.02682915
_cell_length_b   9.02682915
_cell_length_c   3.56470286
_cell_angle_alpha   84.96786757
_cell_angle_beta   84.96786757
_cell_angle_gamma   126.40994859
_symmetry_Int_Tables_number   1
_chemical_formula_structural   Ca4YB3O10
_chemical_formula_sum   'Ca4 Y1 B3 O10'
_cell_volume   229.29575730
_cell_formula_units_Z   1
loop_
 _symmetry_equiv_pos_site_id
 _symmetry_equiv_pos_as_xyz
  1  'x, y, z'
loop_
 _atom_site_type_symbol
 _atom_site_label
 _atom_site_symmetry_multiplicity
 _atom_site_fract_x
 _atom_site_fract_y
 _atom_site_fract_z
 _atom_site_occupancy
  Ca  Ca0  1  0.32649300  0.55181900  0.27747200  1
  Ca  Ca1  1  0.55181900  0.32649300  0.27747200  1
  Ca  Ca2  1  0.87902900  0.24291600  0.94887200  1
  Ca  Ca3  1  0.24291600  0.87902900  0.94887200  1
  Y  Y4  1  0.79889100  0.79889100  0.60543900  1
  B  B5  1  0.17147600  0.17147600  0.90471000  1
  B  B6  1  0.94162800  0.55319700  0.52343600  1
  B  B7  1  0.55319700  0.94162800  0.52343600  1
  O  O8  1  0.02623900  0.74196600  0.52604400  1
  O  O9  1  0.74196600  0.02623900  0.52604400  1
  O  O10  1  0.62803700  0.62803700  0.18442900  1
  O  O11  1  0.18367600  0.33273100  0.85687900  1
  O  O12  1  0.33273100  0.18367600  0.85687900  1
  O  O13  1  0.99743100  0.99743100  0.99962000  1
  O  O14  1  0.03467500  0.49673600  0.32900000  1
  O  O15  1  0.49673600  0.03467500  0.32900000  1
  O  O16  1  0.76154000  0.41802000  0.72074800  1
  O  O17  1  0.41802000  0.76154000  0.72074800  1
