# generated using pymatgen
data_Rb7VSiO8
_symmetry_space_group_name_H-M   'P 1'
_cell_length_a   10.57819000
_cell_length_b   6.50984400
_cell_length_c   21.07590724
_cell_angle_alpha   86.75363491
_cell_angle_beta   90.00000000
_cell_angle_gamma   90.00000000
_symmetry_Int_Tables_number   1
_chemical_formula_structural   Rb7VSiO8
_chemical_formula_sum   'Rb28 V4 Si4 O32'
_cell_volume   1449.00784231
_cell_formula_units_Z   4
loop_
 _symmetry_equiv_pos_site_id
 _symmetry_equiv_pos_as_xyz
  1  'x, y, z'
loop_
 _atom_site_type_symbol
 _atom_site_label
 _atom_site_symmetry_multiplicity
 _atom_site_fract_x
 _atom_site_fract_y
 _atom_site_fract_z
 _atom_site_occupancy
  Rb  Rb0  1  0.59704700  0.39376800  0.88782500  1
  Rb  Rb1  1  0.09487000  0.61149100  0.61756500  1
  Rb  Rb2  1  0.90513000  0.61149100  0.11756500  1
  Rb  Rb3  1  0.40295300  0.39376800  0.38782500  1
  Rb  Rb4  1  0.58887500  0.88628900  0.81034100  1
  Rb  Rb5  1  0.07645600  0.10153500  0.69712500  1
  Rb  Rb6  1  0.92354400  0.10153500  0.19712500  1
  Rb  Rb7  1  0.41112500  0.88628900  0.31034100  1
  Rb  Rb8  1  0.95598700  0.28198800  0.86128200  1
  Rb  Rb9  1  0.46136400  0.72077400  0.62956000  1
  Rb  Rb10  1  0.53863600  0.72077400  0.12956000  1
  Rb  Rb11  1  0.04401300  0.28198800  0.36128200  1
  Rb  Rb12  1  0.80747600  0.78527000  0.94849700  1
  Rb  Rb13  1  0.31696000  0.21794800  0.54490700  1
  Rb  Rb14  1  0.68304000  0.21794800  0.04490700  1
  Rb  Rb15  1  0.19252400  0.78527000  0.44849700  1
  Rb  Rb16  1  0.14289000  0.71434700  0.96769900  1
  Rb  Rb17  1  0.63413900  0.29082100  0.52680700  1
  Rb  Rb18  1  0.36586100  0.29082100  0.02680700  1
  Rb  Rb19  1  0.85711000  0.71434700  0.46769900  1
  Rb  Rb20  1  0.30064800  0.07885100  0.87032200  1
  Rb  Rb21  1  0.79147200  0.90688000  0.63343700  1
  Rb  Rb22  1  0.20852800  0.90688000  0.13343700  1
  Rb  Rb23  1  0.69935200  0.07885100  0.37032200  1
  Rb  Rb24  1  0.24285000  0.62263500  0.79003900  1
  Rb  Rb25  1  0.75565500  0.38020000  0.71697800  1
  Rb  Rb26  1  0.24434500  0.38020000  0.21697800  1
  Rb  Rb27  1  0.75715000  0.62263500  0.29003900  1
  V  V28  1  0.97358300  0.22184200  0.52730400  1
  V  V29  1  0.02641700  0.22184200  0.02730400  1
  V  V30  1  0.41058100  0.21781800  0.70718200  1
  V  V31  1  0.58941900  0.21781800  0.20718200  1
  Si  Si32  1  0.47231400  0.77839900  0.97349200  1
  Si  Si33  1  0.52768600  0.77839900  0.47349200  1
  Si  Si34  1  0.91125900  0.78254100  0.79198100  1
  Si  Si35  1  0.08874100  0.78254100  0.29198100  1
  O  O36  1  0.36948400  0.81471600  0.03191600  1
  O  O37  1  0.86706500  0.18717100  0.46573600  1
  O  O38  1  0.13293500  0.18717100  0.96573600  1
  O  O39  1  0.63051600  0.81471600  0.53191600  1
  O  O40  1  0.97235700  0.67828400  0.72786300  1
  O  O41  1  0.47322600  0.32956000  0.77361800  1
  O  O42  1  0.52677400  0.32956000  0.27361800  1
  O  O43  1  0.02764300  0.67828400  0.22786300  1
  O  O44  1  0.79843900  0.62737500  0.82346300  1
  O  O45  1  0.29240300  0.37830300  0.67369500  1
  O  O46  1  0.70759700  0.37830300  0.17369500  1
  O  O47  1  0.20156100  0.62737500  0.32346300  1
  O  O48  1  0.02547300  0.81957600  0.84482500  1
  O  O49  1  0.53079600  0.17998800  0.65199700  1
  O  O50  1  0.46920400  0.17998800  0.15199700  1
  O  O51  1  0.97452700  0.81957600  0.34482500  1
  O  O52  1  0.84538500  0.00962200  0.76871700  1
  O  O53  1  0.34173000  0.98004100  0.73060900  1
  O  O54  1  0.65827000  0.98004100  0.23060900  1
  O  O55  1  0.15461500  0.00962200  0.26871700  1
  O  O56  1  0.58271300  0.61208400  0.00121500  1
  O  O57  1  0.08968200  0.39385700  0.49898000  1
  O  O58  1  0.91031800  0.39385700  0.99898000  1
  O  O59  1  0.41728700  0.61208400  0.50121500  1
  O  O60  1  0.39663400  0.68327600  0.91136100  1
  O  O61  1  0.89354700  0.32269400  0.59166100  1
  O  O62  1  0.10645300  0.32269400  0.09166100  1
  O  O63  1  0.60336600  0.68327600  0.41136100  1
  O  O64  1  0.53971700  0.00202700  0.94788100  1
  O  O65  1  0.04400500  0.98802600  0.55411900  1
  O  O66  1  0.95599500  0.98802600  0.05411900  1
  O  O67  1  0.46028300  0.00202700  0.44788100  1
