# generated using pymatgen
data_Y3Si5N9O
_symmetry_space_group_name_H-M   'P 1'
_cell_length_a   5.01467400
_cell_length_b   10.72286300
_cell_length_c   16.26924600
_cell_angle_alpha   90.00000000
_cell_angle_beta   90.00000000
_cell_angle_gamma   90.00000000
_symmetry_Int_Tables_number   1
_chemical_formula_structural   Y3Si5N9O
_chemical_formula_sum   'Y12 Si20 N36 O4'
_cell_volume   874.82440165
_cell_formula_units_Z   4
loop_
 _symmetry_equiv_pos_site_id
 _symmetry_equiv_pos_as_xyz
  1  'x, y, z'
loop_
 _atom_site_type_symbol
 _atom_site_label
 _atom_site_symmetry_multiplicity
 _atom_site_fract_x
 _atom_site_fract_y
 _atom_site_fract_z
 _atom_site_occupancy
  Y  Y0  1  0.66444300  0.92828100  0.60008200  1
  Y  Y1  1  0.33555700  0.07171900  0.39991800  1
  Y  Y2  1  0.33555700  0.42828100  0.39991800  1
  Y  Y3  1  0.33555700  0.57171900  0.10008200  1
  Y  Y4  1  0.66444300  0.57171900  0.60008200  1
  Y  Y5  1  0.66444300  0.42828100  0.89991800  1
  Y  Y6  1  0.66444300  0.07171900  0.89991800  1
  Y  Y7  1  0.33555700  0.92828100  0.10008200  1
  Y  Y8  1  0.70276100  0.75000000  0.79620200  1
  Y  Y9  1  0.29723900  0.25000000  0.20379800  1
  Y  Y10  1  0.29723900  0.75000000  0.29620200  1
  Y  Y11  1  0.70276100  0.25000000  0.70379800  1
  Si  Si12  1  0.25053100  0.75000000  0.66948900  1
  Si  Si13  1  0.74946900  0.25000000  0.33051100  1
  Si  Si14  1  0.74946900  0.75000000  0.16948900  1
  Si  Si15  1  0.25053100  0.25000000  0.83051100  1
  Si  Si16  1  0.89511200  0.89627400  0.42386100  1
  Si  Si17  1  0.10488800  0.10372600  0.57613900  1
  Si  Si18  1  0.10488800  0.39627400  0.57613900  1
  Si  Si19  1  0.10488800  0.60372600  0.92386100  1
  Si  Si20  1  0.89511200  0.60372600  0.42386100  1
  Si  Si21  1  0.89511200  0.39627400  0.07613900  1
  Si  Si22  1  0.89511200  0.10372600  0.07613900  1
  Si  Si23  1  0.10488800  0.89627400  0.92386100  1
  Si  Si24  1  0.61031800  0.75000000  0.97283400  1
  Si  Si25  1  0.38968200  0.25000000  0.02716600  1
  Si  Si26  1  0.38968200  0.75000000  0.47283400  1
  Si  Si27  1  0.61031800  0.25000000  0.52716600  1
  Si  Si28  1  0.18213600  0.00000000  0.75000000  1
  Si  Si29  1  0.81786400  0.00000000  0.25000000  1
  Si  Si30  1  0.81786400  0.50000000  0.25000000  1
  Si  Si31  1  0.18213600  0.50000000  0.75000000  1
  N  N32  1  0.97742300  0.94366000  0.82925100  1
  N  N33  1  0.02257700  0.05634000  0.17074900  1
  N  N34  1  0.02257700  0.44366000  0.17074900  1
  N  N35  1  0.02257700  0.55634000  0.32925100  1
  N  N36  1  0.97742300  0.55634000  0.82925100  1
  N  N37  1  0.97742300  0.44366000  0.67074900  1
  N  N38  1  0.97742300  0.05634000  0.67074900  1
  N  N39  1  0.02257700  0.94366000  0.32925100  1
  N  N40  1  0.94119200  0.75000000  0.93715500  1
  N  N41  1  0.05880800  0.25000000  0.06284500  1
  N  N42  1  0.05880800  0.75000000  0.43715500  1
  N  N43  1  0.94119200  0.25000000  0.56284500  1
  N  N44  1  0.40422000  0.75000000  0.57580500  1
  N  N45  1  0.59578000  0.25000000  0.42419500  1
  N  N46  1  0.59578000  0.75000000  0.07580500  1
  N  N47  1  0.40422000  0.25000000  0.92419500  1
  N  N48  1  0.44764000  0.87976200  0.93204000  1
  N  N49  1  0.55236000  0.12023800  0.06796000  1
  N  N50  1  0.55236000  0.37976200  0.06796000  1
  N  N51  1  0.55236000  0.62023800  0.43204000  1
  N  N52  1  0.44764000  0.62023800  0.93204000  1
  N  N53  1  0.44764000  0.37976200  0.56796000  1
  N  N54  1  0.44764000  0.12023800  0.56796000  1
  N  N55  1  0.55236000  0.87976200  0.43204000  1
  N  N56  1  0.00000000  0.00000000  0.00000000  1
  N  N57  1  0.00000000  0.50000000  0.00000000  1
  N  N58  1  0.00000000  0.50000000  0.50000000  1
  N  N59  1  0.00000000  0.00000000  0.50000000  1
  N  N60  1  0.38800700  0.87911400  0.71708800  1
  N  N61  1  0.61199300  0.12088600  0.28291200  1
  N  N62  1  0.61199300  0.37911400  0.28291200  1
  N  N63  1  0.61199300  0.62088600  0.21708800  1
  N  N64  1  0.38800700  0.62088600  0.71708800  1
  N  N65  1  0.38800700  0.37911400  0.78291200  1
  N  N66  1  0.38800700  0.12088600  0.78291200  1
  N  N67  1  0.61199300  0.87911400  0.21708800  1
  O  O68  1  0.91659600  0.75000000  0.66650700  1
  O  O69  1  0.08340400  0.25000000  0.33349300  1
  O  O70  1  0.08340400  0.75000000  0.16650700  1
  O  O71  1  0.91659600  0.25000000  0.83349300  1
