# generated using pymatgen
data_Hf10CuSn7
_symmetry_space_group_name_H-M   'P 1'
_cell_length_a   5.85414301
_cell_length_b   8.67370265
_cell_length_c   8.67365948
_cell_angle_alpha   120.00016825
_cell_angle_beta   89.99606001
_cell_angle_gamma   90.00787888
_symmetry_Int_Tables_number   1
_chemical_formula_structural   Hf10CuSn7
_chemical_formula_sum   'Hf10 Cu1 Sn7'
_cell_volume   381.41706223
_cell_formula_units_Z   1
loop_
 _symmetry_equiv_pos_site_id
 _symmetry_equiv_pos_as_xyz
  1  'x, y, z'
loop_
 _atom_site_type_symbol
 _atom_site_label
 _atom_site_symmetry_multiplicity
 _atom_site_fract_x
 _atom_site_fract_y
 _atom_site_fract_z
 _atom_site_occupancy
  Hf  Hf0  1  0.50000100  0.33334500  0.66668600  1
  Hf  Hf1  1  0.50000100  0.66665900  0.33331400  1
  Hf  Hf2  1  0.00000000  0.66666000  0.33332700  1
  Hf  Hf3  1  0.00000000  0.33333300  0.66667300  1
  Hf  Hf4  1  0.73882700  0.27348900  0.00000000  1
  Hf  Hf5  1  0.73885900  0.72651600  0.72648200  1
  Hf  Hf6  1  0.73885900  0.00003400  0.27351800  1
  Hf  Hf7  1  0.26116400  0.72651300  0.00000000  1
  Hf  Hf8  1  0.26114500  0.27348100  0.27351600  1
  Hf  Hf9  1  0.26114500  0.99996500  0.72648400  1
  Cu  Cu10  1  0.49999800  0.00000100  0.00000000  1
  Sn  Sn11  1  0.75260100  0.61504700  0.00000000  1
  Sn  Sn12  1  0.75259300  0.38497800  0.38498700  1
  Sn  Sn13  1  0.75259300  0.99999100  0.61501300  1
  Sn  Sn14  1  0.24739600  0.38495400  0.00000000  1
  Sn  Sn15  1  0.24741100  0.61502100  0.61501100  1
  Sn  Sn16  1  0.24741100  0.00001000  0.38498900  1
  Sn  Sn17  1  0.99999600  0.00000300  0.00000000  1
