# generated using pymatgen
data_Cs4Ge(PS3)4
_symmetry_space_group_name_H-M   'P 1'
_cell_length_a   7.74681707
_cell_length_b   7.74681707
_cell_length_c   24.72086898
_cell_angle_alpha   79.90135559
_cell_angle_beta   79.90135559
_cell_angle_gamma   66.70472658
_symmetry_Int_Tables_number   1
_chemical_formula_structural   Cs4Ge(PS3)4
_chemical_formula_sum   'Cs8 Ge2 P8 S24'
_cell_volume   1332.27497630
_cell_formula_units_Z   2
loop_
 _symmetry_equiv_pos_site_id
 _symmetry_equiv_pos_as_xyz
  1  'x, y, z'
loop_
 _atom_site_type_symbol
 _atom_site_label
 _atom_site_symmetry_multiplicity
 _atom_site_fract_x
 _atom_site_fract_y
 _atom_site_fract_z
 _atom_site_occupancy
  Cs  Cs0  1  0.82183500  0.79490900  0.05057500  1
  Cs  Cs1  1  0.20509100  0.17816500  0.44942500  1
  Cs  Cs2  1  0.17816500  0.20509100  0.94942500  1
  Cs  Cs3  1  0.79490900  0.82183500  0.55057500  1
  Cs  Cs4  1  0.65139600  0.53791000  0.31265400  1
  Cs  Cs5  1  0.46209000  0.34860400  0.18734600  1
  Cs  Cs6  1  0.34860400  0.46209000  0.68734600  1
  Cs  Cs7  1  0.53791000  0.65139600  0.81265400  1
  Ge  Ge8  1  0.00618100  0.99381900  0.25000000  1
  Ge  Ge9  1  0.99381900  0.00618100  0.75000000  1
  P  P10  1  0.10070400  0.73219700  0.36868000  1
  P  P11  1  0.26780300  0.89929600  0.13132000  1
  P  P12  1  0.89929600  0.26780300  0.63132000  1
  P  P13  1  0.73219700  0.10070400  0.86868000  1
  P  P14  1  0.07406200  0.21107300  0.11570000  1
  P  P15  1  0.78892700  0.92593800  0.38430000  1
  P  P16  1  0.92593800  0.78892700  0.88430000  1
  P  P17  1  0.21107300  0.07406200  0.61570000  1
  S  S18  1  0.21454100  0.67124400  0.43816700  1
  S  S19  1  0.32875600  0.78545900  0.06183300  1
  S  S20  1  0.78545900  0.32875600  0.56183300  1
  S  S21  1  0.67124400  0.21454100  0.93816700  1
  S  S22  1  0.13070100  0.52345600  0.32594800  1
  S  S23  1  0.47654400  0.86929900  0.17405200  1
  S  S24  1  0.86929900  0.47654400  0.67405200  1
  S  S25  1  0.52345600  0.13070100  0.82594800  1
  S  S26  1  0.06520200  0.79941800  0.18542400  1
  S  S27  1  0.20058200  0.93479800  0.31457600  1
  S  S28  1  0.93479800  0.20058200  0.81457600  1
  S  S29  1  0.79941800  0.06520200  0.68542400  1
  S  S30  1  0.23341200  0.35451700  0.07842000  1
  S  S31  1  0.64548300  0.76658800  0.42158000  1
  S  S32  1  0.76658800  0.64548300  0.92158000  1
  S  S33  1  0.35451700  0.23341200  0.57842000  1
  S  S34  1  0.84930600  0.24436900  0.08106800  1
  S  S35  1  0.75563100  0.15069400  0.41893200  1
  S  S36  1  0.15069400  0.75563100  0.91893200  1
  S  S37  1  0.24436900  0.84930600  0.58106800  1
  S  S38  1  0.99289900  0.27660500  0.20255600  1
  S  S39  1  0.72339500  0.00710100  0.29744400  1
  S  S40  1  0.00710100  0.72339500  0.79744400  1
  S  S41  1  0.27660500  0.99289900  0.70255600  1
