# generated using pymatgen
data_BaCe2MnS5
_symmetry_space_group_name_H-M   'P 1'
_cell_length_a   8.79436843
_cell_length_b   8.79436843
_cell_length_c   8.79436843
_cell_angle_alpha   126.84701184
_cell_angle_beta   126.84701184
_cell_angle_gamma   78.50041644
_symmetry_Int_Tables_number   1
_chemical_formula_structural   BaCe2MnS5
_chemical_formula_sum   'Ba2 Ce4 Mn2 S10'
_cell_volume   421.70693236
_cell_formula_units_Z   2
loop_
 _symmetry_equiv_pos_site_id
 _symmetry_equiv_pos_as_xyz
  1  'x, y, z'
loop_
 _atom_site_type_symbol
 _atom_site_label
 _atom_site_symmetry_multiplicity
 _atom_site_fract_x
 _atom_site_fract_y
 _atom_site_fract_z
 _atom_site_occupancy
  Ba  Ba0  1  0.75000000  0.75000000  0.00000000  1
  Ba  Ba1  1  0.25000000  0.25000000  0.00000000  1
  Ce  Ce2  1  0.84133500  0.65866500  0.50000000  1
  Ce  Ce3  1  0.65866500  0.15866500  0.81733000  1
  Ce  Ce4  1  0.34133500  0.84133500  0.18267000  1
  Ce  Ce5  1  0.15866500  0.34133500  0.50000000  1
  Mn  Mn6  1  0.25000000  0.75000000  0.50000000  1
  Mn  Mn7  1  0.75000000  0.25000000  0.50000000  1
  S  S8  1  0.98271600  0.48271600  0.19802700  1
  S  S9  1  0.71531200  0.21531200  0.19802700  1
  S  S10  1  0.01728400  0.51728400  0.80197300  1
  S  S11  1  0.51728400  0.71531200  0.50000000  1
  S  S12  1  0.21531200  0.01728400  0.50000000  1
  S  S13  1  0.48271600  0.28468800  0.50000000  1
  S  S14  1  0.78468800  0.98271600  0.50000000  1
  S  S15  1  0.28468800  0.78468800  0.80197300  1
  S  S16  1  0.00000000  0.00000000  0.00000000  1
  S  S17  1  0.50000000  0.50000000  0.00000000  1
