# generated using pymatgen
data_YAu3
_symmetry_space_group_name_H-M   'P 1'
_cell_length_a   5.08330300
_cell_length_b   5.18148100
_cell_length_c   6.21226000
_cell_angle_alpha   90.00000000
_cell_angle_beta   90.00000000
_cell_angle_gamma   90.00000000
_symmetry_Int_Tables_number   1
_chemical_formula_structural   YAu3
_chemical_formula_sum   'Y2 Au6'
_cell_volume   163.62495166
_cell_formula_units_Z   2
loop_
 _symmetry_equiv_pos_site_id
 _symmetry_equiv_pos_as_xyz
  1  'x, y, z'
loop_
 _atom_site_type_symbol
 _atom_site_label
 _atom_site_symmetry_multiplicity
 _atom_site_fract_x
 _atom_site_fract_y
 _atom_site_fract_z
 _atom_site_occupancy
  Y  Y0  1  0.50000000  0.65514100  0.50000000  1
  Y  Y1  1  0.00000000  0.34485900  0.00000000  1
  Au  Au2  1  0.50000000  0.15908600  0.75682700  1
  Au  Au3  1  0.50000000  0.15908600  0.24317300  1
  Au  Au4  1  0.00000000  0.84091400  0.74317300  1
  Au  Au5  1  0.00000000  0.84091400  0.25682700  1
  Au  Au6  1  0.00000000  0.33519800  0.50000000  1
  Au  Au7  1  0.50000000  0.66480200  0.00000000  1
