# generated using pymatgen
data_LiHf2N3
_symmetry_space_group_name_H-M   'P 1'
_cell_length_a   6.56205544
_cell_length_b   6.56205544
_cell_length_c   4.35418500
_cell_angle_alpha   90.00000000
_cell_angle_beta   90.00000000
_cell_angle_gamma   119.23784924
_symmetry_Int_Tables_number   1
_chemical_formula_structural   LiHf2N3
_chemical_formula_sum   'Li2 Hf4 N6'
_cell_volume   163.60692519
_cell_formula_units_Z   2
loop_
 _symmetry_equiv_pos_site_id
 _symmetry_equiv_pos_as_xyz
  1  'x, y, z'
loop_
 _atom_site_type_symbol
 _atom_site_label
 _atom_site_symmetry_multiplicity
 _atom_site_fract_x
 _atom_site_fract_y
 _atom_site_fract_z
 _atom_site_occupancy
  Li  Li0  1  0.63201700  0.63201700  0.75000000  1
  Li  Li1  1  0.36798300  0.36798300  0.25000000  1
  Hf  Hf2  1  0.01589600  0.33538700  0.75000000  1
  Hf  Hf3  1  0.33538700  0.01589600  0.75000000  1
  Hf  Hf4  1  0.98410400  0.66461300  0.25000000  1
  Hf  Hf5  1  0.66461300  0.98410400  0.25000000  1
  N  N6  1  0.96367500  0.33076600  0.25000000  1
  N  N7  1  0.33076600  0.96367500  0.25000000  1
  N  N8  1  0.03632500  0.66923400  0.75000000  1
  N  N9  1  0.66923400  0.03632500  0.75000000  1
  N  N10  1  0.69097600  0.69097600  0.25000000  1
  N  N11  1  0.30902400  0.30902400  0.75000000  1
