# generated using pymatgen
data_CsUCuS3
_symmetry_space_group_name_H-M   'P 1'
_cell_length_a   8.00505814
_cell_length_b   8.00505814
_cell_length_c   10.32876300
_cell_angle_alpha   90.00000000
_cell_angle_beta   90.00000000
_cell_angle_gamma   151.06300532
_symmetry_Int_Tables_number   1
_chemical_formula_structural   CsUCuS3
_chemical_formula_sum   'Cs2 U2 Cu2 S6'
_cell_volume   320.24756885
_cell_formula_units_Z   2
loop_
 _symmetry_equiv_pos_site_id
 _symmetry_equiv_pos_as_xyz
  1  'x, y, z'
loop_
 _atom_site_type_symbol
 _atom_site_label
 _atom_site_symmetry_multiplicity
 _atom_site_fract_x
 _atom_site_fract_y
 _atom_site_fract_z
 _atom_site_occupancy
  Cs  Cs0  1  0.74052500  0.25947500  0.25000000  1
  Cs  Cs1  1  0.25947500  0.74052500  0.75000000  1
  U  U2  1  0.00000000  0.00000000  0.50000000  1
  U  U3  1  0.00000000  0.00000000  0.00000000  1
  Cu  Cu4  1  0.53378600  0.46621400  0.75000000  1
  Cu  Cu5  1  0.46621400  0.53378600  0.25000000  1
  S  S6  1  0.61185800  0.38814200  0.55915300  1
  S  S7  1  0.38814200  0.61185800  0.44084700  1
  S  S8  1  0.38814200  0.61185800  0.05915300  1
  S  S9  1  0.94818800  0.05181200  0.75000000  1
  S  S10  1  0.05181200  0.94818800  0.25000000  1
  S  S11  1  0.61185800  0.38814200  0.94084700  1
