# generated using pymatgen
data_Ba2PIO4
_symmetry_space_group_name_H-M   'P 1'
_cell_length_a   9.41383000
_cell_length_b   9.02414800
_cell_length_c   9.52906441
_cell_angle_alpha   68.05806964
_cell_angle_beta   90.00000000
_cell_angle_gamma   90.00000000
_symmetry_Int_Tables_number   1
_chemical_formula_structural   Ba2PIO4
_chemical_formula_sum   'Ba8 P4 I4 O16'
_cell_volume   750.87260674
_cell_formula_units_Z   4
loop_
 _symmetry_equiv_pos_site_id
 _symmetry_equiv_pos_as_xyz
  1  'x, y, z'
loop_
 _atom_site_type_symbol
 _atom_site_label
 _atom_site_symmetry_multiplicity
 _atom_site_fract_x
 _atom_site_fract_y
 _atom_site_fract_z
 _atom_site_occupancy
  Ba  Ba0  1  0.30822200  0.45830500  0.15957700  1
  Ba  Ba1  1  0.80822200  0.04169500  0.84042300  1
  Ba  Ba2  1  0.69177800  0.54169500  0.84042300  1
  Ba  Ba3  1  0.19177800  0.95830500  0.15957700  1
  Ba  Ba4  1  0.32967400  0.95317300  0.74980000  1
  Ba  Ba5  1  0.82967400  0.54682700  0.25020000  1
  Ba  Ba6  1  0.67032600  0.04682700  0.25020000  1
  Ba  Ba7  1  0.17032600  0.45317300  0.74980000  1
  P  P8  1  0.05753700  0.73914700  0.95996300  1
  P  P9  1  0.55753700  0.76085300  0.04003700  1
  P  P10  1  0.94246300  0.26085300  0.04003700  1
  P  P11  1  0.44246300  0.23914700  0.95996300  1
  I  I12  1  0.92254600  0.75665600  0.50305600  1
  I  I13  1  0.42254600  0.74334400  0.49694400  1
  I  I14  1  0.07745400  0.24334400  0.49694400  1
  I  I15  1  0.57745400  0.25665600  0.50305600  1
  O  O16  1  0.08494000  0.66629100  0.13530200  1
  O  O17  1  0.58494000  0.83370900  0.86469800  1
  O  O18  1  0.91506000  0.33370900  0.86469800  1
  O  O19  1  0.41506000  0.16629100  0.13530200  1
  O  O20  1  0.09906800  0.29351000  0.06949500  1
  O  O21  1  0.59906800  0.20649000  0.93050500  1
  O  O22  1  0.90093200  0.70649000  0.93050500  1
  O  O23  1  0.40093200  0.79351000  0.06949500  1
  O  O24  1  0.66807200  0.83045600  0.12116300  1
  O  O25  1  0.16807200  0.66954400  0.87883700  1
  O  O26  1  0.33192800  0.16954400  0.87883700  1
  O  O27  1  0.83192800  0.33045600  0.12116300  1
  O  O28  1  0.41665300  0.42331900  0.90306500  1
  O  O29  1  0.91665300  0.07668100  0.09693500  1
  O  O30  1  0.58334700  0.57668100  0.09693500  1
  O  O31  1  0.08334700  0.92331900  0.90306500  1
