# generated using pymatgen
data_Th(PO3)4
_symmetry_space_group_name_H-M   'P 1'
_cell_length_a   8.34799200
_cell_length_b   8.90543040
_cell_length_c   14.82849095
_cell_angle_alpha   78.56434471
_cell_angle_beta   74.64188722
_cell_angle_gamma   62.23392285
_symmetry_Int_Tables_number   1
_chemical_formula_structural   Th(PO3)4
_chemical_formula_sum   'Th4 P16 O48'
_cell_volume   936.99085891
_cell_formula_units_Z   4
loop_
 _symmetry_equiv_pos_site_id
 _symmetry_equiv_pos_as_xyz
  1  'x, y, z'
loop_
 _atom_site_type_symbol
 _atom_site_label
 _atom_site_symmetry_multiplicity
 _atom_site_fract_x
 _atom_site_fract_y
 _atom_site_fract_z
 _atom_site_occupancy
  Th  Th0  1  0.62674900  0.67262600  0.60810900  1
  Th  Th1  1  0.37325100  0.32737400  0.39189100  1
  Th  Th2  1  0.90719500  0.83833900  0.88987000  1
  Th  Th3  1  0.09280500  0.16166100  0.11013000  1
  P  P4  1  0.24692000  0.01406200  0.74377400  1
  P  P5  1  0.75308000  0.98593800  0.25622600  1
  P  P6  1  0.30419000  0.46865300  0.74628600  1
  P  P7  1  0.69581000  0.53134700  0.25371400  1
  P  P8  1  0.60289700  0.86528500  0.13284700  1
  P  P9  1  0.39710300  0.13471500  0.86715300  1
  P  P10  1  0.88835800  0.64692000  0.35869700  1
  P  P11  1  0.11164200  0.35308000  0.64130300  1
  P  P12  1  0.87909900  0.92129900  0.63149800  1
  P  P13  1  0.12090100  0.07870100  0.36850200  1
  P  P14  1  0.26548700  0.72320100  0.02078500  1
  P  P15  1  0.73451300  0.27679900  0.97921500  1
  P  P16  1  0.62621900  0.62256900  0.87586400  1
  P  P17  1  0.37378100  0.37743100  0.12413600  1
  P  P18  1  0.23603500  0.74614900  0.49433400  1
  P  P19  1  0.76396500  0.25385100  0.50566600  1
  O  O20  1  0.78210300  0.64321600  0.89531000  1
  O  O21  1  0.21789700  0.35678400  0.10469000  1
  O  O22  1  0.34754200  0.57115100  0.09949300  1
  O  O23  1  0.65245800  0.42884900  0.90050700  1
  O  O24  1  0.79732200  0.71117100  0.45406600  1
  O  O25  1  0.20267800  0.28882900  0.54593400  1
  O  O26  1  0.86610300  0.10104100  0.57879300  1
  O  O27  1  0.13389700  0.89895900  0.42120700  1
  O  O28  1  0.74579300  0.87526500  0.60699800  1
  O  O29  1  0.25420700  0.12473500  0.39300200  1
  O  O30  1  0.90767300  0.79784400  0.28274500  1
  O  O31  1  0.09232700  0.20215600  0.71725500  1
  O  O32  1  0.61816500  0.94587800  0.21619900  1
  O  O33  1  0.38183500  0.05412200  0.78380100  1
  O  O34  1  0.41257200  0.30425500  0.81222400  1
  O  O35  1  0.58742800  0.69574500  0.18777600  1
  O  O36  1  0.42017400  0.98103200  0.10655600  1
  O  O37  1  0.57982600  0.01896800  0.89344400  1
  O  O38  1  0.77418600  0.81899700  0.05725600  1
  O  O39  1  0.22581400  0.18100300  0.94274400  1
  O  O40  1  0.15959400  0.67968500  0.97108300  1
  O  O41  1  0.84040600  0.32031500  0.02891700  1
  O  O42  1  0.35914100  0.92724300  0.65551800  1
  O  O43  1  0.64085900  0.07275700  0.34448200  1
  O  O44  1  0.58449300  0.67619000  0.77937600  1
  O  O45  1  0.41550700  0.32381000  0.22062400  1
  O  O46  1  0.41023200  0.74464100  0.50510600  1
  O  O47  1  0.58976800  0.25535900  0.49489400  1
  O  O48  1  0.07639100  0.49872100  0.34687700  1
  O  O49  1  0.92360900  0.50127900  0.65312300  1
  O  O50  1  0.15025400  0.92777100  0.81793700  1
  O  O51  1  0.84974600  0.07222900  0.18206300  1
  O  O52  1  0.86746300  0.92971400  0.73315800  1
  O  O53  1  0.13253700  0.07028600  0.26684200  1
  O  O54  1  0.44668600  0.52599800  0.68858400  1
  O  O55  1  0.55331400  0.47400200  0.31141600  1
  O  O56  1  0.24530800  0.58899800  0.46649100  1
  O  O57  1  0.75469200  0.41100200  0.53350900  1
  O  O58  1  0.74344200  0.61123600  0.32508200  1
  O  O59  1  0.25655800  0.38876400  0.67491800  1
  O  O60  1  0.08964400  0.79489300  0.59192800  1
  O  O61  1  0.91035600  0.20510700  0.40807200  1
  O  O62  1  0.44859300  0.72512900  0.95243400  1
  O  O63  1  0.55140700  0.27487100  0.04756600  1
  O  O64  1  0.16917500  0.88695200  0.06604100  1
  O  O65  1  0.83082500  0.11304800  0.93395900  1
  O  O66  1  0.13328100  0.59372700  0.80203800  1
  O  O67  1  0.86671900  0.40627300  0.19796200  1
