# generated using pymatgen
data_Ho2B6Os
_symmetry_space_group_name_H-M   'P 1'
_cell_length_a   3.64957400
_cell_length_b   9.13437100
_cell_length_c   11.51279800
_cell_angle_alpha   90.00000000
_cell_angle_beta   90.00000000
_cell_angle_gamma   90.00000000
_symmetry_Int_Tables_number   1
_chemical_formula_structural   Ho2B6Os
_chemical_formula_sum   'Ho8 B24 Os4'
_cell_volume   383.79711477
_cell_formula_units_Z   4
loop_
 _symmetry_equiv_pos_site_id
 _symmetry_equiv_pos_as_xyz
  1  'x, y, z'
loop_
 _atom_site_type_symbol
 _atom_site_label
 _atom_site_symmetry_multiplicity
 _atom_site_fract_x
 _atom_site_fract_y
 _atom_site_fract_z
 _atom_site_occupancy
  Ho  Ho0  1  0.00000000  0.32189700  0.41373200  1
  Ho  Ho1  1  0.00000000  0.67810300  0.58626800  1
  Ho  Ho2  1  0.00000000  0.82189700  0.08626800  1
  Ho  Ho3  1  0.00000000  0.17810300  0.91373200  1
  Ho  Ho4  1  0.00000000  0.94500600  0.37338400  1
  Ho  Ho5  1  0.00000000  0.05499400  0.62661600  1
  Ho  Ho6  1  0.00000000  0.44500600  0.12661600  1
  Ho  Ho7  1  0.00000000  0.55499400  0.87338400  1
  B  B8  1  0.50000000  0.55407500  0.43324600  1
  B  B9  1  0.50000000  0.44592500  0.56675400  1
  B  B10  1  0.50000000  0.05407500  0.06675400  1
  B  B11  1  0.50000000  0.94592500  0.93324600  1
  B  B12  1  0.50000000  0.74848200  0.42074100  1
  B  B13  1  0.50000000  0.25151800  0.57925900  1
  B  B14  1  0.50000000  0.24848200  0.07925900  1
  B  B15  1  0.50000000  0.75151800  0.92074100  1
  B  B16  1  0.50000000  0.79200200  0.26733000  1
  B  B17  1  0.50000000  0.20799800  0.73267000  1
  B  B18  1  0.50000000  0.29200200  0.23267000  1
  B  B19  1  0.50000000  0.70799800  0.76733000  1
  B  B20  1  0.50000000  0.63254100  0.18550900  1
  B  B21  1  0.50000000  0.36745900  0.81449100  1
  B  B22  1  0.50000000  0.13254100  0.31449100  1
  B  B23  1  0.50000000  0.86745900  0.68550900  1
  B  B24  1  0.50000000  0.98387800  0.21294500  1
  B  B25  1  0.50000000  0.01612200  0.78705500  1
  B  B26  1  0.50000000  0.48387800  0.28705500  1
  B  B27  1  0.50000000  0.51612200  0.71294500  1
  B  B28  1  0.50000000  0.61034400  0.03070900  1
  B  B29  1  0.50000000  0.38965600  0.96929100  1
  B  B30  1  0.50000000  0.11034400  0.46929100  1
  B  B31  1  0.50000000  0.88965600  0.53070900  1
  Os  Os32  1  0.00000000  0.63809000  0.32163300  1
  Os  Os33  1  0.00000000  0.36191000  0.67836700  1
  Os  Os34  1  0.00000000  0.13809000  0.17836700  1
  Os  Os35  1  0.00000000  0.86191000  0.82163300  1
