# generated using pymatgen
data_YNiGe2
_symmetry_space_group_name_H-M   'P 1'
_cell_length_a   8.56217634
_cell_length_b   8.56217634
_cell_length_c   4.20747400
_cell_angle_alpha   90.00000000
_cell_angle_beta   90.00000000
_cell_angle_gamma   152.33247416
_symmetry_Int_Tables_number   1
_chemical_formula_structural   YNiGe2
_chemical_formula_sum   'Y2 Ni2 Ge4'
_cell_volume   143.22736806
_cell_formula_units_Z   2
loop_
 _symmetry_equiv_pos_site_id
 _symmetry_equiv_pos_as_xyz
  1  'x, y, z'
loop_
 _atom_site_type_symbol
 _atom_site_label
 _atom_site_symmetry_multiplicity
 _atom_site_fract_x
 _atom_site_fract_y
 _atom_site_fract_z
 _atom_site_occupancy
  Y  Y0  1  0.89244200  0.10755800  0.25000000  1
  Y  Y1  1  0.10755800  0.89244200  0.75000000  1
  Ni  Ni2  1  0.67944100  0.32055900  0.25000000  1
  Ni  Ni3  1  0.32055900  0.67944100  0.75000000  1
  Ge  Ge4  1  0.54155700  0.45844300  0.25000000  1
  Ge  Ge5  1  0.45844300  0.54155700  0.75000000  1
  Ge  Ge6  1  0.25251400  0.74748600  0.25000000  1
  Ge  Ge7  1  0.74748600  0.25251400  0.75000000  1
