# generated using pymatgen
data_NaV2P2O9
_symmetry_space_group_name_H-M   'P 1'
_cell_length_a   6.45313800
_cell_length_b   7.67680900
_cell_length_c   14.06546400
_cell_angle_alpha   90.00000000
_cell_angle_beta   90.00000000
_cell_angle_gamma   90.00000000
_symmetry_Int_Tables_number   1
_chemical_formula_structural   NaV2P2O9
_chemical_formula_sum   'Na4 V8 P8 O36'
_cell_volume   696.79616462
_cell_formula_units_Z   4
loop_
 _symmetry_equiv_pos_site_id
 _symmetry_equiv_pos_as_xyz
  1  'x, y, z'
loop_
 _atom_site_type_symbol
 _atom_site_label
 _atom_site_symmetry_multiplicity
 _atom_site_fract_x
 _atom_site_fract_y
 _atom_site_fract_z
 _atom_site_occupancy
  Na  Na0  1  0.75000000  0.88945500  0.77911500  1
  Na  Na1  1  0.75000000  0.61054500  0.27911500  1
  Na  Na2  1  0.25000000  0.38945500  0.72088500  1
  Na  Na3  1  0.25000000  0.11054500  0.22088500  1
  V  V4  1  0.75000000  0.34936400  0.88087100  1
  V  V5  1  0.25000000  0.65063600  0.11912900  1
  V  V6  1  0.25000000  0.84936400  0.61912900  1
  V  V7  1  0.75000000  0.15063600  0.38087100  1
  V  V8  1  0.50000000  0.00000000  0.00000000  1
  V  V9  1  0.50000000  0.50000000  0.50000000  1
  V  V10  1  0.00000000  0.50000000  0.50000000  1
  V  V11  1  0.00000000  0.00000000  0.00000000  1
  P  P12  1  0.25000000  0.35275700  0.93841700  1
  P  P13  1  0.75000000  0.64724300  0.06158300  1
  P  P14  1  0.75000000  0.85275700  0.56158300  1
  P  P15  1  0.25000000  0.14724300  0.43841700  1
  P  P16  1  0.75000000  0.38997700  0.69202200  1
  P  P17  1  0.75000000  0.11002300  0.19202200  1
  P  P18  1  0.25000000  0.88997700  0.80797800  1
  P  P19  1  0.25000000  0.61002300  0.30797800  1
  O  O20  1  0.05346100  0.60178700  0.37149900  1
  O  O21  1  0.55346100  0.39821300  0.62850100  1
  O  O22  1  0.94653900  0.10178700  0.12850100  1
  O  O23  1  0.44653900  0.89821300  0.87149900  1
  O  O24  1  0.94653900  0.39821300  0.62850100  1
  O  O25  1  0.44653900  0.60178700  0.37149900  1
  O  O26  1  0.05346100  0.89821300  0.87149900  1
  O  O27  1  0.55346100  0.10178700  0.12850100  1
  O  O28  1  0.25000000  0.33402700  0.48357300  1
  O  O29  1  0.75000000  0.66597300  0.51642700  1
  O  O30  1  0.75000000  0.83402700  0.01642700  1
  O  O31  1  0.25000000  0.16597300  0.98357300  1
  O  O32  1  0.75000000  0.14226100  0.94483600  1
  O  O33  1  0.25000000  0.85773900  0.05516400  1
  O  O34  1  0.25000000  0.64226100  0.55516400  1
  O  O35  1  0.75000000  0.35773900  0.44483600  1
  O  O36  1  0.75000000  0.22174100  0.75464600  1
  O  O37  1  0.25000000  0.77825900  0.24535400  1
  O  O38  1  0.25000000  0.72174100  0.74535400  1
  O  O39  1  0.75000000  0.27825900  0.25464600  1
  O  O40  1  0.44138500  0.13049900  0.37410800  1
  O  O41  1  0.94138500  0.86950100  0.62589200  1
  O  O42  1  0.55861500  0.63049900  0.12589200  1
  O  O43  1  0.05861500  0.36950100  0.87410800  1
  O  O44  1  0.55861500  0.86950100  0.62589200  1
  O  O45  1  0.05861500  0.13049900  0.37410800  1
  O  O46  1  0.44138500  0.36950100  0.87410800  1
  O  O47  1  0.94138500  0.63049900  0.12589200  1
  O  O48  1  0.75000000  0.51588900  0.98024200  1
  O  O49  1  0.25000000  0.03264100  0.72969600  1
  O  O50  1  0.25000000  0.46735900  0.22969600  1
  O  O51  1  0.75000000  0.53264100  0.77030400  1
  O  O52  1  0.75000000  0.98411100  0.48024200  1
  O  O53  1  0.25000000  0.01588900  0.51975800  1
  O  O54  1  0.25000000  0.48411100  0.01975800  1
  O  O55  1  0.75000000  0.96735900  0.27030400  1
