# generated using pymatgen
data_CsZr6CCl15
_symmetry_space_group_name_H-M   'P 1'
_cell_length_a   9.94011900
_cell_length_b   14.24295500
_cell_length_c   18.91456400
_cell_angle_alpha   90.00000000
_cell_angle_beta   90.00000000
_cell_angle_gamma   90.00000000
_symmetry_Int_Tables_number   1
_chemical_formula_structural   CsZr6CCl15
_chemical_formula_sum   'Cs4 Zr24 C4 Cl60'
_cell_volume   2677.86094045
_cell_formula_units_Z   4
loop_
 _symmetry_equiv_pos_site_id
 _symmetry_equiv_pos_as_xyz
  1  'x, y, z'
loop_
 _atom_site_type_symbol
 _atom_site_label
 _atom_site_symmetry_multiplicity
 _atom_site_fract_x
 _atom_site_fract_y
 _atom_site_fract_z
 _atom_site_occupancy
  Cs  Cs0  1  0.82915900  0.24746900  0.75000000  1
  Cs  Cs1  1  0.17084100  0.75253100  0.25000000  1
  Cs  Cs2  1  0.82915900  0.75253100  0.75000000  1
  Cs  Cs3  1  0.17084100  0.24746900  0.25000000  1
  Zr  Zr4  1  0.11548000  0.50000000  0.75000000  1
  Zr  Zr5  1  0.88452000  0.50000000  0.25000000  1
  Zr  Zr6  1  0.07965300  0.00000000  0.11233900  1
  Zr  Zr7  1  0.92034700  0.00000000  0.88766100  1
  Zr  Zr8  1  0.07965300  0.00000000  0.38766100  1
  Zr  Zr9  1  0.92034700  0.00000000  0.61233900  1
  Zr  Zr10  1  0.34166900  0.38526300  0.66336200  1
  Zr  Zr11  1  0.65833100  0.61473700  0.33663800  1
  Zr  Zr12  1  0.34166900  0.61473700  0.83663800  1
  Zr  Zr13  1  0.65833100  0.38526300  0.33663800  1
  Zr  Zr14  1  0.65833100  0.38526300  0.16336200  1
  Zr  Zr15  1  0.34166900  0.61473700  0.66336200  1
  Zr  Zr16  1  0.65833100  0.61473700  0.16336200  1
  Zr  Zr17  1  0.34166900  0.38526300  0.83663800  1
  Zr  Zr18  1  0.57027200  0.50000000  0.75000000  1
  Zr  Zr19  1  0.42972800  0.50000000  0.25000000  1
  Zr  Zr20  1  0.15521300  0.11442800  0.52958500  1
  Zr  Zr21  1  0.84478700  0.88557200  0.47041500  1
  Zr  Zr22  1  0.15521300  0.88557200  0.97041500  1
  Zr  Zr23  1  0.84478700  0.11442800  0.47041500  1
  Zr  Zr24  1  0.84478700  0.11442800  0.02958500  1
  Zr  Zr25  1  0.15521300  0.88557200  0.52958500  1
  Zr  Zr26  1  0.84478700  0.88557200  0.02958500  1
  Zr  Zr27  1  0.15521300  0.11442800  0.97041500  1
  C  C28  1  0.00000000  0.00000000  0.50000000  1
  C  C29  1  0.00000000  0.00000000  0.00000000  1
  C  C30  1  0.34320800  0.50000000  0.75000000  1
  C  C31  1  0.65679200  0.50000000  0.25000000  1
  Cl  Cl32  1  0.81863900  0.00000000  0.75000000  1
  Cl  Cl33  1  0.18136100  0.00000000  0.25000000  1
  Cl  Cl34  1  0.84218200  0.50000000  0.75000000  1
  Cl  Cl35  1  0.15781800  0.50000000  0.25000000  1
  Cl  Cl36  1  0.34165700  0.50000000  0.56015500  1
  Cl  Cl37  1  0.65834300  0.50000000  0.43984500  1
  Cl  Cl38  1  0.34165700  0.50000000  0.93984500  1
  Cl  Cl39  1  0.65834300  0.50000000  0.06015500  1
  Cl  Cl40  1  0.00000000  0.25130600  0.50000000  1
  Cl  Cl41  1  0.00000000  0.74869400  0.50000000  1
  Cl  Cl42  1  0.00000000  0.74869400  0.00000000  1
  Cl  Cl43  1  0.00000000  0.25130600  0.00000000  1
  Cl  Cl44  1  0.35002400  0.24797500  0.75000000  1
  Cl  Cl45  1  0.64997600  0.75202500  0.25000000  1
  Cl  Cl46  1  0.35002400  0.75202500  0.75000000  1
  Cl  Cl47  1  0.64997600  0.24797500  0.25000000  1
  Cl  Cl48  1  0.33753300  0.24929600  0.56340700  1
  Cl  Cl49  1  0.66246700  0.75070400  0.43659300  1
  Cl  Cl50  1  0.33753300  0.75070400  0.93659300  1
  Cl  Cl51  1  0.66246700  0.24929600  0.43659300  1
  Cl  Cl52  1  0.66246700  0.24929600  0.06340700  1
  Cl  Cl53  1  0.33753300  0.75070400  0.56340700  1
  Cl  Cl54  1  0.66246700  0.75070400  0.06340700  1
  Cl  Cl55  1  0.33753300  0.24929600  0.93659300  1
  Cl  Cl56  1  0.08320300  0.12322300  0.65822300  1
  Cl  Cl57  1  0.91679700  0.87677700  0.34177700  1
  Cl  Cl58  1  0.08320300  0.87677700  0.84177700  1
  Cl  Cl59  1  0.91679700  0.12322300  0.34177700  1
  Cl  Cl60  1  0.91679700  0.12322300  0.15822300  1
  Cl  Cl61  1  0.08320300  0.87677700  0.65822300  1
  Cl  Cl62  1  0.91679700  0.87677700  0.15822300  1
  Cl  Cl63  1  0.08320300  0.12322300  0.84177700  1
  Cl  Cl64  1  0.08629500  0.37581000  0.65473700  1
  Cl  Cl65  1  0.91370500  0.62419000  0.34526300  1
  Cl  Cl66  1  0.08629500  0.62419000  0.84526300  1
  Cl  Cl67  1  0.91370500  0.37581000  0.34526300  1
  Cl  Cl68  1  0.91370500  0.37581000  0.15473700  1
  Cl  Cl69  1  0.08629500  0.62419000  0.65473700  1
  Cl  Cl70  1  0.91370500  0.62419000  0.15473700  1
  Cl  Cl71  1  0.08629500  0.37581000  0.84526300  1
  Cl  Cl72  1  0.34013600  0.00000000  0.56531600  1
  Cl  Cl73  1  0.65986400  0.00000000  0.43468400  1
  Cl  Cl74  1  0.34013600  0.00000000  0.93468400  1
  Cl  Cl75  1  0.65986400  0.00000000  0.06531600  1
  Cl  Cl76  1  0.59786400  0.37630200  0.65274400  1
  Cl  Cl77  1  0.40213600  0.62369800  0.34725600  1
  Cl  Cl78  1  0.59786400  0.62369800  0.84725600  1
  Cl  Cl79  1  0.40213600  0.37630200  0.34725600  1
  Cl  Cl80  1  0.40213600  0.37630200  0.15274400  1
  Cl  Cl81  1  0.59786400  0.62369800  0.65274400  1
  Cl  Cl82  1  0.40213600  0.62369800  0.15274400  1
  Cl  Cl83  1  0.59786400  0.37630200  0.84725600  1
  Cl  Cl84  1  0.26125900  0.12519800  0.09353800  1
  Cl  Cl85  1  0.73874100  0.87480200  0.90646200  1
  Cl  Cl86  1  0.26125900  0.87480200  0.40646200  1
  Cl  Cl87  1  0.73874100  0.12519800  0.90646200  1
  Cl  Cl88  1  0.73874100  0.12519800  0.59353800  1
  Cl  Cl89  1  0.26125900  0.87480200  0.09353800  1
  Cl  Cl90  1  0.73874100  0.87480200  0.59353800  1
  Cl  Cl91  1  0.26125900  0.12519800  0.40646200  1
