# generated using pymatgen
data_Lu3Pd4
_symmetry_space_group_name_H-M   'P 1'
_cell_length_a   7.73575087
_cell_length_b   7.73575087
_cell_length_c   7.73575152
_cell_angle_alpha   114.22768295
_cell_angle_beta   114.22768295
_cell_angle_gamma   114.22768329
_symmetry_Int_Tables_number   1
_chemical_formula_structural   Lu3Pd4
_chemical_formula_sum   'Lu6 Pd8'
_cell_volume   276.43661671
_cell_formula_units_Z   2
loop_
 _symmetry_equiv_pos_site_id
 _symmetry_equiv_pos_as_xyz
  1  'x, y, z'
loop_
 _atom_site_type_symbol
 _atom_site_label
 _atom_site_symmetry_multiplicity
 _atom_site_fract_x
 _atom_site_fract_y
 _atom_site_fract_z
 _atom_site_occupancy
  Lu  Lu0  1  0.97595800  0.59636300  0.72268300  1
  Lu  Lu1  1  0.72268300  0.97595800  0.59636300  1
  Lu  Lu2  1  0.59636300  0.72268300  0.97595800  1
  Lu  Lu3  1  0.02404200  0.40363700  0.27731700  1
  Lu  Lu4  1  0.27731700  0.02404200  0.40363700  1
  Lu  Lu5  1  0.40363700  0.27731700  0.02404200  1
  Pd  Pd6  1  0.00000000  0.00000000  0.00000000  1
  Pd  Pd7  1  0.50000000  0.50000000  0.50000000  1
  Pd  Pd8  1  0.93584800  0.77126600  0.44930400  1
  Pd  Pd9  1  0.44930400  0.93584800  0.77126600  1
  Pd  Pd10  1  0.77126600  0.44930400  0.93584800  1
  Pd  Pd11  1  0.06415200  0.22873400  0.55069600  1
  Pd  Pd12  1  0.55069600  0.06415200  0.22873400  1
  Pd  Pd13  1  0.22873400  0.55069600  0.06415200  1
