# generated using pymatgen
data_Rb2Ba(Ge4O9)2
_symmetry_space_group_name_H-M   'P 1'
_cell_length_a   12.00705965
_cell_length_b   12.00705965
_cell_length_c   19.59786879
_cell_angle_alpha   90.00000000
_cell_angle_beta   90.00000000
_cell_angle_gamma   120.00000345
_symmetry_Int_Tables_number   1
_chemical_formula_structural   Rb2Ba(Ge4O9)2
_chemical_formula_sum   'Rb12 Ba6 Ge48 O108'
_cell_volume   2446.88071674
_cell_formula_units_Z   6
loop_
 _symmetry_equiv_pos_site_id
 _symmetry_equiv_pos_as_xyz
  1  'x, y, z'
loop_
 _atom_site_type_symbol
 _atom_site_label
 _atom_site_symmetry_multiplicity
 _atom_site_fract_x
 _atom_site_fract_y
 _atom_site_fract_z
 _atom_site_occupancy
  Rb  Rb0  1  0.99870834  0.33606092  0.96026833  1
  Rb  Rb1  1  0.00129166  0.66393908  0.03973167  1
  Rb  Rb2  1  0.33735258  0.00129166  0.96026833  1
  Rb  Rb3  1  0.66264742  0.66393908  0.53973167  1
  Rb  Rb4  1  0.66264742  0.99870834  0.03973167  1
  Rb  Rb5  1  0.33735258  0.33606092  0.46026833  1
  Rb  Rb6  1  0.66393908  0.66264742  0.96026833  1
  Rb  Rb7  1  0.33606092  0.99870834  0.53973167  1
  Rb  Rb8  1  0.33606092  0.33735258  0.03973167  1
  Rb  Rb9  1  0.66393908  0.00129166  0.46026833  1
  Rb  Rb10  1  0.00129166  0.33735258  0.53973167  1
  Rb  Rb11  1  0.99870834  0.66264742  0.46026833  1
  Ba  Ba12  1  0.66478201  0.66478201  0.75000000  1
  Ba  Ba13  1  0.33521799  0.33521799  0.25000000  1
  Ba  Ba14  1  0.00000000  0.33521799  0.75000000  1
  Ba  Ba15  1  1.00000000  0.66478201  0.25000000  1
  Ba  Ba16  1  0.33521799  0.00000000  0.75000000  1
  Ba  Ba17  1  0.66478201  1.00000000  0.25000000  1
  Ge  Ge18  1  0.66666700  0.33333300  0.97787086  1
  Ge  Ge19  1  0.33333300  0.66666700  0.02212914  1
  Ge  Ge20  1  0.33333300  0.66666700  0.52212914  1
  Ge  Ge21  1  0.66666700  0.33333300  0.47787086  1
  Ge  Ge22  1  0.66666700  0.33333300  0.72809128  1
  Ge  Ge23  1  0.33333300  0.66666700  0.27190872  1
  Ge  Ge24  1  0.33333300  0.66666700  0.77190872  1
  Ge  Ge25  1  0.66666700  0.33333300  0.22809128  1
  Ge  Ge26  1  -0.00000000  0.00000000  0.00000000  1
  Ge  Ge27  1  -0.00000000  0.00000000  0.50000000  1
  Ge  Ge28  1  0.82497381  0.00347282  0.87237005  1
  Ge  Ge29  1  0.17502619  0.99652718  0.12762995  1
  Ge  Ge30  1  0.17849901  0.17502619  0.87237005  1
  Ge  Ge31  1  0.82150099  0.99652718  0.62762995  1
  Ge  Ge32  1  0.82150099  0.82497381  0.12762995  1
  Ge  Ge33  1  0.17849901  0.00347282  0.37237005  1
  Ge  Ge34  1  0.99652718  0.82150099  0.87237005  1
  Ge  Ge35  1  0.00347282  0.82497381  0.62762995  1
  Ge  Ge36  1  0.00347282  0.17849901  0.12762995  1
  Ge  Ge37  1  0.99652718  0.17502619  0.37237005  1
  Ge  Ge38  1  0.17502619  0.17849901  0.62762995  1
  Ge  Ge39  1  0.82497381  0.82150099  0.37237005  1
  Ge  Ge40  1  0.66152615  0.14419545  0.85072395  1
  Ge  Ge41  1  0.33847385  0.85580455  0.14927605  1
  Ge  Ge42  1  0.48266930  0.33847385  0.85072395  1
  Ge  Ge43  1  0.51733070  0.85580455  0.64927605  1
  Ge  Ge44  1  0.51733070  0.66152615  0.14927605  1
  Ge  Ge45  1  0.48266930  0.14419545  0.35072395  1
  Ge  Ge46  1  0.85580455  0.51733070  0.85072395  1
  Ge  Ge47  1  0.14419545  0.66152615  0.64927605  1
  Ge  Ge48  1  0.14419545  0.48266930  0.14927605  1
  Ge  Ge49  1  0.85580455  0.33847385  0.35072395  1
  Ge  Ge50  1  0.33847385  0.48266930  0.64927605  1
  Ge  Ge51  1  0.66152615  0.51733070  0.35072395  1
  Ge  Ge52  1  0.51212021  0.84551453  0.89092518  1
  Ge  Ge53  1  0.48787979  0.15448547  0.10907482  1
  Ge  Ge54  1  0.33339432  0.48787979  0.89092518  1
  Ge  Ge55  1  0.66660568  0.15448547  0.60907482  1
  Ge  Ge56  1  0.66660568  0.51212021  0.10907482  1
  Ge  Ge57  1  0.33339432  0.84551453  0.39092518  1
  Ge  Ge58  1  0.15448547  0.66660568  0.89092518  1
  Ge  Ge59  1  0.84551453  0.51212021  0.60907482  1
  Ge  Ge60  1  0.84551453  0.33339432  0.10907482  1
  Ge  Ge61  1  0.15448547  0.48787979  0.39092518  1
  Ge  Ge62  1  0.48787979  0.33339432  0.60907482  1
  Ge  Ge63  1  0.51212021  0.66660568  0.39092518  1
  Ge  Ge64  1  -0.00000000  0.00000000  0.75000000  1
  Ge  Ge65  1  -0.00000000  0.00000000  0.25000000  1
  O  O66  1  0.72572898  0.24036973  0.92348216  1
  O  O67  1  0.27427102  0.75963027  0.07651784  1
  O  O68  1  0.51464075  0.27427102  0.92348216  1
  O  O69  1  0.48535925  0.75963027  0.57651784  1
  O  O70  1  0.48535925  0.72572898  0.07651784  1
  O  O71  1  0.51464075  0.24036973  0.42348216  1
  O  O72  1  0.75963027  0.48535925  0.92348216  1
  O  O73  1  0.24036973  0.72572898  0.57651784  1
  O  O74  1  0.24036973  0.51464075  0.07651784  1
  O  O75  1  0.75963027  0.27427102  0.42348216  1
  O  O76  1  0.27427102  0.51464075  0.57651784  1
  O  O77  1  0.72572898  0.48535925  0.42348216  1
  O  O78  1  0.67551341  0.89365136  0.91415615  1
  O  O79  1  0.32448659  0.10634864  0.08584385  1
  O  O80  1  0.21813796  0.32448659  0.91415615  1
  O  O81  1  0.78186204  0.10634864  0.58584385  1
  O  O82  1  0.78186204  0.67551341  0.08584385  1
  O  O83  1  0.21813796  0.89365136  0.41415615  1
  O  O84  1  0.10634864  0.78186204  0.91415615  1
  O  O85  1  0.89365136  0.67551341  0.58584385  1
  O  O86  1  0.89365136  0.21813796  0.08584385  1
  O  O87  1  0.10634864  0.32448659  0.41415615  1
  O  O88  1  0.32448659  0.21813796  0.58584385  1
  O  O89  1  0.67551341  0.78186204  0.41415615  1
  O  O90  1  0.81667798  0.40705796  0.78269088  1
  O  O91  1  0.18332202  0.59294204  0.21730912  1
  O  O92  1  0.59037999  0.18332202  0.78269088  1
  O  O93  1  0.40962001  0.59294204  0.71730912  1
  O  O94  1  0.40962001  0.81667798  0.21730912  1
  O  O95  1  0.59037999  0.40705796  0.28269088  1
  O  O96  1  0.59294204  0.40962001  0.78269088  1
  O  O97  1  0.40705796  0.81667798  0.71730912  1
  O  O98  1  0.40705796  0.59037999  0.21730912  1
  O  O99  1  0.59294204  0.18332202  0.28269088  1
  O  O100  1  0.18332202  0.59037999  0.71730912  1
  O  O101  1  0.81667798  0.40962001  0.28269088  1
  O  O102  1  0.93090871  0.08115917  0.94127546  1
  O  O103  1  0.06909129  0.91884083  0.05872454  1
  O  O104  1  0.15025045  0.06909129  0.94127546  1
  O  O105  1  0.84974955  0.91884083  0.55872454  1
  O  O106  1  0.84974955  0.93090871  0.05872454  1
  O  O107  1  0.15025045  0.08115917  0.44127546  1
  O  O108  1  0.91884083  0.84974955  0.94127546  1
  O  O109  1  0.08115917  0.93090871  0.55872454  1
  O  O110  1  0.08115917  0.15025045  0.05872454  1
  O  O111  1  0.91884083  0.06909129  0.44127546  1
  O  O112  1  0.06909129  0.15025045  0.55872454  1
  O  O113  1  0.93090871  0.84974955  0.44127546  1
  O  O114  1  0.79454275  0.12032729  0.82805566  1
  O  O115  1  0.20545725  0.87967271  0.17194434  1
  O  O116  1  0.32578455  0.20545725  0.82805566  1
  O  O117  1  0.67421545  0.87967271  0.67194434  1
  O  O118  1  0.67421545  0.79454275  0.17194434  1
  O  O119  1  0.32578455  0.12032729  0.32805566  1
  O  O120  1  0.87967271  0.67421545  0.82805566  1
  O  O121  1  0.12032729  0.79454275  0.67194434  1
  O  O122  1  0.12032729  0.32578455  0.17194434  1
  O  O123  1  0.87967271  0.20545725  0.32805566  1
  O  O124  1  0.20545725  0.32578455  0.67194434  1
  O  O125  1  0.79454275  0.67421545  0.32805566  1
  O  O126  1  0.47362654  0.48260992  0.86386554  1
  O  O127  1  0.52637346  0.51739008  0.13613446  1
  O  O128  1  0.00898338  0.52637346  0.86386554  1
  O  O129  1  0.99101662  0.51739008  0.63613446  1
  O  O130  1  0.99101662  0.47362654  0.13613446  1
  O  O131  1  0.00898338  0.48260992  0.36386554  1
  O  O132  1  0.51739008  0.99101662  0.86386554  1
  O  O133  1  0.48260992  0.47362654  0.63613446  1
  O  O134  1  0.48260992  0.00898338  0.13613446  1
  O  O135  1  0.51739008  0.52637346  0.36386554  1
  O  O136  1  0.52637346  0.00898338  0.63613446  1
  O  O137  1  0.47362654  0.99101662  0.36386554  1
  O  O138  1  0.84952475  0.91334214  0.80800237  1
  O  O139  1  0.15047525  0.08665786  0.19199763  1
  O  O140  1  0.06381740  0.15047525  0.80800237  1
  O  O141  1  0.93618260  0.08665786  0.69199763  1
  O  O142  1  0.93618260  0.84952475  0.19199763  1
  O  O143  1  0.06381740  0.91334214  0.30800237  1
  O  O144  1  0.08665786  0.93618260  0.80800237  1
  O  O145  1  0.91334214  0.84952475  0.69199763  1
  O  O146  1  0.91334214  0.06381740  0.19199763  1
  O  O147  1  0.08665786  0.15047525  0.30800237  1
  O  O148  1  0.15047525  0.06381740  0.69199763  1
  O  O149  1  0.84952475  0.93618260  0.30800237  1
  O  O150  1  0.39294396  0.57569155  0.96680029  1
  O  O151  1  0.60705604  0.42430845  0.03319971  1
  O  O152  1  0.18274760  0.60705604  0.96680029  1
  O  O153  1  0.81725240  0.42430845  0.53319971  1
  O  O154  1  0.81725240  0.39294396  0.03319971  1
  O  O155  1  0.18274760  0.57569155  0.46680029  1
  O  O156  1  0.42430845  0.81725240  0.96680029  1
  O  O157  1  0.57569155  0.39294396  0.53319971  1
  O  O158  1  0.57569155  0.18274760  0.03319971  1
  O  O159  1  0.42430845  0.60705604  0.46680029  1
  O  O160  1  0.60705604  0.18274760  0.53319971  1
  O  O161  1  0.39294396  0.81725240  0.46680029  1
  O  O162  1  0.48279812  0.72700849  0.82895108  1
  O  O163  1  0.51720188  0.27299151  0.17104892  1
  O  O164  1  0.24421036  0.51720188  0.82895108  1
  O  O165  1  0.75578964  0.27299151  0.67104892  1
  O  O166  1  0.75578964  0.48279812  0.17104892  1
  O  O167  1  0.24421036  0.72700849  0.32895108  1
  O  O168  1  0.27299151  0.75578964  0.82895108  1
  O  O169  1  0.72700849  0.48279812  0.67104892  1
  O  O170  1  0.72700849  0.24421036  0.17104892  1
  O  O171  1  0.27299151  0.51720188  0.32895108  1
  O  O172  1  0.51720188  0.24421036  0.67104892  1
  O  O173  1  0.48279812  0.75578964  0.32895108  1
