# generated using pymatgen
data_Tm5(Co2Ge5)2
_symmetry_space_group_name_H-M   'P 1'
_cell_length_a   4.15344500
_cell_length_b   12.70193300
_cell_length_c   12.70193300
_cell_angle_alpha   90.00000000
_cell_angle_beta   90.00000000
_cell_angle_gamma   90.00000000
_symmetry_Int_Tables_number   1
_chemical_formula_structural   Tm5(Co2Ge5)2
_chemical_formula_sum   'Tm10 Co8 Ge20'
_cell_volume   670.11308624
_cell_formula_units_Z   2
loop_
 _symmetry_equiv_pos_site_id
 _symmetry_equiv_pos_as_xyz
  1  'x, y, z'
loop_
 _atom_site_type_symbol
 _atom_site_label
 _atom_site_symmetry_multiplicity
 _atom_site_fract_x
 _atom_site_fract_y
 _atom_site_fract_z
 _atom_site_occupancy
  Tm  Tm0  1  0.00000000  0.50000000  0.50000000  1
  Tm  Tm1  1  0.00000000  0.00000000  0.00000000  1
  Tm  Tm2  1  0.50000000  0.17565300  0.67565300  1
  Tm  Tm3  1  0.50000000  0.82434700  0.32434700  1
  Tm  Tm4  1  0.50000000  0.32434700  0.17565300  1
  Tm  Tm5  1  0.50000000  0.67565300  0.82434700  1
  Tm  Tm6  1  0.50000000  0.38651100  0.88651100  1
  Tm  Tm7  1  0.50000000  0.61348900  0.11348900  1
  Tm  Tm8  1  0.50000000  0.11348900  0.38651100  1
  Tm  Tm9  1  0.50000000  0.88651100  0.61348900  1
  Co  Co10  1  0.00000000  0.52388300  0.74592700  1
  Co  Co11  1  0.00000000  0.47611700  0.25407300  1
  Co  Co12  1  0.00000000  0.97611700  0.24592700  1
  Co  Co13  1  0.00000000  0.02388300  0.75407300  1
  Co  Co14  1  0.00000000  0.74592700  0.47611700  1
  Co  Co15  1  0.00000000  0.25407300  0.52388300  1
  Co  Co16  1  0.00000000  0.24592700  0.02388300  1
  Co  Co17  1  0.00000000  0.75407300  0.97611700  1
  Ge  Ge18  1  0.00000000  0.06834900  0.56834900  1
  Ge  Ge19  1  0.00000000  0.93165100  0.43165100  1
  Ge  Ge20  1  0.00000000  0.43165100  0.06834900  1
  Ge  Ge21  1  0.00000000  0.56834900  0.93165100  1
  Ge  Ge22  1  0.00000000  0.69732700  0.65643900  1
  Ge  Ge23  1  0.00000000  0.30267300  0.34356100  1
  Ge  Ge24  1  0.00000000  0.80267300  0.15643900  1
  Ge  Ge25  1  0.00000000  0.19732700  0.84356100  1
  Ge  Ge26  1  0.00000000  0.65643900  0.30267300  1
  Ge  Ge27  1  0.00000000  0.34356100  0.69732700  1
  Ge  Ge28  1  0.00000000  0.15643900  0.19732700  1
  Ge  Ge29  1  0.00000000  0.84356100  0.80267300  1
  Ge  Ge30  1  0.50000000  0.50591100  0.66549700  1
  Ge  Ge31  1  0.50000000  0.49408900  0.33450300  1
  Ge  Ge32  1  0.50000000  0.99408900  0.16549700  1
  Ge  Ge33  1  0.50000000  0.00591100  0.83450300  1
  Ge  Ge34  1  0.50000000  0.66549700  0.49408900  1
  Ge  Ge35  1  0.50000000  0.33450300  0.50591100  1
  Ge  Ge36  1  0.50000000  0.16549700  0.00591100  1
  Ge  Ge37  1  0.50000000  0.83450300  0.99408900  1
