# generated using pymatgen
data_RbMgCO3F
_symmetry_space_group_name_H-M   'P 1'
_cell_length_a   9.17290409
_cell_length_b   9.17290409
_cell_length_c   4.01777200
_cell_angle_alpha   90.00000000
_cell_angle_beta   90.00000000
_cell_angle_gamma   120.00000068
_symmetry_Int_Tables_number   1
_chemical_formula_structural   RbMgCO3F
_chemical_formula_sum   'Rb3 Mg3 C3 O9 F3'
_cell_volume   292.77205579
_cell_formula_units_Z   3
loop_
 _symmetry_equiv_pos_site_id
 _symmetry_equiv_pos_as_xyz
  1  'x, y, z'
loop_
 _atom_site_type_symbol
 _atom_site_label
 _atom_site_symmetry_multiplicity
 _atom_site_fract_x
 _atom_site_fract_y
 _atom_site_fract_z
 _atom_site_occupancy
  Rb  Rb0  1  0.00000000  0.38254600  0.00000000  1
  Rb  Rb1  1  0.61745400  0.61745400  0.00000000  1
  Rb  Rb2  1  0.38254600  0.00000000  0.00000000  1
  Mg  Mg3  1  0.00000000  0.71882800  0.50000000  1
  Mg  Mg4  1  0.28117200  0.28117200  0.50000000  1
  Mg  Mg5  1  0.71882800  0.00000000  0.50000000  1
  C  C6  1  0.66666700  0.33333300  0.50000000  1
  C  C7  1  0.33333300  0.66666700  0.50000000  1
  C  C8  1  0.00000000  0.00000000  0.50000000  1
  O  O9  1  0.79902600  0.48231800  0.50000000  1
  O  O10  1  0.51768200  0.31670900  0.50000000  1
  O  O11  1  0.68329100  0.20097400  0.50000000  1
  O  O12  1  0.48231800  0.79902600  0.50000000  1
  O  O13  1  0.31670900  0.51768200  0.50000000  1
  O  O14  1  0.20097400  0.68329100  0.50000000  1
  O  O15  1  0.00000000  0.14152100  0.50000000  1
  O  O16  1  0.85847900  0.85847900  0.50000000  1
  O  O17  1  0.14152100  0.00000000  0.50000000  1
  F  F18  1  0.72111400  0.00000000  0.00000000  1
  F  F19  1  0.00000000  0.72111400  0.00000000  1
  F  F20  1  0.27888600  0.27888600  0.00000000  1
