# generated using pymatgen
data_Nd(HoS2)3
_symmetry_space_group_name_H-M   'P 1'
_cell_length_a   3.97504100
_cell_length_b   11.07151700
_cell_length_c   11.28966926
_cell_angle_alpha   71.22093968
_cell_angle_beta   90.00000000
_cell_angle_gamma   90.00000000
_symmetry_Int_Tables_number   1
_chemical_formula_structural   Nd(HoS2)3
_chemical_formula_sum   'Nd2 Ho6 S12'
_cell_volume   470.40622775
_cell_formula_units_Z   2
loop_
 _symmetry_equiv_pos_site_id
 _symmetry_equiv_pos_as_xyz
  1  'x, y, z'
loop_
 _atom_site_type_symbol
 _atom_site_label
 _atom_site_symmetry_multiplicity
 _atom_site_fract_x
 _atom_site_fract_y
 _atom_site_fract_z
 _atom_site_occupancy
  Nd  Nd0  1  0.75000000  0.54766600  0.80649000  1
  Nd  Nd1  1  0.25000000  0.45233400  0.19351000  1
  Ho  Ho2  1  0.75000000  0.18059700  0.99811800  1
  Ho  Ho3  1  0.25000000  0.81940300  0.00188200  1
  Ho  Ho4  1  0.75000000  0.93762600  0.66749800  1
  Ho  Ho5  1  0.25000000  0.06237400  0.33250200  1
  Ho  Ho6  1  0.75000000  0.66105600  0.41443200  1
  Ho  Ho7  1  0.25000000  0.33894400  0.58556800  1
  S  S8  1  0.75000000  0.97753000  0.88792900  1
  S  S9  1  0.25000000  0.02247000  0.11207100  1
  S  S10  1  0.75000000  0.30598300  0.74842900  1
  S  S11  1  0.25000000  0.69401700  0.25157100  1
  S  S12  1  0.75000000  0.89658200  0.43830100  1
  S  S13  1  0.25000000  0.10341800  0.56169900  1
  S  S14  1  0.75000000  0.41885600  0.40465300  1
  S  S15  1  0.25000000  0.58114400  0.59534700  1
  S  S16  1  0.75000000  0.23775000  0.22704500  1
  S  S17  1  0.25000000  0.76225000  0.77295500  1
  S  S18  1  0.75000000  0.61715900  0.03666200  1
  S  S19  1  0.25000000  0.38284100  0.96333800  1
