# generated using pymatgen
data_Ba2NdInSe5
_symmetry_space_group_name_H-M   'P 1'
_cell_length_a   9.86525937
_cell_length_b   9.86525937
_cell_length_c   13.50990500
_cell_angle_alpha   90.00000000
_cell_angle_beta   90.00000000
_cell_angle_gamma   154.41634722
_symmetry_Int_Tables_number   1
_chemical_formula_structural   Ba2NdInSe5
_chemical_formula_sum   'Ba4 Nd2 In2 Se10'
_cell_volume   567.78058613
_cell_formula_units_Z   2
loop_
 _symmetry_equiv_pos_site_id
 _symmetry_equiv_pos_as_xyz
  1  'x, y, z'
loop_
 _atom_site_type_symbol
 _atom_site_label
 _atom_site_symmetry_multiplicity
 _atom_site_fract_x
 _atom_site_fract_y
 _atom_site_fract_z
 _atom_site_occupancy
  Ba  Ba0  1  0.13040900  0.86959100  0.81498800  1
  Ba  Ba1  1  0.86959100  0.13040900  0.31498800  1
  Ba  Ba2  1  0.11599200  0.88400800  0.18118600  1
  Ba  Ba3  1  0.88400800  0.11599200  0.68118600  1
  Nd  Nd4  1  0.21148400  0.78851600  0.51754600  1
  Nd  Nd5  1  0.78851600  0.21148400  0.01754600  1
  In  In6  1  0.44879500  0.55120500  0.93639900  1
  In  In7  1  0.55120500  0.44879500  0.43639900  1
  Se  Se8  1  0.35934100  0.64065900  0.50059400  1
  Se  Se9  1  0.64065900  0.35934100  0.00059400  1
  Se  Se10  1  0.29082100  0.70917900  0.16219600  1
  Se  Se11  1  0.70917900  0.29082100  0.66219600  1
  Se  Se12  1  0.31541600  0.68458400  0.86556300  1
  Se  Se13  1  0.68458400  0.31541600  0.36556300  1
  Se  Se14  1  0.50505900  0.49494100  0.76515000  1
  Se  Se15  1  0.49494100  0.50505900  0.26515000  1
  Se  Se16  1  0.04755800  0.95244200  0.54904800  1
  Se  Se17  1  0.95244200  0.04755800  0.04904800  1
