# generated using pymatgen
data_Zr3Rh
_symmetry_space_group_name_H-M   'P 1'
_cell_length_a   8.13316288
_cell_length_b   8.13316288
_cell_length_c   8.13316288
_cell_angle_alpha   97.17847498
_cell_angle_beta   97.17847498
_cell_angle_gamma   138.59722079
_symmetry_Int_Tables_number   1
_chemical_formula_structural   Zr3Rh
_chemical_formula_sum   'Zr12 Rh4'
_cell_volume   332.82998577
_cell_formula_units_Z   4
loop_
 _symmetry_equiv_pos_site_id
 _symmetry_equiv_pos_as_xyz
  1  'x, y, z'
loop_
 _atom_site_type_symbol
 _atom_site_label
 _atom_site_symmetry_multiplicity
 _atom_site_fract_x
 _atom_site_fract_y
 _atom_site_fract_z
 _atom_site_occupancy
  Zr  Zr0  1  0.67100600  0.86340100  0.00000000  1
  Zr  Zr1  1  0.86340100  0.67100600  0.00000000  1
  Zr  Zr2  1  0.13659900  0.13659900  0.80760500  1
  Zr  Zr3  1  0.32899400  0.32899400  0.19239500  1
  Zr  Zr4  1  0.00000000  0.35485900  0.35485900  1
  Zr  Zr5  1  0.00000000  0.64514100  0.64514100  1
  Zr  Zr6  1  0.64514100  0.00000000  0.64514100  1
  Zr  Zr7  1  0.35485900  0.00000000  0.35485900  1
  Zr  Zr8  1  0.04415000  0.45351800  0.00000000  1
  Zr  Zr9  1  0.45351800  0.04415000  0.00000000  1
  Zr  Zr10  1  0.54648200  0.54648200  0.59063200  1
  Zr  Zr11  1  0.95585000  0.95585000  0.40936800  1
  Rh  Rh12  1  0.50000000  0.79246300  0.29246300  1
  Rh  Rh13  1  0.50000000  0.20753700  0.70753700  1
  Rh  Rh14  1  0.20753700  0.50000000  0.70753700  1
  Rh  Rh15  1  0.79246300  0.50000000  0.29246300  1
