# generated using pymatgen
data_K2Mn(SeO3)2
_symmetry_space_group_name_H-M   'P 1'
_cell_length_a   7.16206915
_cell_length_b   9.16233158
_cell_length_c   11.42857764
_cell_angle_alpha   90.00000227
_cell_angle_beta   89.99999437
_cell_angle_gamma   73.49571802
_symmetry_Int_Tables_number   1
_chemical_formula_structural   K2Mn(SeO3)2
_chemical_formula_sum   'K8 Mn4 Se8 O24'
_cell_volume   719.05820492
_cell_formula_units_Z   4
loop_
 _symmetry_equiv_pos_site_id
 _symmetry_equiv_pos_as_xyz
  1  'x, y, z'
loop_
 _atom_site_type_symbol
 _atom_site_label
 _atom_site_symmetry_multiplicity
 _atom_site_fract_x
 _atom_site_fract_y
 _atom_site_fract_z
 _atom_site_occupancy
  K  K0  1  0.39115700  0.19557800  0.50000000  1
  K  K1  1  0.89115700  0.69557800  0.75000000  1
  K  K2  1  0.39115700  0.19557800  0.00000000  1
  K  K3  1  0.89115700  0.69557800  0.25000000  1
  K  K4  1  0.60884300  0.80442200  0.50000000  1
  K  K5  1  0.10884300  0.30442200  0.75000000  1
  K  K6  1  0.60884300  0.80442200  0.00000000  1
  K  K7  1  0.10884300  0.30442200  0.25000000  1
  Mn  Mn8  1  0.00000000  0.00000000  0.50000000  1
  Mn  Mn9  1  0.50000000  0.50000000  0.75000000  1
  Mn  Mn10  1  0.00000000  0.00000000  0.00000000  1
  Mn  Mn11  1  0.50000000  0.50000000  0.25000000  1
  Se  Se12  1  0.25671100  0.62835600  0.50000000  1
  Se  Se13  1  0.75671100  0.12835600  0.75000000  1
  Se  Se14  1  0.25671100  0.62835600  0.00000000  1
  Se  Se15  1  0.75671100  0.12835600  0.25000000  1
  Se  Se16  1  0.74328900  0.37164400  0.50000000  1
  Se  Se17  1  0.24328900  0.87164400  0.75000000  1
  Se  Se18  1  0.74328900  0.37164400  0.00000000  1
  Se  Se19  1  0.24328900  0.87164400  0.25000000  1
  O  O20  1  0.73906000  0.48879300  0.61926300  1
  O  O21  1  0.23906000  0.98879300  0.86926300  1
  O  O22  1  0.73906000  0.48879300  0.11926300  1
  O  O23  1  0.23906000  0.98879300  0.36926300  1
  O  O24  1  0.73906000  0.48879300  0.38073700  1
  O  O25  1  0.23906000  0.98879300  0.63073700  1
  O  O26  1  0.73906000  0.48879300  0.88073700  1
  O  O27  1  0.23906000  0.98879300  0.13073700  1
  O  O28  1  0.97758700  0.25026700  0.50000000  1
  O  O29  1  0.47758700  0.75026700  0.75000000  1
  O  O30  1  0.97758700  0.25026700  0.00000000  1
  O  O31  1  0.47758700  0.75026700  0.25000000  1
  O  O32  1  0.02241300  0.74973300  0.50000000  1
  O  O33  1  0.52241300  0.24973300  0.75000000  1
  O  O34  1  0.02241300  0.74973300  0.00000000  1
  O  O35  1  0.52241300  0.24973300  0.25000000  1
  O  O36  1  0.26094000  0.51120700  0.38073700  1
  O  O37  1  0.76094000  0.01120700  0.63073700  1
  O  O38  1  0.26094000  0.51120700  0.88073700  1
  O  O39  1  0.76094000  0.01120700  0.13073700  1
  O  O40  1  0.26094000  0.51120700  0.61926300  1
  O  O41  1  0.76094000  0.01120700  0.86926300  1
  O  O42  1  0.26094000  0.51120700  0.11926300  1
  O  O43  1  0.76094000  0.01120700  0.36926300  1
