# generated using pymatgen
data_CsReS2
_symmetry_space_group_name_H-M   'P 1'
_cell_length_a   11.51478700
_cell_length_b   11.85120700
_cell_length_c   21.20945500
_cell_angle_alpha   90.00000000
_cell_angle_beta   90.00000000
_cell_angle_gamma   90.00000000
_symmetry_Int_Tables_number   1
_chemical_formula_structural   CsReS2
_chemical_formula_sum   'Cs24 Re24 S48'
_cell_volume   2894.32970341
_cell_formula_units_Z   24
loop_
 _symmetry_equiv_pos_site_id
 _symmetry_equiv_pos_as_xyz
  1  'x, y, z'
loop_
 _atom_site_type_symbol
 _atom_site_label
 _atom_site_symmetry_multiplicity
 _atom_site_fract_x
 _atom_site_fract_y
 _atom_site_fract_z
 _atom_site_occupancy
  Cs  Cs0  1  0.00440100  0.64282800  0.15867200  1
  Cs  Cs1  1  0.49559900  0.14282800  0.34132800  1
  Cs  Cs2  1  0.99559900  0.35717200  0.65867200  1
  Cs  Cs3  1  0.50440100  0.85717200  0.84132800  1
  Cs  Cs4  1  0.99559900  0.35717200  0.84132800  1
  Cs  Cs5  1  0.50440100  0.85717200  0.65867200  1
  Cs  Cs6  1  0.00440100  0.64282800  0.34132800  1
  Cs  Cs7  1  0.49559900  0.14282800  0.15867200  1
  Cs  Cs8  1  0.26759900  0.91712300  0.07083200  1
  Cs  Cs9  1  0.23240100  0.41712300  0.42916800  1
  Cs  Cs10  1  0.73240100  0.08287700  0.57083200  1
  Cs  Cs11  1  0.76759900  0.58287700  0.92916800  1
  Cs  Cs12  1  0.73240100  0.08287700  0.92916800  1
  Cs  Cs13  1  0.76759900  0.58287700  0.57083200  1
  Cs  Cs14  1  0.26759900  0.91712300  0.42916800  1
  Cs  Cs15  1  0.23240100  0.41712300  0.07083200  1
  Cs  Cs16  1  0.80572600  0.86577800  0.07891600  1
  Cs  Cs17  1  0.69427400  0.36577800  0.42108400  1
  Cs  Cs18  1  0.19427400  0.13422200  0.57891600  1
  Cs  Cs19  1  0.30572600  0.63422200  0.92108400  1
  Cs  Cs20  1  0.19427400  0.13422200  0.92108400  1
  Cs  Cs21  1  0.30572600  0.63422200  0.57891600  1
  Cs  Cs22  1  0.80572600  0.86577800  0.42108400  1
  Cs  Cs23  1  0.69427400  0.36577800  0.07891600  1
  Re  Re24  1  0.85853900  0.23024800  0.25000000  1
  Re  Re25  1  0.64146100  0.73024800  0.25000000  1
  Re  Re26  1  0.14146100  0.76975200  0.75000000  1
  Re  Re27  1  0.35853900  0.26975200  0.75000000  1
  Re  Re28  1  0.41891200  0.78652900  0.25000000  1
  Re  Re29  1  0.08108800  0.28652900  0.25000000  1
  Re  Re30  1  0.58108800  0.21347100  0.75000000  1
  Re  Re31  1  0.91891200  0.71347100  0.75000000  1
  Re  Re32  1  0.36155800  0.56957900  0.25000000  1
  Re  Re33  1  0.13844200  0.06957900  0.25000000  1
  Re  Re34  1  0.63844200  0.43042100  0.75000000  1
  Re  Re35  1  0.86155800  0.93042100  0.75000000  1
  Re  Re36  1  0.91657600  0.01396200  0.25000000  1
  Re  Re37  1  0.58342400  0.51396200  0.25000000  1
  Re  Re38  1  0.08342400  0.98603800  0.75000000  1
  Re  Re39  1  0.41657600  0.48603800  0.75000000  1
  Re  Re40  1  0.99891400  0.15138500  0.16027600  1
  Re  Re41  1  0.50108600  0.65138500  0.33972400  1
  Re  Re42  1  0.00108600  0.84861500  0.66027600  1
  Re  Re43  1  0.49891400  0.34861500  0.83972400  1
  Re  Re44  1  0.00108600  0.84861500  0.83972400  1
  Re  Re45  1  0.49891400  0.34861500  0.66027600  1
  Re  Re46  1  0.99891400  0.15138500  0.33972400  1
  Re  Re47  1  0.50108600  0.65138500  0.16027600  1
  S  S48  1  0.05091500  0.95068400  0.16995900  1
  S  S49  1  0.44908500  0.45068400  0.33004100  1
  S  S50  1  0.94908500  0.04931600  0.66995900  1
  S  S51  1  0.55091500  0.54931600  0.83004100  1
  S  S52  1  0.94908500  0.04931600  0.83004100  1
  S  S53  1  0.55091500  0.54931600  0.66995900  1
  S  S54  1  0.05091500  0.95068400  0.33004100  1
  S  S55  1  0.44908500  0.45068400  0.16995900  1
  S  S56  1  0.29625900  0.70073500  0.33035500  1
  S  S57  1  0.20374100  0.20073500  0.16964500  1
  S  S58  1  0.70374100  0.29926500  0.83035500  1
  S  S59  1  0.79625900  0.79926500  0.66964500  1
  S  S60  1  0.70374100  0.29926500  0.66964500  1
  S  S61  1  0.79625900  0.79926500  0.83035500  1
  S  S62  1  0.29625900  0.70073500  0.16964500  1
  S  S63  1  0.20374100  0.20073500  0.33035500  1
  S  S64  1  0.94576700  0.34875900  0.16951000  1
  S  S65  1  0.55423300  0.84875900  0.33049000  1
  S  S66  1  0.05423300  0.65124100  0.66951000  1
  S  S67  1  0.44576700  0.15124100  0.83049000  1
  S  S68  1  0.05423300  0.65124100  0.83049000  1
  S  S69  1  0.44576700  0.15124100  0.66951000  1
  S  S70  1  0.94576700  0.34875900  0.33049000  1
  S  S71  1  0.55423300  0.84875900  0.16951000  1
  S  S72  1  0.79404200  0.09865300  0.16917000  1
  S  S73  1  0.70595800  0.59865300  0.33083000  1
  S  S74  1  0.20595800  0.90134700  0.66917000  1
  S  S75  1  0.29404200  0.40134700  0.83083000  1
  S  S76  1  0.20595800  0.90134700  0.83083000  1
  S  S77  1  0.29404200  0.40134700  0.66917000  1
  S  S78  1  0.79404200  0.09865300  0.33083000  1
  S  S79  1  0.70595800  0.59865300  0.16917000  1
  S  S80  1  0.50025600  0.66065500  0.04658200  1
  S  S81  1  0.99974400  0.16065500  0.45341800  1
  S  S82  1  0.49974400  0.33934500  0.54658200  1
  S  S83  1  0.00025600  0.83934500  0.95341800  1
  S  S84  1  0.49974400  0.33934500  0.95341800  1
  S  S85  1  0.00025600  0.83934500  0.54658200  1
  S  S86  1  0.50025600  0.66065500  0.45341800  1
  S  S87  1  0.99974400  0.16065500  0.04658200  1
  S  S88  1  0.83583600  0.81814600  0.25000000  1
  S  S89  1  0.66416400  0.31814600  0.25000000  1
  S  S90  1  0.16416400  0.18185400  0.75000000  1
  S  S91  1  0.33583600  0.68185400  0.75000000  1
  S  S92  1  0.33162500  0.97762900  0.25000000  1
  S  S93  1  0.16837500  0.47762900  0.25000000  1
  S  S94  1  0.66837500  0.02237100  0.75000000  1
  S  S95  1  0.83162500  0.52237100  0.75000000  1
