# generated using pymatgen
data_Sm8Ga3Co
_symmetry_space_group_name_H-M   'P 1'
_cell_length_a   10.34786838
_cell_length_b   10.34786838
_cell_length_c   6.97344100
_cell_angle_alpha   90.00000000
_cell_angle_beta   90.00000000
_cell_angle_gamma   120.00000242
_symmetry_Int_Tables_number   1
_chemical_formula_structural   Sm8Ga3Co
_chemical_formula_sum   'Sm16 Ga6 Co2'
_cell_volume   646.66527998
_cell_formula_units_Z   2
loop_
 _symmetry_equiv_pos_site_id
 _symmetry_equiv_pos_as_xyz
  1  'x, y, z'
loop_
 _atom_site_type_symbol
 _atom_site_label
 _atom_site_symmetry_multiplicity
 _atom_site_fract_x
 _atom_site_fract_y
 _atom_site_fract_z
 _atom_site_occupancy
  Sm  Sm0  1  0.82839300  0.65678600  0.49721900  1
  Sm  Sm1  1  0.34321400  0.17160700  0.49721900  1
  Sm  Sm2  1  0.82839300  0.17160700  0.49721900  1
  Sm  Sm3  1  0.17160700  0.34321400  0.99721900  1
  Sm  Sm4  1  0.65678600  0.82839300  0.99721900  1
  Sm  Sm5  1  0.17160700  0.82839300  0.99721900  1
  Sm  Sm6  1  0.66666700  0.33333300  0.16818100  1
  Sm  Sm7  1  0.33333300  0.66666700  0.66818100  1
  Sm  Sm8  1  0.53558700  0.07117500  0.78795200  1
  Sm  Sm9  1  0.92882500  0.46441300  0.78795200  1
  Sm  Sm10  1  0.53558700  0.46441300  0.78795200  1
  Sm  Sm11  1  0.46441300  0.92882500  0.28795200  1
  Sm  Sm12  1  0.07117500  0.53558700  0.28795200  1
  Sm  Sm13  1  0.46441300  0.53558700  0.28795200  1
  Sm  Sm14  1  0.00000000  0.00000000  0.78211800  1
  Sm  Sm15  1  0.00000000  0.00000000  0.28211800  1
  Ga  Ga16  1  0.83607200  0.67214400  0.03243500  1
  Ga  Ga17  1  0.32785600  0.16392800  0.03243500  1
  Ga  Ga18  1  0.83607200  0.16392800  0.03243500  1
  Ga  Ga19  1  0.16392800  0.32785600  0.53243500  1
  Ga  Ga20  1  0.67214400  0.83607200  0.53243500  1
  Ga  Ga21  1  0.16392800  0.83607200  0.53243500  1
  Co  Co22  1  0.66666700  0.33333300  0.55995000  1
  Co  Co23  1  0.33333300  0.66666700  0.05995000  1
