# generated using pymatgen
data_Tm(PO3)3
_symmetry_space_group_name_H-M   'P 1'
_cell_length_a   20.10206400
_cell_length_b   10.13078600
_cell_length_c   11.34083317
_cell_angle_alpha   82.33131657
_cell_angle_beta   90.00000000
_cell_angle_gamma   90.00000000
_symmetry_Int_Tables_number   1
_chemical_formula_structural   Tm(PO3)3
_chemical_formula_sum   'Tm12 P36 O108'
_cell_volume   2288.90134879
_cell_formula_units_Z   12
loop_
 _symmetry_equiv_pos_site_id
 _symmetry_equiv_pos_as_xyz
  1  'x, y, z'
loop_
 _atom_site_type_symbol
 _atom_site_label
 _atom_site_symmetry_multiplicity
 _atom_site_fract_x
 _atom_site_fract_y
 _atom_site_fract_z
 _atom_site_occupancy
  Tm  Tm0  1  0.17716600  0.52804200  0.50308400  1
  Tm  Tm1  1  0.67716600  0.97195800  0.49691600  1
  Tm  Tm2  1  0.82283400  0.47195800  0.49691600  1
  Tm  Tm3  1  0.32283400  0.02804200  0.50308400  1
  Tm  Tm4  1  0.65388200  0.98216600  0.99916300  1
  Tm  Tm5  1  0.15388200  0.51783400  0.00083700  1
  Tm  Tm6  1  0.34611800  0.01783400  0.00083700  1
  Tm  Tm7  1  0.84611800  0.48216600  0.99916300  1
  Tm  Tm8  1  0.00000000  0.00000000  0.50000000  1
  Tm  Tm9  1  0.50000000  0.50000000  0.50000000  1
  Tm  Tm10  1  0.00000000  0.00000000  0.00000000  1
  Tm  Tm11  1  0.50000000  0.50000000  0.00000000  1
  P  P12  1  0.55244800  0.96566100  0.27205200  1
  P  P13  1  0.05244800  0.53433900  0.72794800  1
  P  P14  1  0.44755200  0.03433900  0.72794800  1
  P  P15  1  0.94755200  0.46566100  0.27205200  1
  P  P16  1  0.54041700  0.81801500  0.82021600  1
  P  P17  1  0.04041700  0.68198500  0.17978400  1
  P  P18  1  0.45958300  0.18198500  0.17978400  1
  P  P19  1  0.95958300  0.31801500  0.82021600  1
  P  P20  1  0.37483400  0.32259800  0.34739800  1
  P  P21  1  0.87483400  0.17740200  0.65260200  1
  P  P22  1  0.62516600  0.67740200  0.65260200  1
  P  P23  1  0.12516600  0.82259800  0.34739800  1
  P  P24  1  0.27198100  0.50857100  0.23866900  1
  P  P25  1  0.77198100  0.99142900  0.76133100  1
  P  P26  1  0.72801900  0.49142900  0.76133100  1
  P  P27  1  0.22801900  0.00857100  0.23866900  1
  P  P28  1  0.11784400  0.19161400  0.14463600  1
  P  P29  1  0.61784400  0.30838600  0.85536400  1
  P  P30  1  0.88215600  0.80838600  0.85536400  1
  P  P31  1  0.38215600  0.69161400  0.14463600  1
  P  P32  1  0.06660200  0.30811300  0.36140000  1
  P  P33  1  0.56660200  0.19188700  0.63860000  1
  P  P34  1  0.93339800  0.69188700  0.63860000  1
  P  P35  1  0.43339800  0.80811300  0.36140000  1
  P  P36  1  0.20795000  0.19831900  0.67585500  1
  P  P37  1  0.70795000  0.30168100  0.32414500  1
  P  P38  1  0.79205000  0.80168100  0.32414500  1
  P  P39  1  0.29205000  0.69831900  0.67585500  1
  P  P40  1  0.77772400  0.17583200  0.13200700  1
  P  P41  1  0.27772400  0.32416800  0.86799300  1
  P  P42  1  0.22227600  0.82416800  0.86799300  1
  P  P43  1  0.72227600  0.67583200  0.13200700  1
  P  P44  1  0.88946500  0.02396300  0.24633200  1
  P  P45  1  0.38946500  0.47603700  0.75366800  1
  P  P46  1  0.11053500  0.97603700  0.75366800  1
  P  P47  1  0.61053500  0.52396300  0.24633200  1
  O  O48  1  0.58837200  0.94523200  0.38877800  1
  O  O49  1  0.08837200  0.55476800  0.61122200  1
  O  O50  1  0.41162800  0.05476800  0.61122200  1
  O  O51  1  0.91162800  0.44523200  0.38877800  1
  O  O52  1  0.59164400  0.95878900  0.16040700  1
  O  O53  1  0.09164400  0.54121100  0.83959300  1
  O  O54  1  0.40835600  0.04121100  0.83959300  1
  O  O55  1  0.90835600  0.45878900  0.16040700  1
  O  O56  1  0.51325000  0.68962700  0.88205100  1
  O  O57  1  0.01325000  0.81037300  0.11794900  1
  O  O58  1  0.48675000  0.31037300  0.11794900  1
  O  O59  1  0.98675000  0.18962700  0.88205100  1
  O  O60  1  0.57124300  0.91442400  0.89387600  1
  O  O61  1  0.07124300  0.58557600  0.10612400  1
  O  O62  1  0.42875700  0.08557600  0.10612400  1
  O  O63  1  0.92875700  0.41442400  0.89387600  1
  O  O64  1  0.42599800  0.41914500  0.38053200  1
  O  O65  1  0.92599800  0.08085500  0.61946800  1
  O  O66  1  0.57400200  0.58085500  0.61946800  1
  O  O67  1  0.07400200  0.91914500  0.38053200  1
  O  O68  1  0.33366800  0.24608000  0.44344900  1
  O  O69  1  0.83366800  0.25392000  0.55655100  1
  O  O70  1  0.66633200  0.75392000  0.55655100  1
  O  O71  1  0.16633200  0.74608000  0.44344900  1
  O  O72  1  0.25783200  0.53770500  0.36299000  1
  O  O73  1  0.75783200  0.96229500  0.63701000  1
  O  O74  1  0.74216800  0.46229500  0.63701000  1
  O  O75  1  0.24216800  0.03770500  0.36299000  1
  O  O76  1  0.21419200  0.47509900  0.16518400  1
  O  O77  1  0.71419200  0.02490100  0.83481600  1
  O  O78  1  0.78580800  0.52490100  0.83481600  1
  O  O79  1  0.28580800  0.97509900  0.16518400  1
  O  O80  1  0.06776600  0.08758500  0.12391200  1
  O  O81  1  0.56776600  0.41241500  0.87608800  1
  O  O82  1  0.93223400  0.91241500  0.87608800  1
  O  O83  1  0.43223400  0.58758500  0.12391200  1
  O  O84  1  0.12095900  0.31226300  0.05260000  1
  O  O85  1  0.62095900  0.18773700  0.94740000  1
  O  O86  1  0.87904100  0.68773700  0.94740000  1
  O  O87  1  0.37904100  0.81226300  0.05260000  1
  O  O88  1  0.10538100  0.42439100  0.39401400  1
  O  O89  1  0.60538100  0.07560900  0.60598600  1
  O  O90  1  0.89461900  0.57560900  0.60598600  1
  O  O91  1  0.39461900  0.92439100  0.39401400  1
  O  O92  1  0.04120900  0.20498200  0.45867200  1
  O  O93  1  0.54120900  0.29501800  0.54132800  1
  O  O94  1  0.95879100  0.79501800  0.54132800  1
  O  O95  1  0.45879100  0.70498200  0.45867200  1
  O  O96  1  0.48413700  0.89199500  0.73461900  1
  O  O97  1  0.98413700  0.60800500  0.26538100  1
  O  O98  1  0.51586300  0.10800500  0.26538100  1
  O  O99  1  0.01586300  0.39199500  0.73461900  1
  O  O100  1  0.59370500  0.79020900  0.72183900  1
  O  O101  1  0.09370500  0.70979100  0.27816100  1
  O  O102  1  0.40629500  0.20979100  0.27816100  1
  O  O103  1  0.90629500  0.29020900  0.72183900  1
  O  O104  1  0.32695100  0.39256500  0.24284700  1
  O  O105  1  0.82695100  0.10743500  0.75715300  1
  O  O106  1  0.67304900  0.60743500  0.75715300  1
  O  O107  1  0.17304900  0.89256500  0.24284700  1
  O  O108  1  0.19152800  0.13015200  0.15772900  1
  O  O109  1  0.69152800  0.36984800  0.84227100  1
  O  O110  1  0.80847200  0.86984800  0.84227100  1
  O  O111  1  0.30847200  0.63015200  0.15772900  1
  O  O112  1  0.11103900  0.23177100  0.27567100  1
  O  O113  1  0.61103900  0.26822900  0.72432900  1
  O  O114  1  0.88896100  0.76822900  0.72432900  1
  O  O115  1  0.38896100  0.73177100  0.27567100  1
  O  O116  1  0.49318100  0.85973700  0.27165000  1
  O  O117  1  0.99318100  0.64026300  0.72835000  1
  O  O118  1  0.50681900  0.14026300  0.72835000  1
  O  O119  1  0.00681900  0.35973700  0.27165000  1
  O  O120  1  0.19279600  0.32415200  0.59488900  1
  O  O121  1  0.69279600  0.17584800  0.40511100  1
  O  O122  1  0.80720400  0.67584800  0.40511100  1
  O  O123  1  0.30720400  0.82415200  0.59488900  1
  O  O124  1  0.25727800  0.10218700  0.63593000  1
  O  O125  1  0.75727800  0.39781300  0.36407000  1
  O  O126  1  0.74272200  0.89781300  0.36407000  1
  O  O127  1  0.24272200  0.60218700  0.63593000  1
  O  O128  1  0.74086200  0.06086600  0.09197500  1
  O  O129  1  0.24086200  0.43913400  0.90802500  1
  O  O130  1  0.25913800  0.93913400  0.90802500  1
  O  O131  1  0.75913800  0.56086600  0.09197500  1
  O  O132  1  0.81456600  0.27028500  0.04155000  1
  O  O133  1  0.31456600  0.22971500  0.95845000  1
  O  O134  1  0.18543400  0.72971500  0.95845000  1
  O  O135  1  0.68543400  0.77028500  0.04155000  1
  O  O136  1  0.93416100  0.05625100  0.34415300  1
  O  O137  1  0.43416100  0.44374900  0.65584700  1
  O  O138  1  0.06583900  0.94374900  0.65584700  1
  O  O139  1  0.56583900  0.55625100  0.34415300  1
  O  O140  1  0.91635000  0.02837900  0.12236400  1
  O  O141  1  0.41635000  0.47162100  0.87763600  1
  O  O142  1  0.08365000  0.97162100  0.87763600  1
  O  O143  1  0.58365000  0.52837900  0.12236400  1
  O  O144  1  0.22692600  0.23544300  0.80427800  1
  O  O145  1  0.72692600  0.26455700  0.19572200  1
  O  O146  1  0.77307400  0.76455700  0.19572200  1
  O  O147  1  0.27307400  0.73544300  0.80427800  1
  O  O148  1  0.82608900  0.12210300  0.24265500  1
  O  O149  1  0.32608900  0.37789700  0.75734500  1
  O  O150  1  0.17391100  0.87789700  0.75734500  1
  O  O151  1  0.67391100  0.62210300  0.24265500  1
  O  O152  1  0.13966200  0.12255100  0.71138900  1
  O  O153  1  0.63966200  0.37744900  0.28861100  1
  O  O154  1  0.86033800  0.87744900  0.28861100  1
  O  O155  1  0.36033800  0.62255100  0.71138900  1
