# generated using pymatgen
data_BaMn2Si2O7
_symmetry_space_group_name_H-M   'P 1'
_cell_length_a   7.53719236
_cell_length_b   7.53719236
_cell_length_c   14.22875770
_cell_angle_alpha   89.71109809
_cell_angle_beta   89.71109809
_cell_angle_gamma   120.85716681
_symmetry_Int_Tables_number   1
_chemical_formula_structural   BaMn2Si2O7
_chemical_formula_sum   'Ba4 Mn8 Si8 O28'
_cell_volume   693.86950152
_cell_formula_units_Z   4
loop_
 _symmetry_equiv_pos_site_id
 _symmetry_equiv_pos_as_xyz
  1  'x, y, z'
loop_
 _atom_site_type_symbol
 _atom_site_label
 _atom_site_symmetry_multiplicity
 _atom_site_fract_x
 _atom_site_fract_y
 _atom_site_fract_z
 _atom_site_occupancy
  Ba  Ba0  1  0.28113900  0.31102800  0.12217900  1
  Ba  Ba1  1  0.68897200  0.71886100  0.37782100  1
  Ba  Ba2  1  0.71886100  0.68897200  0.87782100  1
  Ba  Ba3  1  0.31102800  0.28113900  0.62217900  1
  Mn  Mn4  1  0.73294800  0.26705200  0.25000000  1
  Mn  Mn5  1  0.26705200  0.73294800  0.75000000  1
  Mn  Mn6  1  0.26979900  0.73020100  0.25000000  1
  Mn  Mn7  1  0.73020100  0.26979900  0.75000000  1
  Mn  Mn8  1  0.23277600  0.69967700  0.50883500  1
  Mn  Mn9  1  0.30032300  0.76722400  0.99116500  1
  Mn  Mn10  1  0.76722400  0.30032300  0.49116500  1
  Mn  Mn11  1  0.69967700  0.23277600  0.00883500  1
  Si  Si12  1  0.90669500  0.66017200  0.13474600  1
  Si  Si13  1  0.33982800  0.09330500  0.36525400  1
  Si  Si14  1  0.09330500  0.33982800  0.86525400  1
  Si  Si15  1  0.66017200  0.90669500  0.63474600  1
  Si  Si16  1  0.07509700  0.27721200  0.38086700  1
  Si  Si17  1  0.72278800  0.92490300  0.11913300  1
  Si  Si18  1  0.92490300  0.72278800  0.61913300  1
  Si  Si19  1  0.27721200  0.07509700  0.88086700  1
  O  O20  1  0.13540700  0.69060300  0.11549900  1
  O  O21  1  0.30939700  0.86459300  0.38450100  1
  O  O22  1  0.86459300  0.30939700  0.88450100  1
  O  O23  1  0.69060300  0.13540700  0.61549900  1
  O  O24  1  0.21558000  0.44053000  0.29898400  1
  O  O25  1  0.55947000  0.78442000  0.20101600  1
  O  O26  1  0.78442000  0.55947000  0.70101600  1
  O  O27  1  0.44053000  0.21558000  0.79898400  1
  O  O28  1  0.88466900  0.61899300  0.51451300  1
  O  O29  1  0.38100700  0.11533100  0.98548700  1
  O  O30  1  0.11533100  0.38100700  0.48548700  1
  O  O31  1  0.61899300  0.88466900  0.01451300  1
  O  O32  1  0.83298500  0.17735600  0.13321200  1
  O  O33  1  0.82264400  0.16701500  0.36678800  1
  O  O34  1  0.16701500  0.82264400  0.86678800  1
  O  O35  1  0.17735600  0.83298500  0.63321200  1
  O  O36  1  0.92645000  0.89105800  0.12064000  1
  O  O37  1  0.10894200  0.07355000  0.37936000  1
  O  O38  1  0.07355000  0.10894200  0.87936000  1
  O  O39  1  0.89105800  0.92645000  0.62064000  1
  O  O40  1  0.85394200  0.58562400  0.24565900  1
  O  O41  1  0.41437600  0.14605800  0.25434100  1
  O  O42  1  0.14605800  0.41437600  0.75434100  1
  O  O43  1  0.58562400  0.85394200  0.74565900  1
  O  O44  1  0.72803900  0.50639700  0.06149800  1
  O  O45  1  0.49360300  0.27196100  0.43850200  1
  O  O46  1  0.27196100  0.49360300  0.93850200  1
  O  O47  1  0.50639700  0.72803900  0.56149800  1
