# generated using pymatgen
data_Rb8Zr6BBr20
_symmetry_space_group_name_H-M   'P 1'
_cell_length_a   12.08275925
_cell_length_b   12.08275925
_cell_length_c   12.08275925
_cell_angle_alpha   60.00000000
_cell_angle_beta   60.00000000
_cell_angle_gamma   60.00000000
_symmetry_Int_Tables_number   1
_chemical_formula_structural   Rb8Zr6BBr20
_chemical_formula_sum   'Rb8 Zr6 B1 Br20'
_cell_volume   1247.33574647
_cell_formula_units_Z   1
loop_
 _symmetry_equiv_pos_site_id
 _symmetry_equiv_pos_as_xyz
  1  'x, y, z'
loop_
 _atom_site_type_symbol
 _atom_site_label
 _atom_site_symmetry_multiplicity
 _atom_site_fract_x
 _atom_site_fract_y
 _atom_site_fract_z
 _atom_site_occupancy
  Rb  Rb0  1  0.36091700  0.36091700  0.36091700  1
  Rb  Rb1  1  0.63908300  0.63908300  0.63908300  1
  Rb  Rb2  1  0.36091700  0.36091700  0.91725000  1
  Rb  Rb3  1  0.36091700  0.91725000  0.36091700  1
  Rb  Rb4  1  0.63908300  0.63908300  0.08275000  1
  Rb  Rb5  1  0.63908300  0.08275000  0.63908300  1
  Rb  Rb6  1  0.91725000  0.36091700  0.36091700  1
  Rb  Rb7  1  0.08275000  0.63908300  0.63908300  1
  Zr  Zr8  1  0.86355000  0.13645000  0.13645000  1
  Zr  Zr9  1  0.13645000  0.86355000  0.86355000  1
  Zr  Zr10  1  0.13645000  0.86355000  0.13645000  1
  Zr  Zr11  1  0.86355000  0.13645000  0.86355000  1
  Zr  Zr12  1  0.13645000  0.13645000  0.86355000  1
  Zr  Zr13  1  0.86355000  0.86355000  0.13645000  1
  B  B14  1  0.00000000  0.00000000  0.00000000  1
  Br  Br15  1  0.31821000  0.00000000  0.00000000  1
  Br  Br16  1  0.68179000  0.00000000  0.00000000  1
  Br  Br17  1  0.00000000  0.31821000  0.68179000  1
  Br  Br18  1  0.00000000  0.68179000  0.31821000  1
  Br  Br19  1  0.00000000  0.31821000  0.00000000  1
  Br  Br20  1  0.68179000  0.00000000  0.31821000  1
  Br  Br21  1  0.00000000  0.68179000  0.00000000  1
  Br  Br22  1  0.31821000  0.00000000  0.68179000  1
  Br  Br23  1  0.00000000  0.00000000  0.31821000  1
  Br  Br24  1  0.00000000  0.00000000  0.68179000  1
  Br  Br25  1  0.68179000  0.31821000  0.00000000  1
  Br  Br26  1  0.31821000  0.68179000  0.00000000  1
  Br  Br27  1  0.69084600  0.30915400  0.30915400  1
  Br  Br28  1  0.30915400  0.69084600  0.69084600  1
  Br  Br29  1  0.30915400  0.69084600  0.30915400  1
  Br  Br30  1  0.69084600  0.30915400  0.69084600  1
  Br  Br31  1  0.30915400  0.30915400  0.69084600  1
  Br  Br32  1  0.69084600  0.69084600  0.30915400  1
  Br  Br33  1  0.25000000  0.25000000  0.25000000  1
  Br  Br34  1  0.75000000  0.75000000  0.75000000  1
