# generated using pymatgen
data_Mg149Sn
_symmetry_space_group_name_H-M   'P 1'
_cell_length_a   15.93335383
_cell_length_b   15.93335997
_cell_length_c   15.54793397
_cell_angle_alpha   90.00000000
_cell_angle_beta   90.00000000
_cell_angle_gamma   120.00001516
_symmetry_Int_Tables_number   1
_chemical_formula_structural   Mg149Sn
_chemical_formula_sum   'Mg149 Sn1'
_cell_volume   3418.36018453
_cell_formula_units_Z   1
loop_
 _symmetry_equiv_pos_site_id
 _symmetry_equiv_pos_as_xyz
  1  'x, y, z'
loop_
 _atom_site_type_symbol
 _atom_site_label
 _atom_site_symmetry_multiplicity
 _atom_site_fract_x
 _atom_site_fract_y
 _atom_site_fract_z
 _atom_site_occupancy
  Mg  Mg0  1  0.20159709  0.00096005  -0.00000000  1
  Mg  Mg1  1  0.79936396  0.00096005  -0.00000000  1
  Mg  Mg2  1  0.40001218  0.20000659  -0.00000000  1
  Mg  Mg3  1  0.79999341  0.20000659  -0.00000000  1
  Mg  Mg4  1  0.60000358  0.20000717  -0.00000000  1
  Mg  Mg5  1  0.99903895  0.20063604  -0.00000000  1
  Mg  Mg6  1  0.20159709  0.20063704  -0.00000000  1
  Mg  Mg7  1  0.19955849  0.39911798  -0.00000000  1
  Mg  Mg8  1  0.79999283  0.39999642  -0.00000000  1
  Mg  Mg9  1  0.60000358  0.39999642  -0.00000000  1
  Mg  Mg10  1  0.40034767  0.40045105  -0.00000000  1
  Mg  Mg11  1  0.00010439  0.40045105  -0.00000000  1
  Mg  Mg12  1  0.59954895  0.59965333  -0.00000000  1
  Mg  Mg13  1  0.00010439  0.59965333  -0.00000000  1
  Mg  Mg14  1  0.19990888  0.59995444  -0.00000000  1
  Mg  Mg15  1  0.40004556  0.59995444  -0.00000000  1
  Mg  Mg16  1  0.79999341  0.59998782  -0.00000000  1
  Mg  Mg17  1  0.99903895  0.79840291  -0.00000000  1
  Mg  Mg18  1  0.79936396  0.79840391  -0.00000000  1
  Mg  Mg19  1  0.40004556  0.80009112  -0.00000000  1
  Mg  Mg20  1  0.60088102  0.80044051  -0.00000000  1
  Mg  Mg21  1  0.19955849  0.80044051  -0.00000000  1
  Mg  Mg22  1  0.59954895  0.99989661  -0.00000000  1
  Mg  Mg23  1  0.40034767  0.99989661  -0.00000000  1
  Mg  Mg24  1  0.06634051  0.33289672  0.16625854  1
  Mg  Mg25  1  0.26655621  0.33289672  0.16625854  1
  Mg  Mg26  1  0.06634051  0.73344379  0.16625854  1
  Mg  Mg27  1  0.66710328  0.73344379  0.16625854  1
  Mg  Mg28  1  0.66710328  0.93365949  0.16625854  1
  Mg  Mg29  1  0.26655621  0.93365949  0.16625854  1
  Mg  Mg30  1  0.46679688  0.13332207  0.16642123  1
  Mg  Mg31  1  0.66652419  0.13332207  0.16642123  1
  Mg  Mg32  1  0.46679688  0.33347581  0.16642123  1
  Mg  Mg33  1  0.86667793  0.33347581  0.16642123  1
  Mg  Mg34  1  0.66652419  0.53320312  0.16642123  1
  Mg  Mg35  1  0.86667793  0.53320312  0.16642123  1
  Mg  Mg36  1  0.66666700  0.33333300  0.16660276  1
  Mg  Mg37  1  0.26654102  0.53308104  0.16652083  1
  Mg  Mg38  1  0.46691896  0.73345898  0.16652083  1
  Mg  Mg39  1  0.26654102  0.73345998  0.16652083  1
  Mg  Mg40  1  0.46661146  0.53338854  0.16646450  1
  Mg  Mg41  1  0.06677709  0.53338854  0.16646450  1
  Mg  Mg42  1  0.46661146  0.93322291  0.16646450  1
  Mg  Mg43  1  0.86630259  0.13369741  0.16724938  1
  Mg  Mg44  1  0.26739483  0.13369741  0.16724938  1
  Mg  Mg45  1  0.86630259  0.73260517  0.16724938  1
  Mg  Mg46  1  0.06683811  0.13367622  0.16782409  1
  Mg  Mg47  1  0.86632378  0.93316189  0.16782409  1
  Mg  Mg48  1  0.06683811  0.93316189  0.16782409  1
  Mg  Mg49  1  0.19991377  0.39982654  0.33293380  1
  Mg  Mg50  1  0.60017346  0.80008623  0.33293380  1
  Mg  Mg51  1  0.19991377  0.80008623  0.33293380  1
  Mg  Mg52  1  0.39989238  0.99999386  0.33314789  1
  Mg  Mg53  1  0.60010248  0.99999486  0.33314789  1
  Mg  Mg54  1  0.00000514  0.39989752  0.33314789  1
  Mg  Mg55  1  0.39989238  0.39989752  0.33314789  1
  Mg  Mg56  1  0.00000514  0.60010762  0.33314789  1
  Mg  Mg57  1  0.60010248  0.60010762  0.33314789  1
  Mg  Mg58  1  0.60002377  0.20004654  0.33306253  1
  Mg  Mg59  1  0.60002377  0.39997623  0.33306253  1
  Mg  Mg60  1  0.79995346  0.39997723  0.33306253  1
  Mg  Mg61  1  -0.00000000  0.00000000  0.33351652  1
  Mg  Mg62  1  0.40011849  0.20005875  0.33322631  1
  Mg  Mg63  1  0.79994025  0.20005975  0.33322631  1
  Mg  Mg64  1  0.79994025  0.59988051  0.33322631  1
  Mg  Mg65  1  0.20004225  0.60002162  0.33310125  1
  Mg  Mg66  1  0.39997838  0.60002162  0.33310125  1
  Mg  Mg67  1  0.39997838  0.79995675  0.33310125  1
  Mg  Mg68  1  0.19982985  0.00006228  0.33379332  1
  Mg  Mg69  1  0.80023243  0.00006228  0.33379332  1
  Mg  Mg70  1  0.19982985  0.19976757  0.33379332  1
  Mg  Mg71  1  0.99993772  0.19976757  0.33379332  1
  Mg  Mg72  1  0.99993772  0.80017015  0.33379332  1
  Mg  Mg73  1  0.80023243  0.80017015  0.33379332  1
  Mg  Mg74  1  0.06656069  0.13312138  0.50000000  1
  Mg  Mg75  1  0.66649479  0.13313397  0.50000000  1
  Mg  Mg76  1  0.46663918  0.13313397  0.50000000  1
  Mg  Mg77  1  0.86674594  0.13325406  0.50000000  1
  Mg  Mg78  1  0.26650813  0.13325406  0.50000000  1
  Mg  Mg79  1  0.26661942  0.33322568  0.50000000  1
  Mg  Mg80  1  0.06660627  0.33322668  0.50000000  1
  Mg  Mg81  1  0.66666700  0.33333300  0.50000000  1
  Mg  Mg82  1  0.46663918  0.33350521  0.50000000  1
  Mg  Mg83  1  0.86686603  0.33350521  0.50000000  1
  Mg  Mg84  1  0.66649479  0.53336082  0.50000000  1
  Mg  Mg85  1  0.86686603  0.53336082  0.50000000  1
  Mg  Mg86  1  0.26650694  0.53301489  0.50000000  1
  Mg  Mg87  1  0.46669180  0.53330820  0.50000000  1
  Mg  Mg88  1  0.06661639  0.53330820  0.50000000  1
  Mg  Mg89  1  0.26650694  0.73349206  0.50000000  1
  Mg  Mg90  1  0.46698511  0.73349306  0.50000000  1
  Mg  Mg91  1  0.86674594  0.73349187  0.50000000  1
  Mg  Mg92  1  0.66677432  0.73337958  0.50000000  1
  Mg  Mg93  1  0.06660627  0.73337958  0.50000000  1
  Mg  Mg94  1  0.46669180  0.93338361  0.50000000  1
  Mg  Mg95  1  0.26661942  0.93339373  0.50000000  1
  Mg  Mg96  1  0.66677432  0.93339473  0.50000000  1
  Mg  Mg97  1  0.06656069  0.93343931  0.50000000  1
  Mg  Mg98  1  0.86687862  0.93343931  0.50000000  1
  Mg  Mg99  1  0.19982985  0.00006228  0.66620768  1
  Mg  Mg100  1  0.80023243  0.00006228  0.66620768  1
  Mg  Mg101  1  0.19982985  0.19976757  0.66620768  1
  Mg  Mg102  1  0.99993772  0.19976757  0.66620768  1
  Mg  Mg103  1  0.99993772  0.80017015  0.66620768  1
  Mg  Mg104  1  0.80023243  0.80017015  0.66620768  1
  Mg  Mg105  1  0.20004225  0.60002162  0.66689975  1
  Mg  Mg106  1  0.39997838  0.60002162  0.66689975  1
  Mg  Mg107  1  0.39997838  0.79995675  0.66689975  1
  Mg  Mg108  1  0.40011849  0.20005875  0.66677469  1
  Mg  Mg109  1  0.79994025  0.20005975  0.66677469  1
  Mg  Mg110  1  0.79994025  0.59988051  0.66677469  1
  Mg  Mg111  1  -0.00000000  0.00000000  0.66648348  1
  Mg  Mg112  1  0.60002377  0.20004654  0.66693747  1
  Mg  Mg113  1  0.60002377  0.39997623  0.66693747  1
  Mg  Mg114  1  0.79995346  0.39997723  0.66693747  1
  Mg  Mg115  1  0.39989238  0.99999386  0.66685211  1
  Mg  Mg116  1  0.60010248  0.99999486  0.66685211  1
  Mg  Mg117  1  0.00000514  0.39989752  0.66685211  1
  Mg  Mg118  1  0.39989238  0.39989752  0.66685211  1
  Mg  Mg119  1  0.00000514  0.60010762  0.66685211  1
  Mg  Mg120  1  0.60010248  0.60010762  0.66685211  1
  Mg  Mg121  1  0.19991377  0.39982654  0.66706620  1
  Mg  Mg122  1  0.60017346  0.80008623  0.66706620  1
  Mg  Mg123  1  0.19991377  0.80008623  0.66706620  1
  Mg  Mg124  1  0.06683811  0.13367622  0.83217591  1
  Mg  Mg125  1  0.86632378  0.93316189  0.83217591  1
  Mg  Mg126  1  0.06683811  0.93316189  0.83217591  1
  Mg  Mg127  1  0.86630259  0.13369741  0.83275062  1
  Mg  Mg128  1  0.26739483  0.13369741  0.83275062  1
  Mg  Mg129  1  0.86630259  0.73260517  0.83275062  1
  Mg  Mg130  1  0.46661146  0.53338854  0.83353550  1
  Mg  Mg131  1  0.06677709  0.53338854  0.83353550  1
  Mg  Mg132  1  0.46661146  0.93322291  0.83353550  1
  Mg  Mg133  1  0.26654102  0.53308104  0.83347917  1
  Mg  Mg134  1  0.46691896  0.73345898  0.83347917  1
  Mg  Mg135  1  0.26654102  0.73345998  0.83347917  1
  Mg  Mg136  1  0.66666700  0.33333300  0.83339724  1
  Mg  Mg137  1  0.46679688  0.13332207  0.83357877  1
  Mg  Mg138  1  0.66652419  0.13332207  0.83357877  1
  Mg  Mg139  1  0.46679688  0.33347581  0.83357877  1
  Mg  Mg140  1  0.86667793  0.33347581  0.83357877  1
  Mg  Mg141  1  0.66652419  0.53320312  0.83357877  1
  Mg  Mg142  1  0.86667793  0.53320312  0.83357877  1
  Mg  Mg143  1  0.06634051  0.33289672  0.83374046  1
  Mg  Mg144  1  0.26655621  0.33289672  0.83374046  1
  Mg  Mg145  1  0.06634051  0.73344379  0.83374046  1
  Mg  Mg146  1  0.66710328  0.73344379  0.83374046  1
  Mg  Mg147  1  0.66710328  0.93365949  0.83374046  1
  Mg  Mg148  1  0.26655621  0.93365949  0.83374046  1
  Sn  Sn149  1  -0.00000000  0.00000000  -0.00000000  1
