# generated using pymatgen
data_WI4
_symmetry_space_group_name_H-M   'P 1'
_cell_length_a   14.83489600
_cell_length_b   16.07731536
_cell_length_c   22.94409931
_cell_angle_alpha   90.00000000
_cell_angle_beta   90.00000000
_cell_angle_gamma   90.00000000
_symmetry_Int_Tables_number   1
_chemical_formula_structural   WI4
_chemical_formula_sum   'W24 I96'
_cell_volume   5472.28931956
_cell_formula_units_Z   24
loop_
 _symmetry_equiv_pos_site_id
 _symmetry_equiv_pos_as_xyz
  1  'x, y, z'
loop_
 _atom_site_type_symbol
 _atom_site_label
 _atom_site_symmetry_multiplicity
 _atom_site_fract_x
 _atom_site_fract_y
 _atom_site_fract_z
 _atom_site_occupancy
  W  W0  1  0.83090082  0.27150255  0.10581869  1
  W  W1  1  0.66909918  0.77150255  0.39418131  1
  W  W2  1  0.33090082  0.72849745  0.39418131  1
  W  W3  1  0.16909918  0.22849745  0.10581869  1
  W  W4  1  0.16909918  0.72849745  0.89418131  1
  W  W5  1  0.33090082  0.22849745  0.60581869  1
  W  W6  1  0.66909918  0.27150255  0.60581869  1
  W  W7  1  0.83090082  0.77150255  0.89418131  1
  W  W8  1  0.66466481  0.27064730  0.10878173  1
  W  W9  1  0.83533519  0.77064730  0.39121827  1
  W  W10  1  0.16466481  0.72935270  0.39121827  1
  W  W11  1  0.33533519  0.22935270  0.10878173  1
  W  W12  1  0.33533519  0.72935270  0.89121827  1
  W  W13  1  0.16466481  0.22935270  0.60878173  1
  W  W14  1  0.83533519  0.27064730  0.60878173  1
  W  W15  1  0.66466481  0.77064730  0.89121827  1
  W  W16  1  0.74367756  0.30612350  0.01734537  1
  W  W17  1  0.75632244  0.80612350  0.48265463  1
  W  W18  1  0.24367756  0.69387650  0.48265463  1
  W  W19  1  0.25632244  0.19387650  0.01734537  1
  W  W20  1  0.25632244  0.69387650  0.98265463  1
  W  W21  1  0.24367756  0.19387650  0.51734537  1
  W  W22  1  0.75632244  0.30612350  0.51734537  1
  W  W23  1  0.74367756  0.80612350  0.98265463  1
  I  I24  1  0.87499107  0.18419478  0.00480002  1
  I  I25  1  0.62500893  0.68419478  0.49519998  1
  I  I26  1  0.37499107  0.81580522  0.49519998  1
  I  I27  1  0.12500893  0.31580522  0.00480002  1
  I  I28  1  0.12500893  0.81580522  0.99519998  1
  I  I29  1  0.37499107  0.31580522  0.50480002  1
  I  I30  1  0.62500893  0.18419478  0.50480002  1
  I  I31  1  0.87499107  0.68419478  0.99519998  1
  I  I32  1  0.61425652  0.18185811  0.00968071  1
  I  I33  1  0.88574348  0.68185811  0.49031929  1
  I  I34  1  0.11425652  0.81814189  0.49031929  1
  I  I35  1  0.38574348  0.31814189  0.00968071  1
  I  I36  1  0.38574348  0.81814189  0.99031929  1
  I  I37  1  0.11425652  0.31814189  0.50968071  1
  I  I38  1  0.88574348  0.18185811  0.50968071  1
  I  I39  1  0.61425652  0.68185811  0.99031929  1
  I  I40  1  0.75055471  0.12731940  0.14881028  1
  I  I41  1  0.74944529  0.62731940  0.35118972  1
  I  I42  1  0.25055471  0.87268060  0.35118972  1
  I  I43  1  0.24944529  0.37268060  0.14881028  1
  I  I44  1  0.24944529  0.87268060  0.85118972  1
  I  I45  1  0.25055471  0.37268060  0.64881028  1
  I  I46  1  0.74944529  0.12731940  0.64881028  1
  I  I47  1  0.75055471  0.62731940  0.85118972  1
  I  I48  1  0.87565369  0.42057649  0.05124168  1
  I  I49  1  0.62434631  0.92057649  0.44875832  1
  I  I50  1  0.37565369  0.57942351  0.44875832  1
  I  I51  1  0.12434631  0.07942351  0.05124168  1
  I  I52  1  0.12434631  0.57942351  0.94875832  1
  I  I53  1  0.37565369  0.07942351  0.55124168  1
  I  I54  1  0.62434631  0.42057649  0.55124168  1
  I  I55  1  0.87565369  0.92057649  0.94875832  1
  I  I56  1  0.61625811  0.42181849  0.05716658  1
  I  I57  1  0.88374189  0.92181849  0.44283342  1
  I  I58  1  0.11625811  0.57818151  0.44283342  1
  I  I59  1  0.38374189  0.07818151  0.05716658  1
  I  I60  1  0.38374189  0.57818151  0.94283342  1
  I  I61  1  0.11625811  0.07818151  0.55716658  1
  I  I62  1  0.88374189  0.42181849  0.55716658  1
  I  I63  1  0.61625811  0.92181849  0.94283342  1
  I  I64  1  0.75137118  0.36121749  0.19623743  1
  I  I65  1  0.74862882  0.86121749  0.30376257  1
  I  I66  1  0.25137118  0.63878251  0.30376257  1
  I  I67  1  0.24862882  0.13878251  0.19623743  1
  I  I68  1  0.24862882  0.63878251  0.80376257  1
  I  I69  1  0.25137118  0.13878251  0.69623743  1
  I  I70  1  0.74862882  0.36121749  0.69623743  1
  I  I71  1  0.75137118  0.86121749  0.80376257  1
  I  I72  1  0.00000000  0.25000000  0.16812979  1
  I  I73  1  0.50000000  0.75000000  0.33187021  1
  I  I74  1  -0.00000000  0.75000000  0.83187021  1
  I  I75  1  0.50000000  0.25000000  0.66812979  1
  I  I76  1  0.73563806  0.34690010  0.89474946  1
  I  I77  1  0.76436194  0.84690010  0.60525054  1
  I  I78  1  0.23563806  0.65309990  0.60525054  1
  I  I79  1  0.26436194  0.15309990  0.89474946  1
  I  I80  1  0.26436194  0.65309990  0.10525054  1
  I  I81  1  0.23563806  0.15309990  0.39474946  1
  I  I82  1  0.76436194  0.34690010  0.39474946  1
  I  I83  1  0.73563806  0.84690010  0.10525054  1
  I  I84  1  0.50000000  0.25000000  0.17610773  1
  I  I85  1  0.00000000  0.75000000  0.32389227  1
  I  I86  1  0.50000000  0.75000000  0.82389227  1
  I  I87  1  0.00000000  0.25000000  0.67610773  1
  I  I88  1  0.93806361  0.37552283  0.85656704  1
  I  I89  1  0.56193639  0.87552283  0.64343296  1
  I  I90  1  0.43806361  0.62447717  0.64343296  1
  I  I91  1  0.06193639  0.12447717  0.85656704  1
  I  I92  1  0.06193639  0.62447717  0.14343296  1
  I  I93  1  0.43806361  0.12447717  0.35656704  1
  I  I94  1  0.56193639  0.37552283  0.35656704  1
  I  I95  1  0.93806361  0.87552283  0.14343296  1
  I  I96  1  0.11816418  0.39263167  0.81916313  1
  I  I97  1  0.38183582  0.89263167  0.68083687  1
  I  I98  1  0.61816418  0.60736833  0.68083687  1
  I  I99  1  0.88183582  0.10736833  0.81916313  1
  I  I100  1  0.88183582  0.60736833  0.18083687  1
  I  I101  1  0.61816418  0.10736833  0.31916313  1
  I  I102  1  0.38183582  0.39263167  0.31916313  1
  I  I103  1  0.11816418  0.89263167  0.18083687  1
  I  I104  1  0.38185177  0.33581142  0.83217044  1
  I  I105  1  0.11814823  0.83581142  0.66782956  1
  I  I106  1  0.88185177  0.66418858  0.66782956  1
  I  I107  1  0.61814823  0.16418858  0.83217044  1
  I  I108  1  0.61814823  0.66418858  0.16782956  1
  I  I109  1  0.88185177  0.16418858  0.33217044  1
  I  I110  1  0.11814823  0.33581142  0.33217044  1
  I  I111  1  0.38185177  0.83581142  0.16782956  1
  I  I112  1  0.49209143  0.45916926  0.78919733  1
  I  I113  1  0.00790857  0.95916926  0.71080267  1
  I  I114  1  0.99209143  0.54083074  0.71080267  1
  I  I115  1  0.50790857  0.04083074  0.78919733  1
  I  I116  1  0.50790857  0.54083074  0.21080267  1
  I  I117  1  0.99209143  0.04083074  0.28919733  1
  I  I118  1  0.00790857  0.45916926  0.28919733  1
  I  I119  1  0.49209143  0.95916926  0.21080267  1
