# generated using pymatgen
data_Ba3Ta6Fe2O21
_symmetry_space_group_name_H-M   'P 1'
_cell_length_a   9.24490042
_cell_length_b   9.24490042
_cell_length_c   12.10565375
_cell_angle_alpha   89.75445095
_cell_angle_beta   89.75445095
_cell_angle_gamma   59.67657970
_symmetry_Int_Tables_number   1
_chemical_formula_structural   Ba3Ta6Fe2O21
_chemical_formula_sum   'Ba6 Ta12 Fe4 O42'
_cell_volume   893.08633471
_cell_formula_units_Z   2
loop_
 _symmetry_equiv_pos_site_id
 _symmetry_equiv_pos_as_xyz
  1  'x, y, z'
loop_
 _atom_site_type_symbol
 _atom_site_label
 _atom_site_symmetry_multiplicity
 _atom_site_fract_x
 _atom_site_fract_y
 _atom_site_fract_z
 _atom_site_occupancy
  Ba  Ba0  1  0.99344800  0.59273700  0.74963400  1
  Ba  Ba1  1  0.40726300  0.00655200  0.75036600  1
  Ba  Ba2  1  0.59953900  0.40046100  0.75000000  1
  Ba  Ba3  1  0.00655200  0.40726300  0.25036600  1
  Ba  Ba4  1  0.59273700  0.99344800  0.24963400  1
  Ba  Ba5  1  0.40046100  0.59953900  0.25000000  1
  Ta  Ta6  1  0.67946400  0.65994900  0.49917900  1
  Ta  Ta7  1  0.32053600  0.34005100  0.50082100  1
  Ta  Ta8  1  0.34005100  0.32053600  0.00082100  1
  Ta  Ta9  1  0.65994900  0.67946400  0.99917900  1
  Ta  Ta10  1  0.75557700  0.99934200  0.59695600  1
  Ta  Ta11  1  0.24570900  0.75763400  0.59180100  1
  Ta  Ta12  1  0.24442300  0.00065800  0.40304400  1
  Ta  Ta13  1  0.75429100  0.24236600  0.40819900  1
  Ta  Ta14  1  0.99934200  0.75557700  0.09695600  1
  Ta  Ta15  1  0.75763400  0.24570900  0.09180100  1
  Ta  Ta16  1  0.00065800  0.24442300  0.90304400  1
  Ta  Ta17  1  0.24236600  0.75429100  0.90819900  1
  Fe  Fe18  1  0.00165200  0.24522500  0.59176400  1
  Fe  Fe19  1  0.99834800  0.75477500  0.40823600  1
  Fe  Fe20  1  0.24522500  0.00165200  0.09176400  1
  Fe  Fe21  1  0.75477500  0.99834800  0.90823600  1
  O  O22  1  0.99888300  0.21334600  0.75079800  1
  O  O23  1  0.78665400  0.00111700  0.74920200  1
  O  O24  1  0.20647200  0.79352800  0.75000000  1
  O  O25  1  0.00111700  0.78665400  0.24920200  1
  O  O26  1  0.21334600  0.99888300  0.25079800  1
  O  O27  1  0.79352800  0.20647200  0.25000000  1
  O  O28  1  0.00021600  0.80173200  0.57662100  1
  O  O29  1  0.20402700  0.99733900  0.57473400  1
  O  O30  1  0.79235700  0.20427700  0.57362000  1
  O  O31  1  0.99978400  0.19826800  0.42337900  1
  O  O32  1  0.79597300  0.00266100  0.42526600  1
  O  O33  1  0.20764300  0.79572300  0.42638000  1
  O  O34  1  0.99733900  0.20402700  0.07473400  1
  O  O35  1  0.80173200  0.00021600  0.07662100  1
  O  O36  1  0.20427700  0.79235700  0.07362000  1
  O  O37  1  0.00266100  0.79597300  0.92526600  1
  O  O38  1  0.19826800  0.99978400  0.92337900  1
  O  O39  1  0.79572300  0.20764300  0.92638000  1
  O  O40  1  0.48105600  0.68475100  0.59769100  1
  O  O41  1  0.82835100  0.48673200  0.59953800  1
  O  O42  1  0.68412300  0.83249600  0.59864900  1
  O  O43  1  0.51807200  0.16792000  0.59620000  1
  O  O44  1  0.17128900  0.31675500  0.60006700  1
  O  O45  1  0.31499000  0.51878000  0.59900300  1
  O  O46  1  0.51894400  0.31524900  0.40230900  1
  O  O47  1  0.17164900  0.51326800  0.40046200  1
  O  O48  1  0.31587700  0.16750400  0.40135100  1
  O  O49  1  0.48192800  0.83208000  0.40380000  1
  O  O50  1  0.82871100  0.68324500  0.39993300  1
  O  O51  1  0.68501000  0.48122000  0.40099700  1
  O  O52  1  0.51878000  0.31499000  0.09900300  1
  O  O53  1  0.16792000  0.51807200  0.09620000  1
  O  O54  1  0.31675500  0.17128900  0.10006700  1
  O  O55  1  0.48673200  0.82835100  0.09953800  1
  O  O56  1  0.83249600  0.68412300  0.09864900  1
  O  O57  1  0.68475100  0.48105600  0.09769100  1
  O  O58  1  0.48122000  0.68501000  0.90099700  1
  O  O59  1  0.83208000  0.48192800  0.90380000  1
  O  O60  1  0.68324500  0.82871100  0.89993300  1
  O  O61  1  0.51326800  0.17164900  0.90046200  1
  O  O62  1  0.16750400  0.31587700  0.90135100  1
  O  O63  1  0.31524900  0.51894400  0.90230900  1
