# generated using pymatgen
data_SrTe(HO2)2
_symmetry_space_group_name_H-M   'P 1'
_cell_length_a   7.25689000
_cell_length_b   7.97914468
_cell_length_c   8.40403632
_cell_angle_alpha   107.27315322
_cell_angle_beta   90.00000000
_cell_angle_gamma   90.00000000
_symmetry_Int_Tables_number   1
_chemical_formula_structural   SrTe(HO2)2
_chemical_formula_sum   'Sr4 Te4 H8 O16'
_cell_volume   464.67864012
_cell_formula_units_Z   4
loop_
 _symmetry_equiv_pos_site_id
 _symmetry_equiv_pos_as_xyz
  1  'x, y, z'
loop_
 _atom_site_type_symbol
 _atom_site_label
 _atom_site_symmetry_multiplicity
 _atom_site_fract_x
 _atom_site_fract_y
 _atom_site_fract_z
 _atom_site_occupancy
  Sr  Sr0  1  0.86103800  0.60075700  0.83704900  1
  Sr  Sr1  1  0.36103800  0.39924300  0.66295100  1
  Sr  Sr2  1  0.13896200  0.39924300  0.16295100  1
  Sr  Sr3  1  0.63896200  0.60075700  0.33704900  1
  Te  Te4  1  0.67241200  0.21915200  0.99372700  1
  Te  Te5  1  0.17241200  0.78084800  0.50627300  1
  Te  Te6  1  0.32758800  0.78084800  0.00627300  1
  Te  Te7  1  0.82758800  0.21915200  0.49372700  1
  H  H8  1  0.94260500  0.80629100  0.20494000  1
  H  H9  1  0.44260500  0.19370900  0.29506000  1
  H  H10  1  0.05739500  0.19370900  0.79506000  1
  H  H11  1  0.55739500  0.80629100  0.70494000  1
  H  H12  1  0.91404500  0.98624000  0.16136900  1
  H  H13  1  0.41404500  0.01376000  0.33863100  1
  H  H14  1  0.08595500  0.01376000  0.83863100  1
  H  H15  1  0.58595500  0.98624000  0.66136900  1
  O  O16  1  0.80293200  0.43526100  0.05032400  1
  O  O17  1  0.30293200  0.56473900  0.44967600  1
  O  O18  1  0.19706800  0.56473900  0.94967600  1
  O  O19  1  0.69706800  0.43526100  0.55032400  1
  O  O20  1  0.47731600  0.30611700  0.14804800  1
  O  O21  1  0.97731600  0.69388300  0.35195200  1
  O  O22  1  0.52268400  0.69388300  0.85195200  1
  O  O23  1  0.02268400  0.30611700  0.64804800  1
  O  O24  1  0.57245200  0.22149000  0.78677600  1
  O  O25  1  0.07245200  0.77851000  0.71322400  1
  O  O26  1  0.42754800  0.77851000  0.21322400  1
  O  O27  1  0.92754800  0.22149000  0.28677600  1
  O  O28  1  0.91260600  0.85604900  0.11214000  1
  O  O29  1  0.41260600  0.14395100  0.38786000  1
  O  O30  1  0.08739400  0.14395100  0.88786000  1
  O  O31  1  0.58739400  0.85604900  0.61214000  1
