# generated using pymatgen
data_SmPS
_symmetry_space_group_name_H-M   'P 1'
_cell_length_a   5.43257400
_cell_length_b   5.50206600
_cell_length_c   17.06998300
_cell_angle_alpha   90.00000000
_cell_angle_beta   90.00000000
_cell_angle_gamma   90.00000000
_symmetry_Int_Tables_number   1
_chemical_formula_structural   SmPS
_chemical_formula_sum   'Sm8 P8 S8'
_cell_volume   510.22829038
_cell_formula_units_Z   8
loop_
 _symmetry_equiv_pos_site_id
 _symmetry_equiv_pos_as_xyz
  1  'x, y, z'
loop_
 _atom_site_type_symbol
 _atom_site_label
 _atom_site_symmetry_multiplicity
 _atom_site_fract_x
 _atom_site_fract_y
 _atom_site_fract_z
 _atom_site_occupancy
  Sm  Sm0  1  0.25000000  0.48412500  0.36247700  1
  Sm  Sm1  1  0.25000000  0.98412500  0.13752300  1
  Sm  Sm2  1  0.75000000  0.51587500  0.63752300  1
  Sm  Sm3  1  0.75000000  0.01587500  0.86247700  1
  Sm  Sm4  1  0.25000000  0.01555100  0.64656700  1
  Sm  Sm5  1  0.25000000  0.51555100  0.85343300  1
  Sm  Sm6  1  0.75000000  0.98444900  0.35343300  1
  Sm  Sm7  1  0.75000000  0.48444900  0.14656700  1
  P  P8  1  0.03963300  0.29969400  0.99736300  1
  P  P9  1  0.46036700  0.79969400  0.50263700  1
  P  P10  1  0.53963300  0.70030600  0.00263700  1
  P  P11  1  0.96036700  0.20030600  0.49736300  1
  P  P12  1  0.96036700  0.70030600  0.00263700  1
  P  P13  1  0.53963300  0.20030600  0.49736300  1
  P  P14  1  0.46036700  0.29969400  0.99736300  1
  P  P15  1  0.03963300  0.79969400  0.50263700  1
  S  S16  1  0.25000000  0.48482100  0.18907400  1
  S  S17  1  0.25000000  0.98482100  0.31092600  1
  S  S18  1  0.75000000  0.51517900  0.81092600  1
  S  S19  1  0.75000000  0.01517900  0.68907400  1
  S  S20  1  0.25000000  0.01206200  0.81680300  1
  S  S21  1  0.25000000  0.51206200  0.68319700  1
  S  S22  1  0.75000000  0.98793800  0.18319700  1
  S  S23  1  0.75000000  0.48793800  0.31680300  1
