# generated using pymatgen
data_Mg2CrN3
_symmetry_space_group_name_H-M   'P 1'
_cell_length_a   5.76861806
_cell_length_b   5.76861806
_cell_length_c   5.02302100
_cell_angle_alpha   90.00000000
_cell_angle_beta   90.00000000
_cell_angle_gamma   119.62886484
_symmetry_Int_Tables_number   1
_chemical_formula_structural   Mg2CrN3
_chemical_formula_sum   'Mg4 Cr2 N6'
_cell_volume   145.29519574
_cell_formula_units_Z   2
loop_
 _symmetry_equiv_pos_site_id
 _symmetry_equiv_pos_as_xyz
  1  'x, y, z'
loop_
 _atom_site_type_symbol
 _atom_site_label
 _atom_site_symmetry_multiplicity
 _atom_site_fract_x
 _atom_site_fract_y
 _atom_site_fract_z
 _atom_site_occupancy
  Mg  Mg0  1  0.66624700  0.99064500  0.52581000  1
  Mg  Mg1  1  0.99064500  0.66624700  0.52581000  1
  Mg  Mg2  1  0.33375300  0.00935500  0.02581000  1
  Mg  Mg3  1  0.00935500  0.33375300  0.02581000  1
  Cr  Cr4  1  0.32975400  0.32975400  0.52066600  1
  Cr  Cr5  1  0.67024600  0.67024600  0.02066600  1
  N  N6  1  0.66709500  0.96535400  0.09991900  1
  N  N7  1  0.96535400  0.66709500  0.09991900  1
  N  N8  1  0.33290500  0.03464600  0.59991900  1
  N  N9  1  0.03464600  0.33290500  0.59991900  1
  N  N10  1  0.37202900  0.37202900  0.15587500  1
  N  N11  1  0.62797100  0.62797100  0.65587500  1
