# generated using pymatgen
data_Ba2LaBiO6
_symmetry_space_group_name_H-M   'P 1'
_cell_length_a   6.27169496
_cell_length_b   6.27169496
_cell_length_c   6.32250360
_cell_angle_alpha   60.20132591
_cell_angle_beta   60.20132591
_cell_angle_gamma   60.18673003
_symmetry_Int_Tables_number   1
_chemical_formula_structural   Ba2LaBiO6
_chemical_formula_sum   'Ba2 La1 Bi1 O6'
_cell_volume   176.63293498
_cell_formula_units_Z   1
loop_
 _symmetry_equiv_pos_site_id
 _symmetry_equiv_pos_as_xyz
  1  'x, y, z'
loop_
 _atom_site_type_symbol
 _atom_site_label
 _atom_site_symmetry_multiplicity
 _atom_site_fract_x
 _atom_site_fract_y
 _atom_site_fract_z
 _atom_site_occupancy
  Ba  Ba0  1  0.75136900  0.75136900  0.24096700  1
  Ba  Ba1  1  0.24863100  0.24863100  0.75903300  1
  La  La2  1  0.00000000  0.00000000  0.50000000  1
  Bi  Bi3  1  0.50000000  0.50000000  0.00000000  1
  O  O4  1  0.69915000  0.22116500  0.80300200  1
  O  O5  1  0.77883500  0.30085000  0.19699800  1
  O  O6  1  0.30085000  0.77883500  0.19699800  1
  O  O7  1  0.22116500  0.69915000  0.80300200  1
  O  O8  1  0.26336700  0.26336700  0.30834800  1
  O  O9  1  0.73663300  0.73663300  0.69165200  1
