# generated using pymatgen
data_Eu3GaP3
_symmetry_space_group_name_H-M   'P 1'
_cell_length_a   9.73232717
_cell_length_b   9.73232717
_cell_length_c   12.17554200
_cell_angle_alpha   90.00000000
_cell_angle_beta   90.00000000
_cell_angle_gamma   142.49224149
_symmetry_Int_Tables_number   1
_chemical_formula_structural   Eu3GaP3
_chemical_formula_sum   'Eu12 Ga4 P12'
_cell_volume   702.17515900
_cell_formula_units_Z   4
loop_
 _symmetry_equiv_pos_site_id
 _symmetry_equiv_pos_as_xyz
  1  'x, y, z'
loop_
 _atom_site_type_symbol
 _atom_site_label
 _atom_site_symmetry_multiplicity
 _atom_site_fract_x
 _atom_site_fract_y
 _atom_site_fract_z
 _atom_site_occupancy
  Eu  Eu0  1  0.82031900  0.82031900  0.64840900  1
  Eu  Eu1  1  0.17968100  0.17968100  0.35159100  1
  Eu  Eu2  1  0.67968100  0.67968100  0.14840900  1
  Eu  Eu3  1  0.32031900  0.32031900  0.85159100  1
  Eu  Eu4  1  0.13296000  0.48612100  0.13145200  1
  Eu  Eu5  1  0.51387900  0.86704000  0.86854800  1
  Eu  Eu6  1  0.01387900  0.36704000  0.63145200  1
  Eu  Eu7  1  0.63296000  0.98612100  0.36854800  1
  Eu  Eu8  1  0.86704000  0.51387900  0.86854800  1
  Eu  Eu9  1  0.48612100  0.13296000  0.13145200  1
  Eu  Eu10  1  0.98612100  0.63296000  0.36854800  1
  Eu  Eu11  1  0.36704000  0.01387900  0.63145200  1
  Ga  Ga12  1  0.91325800  0.08674200  0.00000000  1
  Ga  Ga13  1  0.41325800  0.58674200  0.50000000  1
  Ga  Ga14  1  0.08674200  0.91325800  0.00000000  1
  Ga  Ga15  1  0.58674200  0.41325800  0.50000000  1
  P  P16  1  0.28518600  0.28518600  0.60656400  1
  P  P17  1  0.71481400  0.71481400  0.39343600  1
  P  P18  1  0.21481400  0.21481400  0.10656400  1
  P  P19  1  0.78518600  0.78518600  0.89343600  1
  P  P20  1  0.55087500  0.87352800  0.62301800  1
  P  P21  1  0.12647200  0.44912500  0.37698200  1
  P  P22  1  0.62647200  0.94912500  0.12301800  1
  P  P23  1  0.05087500  0.37352800  0.87698200  1
  P  P24  1  0.44912500  0.12647200  0.37698200  1
  P  P25  1  0.87352800  0.55087500  0.62301800  1
  P  P26  1  0.37352800  0.05087500  0.87698200  1
  P  P27  1  0.94912500  0.62647200  0.12301800  1
