# generated using pymatgen
data_CaSi
_symmetry_space_group_name_H-M   'P 1'
_cell_length_a   5.81803561
_cell_length_b   5.81803561
_cell_length_c   3.90152200
_cell_angle_alpha   90.00000000
_cell_angle_beta   90.00000000
_cell_angle_gamma   133.85599531
_symmetry_Int_Tables_number   1
_chemical_formula_structural   CaSi
_chemical_formula_sum   'Ca2 Si2'
_cell_volume   95.22968301
_cell_formula_units_Z   2
loop_
 _symmetry_equiv_pos_site_id
 _symmetry_equiv_pos_as_xyz
  1  'x, y, z'
loop_
 _atom_site_type_symbol
 _atom_site_label
 _atom_site_symmetry_multiplicity
 _atom_site_fract_x
 _atom_site_fract_y
 _atom_site_fract_z
 _atom_site_occupancy
  Ca  Ca0  1  0.13863300  0.86136700  0.25000000  1
  Ca  Ca1  1  0.86136700  0.13863300  0.75000000  1
  Si  Si2  1  0.43095600  0.56904400  0.25000000  1
  Si  Si3  1  0.56904400  0.43095600  0.75000000  1
