# generated using pymatgen
data_TbSiOs2C
_symmetry_space_group_name_H-M   'P 1'
_cell_length_a   5.88925916
_cell_length_b   5.88925916
_cell_length_c   7.14624600
_cell_angle_alpha   90.00000000
_cell_angle_beta   90.00000000
_cell_angle_gamma   141.54234374
_symmetry_Int_Tables_number   1
_chemical_formula_structural   TbSiOs2C
_chemical_formula_sum   'Tb2 Si2 Os4 C2'
_cell_volume   154.15054085
_cell_formula_units_Z   2
loop_
 _symmetry_equiv_pos_site_id
 _symmetry_equiv_pos_as_xyz
  1  'x, y, z'
loop_
 _atom_site_type_symbol
 _atom_site_label
 _atom_site_symmetry_multiplicity
 _atom_site_fract_x
 _atom_site_fract_y
 _atom_site_fract_z
 _atom_site_occupancy
  Tb  Tb0  1  0.54670100  0.45329900  0.25000000  1
  Tb  Tb1  1  0.45329900  0.54670100  0.75000000  1
  Si  Si2  1  0.26790500  0.73209500  0.25000000  1
  Si  Si3  1  0.73209500  0.26790500  0.75000000  1
  Os  Os4  1  0.83465600  0.16534400  0.05892700  1
  Os  Os5  1  0.16534400  0.83465600  0.94107300  1
  Os  Os6  1  0.16534400  0.83465600  0.55892700  1
  Os  Os7  1  0.83465600  0.16534400  0.44107300  1
  C  C8  1  0.00000000  0.00000000  0.00000000  1
  C  C9  1  0.00000000  0.00000000  0.50000000  1
