# generated using pymatgen
data_La2HfS5
_symmetry_space_group_name_H-M   'P 1'
_cell_length_a   7.47653500
_cell_length_b   8.13319500
_cell_length_c   11.71371700
_cell_angle_alpha   90.00000000
_cell_angle_beta   90.00000000
_cell_angle_gamma   90.00000000
_symmetry_Int_Tables_number   1
_chemical_formula_structural   La2HfS5
_chemical_formula_sum   'La8 Hf4 S20'
_cell_volume   712.28907477
_cell_formula_units_Z   4
loop_
 _symmetry_equiv_pos_site_id
 _symmetry_equiv_pos_as_xyz
  1  'x, y, z'
loop_
 _atom_site_type_symbol
 _atom_site_label
 _atom_site_symmetry_multiplicity
 _atom_site_fract_x
 _atom_site_fract_y
 _atom_site_fract_z
 _atom_site_occupancy
  La  La0  1  0.53557100  0.00048600  0.32413500  1
  La  La1  1  0.96442900  0.49951400  0.82413500  1
  La  La2  1  0.46442900  0.50048600  0.67586500  1
  La  La3  1  0.03557100  0.99951400  0.17586500  1
  La  La4  1  0.46442900  0.99951400  0.67586500  1
  La  La5  1  0.03557100  0.50048600  0.17586500  1
  La  La6  1  0.53557100  0.49951400  0.32413500  1
  La  La7  1  0.96442900  0.00048600  0.82413500  1
  Hf  Hf8  1  0.07259500  0.75000000  0.49231100  1
  Hf  Hf9  1  0.42740500  0.75000000  0.99231100  1
  Hf  Hf10  1  0.92740500  0.25000000  0.50768900  1
  Hf  Hf11  1  0.57259500  0.25000000  0.00768900  1
  S  S12  1  0.83570400  0.53477300  0.58149300  1
  S  S13  1  0.66429600  0.96522700  0.08149300  1
  S  S14  1  0.16429600  0.03477300  0.41850700  1
  S  S15  1  0.33570400  0.46522700  0.91850700  1
  S  S16  1  0.16429600  0.46522700  0.41850700  1
  S  S17  1  0.33570400  0.03477300  0.91850700  1
  S  S18  1  0.83570400  0.96522700  0.58149300  1
  S  S19  1  0.66429600  0.53477300  0.08149300  1
  S  S20  1  0.84722700  0.75000000  0.31732200  1
  S  S21  1  0.65277300  0.75000000  0.81732200  1
  S  S22  1  0.15277300  0.25000000  0.68267800  1
  S  S23  1  0.34722700  0.25000000  0.18267800  1
  S  S24  1  0.43820400  0.75000000  0.49337300  1
  S  S25  1  0.06179600  0.75000000  0.99337300  1
  S  S26  1  0.56179600  0.25000000  0.50662700  1
  S  S27  1  0.93820400  0.25000000  0.00662700  1
  S  S28  1  0.17594300  0.75000000  0.70351900  1
  S  S29  1  0.32405700  0.75000000  0.20351900  1
  S  S30  1  0.82405700  0.25000000  0.29648100  1
  S  S31  1  0.67594300  0.25000000  0.79648100  1
