# generated using pymatgen
data_CdSnP14
_symmetry_space_group_name_H-M   'P 1'
_cell_length_a   9.89780800
_cell_length_b   11.05105800
_cell_length_c   13.27611200
_cell_angle_alpha   90.00000000
_cell_angle_beta   90.00000000
_cell_angle_gamma   90.00000000
_symmetry_Int_Tables_number   1
_chemical_formula_structural   CdSnP14
_chemical_formula_sum   'Cd4 Sn4 P56'
_cell_volume   1452.15772943
_cell_formula_units_Z   4
loop_
 _symmetry_equiv_pos_site_id
 _symmetry_equiv_pos_as_xyz
  1  'x, y, z'
loop_
 _atom_site_type_symbol
 _atom_site_label
 _atom_site_symmetry_multiplicity
 _atom_site_fract_x
 _atom_site_fract_y
 _atom_site_fract_z
 _atom_site_occupancy
  Cd  Cd0  1  0.25000000  0.49720600  0.68227700  1
  Cd  Cd1  1  0.25000000  0.00279400  0.18227700  1
  Cd  Cd2  1  0.75000000  0.50279400  0.31772300  1
  Cd  Cd3  1  0.75000000  0.99720600  0.81772300  1
  Sn  Sn4  1  0.25000000  0.89672800  0.83308600  1
  Sn  Sn5  1  0.25000000  0.60327200  0.33308600  1
  Sn  Sn6  1  0.75000000  0.10327200  0.16691400  1
  Sn  Sn7  1  0.75000000  0.39672800  0.66691400  1
  P  P8  1  0.25000000  0.66376000  0.53097000  1
  P  P9  1  0.25000000  0.83624000  0.03097000  1
  P  P10  1  0.75000000  0.33624000  0.46903000  1
  P  P11  1  0.75000000  0.16376000  0.96903000  1
  P  P12  1  0.25000000  0.27847100  0.94793200  1
  P  P13  1  0.25000000  0.22152900  0.44793200  1
  P  P14  1  0.75000000  0.72152900  0.05206800  1
  P  P15  1  0.75000000  0.77847100  0.55206800  1
  P  P16  1  0.25000000  0.10232400  0.58472900  1
  P  P17  1  0.25000000  0.39767600  0.08472900  1
  P  P18  1  0.75000000  0.89767600  0.41527100  1
  P  P19  1  0.75000000  0.60232400  0.91527100  1
  P  P20  1  0.25000000  0.65045600  0.83267900  1
  P  P21  1  0.25000000  0.84954400  0.33267900  1
  P  P22  1  0.75000000  0.34954400  0.16732100  1
  P  P23  1  0.75000000  0.15045600  0.66732100  1
  P  P24  1  0.07556400  0.15442600  0.97309000  1
  P  P25  1  0.42443600  0.34557400  0.47309000  1
  P  P26  1  0.57556400  0.84557400  0.02691000  1
  P  P27  1  0.92443600  0.65442600  0.52691000  1
  P  P28  1  0.92443600  0.84557400  0.02691000  1
  P  P29  1  0.57556400  0.65442600  0.52691000  1
  P  P30  1  0.42443600  0.15442600  0.97309000  1
  P  P31  1  0.07556400  0.34557400  0.47309000  1
  P  P32  1  0.08282200  0.79064000  0.56475400  1
  P  P33  1  0.41717800  0.70936000  0.06475400  1
  P  P34  1  0.58282200  0.20936000  0.43524600  1
  P  P35  1  0.91717800  0.29064000  0.93524600  1
  P  P36  1  0.91717800  0.20936000  0.43524600  1
  P  P37  1  0.58282200  0.29064000  0.93524600  1
  P  P38  1  0.41717800  0.79064000  0.56475400  1
  P  P39  1  0.08282200  0.70936000  0.06475400  1
  P  P40  1  0.07991200  0.58471100  0.92612100  1
  P  P41  1  0.42008800  0.91528900  0.42612100  1
  P  P42  1  0.57991200  0.41528900  0.07387900  1
  P  P43  1  0.92008800  0.08471100  0.57387900  1
  P  P44  1  0.92008800  0.41528900  0.07387900  1
  P  P45  1  0.57991200  0.08471100  0.57387900  1
  P  P46  1  0.42008800  0.58471100  0.92612100  1
  P  P47  1  0.07991200  0.91528900  0.42612100  1
  P  P48  1  0.07536800  0.16708100  0.67503300  1
  P  P49  1  0.42463200  0.33291900  0.17503300  1
  P  P50  1  0.57536800  0.83291900  0.32496700  1
  P  P51  1  0.92463200  0.66708100  0.82496700  1
  P  P52  1  0.92463200  0.83291900  0.32496700  1
  P  P53  1  0.57536800  0.66708100  0.82496700  1
  P  P54  1  0.42463200  0.16708100  0.67503300  1
  P  P55  1  0.07536800  0.33291900  0.17503300  1
  P  P56  1  0.04445600  0.35836800  0.63653400  1
  P  P57  1  0.45554400  0.14163200  0.13653400  1
  P  P58  1  0.54445600  0.64163200  0.36346600  1
  P  P59  1  0.95554400  0.85836800  0.86346600  1
  P  P60  1  0.95554400  0.64163200  0.36346600  1
  P  P61  1  0.54445600  0.85836800  0.86346600  1
  P  P62  1  0.45554400  0.35836800  0.63653400  1
  P  P63  1  0.04445600  0.14163200  0.13653400  1
