# generated using pymatgen
data_Ca2ZnGa3
_symmetry_space_group_name_H-M   'P 1'
_cell_length_a   5.79735532
_cell_length_b   5.79735532
_cell_length_c   7.36733105
_cell_angle_alpha   50.66328581
_cell_angle_beta   50.66328581
_cell_angle_gamma   45.81605479
_symmetry_Int_Tables_number   1
_chemical_formula_structural   Ca2ZnGa3
_chemical_formula_sum   'Ca2 Zn1 Ga3'
_cell_volume   128.83429548
_cell_formula_units_Z   1
loop_
 _symmetry_equiv_pos_site_id
 _symmetry_equiv_pos_as_xyz
  1  'x, y, z'
loop_
 _atom_site_type_symbol
 _atom_site_label
 _atom_site_symmetry_multiplicity
 _atom_site_fract_x
 _atom_site_fract_y
 _atom_site_fract_z
 _atom_site_occupancy
  Ca  Ca0  1  0.45857100  0.45857100  0.79098900  1
  Ca  Ca1  1  0.54174600  0.54174600  0.20838200  1
  Zn  Zn2  1  0.83479100  0.83479100  0.60892600  1
  Ga  Ga3  1  0.16105700  0.16105700  0.39428000  1
  Ga  Ga4  1  0.16493300  0.16493300  0.78001900  1
  Ga  Ga5  1  0.83890100  0.83890100  0.21740400  1
