# generated using pymatgen
data_Ca3Si2SnO9
_symmetry_space_group_name_H-M   'P 1'
_cell_length_a   10.20129000
_cell_length_b   7.41559400
_cell_length_c   10.53477628
_cell_angle_alpha   88.80368668
_cell_angle_beta   90.00000000
_cell_angle_gamma   90.00000000
_symmetry_Int_Tables_number   1
_chemical_formula_structural   Ca3Si2SnO9
_chemical_formula_sum   'Ca12 Si8 Sn4 O36'
_cell_volume   796.76762896
_cell_formula_units_Z   4
loop_
 _symmetry_equiv_pos_site_id
 _symmetry_equiv_pos_as_xyz
  1  'x, y, z'
loop_
 _atom_site_type_symbol
 _atom_site_label
 _atom_site_symmetry_multiplicity
 _atom_site_fract_x
 _atom_site_fract_y
 _atom_site_fract_z
 _atom_site_occupancy
  Ca  Ca0  1  0.92067600  0.36382600  0.11132400  1
  Ca  Ca1  1  0.42067600  0.63617400  0.38867600  1
  Ca  Ca2  1  0.07932400  0.63617400  0.88867600  1
  Ca  Ca3  1  0.57932400  0.36382600  0.61132400  1
  Ca  Ca4  1  0.33334700  0.88064400  0.08351300  1
  Ca  Ca5  1  0.83334700  0.11935600  0.41648700  1
  Ca  Ca6  1  0.66665300  0.11935600  0.91648700  1
  Ca  Ca7  1  0.16665300  0.88064400  0.58351300  1
  Ca  Ca8  1  0.30427400  0.37188100  0.09563600  1
  Ca  Ca9  1  0.80427400  0.62811900  0.40436400  1
  Ca  Ca10  1  0.69572600  0.62811900  0.90436400  1
  Ca  Ca11  1  0.19572600  0.37188100  0.59563600  1
  Si  Si12  1  0.13677700  0.59882100  0.30528300  1
  Si  Si13  1  0.63677700  0.40117900  0.19471700  1
  Si  Si14  1  0.86322300  0.40117900  0.69471700  1
  Si  Si15  1  0.36322300  0.59882100  0.80528300  1
  Si  Si16  1  0.12548500  0.16701700  0.31584300  1
  Si  Si17  1  0.62548500  0.83298300  0.18415700  1
  Si  Si18  1  0.87451500  0.83298300  0.68415700  1
  Si  Si19  1  0.37451500  0.16701700  0.81584300  1
  Sn  Sn20  1  0.55847600  0.87978700  0.61790400  1
  Sn  Sn21  1  0.05847600  0.12021300  0.88209600  1
  Sn  Sn22  1  0.44152400  0.12021300  0.38209600  1
  Sn  Sn23  1  0.94152400  0.87978700  0.11790400  1
  O  O24  1  0.39151300  0.34086100  0.48271600  1
  O  O25  1  0.89151300  0.65913900  0.01728400  1
  O  O26  1  0.60848700  0.65913900  0.51728400  1
  O  O27  1  0.10848700  0.34086100  0.98271600  1
  O  O28  1  0.11672100  0.90910500  0.00828400  1
  O  O29  1  0.61672100  0.09089500  0.49171600  1
  O  O30  1  0.88327900  0.09089500  0.99171600  1
  O  O31  1  0.38327900  0.90910500  0.50828400  1
  O  O32  1  0.16897500  0.61940600  0.45493400  1
  O  O33  1  0.66897500  0.38059400  0.04506600  1
  O  O34  1  0.83102500  0.38059400  0.54506600  1
  O  O35  1  0.33102500  0.61940600  0.95493400  1
  O  O36  1  0.99898700  0.69554900  0.26322800  1
  O  O37  1  0.49898700  0.30445100  0.23677200  1
  O  O38  1  0.89085500  0.85575400  0.53250000  1
  O  O39  1  0.00101300  0.30445100  0.73677200  1
  O  O40  1  0.23319000  0.64537200  0.72049800  1
  O  O41  1  0.73319000  0.35462800  0.77950200  1
  O  O42  1  0.76681000  0.35462800  0.27950200  1
  O  O43  1  0.26681000  0.64537200  0.22049800  1
  O  O44  1  0.76875600  0.89638100  0.23902800  1
  O  O45  1  0.26875600  0.10361900  0.26097200  1
  O  O46  1  0.23124400  0.10361900  0.76097200  1
  O  O47  1  0.73124400  0.89638100  0.73902800  1
  O  O48  1  0.39274400  0.38278400  0.76952000  1
  O  O49  1  0.89274400  0.61721600  0.73048000  1
  O  O50  1  0.60725600  0.61721600  0.23048000  1
  O  O51  1  0.10725600  0.38278400  0.26952000  1
  O  O52  1  0.00236300  0.91583800  0.75750100  1
  O  O53  1  0.50236300  0.08416200  0.74249900  1
  O  O54  1  0.99763700  0.08416200  0.24249900  1
  O  O55  1  0.49763700  0.91583800  0.25750100  1
  O  O56  1  0.60914500  0.85575400  0.03250000  1
  O  O57  1  0.10914500  0.14424600  0.46750000  1
  O  O58  1  0.39085500  0.14424600  0.96750000  1
  O  O59  1  0.50101300  0.69554900  0.76322800  1
