# generated using pymatgen
data_Cs2Cu2Sb2Se5
_symmetry_space_group_name_H-M   'P 1'
_cell_length_a   7.75265800
_cell_length_b   8.92405809
_cell_length_c   10.43845093
_cell_angle_alpha   91.77291803
_cell_angle_beta   91.79046290
_cell_angle_gamma   102.92067620
_symmetry_Int_Tables_number   1
_chemical_formula_structural   Cs2Cu2Sb2Se5
_chemical_formula_sum   'Cs4 Cu4 Sb4 Se10'
_cell_volume   703.02369843
_cell_formula_units_Z   2
loop_
 _symmetry_equiv_pos_site_id
 _symmetry_equiv_pos_as_xyz
  1  'x, y, z'
loop_
 _atom_site_type_symbol
 _atom_site_label
 _atom_site_symmetry_multiplicity
 _atom_site_fract_x
 _atom_site_fract_y
 _atom_site_fract_z
 _atom_site_occupancy
  Cs  Cs0  1  0.73557100  0.80421500  0.90561000  1
  Cs  Cs1  1  0.26442900  0.19578500  0.09439000  1
  Cs  Cs2  1  0.26470100  0.05717700  0.61345700  1
  Cs  Cs3  1  0.73529900  0.94282300  0.38654300  1
  Cu  Cu4  1  0.59677300  0.49186900  0.61243400  1
  Cu  Cu5  1  0.40322700  0.50813100  0.38756600  1
  Cu  Cu6  1  0.87239800  0.36258400  0.56890000  1
  Cu  Cu7  1  0.12760200  0.63741600  0.43110000  1
  Sb  Sb8  1  0.80124000  0.35971300  0.88203400  1
  Sb  Sb9  1  0.19876000  0.64028700  0.11796600  1
  Sb  Sb10  1  0.81623800  0.42224600  0.26135400  1
  Sb  Sb11  1  0.18376200  0.57775400  0.73864600  1
  Se  Se12  1  0.91804300  0.65480800  0.61192800  1
  Se  Se13  1  0.08195700  0.34519200  0.38807200  1
  Se  Se14  1  0.85688600  0.15826200  0.71884700  1
  Se  Se15  1  0.14311400  0.84173800  0.28115300  1
  Se  Se16  1  0.48661600  0.38399600  0.81374200  1
  Se  Se17  1  0.51338400  0.61600400  0.18625800  1
  Se  Se18  1  0.74470600  0.18440200  0.08793400  1
  Se  Se19  1  0.25529400  0.81559800  0.91206600  1
  Se  Se20  1  0.57313400  0.30353200  0.42385200  1
  Se  Se21  1  0.42686600  0.69646800  0.57614800  1
