# generated using pymatgen
data_Na3CaMg3AlF14
_symmetry_space_group_name_H-M   'P 1'
_cell_length_a   7.28872185
_cell_length_b   7.28872185
_cell_length_c   7.28872174
_cell_angle_alpha   59.85788253
_cell_angle_beta   59.85788253
_cell_angle_gamma   59.85788877
_symmetry_Int_Tables_number   1
_chemical_formula_structural   Na3CaMg3AlF14
_chemical_formula_sum   'Na3 Ca1 Mg3 Al1 F14'
_cell_volume   272.92057214
_cell_formula_units_Z   1
loop_
 _symmetry_equiv_pos_site_id
 _symmetry_equiv_pos_as_xyz
  1  'x, y, z'
loop_
 _atom_site_type_symbol
 _atom_site_label
 _atom_site_symmetry_multiplicity
 _atom_site_fract_x
 _atom_site_fract_y
 _atom_site_fract_z
 _atom_site_occupancy
  Na  Na0  1  0.00000000  0.00000000  0.50000000  1
  Na  Na1  1  0.50000000  0.00000000  0.00000000  1
  Na  Na2  1  0.00000000  0.50000000  0.00000000  1
  Ca  Ca3  1  0.00000000  0.00000000  0.00000000  1
  Mg  Mg4  1  0.50000000  0.00000000  0.50000000  1
  Mg  Mg5  1  0.00000000  0.50000000  0.50000000  1
  Mg  Mg6  1  0.50000000  0.50000000  0.00000000  1
  Al  Al7  1  0.50000000  0.50000000  0.50000000  1
  F  F8  1  0.82914600  0.42161000  0.82914600  1
  F  F9  1  0.42161000  0.82914600  0.82914600  1
  F  F10  1  0.82914600  0.82914600  0.42161000  1
  F  F11  1  0.17085400  0.57839000  0.17085400  1
  F  F12  1  0.57839000  0.17085400  0.17085400  1
  F  F13  1  0.17085400  0.17085400  0.57839000  1
  F  F14  1  0.56189600  0.20222600  0.56189600  1
  F  F15  1  0.20222600  0.56189600  0.56189600  1
  F  F16  1  0.56189600  0.56189600  0.20222600  1
  F  F17  1  0.43810400  0.79777400  0.43810400  1
  F  F18  1  0.79777400  0.43810400  0.43810400  1
  F  F19  1  0.43810400  0.43810400  0.79777400  1
  F  F20  1  0.87619500  0.87619500  0.87619500  1
  F  F21  1  0.12380500  0.12380500  0.12380500  1
