# generated using pymatgen
data_YGa4Ni
_symmetry_space_group_name_H-M   'P 1'
_cell_length_a   7.90346665
_cell_length_b   7.90346665
_cell_length_c   6.55987500
_cell_angle_alpha   90.00000000
_cell_angle_beta   90.00000000
_cell_angle_gamma   149.81833129
_symmetry_Int_Tables_number   1
_chemical_formula_structural   YGa4Ni
_chemical_formula_sum   'Y2 Ga8 Ni2'
_cell_volume   206.00473118
_cell_formula_units_Z   2
loop_
 _symmetry_equiv_pos_site_id
 _symmetry_equiv_pos_as_xyz
  1  'x, y, z'
loop_
 _atom_site_type_symbol
 _atom_site_label
 _atom_site_symmetry_multiplicity
 _atom_site_fract_x
 _atom_site_fract_y
 _atom_site_fract_z
 _atom_site_occupancy
  Y  Y0  1  0.38179300  0.61820700  0.75000000  1
  Y  Y1  1  0.61820700  0.38179300  0.25000000  1
  Ga  Ga2  1  0.00000000  0.00000000  0.00000000  1
  Ga  Ga3  1  0.00000000  0.00000000  0.50000000  1
  Ga  Ga4  1  0.57177700  0.42822300  0.75000000  1
  Ga  Ga5  1  0.42822300  0.57177700  0.25000000  1
  Ga  Ga6  1  0.18631100  0.81368900  0.94855400  1
  Ga  Ga7  1  0.81368900  0.18631100  0.05144600  1
  Ga  Ga8  1  0.18631100  0.81368900  0.55144600  1
  Ga  Ga9  1  0.81368900  0.18631100  0.44855400  1
  Ni  Ni10  1  0.72477200  0.27522800  0.75000000  1
  Ni  Ni11  1  0.27522800  0.72477200  0.25000000  1
