# generated using pymatgen
data_Na5InO4
_symmetry_space_group_name_H-M   'P 1'
_cell_length_a   10.69586300
_cell_length_b   10.83039700
_cell_length_c   10.89529500
_cell_angle_alpha   90.00000000
_cell_angle_beta   90.00000000
_cell_angle_gamma   90.00000000
_symmetry_Int_Tables_number   1
_chemical_formula_structural   Na5InO4
_chemical_formula_sum   'Na40 In8 O32'
_cell_volume   1262.11579449
_cell_formula_units_Z   8
loop_
 _symmetry_equiv_pos_site_id
 _symmetry_equiv_pos_as_xyz
  1  'x, y, z'
loop_
 _atom_site_type_symbol
 _atom_site_label
 _atom_site_symmetry_multiplicity
 _atom_site_fract_x
 _atom_site_fract_y
 _atom_site_fract_z
 _atom_site_occupancy
  Na  Na0  1  0.10330000  0.11914800  0.33855900  1
  Na  Na1  1  0.60330000  0.88085200  0.16144100  1
  Na  Na2  1  0.39670000  0.61914800  0.66144100  1
  Na  Na3  1  0.89670000  0.38085200  0.83855900  1
  Na  Na4  1  0.89670000  0.88085200  0.66144100  1
  Na  Na5  1  0.39670000  0.11914800  0.83855900  1
  Na  Na6  1  0.60330000  0.38085200  0.33855900  1
  Na  Na7  1  0.10330000  0.61914800  0.16144100  1
  Na  Na8  1  0.64331900  0.88692500  0.89663500  1
  Na  Na9  1  0.14331900  0.11307500  0.60336500  1
  Na  Na10  1  0.85668100  0.38692500  0.10336500  1
  Na  Na11  1  0.35668100  0.61307500  0.39663500  1
  Na  Na12  1  0.35668100  0.11307500  0.10336500  1
  Na  Na13  1  0.85668100  0.88692500  0.39663500  1
  Na  Na14  1  0.14331900  0.61307500  0.89663500  1
  Na  Na15  1  0.64331900  0.38692500  0.60336500  1
  Na  Na16  1  0.59500800  0.62422800  0.85271100  1
  Na  Na17  1  0.09500800  0.37577200  0.64728900  1
  Na  Na18  1  0.90499200  0.12422800  0.14728900  1
  Na  Na19  1  0.40499200  0.87577200  0.35271100  1
  Na  Na20  1  0.40499200  0.37577200  0.14728900  1
  Na  Na21  1  0.90499200  0.62422800  0.35271100  1
  Na  Na22  1  0.09500800  0.87577200  0.85271100  1
  Na  Na23  1  0.59500800  0.12422800  0.64728900  1
  Na  Na24  1  0.66610300  0.10642400  0.38277700  1
  Na  Na25  1  0.16610300  0.89357600  0.11722300  1
  Na  Na26  1  0.83389700  0.60642400  0.61722300  1
  Na  Na27  1  0.33389700  0.39357600  0.88277700  1
  Na  Na28  1  0.33389700  0.89357600  0.61722300  1
  Na  Na29  1  0.83389700  0.10642400  0.88277700  1
  Na  Na30  1  0.16610300  0.39357600  0.38277700  1
  Na  Na31  1  0.66610300  0.60642400  0.11722300  1
  Na  Na32  1  0.13194900  0.84952700  0.38168500  1
  Na  Na33  1  0.63194900  0.15047300  0.11831500  1
  Na  Na34  1  0.36805100  0.34952700  0.61831500  1
  Na  Na35  1  0.86805100  0.65047300  0.88168500  1
  Na  Na36  1  0.86805100  0.15047300  0.61831500  1
  Na  Na37  1  0.36805100  0.84952700  0.88168500  1
  Na  Na38  1  0.63194900  0.65047300  0.38168500  1
  Na  Na39  1  0.13194900  0.34952700  0.11831500  1
  In  In40  1  0.88465500  0.35240200  0.37790900  1
  In  In41  1  0.38465500  0.64759800  0.12209100  1
  In  In42  1  0.61534500  0.85240200  0.62209100  1
  In  In43  1  0.11534500  0.14759800  0.87790900  1
  In  In44  1  0.11534500  0.64759800  0.62209100  1
  In  In45  1  0.61534500  0.35240200  0.87790900  1
  In  In46  1  0.38465500  0.14759800  0.37790900  1
  In  In47  1  0.88465500  0.85240200  0.12209100  1
  O  O48  1  0.50962000  0.74717700  0.01185200  1
  O  O49  1  0.00962000  0.25282300  0.48814800  1
  O  O50  1  0.99038000  0.24717700  0.98814800  1
  O  O51  1  0.49038000  0.75282300  0.51185200  1
  O  O52  1  0.49038000  0.25282300  0.98814800  1
  O  O53  1  0.99038000  0.74717700  0.51185200  1
  O  O54  1  0.00962000  0.75282300  0.01185200  1
  O  O55  1  0.50962000  0.24717700  0.48814800  1
  O  O56  1  0.23758900  0.51520200  0.54367900  1
  O  O57  1  0.73758900  0.48479800  0.95632100  1
  O  O58  1  0.26241100  0.01520200  0.45632100  1
  O  O59  1  0.76241100  0.98479800  0.04367900  1
  O  O60  1  0.76241100  0.48479800  0.45632100  1
  O  O61  1  0.26241100  0.51520200  0.04367900  1
  O  O62  1  0.73758900  0.98479800  0.54367900  1
  O  O63  1  0.23758900  0.01520200  0.95632100  1
  O  O64  1  0.76801900  0.25241700  0.25702200  1
  O  O65  1  0.26801900  0.74758300  0.24297800  1
  O  O66  1  0.73198100  0.75241700  0.74297800  1
  O  O67  1  0.23198100  0.24758300  0.75702200  1
  O  O68  1  0.23198100  0.74758300  0.74297800  1
  O  O69  1  0.73198100  0.25241700  0.75702200  1
  O  O70  1  0.26801900  0.24758300  0.25702200  1
  O  O71  1  0.76801900  0.75241700  0.24297800  1
  O  O72  1  0.99940200  0.45669100  0.25587300  1
  O  O73  1  0.49940200  0.54330900  0.24412700  1
  O  O74  1  0.50059800  0.95669100  0.74412700  1
  O  O75  1  0.00059800  0.04330900  0.75587300  1
  O  O76  1  0.00059800  0.54330900  0.74412700  1
  O  O77  1  0.50059800  0.45669100  0.75587300  1
  O  O78  1  0.49940200  0.04330900  0.25587300  1
  O  O79  1  0.99940200  0.95669100  0.24412700  1
