# generated using pymatgen
data_Nd2CuTe2(SO7)2
_symmetry_space_group_name_H-M   'P 1'
_cell_length_a   5.28220099
_cell_length_b   8.14698081
_cell_length_c   8.40253000
_cell_angle_alpha   61.98369669
_cell_angle_beta   74.24221829
_cell_angle_gamma   85.60161665
_symmetry_Int_Tables_number   1
_chemical_formula_structural   Nd2CuTe2(SO7)2
_chemical_formula_sum   'Nd2 Cu1 Te2 S2 O14'
_cell_volume   306.67254727
_cell_formula_units_Z   1
loop_
 _symmetry_equiv_pos_site_id
 _symmetry_equiv_pos_as_xyz
  1  'x, y, z'
loop_
 _atom_site_type_symbol
 _atom_site_label
 _atom_site_symmetry_multiplicity
 _atom_site_fract_x
 _atom_site_fract_y
 _atom_site_fract_z
 _atom_site_occupancy
  Nd  Nd0  1  0.92559200  0.75015500  0.98293700  1
  Nd  Nd1  1  0.07440800  0.24984500  0.01706300  1
  Cu  Cu2  1  0.00000000  0.00000000  0.50000000  1
  Te  Te3  1  0.48860600  0.73355100  0.64923700  1
  Te  Te4  1  0.51139400  0.26644900  0.35076300  1
  S  S5  1  0.24871000  0.74562900  0.25624800  1
  S  S6  1  0.75129000  0.25437100  0.74375200  1
  O  O7  1  0.14104100  0.58697200  0.24794500  1
  O  O8  1  0.85895900  0.41302800  0.75205500  1
  O  O9  1  0.13262700  0.74882800  0.43444800  1
  O  O10  1  0.86737300  0.25117200  0.56555200  1
  O  O11  1  0.53924600  0.73896800  0.22218600  1
  O  O12  1  0.46075400  0.26103200  0.77781400  1
  O  O13  1  0.17706100  0.91691000  0.09745600  1
  O  O14  1  0.82293900  0.08309000  0.90254400  1
  O  O15  1  0.26067000  0.56477700  0.88366100  1
  O  O16  1  0.73933000  0.43522300  0.11633900  1
  O  O17  1  0.72926800  0.81457600  0.73559200  1
  O  O18  1  0.27073200  0.18542400  0.26440800  1
  O  O19  1  0.25135300  0.92711400  0.65224000  1
  O  O20  1  0.74864700  0.07288600  0.34776000  1
