# generated using pymatgen
data_TeAsRu
_symmetry_space_group_name_H-M   'P 1'
_cell_length_a   6.36507300
_cell_length_b   6.44363400
_cell_length_c   6.49005757
_cell_angle_alpha   66.44228904
_cell_angle_beta   90.00000000
_cell_angle_gamma   90.00000000
_symmetry_Int_Tables_number   1
_chemical_formula_structural   TeAsRu
_chemical_formula_sum   'Te4 As4 Ru4'
_cell_volume   244.00016585
_cell_formula_units_Z   4
loop_
 _symmetry_equiv_pos_site_id
 _symmetry_equiv_pos_as_xyz
  1  'x, y, z'
loop_
 _atom_site_type_symbol
 _atom_site_label
 _atom_site_symmetry_multiplicity
 _atom_site_fract_x
 _atom_site_fract_y
 _atom_site_fract_z
 _atom_site_occupancy
  Te  Te0  1  0.62560500  0.84459000  0.36716200  1
  Te  Te1  1  0.12560500  0.15541000  0.13283800  1
  Te  Te2  1  0.37439500  0.15541000  0.63283800  1
  Te  Te3  1  0.87439500  0.84459000  0.86716200  1
  As  As4  1  0.35547200  0.64581000  0.17070800  1
  As  As5  1  0.85547200  0.35419000  0.32929200  1
  As  As6  1  0.64452800  0.35419000  0.82929200  1
  As  As7  1  0.14452800  0.64581000  0.67070800  1
  Ru  Ru8  1  0.00843900  0.71610800  0.29467200  1
  Ru  Ru9  1  0.50843900  0.28389200  0.20532800  1
  Ru  Ru10  1  0.99156100  0.28389200  0.70532800  1
  Ru  Ru11  1  0.49156100  0.71610800  0.79467200  1
