# generated using pymatgen
data_Ca2Sb2O7
_symmetry_space_group_name_H-M   'P 1'
_cell_length_a   7.40036267
_cell_length_b   7.40036267
_cell_length_c   7.40036267
_cell_angle_alpha   119.96020100
_cell_angle_beta   118.56269648
_cell_angle_gamma   91.28820666
_symmetry_Int_Tables_number   1
_chemical_formula_structural   Ca2Sb2O7
_chemical_formula_sum   'Ca4 Sb4 O14'
_cell_volume   289.64625379
_cell_formula_units_Z   2
loop_
 _symmetry_equiv_pos_site_id
 _symmetry_equiv_pos_as_xyz
  1  'x, y, z'
loop_
 _atom_site_type_symbol
 _atom_site_label
 _atom_site_symmetry_multiplicity
 _atom_site_fract_x
 _atom_site_fract_y
 _atom_site_fract_z
 _atom_site_occupancy
  Ca  Ca0  1  0.00000000  0.00000000  0.50000000  1
  Ca  Ca1  1  0.00000000  0.50000000  0.00000000  1
  Ca  Ca2  1  0.00000000  0.00000000  0.00000000  1
  Ca  Ca3  1  0.50000000  0.50000000  0.00000000  1
  Sb  Sb4  1  0.50000000  0.00000000  0.00000000  1
  Sb  Sb5  1  0.50000000  0.50000000  0.50000000  1
  Sb  Sb6  1  0.50000000  0.00000000  0.50000000  1
  Sb  Sb7  1  0.00000000  0.50000000  0.50000000  1
  O  O8  1  0.44375800  0.09194200  0.77206400  1
  O  O9  1  0.55624200  0.32830600  0.64818400  1
  O  O10  1  0.18012300  0.40805900  0.35181600  1
  O  O11  1  0.81987700  0.17169400  0.22793600  1
  O  O12  1  0.55624200  0.90805900  0.22793600  1
  O  O13  1  0.44375800  0.67169400  0.35181600  1
  O  O14  1  0.81987700  0.59194100  0.64818400  1
  O  O15  1  0.18012300  0.82830600  0.77206400  1
  O  O16  1  0.59862300  0.75000000  0.84862300  1
  O  O17  1  0.40137700  0.25000000  0.15137700  1
  O  O18  1  0.17668300  0.90583700  0.27084600  1
  O  O19  1  0.82331700  0.09416300  0.72915400  1
  O  O20  1  0.86500900  0.59416300  0.27084600  1
  O  O21  1  0.13499100  0.40583700  0.72915400  1
