# generated using pymatgen
data_Sr4Bi2O
_symmetry_space_group_name_H-M   'P 1'
_cell_length_a   9.56873491
_cell_length_b   9.56873491
_cell_length_c   9.56873491
_cell_angle_alpha   149.41215805
_cell_angle_beta   149.41215805
_cell_angle_gamma   43.80498130
_symmetry_Int_Tables_number   1
_chemical_formula_structural   Sr4Bi2O
_chemical_formula_sum   'Sr4 Bi2 O1'
_cell_volume   226.22492110
_cell_formula_units_Z   1
loop_
 _symmetry_equiv_pos_site_id
 _symmetry_equiv_pos_as_xyz
  1  'x, y, z'
loop_
 _atom_site_type_symbol
 _atom_site_label
 _atom_site_symmetry_multiplicity
 _atom_site_fract_x
 _atom_site_fract_y
 _atom_site_fract_z
 _atom_site_occupancy
  Sr  Sr0  1  0.83448000  0.83448000  0.00000000  1
  Sr  Sr1  1  0.17015100  0.17015100  0.00000000  1
  Sr  Sr2  1  0.99825300  0.49825300  0.50000000  1
  Sr  Sr3  1  0.49825300  0.99825300  0.50000000  1
  Bi  Bi4  1  0.63796500  0.63796500  0.00000000  1
  Bi  Bi5  1  0.36003300  0.36003300  0.00000000  1
  O  O6  1  0.99046600  0.99046600  0.00000000  1
