# generated using pymatgen
data_DyGePd2
_symmetry_space_group_name_H-M   'P 1'
_cell_length_a   5.64078100
_cell_length_b   7.14160500
_cell_length_c   7.36772900
_cell_angle_alpha   90.00000000
_cell_angle_beta   90.00000000
_cell_angle_gamma   90.00000000
_symmetry_Int_Tables_number   1
_chemical_formula_structural   DyGePd2
_chemical_formula_sum   'Dy4 Ge4 Pd8'
_cell_volume   296.80328809
_cell_formula_units_Z   4
loop_
 _symmetry_equiv_pos_site_id
 _symmetry_equiv_pos_as_xyz
  1  'x, y, z'
loop_
 _atom_site_type_symbol
 _atom_site_label
 _atom_site_symmetry_multiplicity
 _atom_site_fract_x
 _atom_site_fract_y
 _atom_site_fract_z
 _atom_site_occupancy
  Dy  Dy0  1  0.35564600  0.75000000  0.02402500  1
  Dy  Dy1  1  0.14435400  0.75000000  0.52402500  1
  Dy  Dy2  1  0.64435400  0.25000000  0.97597500  1
  Dy  Dy3  1  0.85564600  0.25000000  0.47597500  1
  Ge  Ge4  1  0.64103300  0.75000000  0.37902900  1
  Ge  Ge5  1  0.85896700  0.75000000  0.87902900  1
  Ge  Ge6  1  0.35896700  0.25000000  0.62097100  1
  Ge  Ge7  1  0.14103300  0.25000000  0.12097100  1
  Pd  Pd8  1  0.91207400  0.55143400  0.18325800  1
  Pd  Pd9  1  0.58792600  0.94856600  0.68325800  1
  Pd  Pd10  1  0.08792600  0.05143400  0.81674200  1
  Pd  Pd11  1  0.41207400  0.44856600  0.31674200  1
  Pd  Pd12  1  0.08792600  0.44856600  0.81674200  1
  Pd  Pd13  1  0.41207400  0.05143400  0.31674200  1
  Pd  Pd14  1  0.91207400  0.94856600  0.18325800  1
  Pd  Pd15  1  0.58792600  0.55143400  0.68325800  1
