# generated using pymatgen
data_HgB4O7
_symmetry_space_group_name_H-M   'P 1'
_cell_length_a   8.55795700
_cell_length_b   8.96606200
_cell_length_c   14.38455400
_cell_angle_alpha   90.00000000
_cell_angle_beta   90.00000000
_cell_angle_gamma   90.00000000
_symmetry_Int_Tables_number   1
_chemical_formula_structural   HgB4O7
_chemical_formula_sum   'Hg8 B32 O56'
_cell_volume   1103.74370230
_cell_formula_units_Z   8
loop_
 _symmetry_equiv_pos_site_id
 _symmetry_equiv_pos_as_xyz
  1  'x, y, z'
loop_
 _atom_site_type_symbol
 _atom_site_label
 _atom_site_symmetry_multiplicity
 _atom_site_fract_x
 _atom_site_fract_y
 _atom_site_fract_z
 _atom_site_occupancy
  Hg  Hg0  1  0.63887300  0.11503900  0.38281100  1
  Hg  Hg1  1  0.13887300  0.38496100  0.61718900  1
  Hg  Hg2  1  0.36112700  0.61503900  0.11718900  1
  Hg  Hg3  1  0.86112700  0.88496100  0.88281100  1
  Hg  Hg4  1  0.36112700  0.88496100  0.61718900  1
  Hg  Hg5  1  0.86112700  0.61503900  0.38281100  1
  Hg  Hg6  1  0.63887300  0.38496100  0.88281100  1
  Hg  Hg7  1  0.13887300  0.11503900  0.11718900  1
  B  B8  1  0.45130500  0.28188700  0.06242000  1
  B  B9  1  0.21521800  0.15605700  0.45096800  1
  B  B10  1  0.71521800  0.34394300  0.54903200  1
  B  B11  1  0.78478200  0.65605700  0.04903200  1
  B  B12  1  0.28478200  0.84394300  0.95096800  1
  B  B13  1  0.78478200  0.84394300  0.54903200  1
  B  B14  1  0.28478200  0.65605700  0.45096800  1
  B  B15  1  0.21521800  0.34394300  0.95096800  1
  B  B16  1  0.71521800  0.15605700  0.04903200  1
  B  B17  1  0.95130500  0.21811300  0.93758000  1
  B  B18  1  0.54869500  0.78188700  0.43758000  1
  B  B19  1  0.04869500  0.71811300  0.56242000  1
  B  B20  1  0.54869500  0.71811300  0.93758000  1
  B  B21  1  0.04869500  0.78188700  0.06242000  1
  B  B22  1  0.45130500  0.21811300  0.56242000  1
  B  B23  1  0.95130500  0.28188700  0.43758000  1
  B  B24  1  0.50722700  0.33406900  0.23367300  1
  B  B25  1  0.00722700  0.16593100  0.76632700  1
  B  B26  1  0.49277300  0.83406900  0.26632700  1
  B  B27  1  0.99277300  0.66593100  0.73367300  1
  B  B28  1  0.49277300  0.66593100  0.76632700  1
  B  B29  1  0.99277300  0.83406900  0.23367300  1
  B  B30  1  0.50722700  0.16593100  0.73367300  1
  B  B31  1  0.00722700  0.33406900  0.26632700  1
  B  B32  1  0.51919100  0.06988100  0.16186500  1
  B  B33  1  0.01919100  0.43011900  0.83813500  1
  B  B34  1  0.48080900  0.56988100  0.33813500  1
  B  B35  1  0.98080900  0.93011900  0.66186500  1
  B  B36  1  0.48080900  0.93011900  0.83813500  1
  B  B37  1  0.98080900  0.56988100  0.16186500  1
  B  B38  1  0.51919100  0.43011900  0.66186500  1
  B  B39  1  0.01919100  0.06988100  0.33813500  1
  O  O40  1  0.46076600  0.38395700  0.14675900  1
  O  O41  1  0.67347100  0.06212300  0.11883200  1
  O  O42  1  0.17347100  0.43787700  0.88116800  1
  O  O43  1  0.32652900  0.56212300  0.38116800  1
  O  O44  1  0.82652900  0.93787700  0.61883200  1
  O  O45  1  0.32652900  0.93787700  0.88116800  1
  O  O46  1  0.82652900  0.56212300  0.11883200  1
  O  O47  1  0.67347100  0.43787700  0.61883200  1
  O  O48  1  0.03275200  0.42450400  0.19249400  1
  O  O49  1  0.53275200  0.07549600  0.80750600  1
  O  O50  1  0.96724800  0.92450400  0.30750600  1
  O  O51  1  0.46724800  0.57549600  0.69249400  1
  O  O52  1  0.96724800  0.57549600  0.80750600  1
  O  O53  1  0.46724800  0.92450400  0.19249400  1
  O  O54  1  0.03275200  0.07549600  0.69249400  1
  O  O55  1  0.53275200  0.42450400  0.30750600  1
  O  O56  1  0.40319800  0.13430000  0.09532500  1
  O  O57  1  0.90319800  0.36570000  0.90467500  1
  O  O58  1  0.59680200  0.63430000  0.40467500  1
  O  O59  1  0.09680200  0.86570000  0.59532500  1
  O  O60  1  0.59680200  0.86570000  0.90467500  1
  O  O61  1  0.09680200  0.63430000  0.09532500  1
  O  O62  1  0.40319800  0.36570000  0.59532500  1
  O  O63  1  0.90319800  0.13430000  0.40467500  1
  O  O64  1  0.35723900  0.35782100  0.99424500  1
  O  O65  1  0.85723900  0.14217900  0.00575500  1
  O  O66  1  0.64276100  0.85782100  0.50575500  1
  O  O67  1  0.14276100  0.64217900  0.49424500  1
  O  O68  1  0.64276100  0.64217900  0.00575500  1
  O  O69  1  0.14276100  0.85782100  0.99424500  1
  O  O70  1  0.35723900  0.14217900  0.49424500  1
  O  O71  1  0.85723900  0.35782100  0.50575500  1
  O  O72  1  0.17347100  0.06212300  0.38116800  1
  O  O73  1  0.96076600  0.11604300  0.85324100  1
  O  O74  1  0.53923400  0.88395700  0.35324100  1
  O  O75  1  0.03923400  0.61604300  0.64675900  1
  O  O76  1  0.53923400  0.61604300  0.85324100  1
  O  O77  1  0.03923400  0.88395700  0.14675900  1
  O  O78  1  0.46076600  0.11604300  0.64675900  1
  O  O79  1  0.96076600  0.38395700  0.35324100  1
  O  O80  1  0.11172900  0.26787500  0.47891500  1
  O  O81  1  0.03030900  0.31903200  0.75589100  1
  O  O82  1  0.46969100  0.68096800  0.25589100  1
  O  O83  1  0.96969100  0.81903200  0.74410900  1
  O  O84  1  0.46969100  0.81903200  0.75589100  1
  O  O85  1  0.96969100  0.68096800  0.24410900  1
  O  O86  1  0.53030900  0.31903200  0.74410900  1
  O  O87  1  0.03030900  0.18096800  0.25589100  1
  O  O88  1  0.61172900  0.26787500  0.02108500  1
  O  O89  1  0.11172900  0.23212500  0.97891500  1
  O  O90  1  0.38827100  0.76787500  0.47891500  1
  O  O91  1  0.88827100  0.73212500  0.52108500  1
  O  O92  1  0.38827100  0.73212500  0.97891500  1
  O  O93  1  0.88827100  0.76787500  0.02108500  1
  O  O94  1  0.61172900  0.23212500  0.52108500  1
  O  O95  1  0.53030900  0.18096800  0.24410900  1
