# generated using pymatgen
data_Rb2LaNb2O7
_symmetry_space_group_name_H-M   'P 1'
_cell_length_a   11.71241008
_cell_length_b   11.71241008
_cell_length_c   5.77161000
_cell_angle_alpha   90.00000000
_cell_angle_beta   90.00000000
_cell_angle_gamma   151.46000748
_symmetry_Int_Tables_number   1
_chemical_formula_structural   Rb2LaNb2O7
_chemical_formula_sum   'Rb4 La2 Nb4 O14'
_cell_volume   378.27728622
_cell_formula_units_Z   2
loop_
 _symmetry_equiv_pos_site_id
 _symmetry_equiv_pos_as_xyz
  1  'x, y, z'
loop_
 _atom_site_type_symbol
 _atom_site_label
 _atom_site_symmetry_multiplicity
 _atom_site_fract_x
 _atom_site_fract_y
 _atom_site_fract_z
 _atom_site_occupancy
  Rb  Rb0  1  0.93052900  0.54725500  0.25000000  1
  Rb  Rb1  1  0.45274500  0.06947100  0.75000000  1
  Rb  Rb2  1  0.06947100  0.45274500  0.75000000  1
  Rb  Rb3  1  0.54725500  0.93052900  0.25000000  1
  La  La4  1  0.26174900  0.26174900  0.75000000  1
  La  La5  1  0.73825100  0.73825100  0.25000000  1
  Nb  Nb6  1  0.34251200  0.15579600  0.25000000  1
  Nb  Nb7  1  0.84420400  0.65748800  0.75000000  1
  Nb  Nb8  1  0.65748800  0.84420400  0.75000000  1
  Nb  Nb9  1  0.15579600  0.34251200  0.25000000  1
  O  O10  1  0.69954700  0.69954700  0.75000000  1
  O  O11  1  0.30045300  0.30045300  0.25000000  1
  O  O12  1  0.94580700  0.59391700  0.75000000  1
  O  O13  1  0.40608300  0.05419300  0.25000000  1
  O  O14  1  0.05419300  0.40608300  0.25000000  1
  O  O15  1  0.59391700  0.94580700  0.75000000  1
  O  O16  1  0.58676400  0.41323600  0.50000000  1
  O  O17  1  0.58676400  0.41323600  0.00000000  1
  O  O18  1  0.41323600  0.58676400  0.50000000  1
  O  O19  1  0.41323600  0.58676400  0.00000000  1
  O  O20  1  0.07339000  0.92661000  0.50000000  1
  O  O21  1  0.07339000  0.92661000  0.00000000  1
  O  O22  1  0.92661000  0.07339000  0.50000000  1
  O  O23  1  0.92661000  0.07339000  0.00000000  1
