# generated using pymatgen
data_CsVPO5
_symmetry_space_group_name_H-M   'P 1'
_cell_length_a   7.57046700
_cell_length_b   7.81943200
_cell_length_c   9.92038900
_cell_angle_alpha   90.00000000
_cell_angle_beta   90.00000000
_cell_angle_gamma   90.00000000
_symmetry_Int_Tables_number   1
_chemical_formula_structural   CsVPO5
_chemical_formula_sum   'Cs4 V4 P4 O20'
_cell_volume   587.25480653
_cell_formula_units_Z   4
loop_
 _symmetry_equiv_pos_site_id
 _symmetry_equiv_pos_as_xyz
  1  'x, y, z'
loop_
 _atom_site_type_symbol
 _atom_site_label
 _atom_site_symmetry_multiplicity
 _atom_site_fract_x
 _atom_site_fract_y
 _atom_site_fract_z
 _atom_site_occupancy
  Cs  Cs0  1  0.12913500  0.63421600  0.33736700  1
  Cs  Cs1  1  0.37086500  0.36578400  0.83736700  1
  Cs  Cs2  1  0.62913500  0.86578400  0.66263300  1
  Cs  Cs3  1  0.87086500  0.13421600  0.16263300  1
  V  V4  1  0.11289800  0.07327700  0.54227600  1
  V  V5  1  0.38710200  0.92672300  0.04227600  1
  V  V6  1  0.61289800  0.42672300  0.45772400  1
  V  V7  1  0.88710200  0.57327700  0.95772400  1
  P  P8  1  0.34220700  0.13018600  0.34616800  1
  P  P9  1  0.15779300  0.86981400  0.84616800  1
  P  P10  1  0.84220700  0.36981400  0.65383200  1
  P  P11  1  0.65779300  0.63018600  0.15383200  1
  O  O12  1  0.34100900  0.99013600  0.46010000  1
  O  O13  1  0.15899100  0.00986400  0.96010000  1
  O  O14  1  0.84100900  0.50986400  0.53990000  1
  O  O15  1  0.65899100  0.49013600  0.03990000  1
  O  O16  1  0.94888200  0.96060200  0.47909700  1
  O  O17  1  0.55111800  0.03939800  0.97909700  1
  O  O18  1  0.44888200  0.53939800  0.52090300  1
  O  O19  1  0.05111800  0.46060200  0.02090300  1
  O  O20  1  0.01281800  0.26190000  0.65547000  1
  O  O21  1  0.48718200  0.73810000  0.15547000  1
  O  O22  1  0.51281800  0.23810000  0.34453000  1
  O  O23  1  0.98718200  0.76190000  0.84453000  1
  O  O24  1  0.17732900  0.23881100  0.39183800  1
  O  O25  1  0.32267100  0.76118900  0.89183800  1
  O  O26  1  0.67732900  0.26118900  0.60816200  1
  O  O27  1  0.82267100  0.73881100  0.10816200  1
  O  O28  1  0.19079400  0.94982400  0.70714400  1
  O  O29  1  0.30920600  0.05017600  0.20714400  1
  O  O30  1  0.69079400  0.55017600  0.29285600  1
  O  O31  1  0.80920600  0.44982400  0.79285600  1
