# generated using pymatgen
data_Na2FeO3
_symmetry_space_group_name_H-M   'P 1'
_cell_length_a   5.33328115
_cell_length_b   8.46104369
_cell_length_c   6.45579177
_cell_angle_alpha   77.39608973
_cell_angle_beta   76.79596217
_cell_angle_gamma   76.98753091
_symmetry_Int_Tables_number   1
_chemical_formula_structural   Na2FeO3
_chemical_formula_sum   'Na8 Fe4 O12'
_cell_volume   272.02906317
_cell_formula_units_Z   4
loop_
 _symmetry_equiv_pos_site_id
 _symmetry_equiv_pos_as_xyz
  1  'x, y, z'
loop_
 _atom_site_type_symbol
 _atom_site_label
 _atom_site_symmetry_multiplicity
 _atom_site_fract_x
 _atom_site_fract_y
 _atom_site_fract_z
 _atom_site_occupancy
  Na  Na0  1  0.49986500  0.50004500  0.00014100  1
  Na  Na1  1  0.99987300  0.00004600  0.50012100  1
  Na  Na2  1  0.00006500  0.00004100  0.99968500  1
  Na  Na3  1  0.50004900  0.50005500  0.49972100  1
  Na  Na4  1  0.99102600  0.32513900  0.16756100  1
  Na  Na5  1  0.49103900  0.82512500  0.66768400  1
  Na  Na6  1  0.00939300  0.67427800  0.83247100  1
  Na  Na7  1  0.50943100  0.17427500  0.33233000  1
  Fe  Fe8  1  0.49889800  0.83537000  0.16258800  1
  Fe  Fe9  1  0.50130700  0.16492600  0.83738000  1
  Fe  Fe10  1  0.99880500  0.33539300  0.66244100  1
  Fe  Fe11  1  0.00131100  0.66493000  0.33751900  1
  O  O12  1  0.27504300  0.75331100  0.03940600  1
  O  O13  1  0.77481600  0.25337000  0.53918800  1
  O  O14  1  0.72449500  0.24668600  0.96126200  1
  O  O15  1  0.22465500  0.74663800  0.46145900  1
  O  O16  1  0.24294800  0.37273700  0.82476600  1
  O  O17  1  0.74305800  0.87278100  0.32488200  1
  O  O18  1  0.80637800  0.55381500  0.65258700  1
  O  O19  1  0.30635900  0.05379300  0.15262200  1
  O  O20  1  0.75703100  0.62750600  0.17505500  1
  O  O21  1  0.25689500  0.12740400  0.67489100  1
  O  O22  1  0.19365300  0.44612700  0.34713400  1
  O  O23  1  0.69360300  0.94620800  0.84710500  1
