# generated using pymatgen
data_Ba4Bi2O
_symmetry_space_group_name_H-M   'P 1'
_cell_length_a   10.20822290
_cell_length_b   10.20822290
_cell_length_c   10.20822290
_cell_angle_alpha   149.51667591
_cell_angle_beta   149.51667591
_cell_angle_gamma   43.65133587
_symmetry_Int_Tables_number   1
_chemical_formula_structural   Ba4Bi2O
_chemical_formula_sum   'Ba4 Bi2 O1'
_cell_volume   272.99748621
_cell_formula_units_Z   1
loop_
 _symmetry_equiv_pos_site_id
 _symmetry_equiv_pos_as_xyz
  1  'x, y, z'
loop_
 _atom_site_type_symbol
 _atom_site_label
 _atom_site_symmetry_multiplicity
 _atom_site_fract_x
 _atom_site_fract_y
 _atom_site_fract_z
 _atom_site_occupancy
  Ba  Ba0  1  0.99742900  0.49742900  0.50000000  1
  Ba  Ba1  1  0.49742900  0.99742900  0.50000000  1
  Ba  Ba2  1  0.83400600  0.83400600  0.00000000  1
  Ba  Ba3  1  0.17586400  0.17586400  0.00000000  1
  Bi  Bi4  1  0.63631100  0.63631100  0.00000000  1
  Bi  Bi5  1  0.36066100  0.36066100  0.00000000  1
  O  O6  1  0.98110000  0.98110000  0.00000000  1
