# generated using pymatgen
data_Sb9S4F39
_symmetry_space_group_name_H-M   'P 1'
_cell_length_a   13.49557515
_cell_length_b   15.89880585
_cell_length_c   17.32283422
_cell_angle_alpha   91.30727923
_cell_angle_beta   90.00000000
_cell_angle_gamma   90.00000000
_symmetry_Int_Tables_number   1
_chemical_formula_structural   Sb9S4F39
_chemical_formula_sum   'Sb36 S16 F156'
_cell_volume   3715.88102046
_cell_formula_units_Z   4
loop_
 _symmetry_equiv_pos_site_id
 _symmetry_equiv_pos_as_xyz
  1  'x, y, z'
loop_
 _atom_site_type_symbol
 _atom_site_label
 _atom_site_symmetry_multiplicity
 _atom_site_fract_x
 _atom_site_fract_y
 _atom_site_fract_z
 _atom_site_occupancy
  F  F0  1  0.47938468  0.93279954  0.96882403  1
  F  F1  1  0.97938468  0.06720046  0.53117597  1
  F  F2  1  0.52061532  0.06720046  0.03117597  1
  F  F3  1  0.02061532  0.93279954  0.46882403  1
  F  F4  1  0.67693785  0.99190822  0.95282518  1
  F  F5  1  0.17693785  0.00809178  0.54717482  1
  F  F6  1  0.32306215  0.00809178  0.04717482  1
  F  F7  1  0.82306215  0.99190822  0.45282518  1
  F  F8  1  0.51915484  0.56558681  0.96826324  1
  F  F9  1  0.01915484  0.43441319  0.53173676  1
  F  F10  1  0.48084516  0.43441319  0.03173676  1
  F  F11  1  0.98084516  0.56558681  0.46826324  1
  F  F12  1  0.31733722  0.50574285  0.96637372  1
  F  F13  1  0.81733722  0.49425715  0.53362628  1
  F  F14  1  0.68266278  0.49425715  0.03362628  1
  F  F15  1  0.18266278  0.50574285  0.46637372  1
  F  F16  1  0.56836879  0.91189195  0.83452753  1
  F  F17  1  0.06836879  0.08810805  0.66547247  1
  F  F18  1  0.43163121  0.08810805  0.16547247  1
  F  F19  1  0.93163121  0.91189195  0.33452753  1
  F  F20  1  0.55261537  0.83091754  0.69358702  1
  F  F21  1  0.05261537  0.16908246  0.80641298  1
  F  F22  1  0.44738463  0.16908246  0.30641298  1
  F  F23  1  0.94738463  0.83091754  0.19358702  1
  F  F24  1  0.49075759  0.74928493  0.82355240  1
  F  F25  1  0.99075759  0.25071507  0.67644760  1
  F  F26  1  0.50924241  0.25071507  0.17644760  1
  F  F27  1  0.00924241  0.74928493  0.32355240  1
  F  F28  1  0.40706690  0.58843782  0.84574341  1
  F  F29  1  0.90706690  0.41156218  0.65425659  1
  F  F30  1  0.59293310  0.41156218  0.15425659  1
  F  F31  1  0.09293310  0.58843782  0.34574341  1
  F  F32  1  0.42075399  0.65110892  0.70019726  1
  F  F33  1  0.92075399  0.34889108  0.79980274  1
  F  F34  1  0.57924601  0.34889108  0.29980274  1
  F  F35  1  0.07924601  0.65110892  0.20019726  1
  F  F36  1  0.23721335  0.58247870  0.75803460  1
  F  F37  1  0.73721335  0.41752130  0.74196540  1
  F  F38  1  0.76278665  0.41752130  0.24196540  1
  F  F39  1  0.26278665  0.58247870  0.25803460  1
  F  F40  1  0.13472289  0.35338631  0.74975103  1
  F  F41  1  0.63472289  0.64661369  0.75024897  1
  F  F42  1  0.86527711  0.64661369  0.25024897  1
  F  F43  1  0.36527711  0.35338631  0.24975103  1
  F  F44  1  0.30286438  0.43089687  0.80772424  1
  F  F45  1  0.80286438  0.56910313  0.69227576  1
  F  F46  1  0.69713562  0.56910313  0.19227576  1
  F  F47  1  0.19713562  0.43089687  0.30772424  1
  F  F48  1  0.07230698  0.50812514  0.70152629  1
  F  F49  1  0.57230698  0.49187486  0.79847371  1
  F  F50  1  0.92769302  0.49187486  0.29847371  1
  F  F51  1  0.42769302  0.50812514  0.20152629  1
  F  F52  1  0.25236056  0.44851638  0.65823627  1
  F  F53  1  0.75236056  0.55148362  0.84176373  1
  F  F54  1  0.74763944  0.55148362  0.34176373  1
  F  F55  1  0.24763944  0.44851638  0.15823627  1
  F  F56  1  0.12263152  0.48684089  0.85077138  1
  F  F57  1  0.62263152  0.51315911  0.64922862  1
  F  F58  1  0.87736848  0.51315911  0.14922862  1
  F  F59  1  0.37736848  0.48684089  0.35077138  1
  F  F60  1  0.73914457  0.91607330  0.74956278  1
  F  F61  1  0.23914457  0.08392670  0.75043722  1
  F  F62  1  0.26085543  0.08392670  0.25043722  1
  F  F63  1  0.76085543  0.91607330  0.24956278  1
  F  F64  1  0.82434024  0.14471824  0.71739436  1
  F  F65  1  0.32434024  0.85528176  0.78260564  1
  F  F66  1  0.17565976  0.85528176  0.28260564  1
  F  F67  1  0.67565976  0.14471824  0.21739436  1
  F  F68  1  0.86561356  0.02523122  0.82221864  1
  F  F69  1  0.36561356  0.97476878  0.67778136  1
  F  F70  1  0.13438644  0.97476878  0.17778136  1
  F  F71  1  0.63438644  0.02523122  0.32221864  1
  F  F72  1  0.69240227  0.03608245  0.64741261  1
  F  F73  1  0.19240227  0.96391755  0.85258739  1
  F  F74  1  0.30759773  0.96391755  0.35258739  1
  F  F75  1  0.80759773  0.03608245  0.14741261  1
  F  F76  1  0.67632041  0.06929954  0.80166021  1
  F  F77  1  0.17632041  0.93070046  0.69833979  1
  F  F78  1  0.32367959  0.93070046  0.19833979  1
  F  F79  1  0.82367959  0.06929954  0.30166021  1
  F  F80  1  0.88468510  0.99019513  0.66854654  1
  F  F81  1  0.38468510  0.00980487  0.83145346  1
  F  F82  1  0.11531490  0.00980487  0.33145346  1
  F  F83  1  0.61531490  0.99019513  0.16854654  1
  F  F84  1  0.69223836  0.27802425  0.05138484  1
  F  F85  1  0.19223836  0.72197575  0.44861516  1
  F  F86  1  0.30776164  0.72197575  0.94861516  1
  F  F87  1  0.80776164  0.27802425  0.55138484  1
  F  F88  1  0.74128286  0.25958892  0.83274903  1
  F  F89  1  0.24128286  0.74041108  0.66725097  1
  F  F90  1  0.25871714  0.74041108  0.16725097  1
  F  F91  1  0.75871714  0.25958892  0.33274903  1
  F  F92  1  0.80833939  0.36317738  0.94998020  1
  F  F93  1  0.30833939  0.63682262  0.55001980  1
  F  F94  1  0.19166061  0.63682262  0.05001980  1
  F  F95  1  0.69166061  0.36317738  0.44998020  1
  F  F96  1  0.62572571  0.17475465  0.93524293  1
  F  F97  1  0.12572571  0.82524535  0.56475707  1
  F  F98  1  0.37427429  0.82524535  0.06475707  1
  F  F99  1  0.87427429  0.17475465  0.43524293  1
  F  F100  1  0.82363058  0.19281316  0.95951495  1
  F  F101  1  0.32363058  0.80718684  0.54048505  1
  F  F102  1  0.17636942  0.80718684  0.04048505  1
  F  F103  1  0.67636942  0.19281316  0.45951495  1
  F  F104  1  0.61058285  0.34429323  0.92277588  1
  F  F105  1  0.11058285  0.65570677  0.57722412  1
  F  F106  1  0.38941715  0.65570677  0.07722412  1
  F  F107  1  0.88941715  0.34429323  0.42277588  1
  F  F108  1  0.17400716  0.30796954  0.98049635  1
  F  F109  1  0.67400716  0.69203046  0.51950365  1
  F  F110  1  0.82599284  0.69203046  0.01950365  1
  F  F111  1  0.32599284  0.30796954  0.48049635  1
  F  F112  1  0.38559397  0.15963373  0.92603381  1
  F  F113  1  0.88559397  0.84036627  0.57396619  1
  F  F114  1  0.61440603  0.84036627  0.07396619  1
  F  F115  1  0.11440603  0.15963373  0.42603381  1
  F  F116  1  0.36737981  0.32853987  0.94276228  1
  F  F117  1  0.86737981  0.67146013  0.55723772  1
  F  F118  1  0.63262019  0.67146013  0.05723772  1
  F  F119  1  0.13262019  0.32853987  0.44276228  1
  F  F120  1  0.18975727  0.13719328  0.96217733  1
  F  F121  1  0.68975727  0.86280672  0.53782267  1
  F  F122  1  0.81024273  0.86280672  0.03782267  1
  F  F123  1  0.31024273  0.13719328  0.46217733  1
  F  F124  1  0.24350465  0.24000753  0.84631778  1
  F  F125  1  0.74350465  0.75999247  0.65368222  1
  F  F126  1  0.75649535  0.75999247  0.15368222  1
  F  F127  1  0.25649535  0.24000753  0.34631778  1
  F  F128  1  0.31660813  0.22497048  0.05974166  1
  F  F129  1  0.81660813  0.77502952  0.44025834  1
  F  F130  1  0.68339187  0.77502952  0.94025834  1
  F  F131  1  0.18339187  0.22497048  0.55974166  1
  F  F132  1  0.98647768  0.81789691  0.91033620  1
  F  F133  1  0.48647768  0.18210309  0.58966380  1
  F  F134  1  0.01352232  0.18210309  0.08966380  1
  F  F135  1  0.51352232  0.81789691  0.41033620  1
  F  F136  1  0.97500965  0.68755855  0.72181308  1
  F  F137  1  0.47500965  0.31244145  0.77818692  1
  F  F138  1  0.02499035  0.31244145  0.27818692  1
  F  F139  1  0.52499035  0.68755855  0.22181308  1
  F  F140  1  0.12045120  0.73276622  0.82379236  1
  F  F141  1  0.62045120  0.26723378  0.67620764  1
  F  F142  1  0.87954880  0.26723378  0.17620764  1
  F  F143  1  0.37954880  0.73276622  0.32379236  1
  F  F144  1  0.84012988  0.77081603  0.81284598  1
  F  F145  1  0.34012988  0.22918397  0.68715402  1
  F  F146  1  0.15987012  0.22918397  0.18715402  1
  F  F147  1  0.65987012  0.77081603  0.31284598  1
  F  F148  1  0.95650761  0.65275768  0.87359301  1
  F  F149  1  0.45650761  0.34724232  0.62640699  1
  F  F150  1  0.04349239  0.34724232  0.12640699  1
  F  F151  1  0.54349239  0.65275768  0.37359301  1
  F  F152  1  0.00208350  0.85475977  0.75794551  1
  F  F153  1  0.50208350  0.14524023  0.74205449  1
  F  F154  1  0.99791650  0.14524023  0.24205449  1
  F  F155  1  0.49791650  0.85475977  0.25794551  1
  S  S156  1  0.59722455  0.98131604  0.47114311  1
  S  S157  1  0.09722455  0.01868396  0.02885689  1
  S  S158  1  0.40277545  0.01868396  0.52885689  1
  S  S159  1  0.90277545  0.98131604  0.97114311  1
  S  S160  1  0.51429983  0.94041619  0.55968792  1
  S  S161  1  0.01429983  0.05958381  0.94031208  1
  S  S162  1  0.48570017  0.05958381  0.44031208  1
  S  S163  1  0.98570017  0.94041619  0.05968792  1
  S  S164  1  0.58050079  0.50992176  0.44694715  1
  S  S165  1  0.08050079  0.49007824  0.05305285  1
  S  S166  1  0.41949921  0.49007824  0.55305285  1
  S  S167  1  0.91949921  0.50992176  0.94694715  1
  S  S168  1  0.46821062  0.58379446  0.48495569  1
  S  S169  1  0.96821062  0.41620554  0.01504431  1
  S  S170  1  0.53178938  0.41620554  0.51504431  1
  S  S171  1  0.03178938  0.58379446  0.98495569  1
  Sb  Sb172  1  0.55282782  0.03132229  0.91167167  1
  Sb  Sb173  1  0.05282782  0.96867771  0.58832833  1
  Sb  Sb174  1  0.44717218  0.96867771  0.08832833  1
  Sb  Sb175  1  0.94717218  0.03132229  0.41167167  1
  Sb  Sb176  1  0.43564487  0.46587213  0.91603172  1
  Sb  Sb177  1  0.93564487  0.53412787  0.58396828  1
  Sb  Sb178  1  0.56435513  0.53412787  0.08396828  1
  Sb  Sb179  1  0.06435513  0.46587213  0.41603172  1
  Sb  Sb180  1  0.62513826  0.80433599  0.78585457  1
  Sb  Sb181  1  0.12513826  0.19566401  0.71414543  1
  Sb  Sb182  1  0.37486174  0.19566401  0.21414543  1
  Sb  Sb183  1  0.87486174  0.80433599  0.28585457  1
  Sb  Sb184  1  0.35139028  0.68850573  0.79165933  1
  Sb  Sb185  1  0.85139028  0.31149427  0.70834067  1
  Sb  Sb186  1  0.64860972  0.31149427  0.20834067  1
  Sb  Sb187  1  0.14860972  0.68850573  0.29165933  1
  Sb  Sb188  1  0.18601900  0.46663742  0.75387484  1
  Sb  Sb189  1  0.68601900  0.53336258  0.74612516  1
  Sb  Sb190  1  0.81398100  0.53336258  0.24612516  1
  Sb  Sb191  1  0.31398100  0.46663742  0.25387484  1
  Sb  Sb192  1  0.78022333  0.03186217  0.73316536  1
  Sb  Sb193  1  0.28022333  0.96813783  0.76683464  1
  Sb  Sb194  1  0.21977667  0.96813783  0.26683464  1
  Sb  Sb195  1  0.71977667  0.03186217  0.23316536  1
  Sb  Sb196  1  0.71728542  0.26914594  0.94215019  1
  Sb  Sb197  1  0.21728542  0.73085406  0.55784981  1
  Sb  Sb198  1  0.28271458  0.73085406  0.05784981  1
  Sb  Sb199  1  0.78271458  0.26914594  0.44215019  1
  Sb  Sb200  1  0.27859250  0.23268448  0.95312001  1
  Sb  Sb201  1  0.77859250  0.76731552  0.54687999  1
  Sb  Sb202  1  0.72140750  0.76731552  0.04687999  1
  Sb  Sb203  1  0.22140750  0.23268448  0.45312001  1
  Sb  Sb204  1  0.98119613  0.75465279  0.81431885  1
  Sb  Sb205  1  0.48119613  0.24534721  0.68568115  1
  Sb  Sb206  1  0.01880387  0.24534721  0.18568115  1
  Sb  Sb207  1  0.51880387  0.75465279  0.31431885  1
