# generated using pymatgen
data_SrZnAsHO5
_symmetry_space_group_name_H-M   'P 1'
_cell_length_a   6.13909100
_cell_length_b   7.76811700
_cell_length_c   9.42450200
_cell_angle_alpha   90.00000000
_cell_angle_beta   90.00000000
_cell_angle_gamma   90.00000000
_symmetry_Int_Tables_number   1
_chemical_formula_structural   SrZnAsHO5
_chemical_formula_sum   'Sr4 Zn4 As4 H4 O20'
_cell_volume   449.44674554
_cell_formula_units_Z   4
loop_
 _symmetry_equiv_pos_site_id
 _symmetry_equiv_pos_as_xyz
  1  'x, y, z'
loop_
 _atom_site_type_symbol
 _atom_site_label
 _atom_site_symmetry_multiplicity
 _atom_site_fract_x
 _atom_site_fract_y
 _atom_site_fract_z
 _atom_site_occupancy
  Sr  Sr0  1  0.02844200  0.36585600  0.83196900  1
  Sr  Sr1  1  0.52844200  0.13414400  0.16803100  1
  Sr  Sr2  1  0.97155800  0.86585600  0.66803100  1
  Sr  Sr3  1  0.47155800  0.63414400  0.33196900  1
  Zn  Zn4  1  0.26608500  0.76518800  0.98956600  1
  Zn  Zn5  1  0.76608500  0.73481200  0.01043400  1
  Zn  Zn6  1  0.73391500  0.26518800  0.51043400  1
  Zn  Zn7  1  0.23391500  0.23481200  0.48956600  1
  As  As8  1  0.98582400  0.37890600  0.18290100  1
  As  As9  1  0.48582400  0.12109400  0.81709900  1
  As  As10  1  0.01417600  0.87890600  0.31709900  1
  As  As11  1  0.51417600  0.62109400  0.68290100  1
  H  H12  1  0.98952800  0.99714500  0.98725900  1
  H  H13  1  0.48952800  0.50285500  0.01274100  1
  H  H14  1  0.01047200  0.49714500  0.51274100  1
  H  H15  1  0.51047200  0.00285500  0.48725900  1
  O  O16  1  0.00960100  0.55452900  0.06796600  1
  O  O17  1  0.50960100  0.94547100  0.93203400  1
  O  O18  1  0.99039900  0.05452900  0.43203400  1
  O  O19  1  0.49039900  0.44547100  0.56796600  1
  O  O20  1  0.93314100  0.20852300  0.07064800  1
  O  O21  1  0.43314100  0.29147700  0.92935200  1
  O  O22  1  0.06685900  0.70852300  0.42935200  1
  O  O23  1  0.56685900  0.79147700  0.57064800  1
  O  O24  1  0.27071300  0.64315800  0.77411400  1
  O  O25  1  0.77071300  0.85684200  0.22588600  1
  O  O26  1  0.72928700  0.14315800  0.72588600  1
  O  O27  1  0.22928700  0.35684200  0.27411400  1
  O  O28  1  0.74106100  0.60804400  0.79147700  1
  O  O29  1  0.24106100  0.89195600  0.20852300  1
  O  O30  1  0.25893900  0.10804400  0.70852300  1
  O  O31  1  0.75893900  0.39195600  0.29147700  1
  O  O32  1  0.99712000  0.88735700  0.93402300  1
  O  O33  1  0.49712000  0.61264300  0.06597700  1
  O  O34  1  0.00288000  0.38735700  0.56597700  1
  O  O35  1  0.50288000  0.11264300  0.43402300  1
