# generated using pymatgen
data_Pr5Pb4
_symmetry_space_group_name_H-M   'P 1'
_cell_length_a   8.49522300
_cell_length_b   8.64818300
_cell_length_c   16.34958900
_cell_angle_alpha   90.00000000
_cell_angle_beta   90.00000000
_cell_angle_gamma   90.00000000
_symmetry_Int_Tables_number   1
_chemical_formula_structural   Pr5Pb4
_chemical_formula_sum   'Pr20 Pb16'
_cell_volume   1201.17557972
_cell_formula_units_Z   4
loop_
 _symmetry_equiv_pos_site_id
 _symmetry_equiv_pos_as_xyz
  1  'x, y, z'
loop_
 _atom_site_type_symbol
 _atom_site_label
 _atom_site_symmetry_multiplicity
 _atom_site_fract_x
 _atom_site_fract_y
 _atom_site_fract_z
 _atom_site_occupancy
  Pr  Pr0  1  0.62341600  0.16134500  0.61876400  1
  Pr  Pr1  1  0.12341600  0.33865500  0.88123600  1
  Pr  Pr2  1  0.37658400  0.83865500  0.11876400  1
  Pr  Pr3  1  0.87658400  0.66134500  0.38123600  1
  Pr  Pr4  1  0.37658400  0.83865500  0.38123600  1
  Pr  Pr5  1  0.87658400  0.66134500  0.11876400  1
  Pr  Pr6  1  0.62341600  0.16134500  0.88123600  1
  Pr  Pr7  1  0.12341600  0.33865500  0.61876400  1
  Pr  Pr8  1  0.46948600  0.67931000  0.60109700  1
  Pr  Pr9  1  0.96948600  0.82069000  0.89890300  1
  Pr  Pr10  1  0.53051400  0.32069000  0.10109700  1
  Pr  Pr11  1  0.03051400  0.17931000  0.39890300  1
  Pr  Pr12  1  0.53051400  0.32069000  0.39890300  1
  Pr  Pr13  1  0.03051400  0.17931000  0.10109700  1
  Pr  Pr14  1  0.46948600  0.67931000  0.89890300  1
  Pr  Pr15  1  0.96948600  0.82069000  0.60109700  1
  Pr  Pr16  1  0.79210800  0.49805900  0.75000000  1
  Pr  Pr17  1  0.29210800  0.00194100  0.75000000  1
  Pr  Pr18  1  0.20789200  0.50194100  0.25000000  1
  Pr  Pr19  1  0.70789200  0.99805900  0.25000000  1
  Pb  Pb20  1  0.71819600  0.96897200  0.45664300  1
  Pb  Pb21  1  0.21819600  0.53102800  0.04335700  1
  Pb  Pb22  1  0.28180400  0.03102800  0.95664300  1
  Pb  Pb23  1  0.78180400  0.46897200  0.54335700  1
  Pb  Pb24  1  0.28180400  0.03102800  0.54335700  1
  Pb  Pb25  1  0.78180400  0.46897200  0.95664300  1
  Pb  Pb26  1  0.71819600  0.96897200  0.04335700  1
  Pb  Pb27  1  0.21819600  0.53102800  0.45664300  1
  Pb  Pb28  1  0.42573700  0.37612700  0.75000000  1
  Pb  Pb29  1  0.92573700  0.12387300  0.75000000  1
  Pb  Pb30  1  0.57426300  0.62387300  0.25000000  1
  Pb  Pb31  1  0.07426300  0.87612700  0.25000000  1
  Pb  Pb32  1  0.66224700  0.85312800  0.75000000  1
  Pb  Pb33  1  0.16224700  0.64687200  0.75000000  1
  Pb  Pb34  1  0.33775300  0.14687200  0.25000000  1
  Pb  Pb35  1  0.83775300  0.35312800  0.25000000  1
