# generated using pymatgen
data_Lu12In2Fe3
_symmetry_space_group_name_H-M   'P 1'
_cell_length_a   8.18506112
_cell_length_b   8.18506112
_cell_length_c   8.18506112
_cell_angle_alpha   108.48295940
_cell_angle_beta   108.48295940
_cell_angle_gamma   111.46635489
_symmetry_Int_Tables_number   1
_chemical_formula_structural   Lu12In2Fe3
_chemical_formula_sum   'Lu12 In2 Fe3'
_cell_volume   421.74235666
_cell_formula_units_Z   1
loop_
 _symmetry_equiv_pos_site_id
 _symmetry_equiv_pos_as_xyz
  1  'x, y, z'
loop_
 _atom_site_type_symbol
 _atom_site_label
 _atom_site_symmetry_multiplicity
 _atom_site_fract_x
 _atom_site_fract_y
 _atom_site_fract_z
 _atom_site_occupancy
  Lu  Lu0  1  0.30641400  0.30641400  0.61282800  1
  Lu  Lu1  1  0.69358600  0.69358600  0.38717200  1
  Lu  Lu2  1  0.69358600  0.30641400  0.00000000  1
  Lu  Lu3  1  0.30641400  0.69358600  0.00000000  1
  Lu  Lu4  1  0.19218100  0.42831000  0.23612900  1
  Lu  Lu5  1  0.80781900  0.57169000  0.76387100  1
  Lu  Lu6  1  0.19218100  0.95605100  0.76387100  1
  Lu  Lu7  1  0.95605100  0.19218100  0.76387100  1
  Lu  Lu8  1  0.80781900  0.04394900  0.23612900  1
  Lu  Lu9  1  0.04394900  0.80781900  0.23612900  1
  Lu  Lu10  1  0.42831000  0.19218100  0.23612900  1
  Lu  Lu11  1  0.57169000  0.80781900  0.76387100  1
  In  In12  1  0.00000000  0.50000000  0.50000000  1
  In  In13  1  0.50000000  0.00000000  0.50000000  1
  Fe  Fe14  1  0.38296400  0.38296400  0.00000000  1
  Fe  Fe15  1  0.61703600  0.61703600  0.00000000  1
  Fe  Fe16  1  0.00000000  0.00000000  0.00000000  1
