# generated using pymatgen
data_CsK4GaO4
_symmetry_space_group_name_H-M   'P 1'
_cell_length_a   6.77827600
_cell_length_b   11.74513600
_cell_length_c   21.15704500
_cell_angle_alpha   90.00000000
_cell_angle_beta   90.00000000
_cell_angle_gamma   90.00000000
_symmetry_Int_Tables_number   1
_chemical_formula_structural   CsK4GaO4
_chemical_formula_sum   'Cs8 K32 Ga8 O32'
_cell_volume   1684.34987374
_cell_formula_units_Z   8
loop_
 _symmetry_equiv_pos_site_id
 _symmetry_equiv_pos_as_xyz
  1  'x, y, z'
loop_
 _atom_site_type_symbol
 _atom_site_label
 _atom_site_symmetry_multiplicity
 _atom_site_fract_x
 _atom_site_fract_y
 _atom_site_fract_z
 _atom_site_occupancy
  Cs  Cs0  1  0.42196400  0.15466000  0.49814100  1
  Cs  Cs1  1  0.92196400  0.84534000  0.00185900  1
  Cs  Cs2  1  0.07803600  0.65466000  0.50185900  1
  Cs  Cs3  1  0.57803600  0.34534000  0.99814100  1
  Cs  Cs4  1  0.57803600  0.84534000  0.50185900  1
  Cs  Cs5  1  0.07803600  0.15466000  0.99814100  1
  Cs  Cs6  1  0.92196400  0.34534000  0.49814100  1
  Cs  Cs7  1  0.42196400  0.65466000  0.00185900  1
  K  K8  1  0.58693500  0.92347400  0.25199100  1
  K  K9  1  0.08693500  0.07652600  0.24800900  1
  K  K10  1  0.91306500  0.42347400  0.74800900  1
  K  K11  1  0.41306500  0.57652600  0.75199100  1
  K  K12  1  0.41306500  0.07652600  0.74800900  1
  K  K13  1  0.91306500  0.92347400  0.75199100  1
  K  K14  1  0.08693500  0.57652600  0.25199100  1
  K  K15  1  0.58693500  0.42347400  0.24800900  1
  K  K16  1  0.40762700  0.94206800  0.06733200  1
  K  K17  1  0.59237300  0.55793200  0.56733200  1
  K  K18  1  0.09237300  0.44206800  0.93266800  1
  K  K19  1  0.09237300  0.94206800  0.56733200  1
  K  K20  1  0.59237300  0.05793200  0.93266800  1
  K  K21  1  0.40762700  0.44206800  0.43266800  1
  K  K22  1  0.90762700  0.55793200  0.06733200  1
  K  K23  1  0.08814200  0.32556000  0.32241100  1
  K  K24  1  0.58814200  0.67444000  0.17758900  1
  K  K25  1  0.41185800  0.82556000  0.67758900  1
  K  K26  1  0.91185800  0.67444000  0.67758900  1
  K  K27  1  0.41185800  0.32556000  0.82241100  1
  K  K28  1  0.58814200  0.17444000  0.32241100  1
  K  K29  1  0.08814200  0.82556000  0.17758900  1
  K  K30  1  0.41018000  0.70276500  0.36022000  1
  K  K31  1  0.91018000  0.29723500  0.13978000  1
  K  K32  1  0.08982000  0.20276500  0.63978000  1
  K  K33  1  0.58982000  0.79723500  0.86022000  1
  K  K34  1  0.58982000  0.29723500  0.63978000  1
  K  K35  1  0.08982000  0.70276500  0.86022000  1
  K  K36  1  0.91018000  0.79723500  0.36022000  1
  K  K37  1  0.41018000  0.20276500  0.13978000  1
  K  K38  1  0.90762700  0.05793200  0.43266800  1
  K  K39  1  0.91185800  0.17444000  0.82241100  1
  Ga  Ga40  1  0.80392200  0.53393200  0.37161900  1
  Ga  Ga41  1  0.30392200  0.46606800  0.12838100  1
  Ga  Ga42  1  0.69607800  0.03393200  0.62838100  1
  Ga  Ga43  1  0.19607800  0.96606800  0.87161900  1
  Ga  Ga44  1  0.19607800  0.46606800  0.62838100  1
  Ga  Ga45  1  0.69607800  0.53393200  0.87161900  1
  Ga  Ga46  1  0.30392200  0.96606800  0.37161900  1
  Ga  Ga47  1  0.80392200  0.03393200  0.12838100  1
  O  O48  1  0.27642100  0.88269900  0.79718500  1
  O  O49  1  0.77642100  0.11730100  0.70281500  1
  O  O50  1  0.22357900  0.38269900  0.20281500  1
  O  O51  1  0.72357900  0.61730100  0.29718500  1
  O  O52  1  0.72357900  0.11730100  0.20281500  1
  O  O53  1  0.22357900  0.88269900  0.29718500  1
  O  O54  1  0.77642100  0.61730100  0.79718500  1
  O  O55  1  0.27642100  0.38269900  0.70281500  1
  O  O56  1  0.31552400  0.39568800  0.55627400  1
  O  O57  1  0.81552400  0.60431200  0.94372600  1
  O  O58  1  0.81552400  0.10431200  0.55627400  1
  O  O59  1  0.31552400  0.89568800  0.94372600  1
  O  O60  1  0.68447600  0.60431200  0.44372600  1
  O  O61  1  0.18447600  0.39568800  0.05627400  1
  O  O62  1  0.08555000  0.53782900  0.37876100  1
  O  O63  1  0.58555000  0.46217100  0.12123900  1
  O  O64  1  0.41445000  0.03782900  0.62123900  1
  O  O65  1  0.91445000  0.96217100  0.87876100  1
  O  O66  1  0.91445000  0.46217100  0.62123900  1
  O  O67  1  0.41445000  0.53782900  0.87876100  1
  O  O68  1  0.18447600  0.89568800  0.44372600  1
  O  O69  1  0.58555000  0.96217100  0.37876100  1
  O  O70  1  0.08555000  0.03782900  0.12123900  1
  O  O71  1  0.72133700  0.37793900  0.36408200  1
  O  O72  1  0.22133700  0.62206100  0.13591800  1
  O  O73  1  0.77866300  0.87793900  0.63591800  1
  O  O74  1  0.27866300  0.12206100  0.86408200  1
  O  O75  1  0.27866300  0.62206100  0.63591800  1
  O  O76  1  0.77866300  0.37793900  0.86408200  1
  O  O77  1  0.22133700  0.12206100  0.36408200  1
  O  O78  1  0.72133700  0.87793900  0.13591800  1
  O  O79  1  0.68447600  0.10431200  0.05627400  1
