# generated using pymatgen
data_KCd4As3
_symmetry_space_group_name_H-M   'P 1'
_cell_length_a   12.47615499
_cell_length_b   12.47615499
_cell_length_c   12.47615507
_cell_angle_alpha   21.08765037
_cell_angle_beta   21.08765037
_cell_angle_gamma   21.08764914
_symmetry_Int_Tables_number   1
_chemical_formula_structural   KCd4As3
_chemical_formula_sum   'K1 Cd4 As3'
_cell_volume   220.17002636
_cell_formula_units_Z   1
loop_
 _symmetry_equiv_pos_site_id
 _symmetry_equiv_pos_as_xyz
  1  'x, y, z'
loop_
 _atom_site_type_symbol
 _atom_site_label
 _atom_site_symmetry_multiplicity
 _atom_site_fract_x
 _atom_site_fract_y
 _atom_site_fract_z
 _atom_site_occupancy
  K  K0  1  0.50000000  0.50000000  0.50000000  1
  Cd  Cd1  1  0.91104900  0.91104900  0.91104900  1
  Cd  Cd2  1  0.08895100  0.08895100  0.08895100  1
  Cd  Cd3  1  0.69841400  0.69841400  0.69841400  1
  Cd  Cd4  1  0.30158600  0.30158600  0.30158600  1
  As  As5  1  0.77244200  0.77244200  0.77244200  1
  As  As6  1  0.22755800  0.22755800  0.22755800  1
  As  As7  1  0.00000000  0.00000000  0.00000000  1
