# generated using pymatgen
data_Ba3NbGa3(SiO7)2
_symmetry_space_group_name_H-M   'P 1'
_cell_length_a   8.65367938
_cell_length_b   8.65367938
_cell_length_c   5.27118500
_cell_angle_alpha   90.00000000
_cell_angle_beta   90.00000000
_cell_angle_gamma   119.99999526
_symmetry_Int_Tables_number   1
_chemical_formula_structural   Ba3NbGa3(SiO7)2
_chemical_formula_sum   'Ba3 Nb1 Ga3 Si2 O14'
_cell_volume   341.85387893
_cell_formula_units_Z   1
loop_
 _symmetry_equiv_pos_site_id
 _symmetry_equiv_pos_as_xyz
  1  'x, y, z'
loop_
 _atom_site_type_symbol
 _atom_site_label
 _atom_site_symmetry_multiplicity
 _atom_site_fract_x
 _atom_site_fract_y
 _atom_site_fract_z
 _atom_site_occupancy
  Ba  Ba0  1  0.57168900  0.57168900  0.00000000  1
  Ba  Ba1  1  0.00000000  0.42831100  0.00000000  1
  Ba  Ba2  1  0.42831100  0.00000000  0.00000000  1
  Nb  Nb3  1  0.00000000  0.00000000  0.00000000  1
  Ga  Ga4  1  0.25812800  0.25812800  0.50000000  1
  Ga  Ga5  1  0.00000000  0.74187200  0.50000000  1
  Ga  Ga6  1  0.74187200  0.00000000  0.50000000  1
  Si  Si7  1  0.66666700  0.33333300  0.51939100  1
  Si  Si8  1  0.33333300  0.66666700  0.48060900  1
  O  O9  1  0.10970700  0.21755300  0.77338100  1
  O  O10  1  0.78244700  0.89215400  0.77338100  1
  O  O11  1  0.10784600  0.89029300  0.77338100  1
  O  O12  1  0.89215400  0.78244700  0.22661900  1
  O  O13  1  0.89029300  0.10784600  0.22661900  1
  O  O14  1  0.21755300  0.10970700  0.22661900  1
  O  O15  1  0.30180100  0.47657900  0.35381800  1
  O  O16  1  0.52342100  0.82522100  0.35381800  1
  O  O17  1  0.17477900  0.69819900  0.35381800  1
  O  O18  1  0.33333300  0.66666700  0.78606700  1
  O  O19  1  0.66666700  0.33333300  0.21393300  1
  O  O20  1  0.47657900  0.30180100  0.64618200  1
  O  O21  1  0.69819900  0.17477900  0.64618200  1
  O  O22  1  0.82522100  0.52342100  0.64618200  1
