# generated using pymatgen
data_KGd(NbCl3)6
_symmetry_space_group_name_H-M   'P 1'
_cell_length_a   10.20803688
_cell_length_b   10.20803688
_cell_length_c   10.20803613
_cell_angle_alpha   55.09729435
_cell_angle_beta   55.09729435
_cell_angle_gamma   55.09729380
_symmetry_Int_Tables_number   1
_chemical_formula_structural   KGd(NbCl3)6
_chemical_formula_sum   'K1 Gd1 Nb6 Cl18'
_cell_volume   666.39671677
_cell_formula_units_Z   1
loop_
 _symmetry_equiv_pos_site_id
 _symmetry_equiv_pos_as_xyz
  1  'x, y, z'
loop_
 _atom_site_type_symbol
 _atom_site_label
 _atom_site_symmetry_multiplicity
 _atom_site_fract_x
 _atom_site_fract_y
 _atom_site_fract_z
 _atom_site_occupancy
  K  K0  1  0.72213100  0.72213100  0.72213100  1
  Gd  Gd1  1  0.99857700  0.99857700  0.99857700  1
  Nb  Nb2  1  0.35068000  0.58460100  0.70345200  1
  Nb  Nb3  1  0.58460100  0.70345200  0.35068000  1
  Nb  Nb4  1  0.70345200  0.35068000  0.58460100  1
  Nb  Nb5  1  0.64970100  0.41435000  0.29798100  1
  Nb  Nb6  1  0.41435000  0.29798100  0.64970100  1
  Nb  Nb7  1  0.29798100  0.64970100  0.41435000  1
  Cl  Cl8  1  0.84221000  0.31122000  0.02655300  1
  Cl  Cl9  1  0.31122000  0.02655300  0.84221000  1
  Cl  Cl10  1  0.02655300  0.84221000  0.31122000  1
  Cl  Cl11  1  0.15830900  0.69209400  0.97008100  1
  Cl  Cl12  1  0.69209400  0.97008100  0.15830900  1
  Cl  Cl13  1  0.97008100  0.15830900  0.69209400  1
  Cl  Cl14  1  0.56375100  0.42445300  0.83942000  1
  Cl  Cl15  1  0.42445300  0.83942000  0.56375100  1
  Cl  Cl16  1  0.83942000  0.56375100  0.42445300  1
  Cl  Cl17  1  0.43709300  0.57471100  0.16114000  1
  Cl  Cl18  1  0.57471100  0.16114000  0.43709300  1
  Cl  Cl19  1  0.16114000  0.43709300  0.57471100  1
  Cl  Cl20  1  0.22719300  0.35906100  0.91575700  1
  Cl  Cl21  1  0.35906100  0.91575700  0.22719300  1
  Cl  Cl22  1  0.91575700  0.22719300  0.35906100  1
  Cl  Cl23  1  0.77363300  0.64098200  0.08336600  1
  Cl  Cl24  1  0.64098200  0.08336600  0.77363300  1
  Cl  Cl25  1  0.08336600  0.77363200  0.64098200  1
