# generated using pymatgen
data_CsHo3Te5
_symmetry_space_group_name_H-M   'P 1'
_cell_length_a   4.41002300
_cell_length_b   13.19677000
_cell_length_c   23.81560400
_cell_angle_alpha   90.00000000
_cell_angle_beta   90.00000000
_cell_angle_gamma   90.00000000
_symmetry_Int_Tables_number   1
_chemical_formula_structural   CsHo3Te5
_chemical_formula_sum   'Cs4 Ho12 Te20'
_cell_volume   1386.02193209
_cell_formula_units_Z   4
loop_
 _symmetry_equiv_pos_site_id
 _symmetry_equiv_pos_as_xyz
  1  'x, y, z'
loop_
 _atom_site_type_symbol
 _atom_site_label
 _atom_site_symmetry_multiplicity
 _atom_site_fract_x
 _atom_site_fract_y
 _atom_site_fract_z
 _atom_site_occupancy
  Cs  Cs0  1  0.25000000  0.35404600  0.08917700  1
  Cs  Cs1  1  0.75000000  0.64595400  0.91082300  1
  Cs  Cs2  1  0.75000000  0.85404600  0.41082300  1
  Cs  Cs3  1  0.25000000  0.14595400  0.58917700  1
  Ho  Ho4  1  0.25000000  0.45383200  0.69761000  1
  Ho  Ho5  1  0.75000000  0.54616800  0.30239000  1
  Ho  Ho6  1  0.75000000  0.95383200  0.80239000  1
  Ho  Ho7  1  0.25000000  0.04616800  0.19761000  1
  Ho  Ho8  1  0.25000000  0.79678200  0.67484200  1
  Ho  Ho9  1  0.75000000  0.20321800  0.32515800  1
  Ho  Ho10  1  0.75000000  0.29678200  0.82515800  1
  Ho  Ho11  1  0.25000000  0.70321800  0.17484200  1
  Ho  Ho12  1  0.25000000  0.39212900  0.44437900  1
  Ho  Ho13  1  0.75000000  0.60787100  0.55562100  1
  Ho  Ho14  1  0.75000000  0.89212900  0.05562100  1
  Ho  Ho15  1  0.25000000  0.10787100  0.94437900  1
  Te  Te16  1  0.25000000  0.44393900  0.56884300  1
  Te  Te17  1  0.75000000  0.55606100  0.43115700  1
  Te  Te18  1  0.75000000  0.94393900  0.93115700  1
  Te  Te19  1  0.25000000  0.05606100  0.06884300  1
  Te  Te20  1  0.25000000  0.76922700  0.54699700  1
  Te  Te21  1  0.75000000  0.23077300  0.45300300  1
  Te  Te22  1  0.75000000  0.26922700  0.95300300  1
  Te  Te23  1  0.25000000  0.73077300  0.04699700  1
  Te  Te24  1  0.25000000  0.79770800  0.80314300  1
  Te  Te25  1  0.75000000  0.20229200  0.19685700  1
  Te  Te26  1  0.75000000  0.29770800  0.69685700  1
  Te  Te27  1  0.25000000  0.70229200  0.30314300  1
  Te  Te28  1  0.25000000  0.45438400  0.82573000  1
  Te  Te29  1  0.75000000  0.54561600  0.17427000  1
  Te  Te30  1  0.75000000  0.95438400  0.67427000  1
  Te  Te31  1  0.25000000  0.04561600  0.32573000  1
  Te  Te32  1  0.25000000  0.37529000  0.31376800  1
  Te  Te33  1  0.75000000  0.62471000  0.68623200  1
  Te  Te34  1  0.75000000  0.87529000  0.18623200  1
  Te  Te35  1  0.25000000  0.12471000  0.81376800  1
