# generated using pymatgen
data_ScZn12
_symmetry_space_group_name_H-M   'P 1'
_cell_length_a   6.75675960
_cell_length_b   6.75675960
_cell_length_c   6.75675960
_cell_angle_alpha   98.33723087
_cell_angle_beta   98.33723087
_cell_angle_gamma   135.23505112
_symmetry_Int_Tables_number   1
_chemical_formula_structural   ScZn12
_chemical_formula_sum   'Sc1 Zn12'
_cell_volume   200.86056886
_cell_formula_units_Z   1
loop_
 _symmetry_equiv_pos_site_id
 _symmetry_equiv_pos_as_xyz
  1  'x, y, z'
loop_
 _atom_site_type_symbol
 _atom_site_label
 _atom_site_symmetry_multiplicity
 _atom_site_fract_x
 _atom_site_fract_y
 _atom_site_fract_z
 _atom_site_occupancy
  Sc  Sc0  1  0.00000000  0.00000000  0.00000000  1
  Zn  Zn1  1  0.00000000  0.50000000  0.00000000  1
  Zn  Zn2  1  0.50000000  0.50000000  0.50000000  1
  Zn  Zn3  1  0.00000000  0.00000000  0.50000000  1
  Zn  Zn4  1  0.50000000  0.00000000  0.00000000  1
  Zn  Zn5  1  0.35187400  0.00000000  0.35187400  1
  Zn  Zn6  1  0.00000000  0.64812600  0.64812600  1
  Zn  Zn7  1  0.00000000  0.35187400  0.35187400  1
  Zn  Zn8  1  0.64812600  0.00000000  0.64812600  1
  Zn  Zn9  1  0.28812800  0.50000000  0.78812800  1
  Zn  Zn10  1  0.50000000  0.71187200  0.21187200  1
  Zn  Zn11  1  0.50000000  0.28812800  0.78812800  1
  Zn  Zn12  1  0.71187200  0.50000000  0.21187200  1
