# generated using pymatgen
data_Ag8SnSe6
_symmetry_space_group_name_H-M   'P 1'
_cell_length_a   7.94469700
_cell_length_b   8.12718100
_cell_length_c   11.22211700
_cell_angle_alpha   90.00000000
_cell_angle_beta   90.00000000
_cell_angle_gamma   90.00000000
_symmetry_Int_Tables_number   1
_chemical_formula_structural   Ag8SnSe6
_chemical_formula_sum   'Ag16 Sn2 Se12'
_cell_volume   724.58954395
_cell_formula_units_Z   2
loop_
 _symmetry_equiv_pos_site_id
 _symmetry_equiv_pos_as_xyz
  1  'x, y, z'
loop_
 _atom_site_type_symbol
 _atom_site_label
 _atom_site_symmetry_multiplicity
 _atom_site_fract_x
 _atom_site_fract_y
 _atom_site_fract_z
 _atom_site_occupancy
  Ag  Ag0  1  0.62334400  0.50000000  0.53535700  1
  Ag  Ag1  1  0.69874300  0.50000000  0.96557100  1
  Ag  Ag2  1  0.30125700  0.00000000  0.46557100  1
  Ag  Ag3  1  0.83052900  0.77355000  0.13567200  1
  Ag  Ag4  1  0.47458500  0.80726600  0.26009000  1
  Ag  Ag5  1  0.52541500  0.69273400  0.76009000  1
  Ag  Ag6  1  0.83052900  0.22645000  0.13567200  1
  Ag  Ag7  1  0.16947100  0.27355000  0.63567200  1
  Ag  Ag8  1  0.16947100  0.72645000  0.63567200  1
  Ag  Ag9  1  0.52541500  0.30726600  0.76009000  1
  Ag  Ag10  1  0.88672600  0.21231900  0.86501800  1
  Ag  Ag11  1  0.11327400  0.28768100  0.36501800  1
  Ag  Ag12  1  0.11327400  0.71231900  0.36501800  1
  Ag  Ag13  1  0.88672600  0.78768100  0.86501800  1
  Ag  Ag14  1  0.47458500  0.19273400  0.26009000  1
  Ag  Ag15  1  0.37665600  0.00000000  0.03535700  1
  Sn  Sn16  1  0.24712000  0.50000000  0.01581000  1
  Sn  Sn17  1  0.75288000  0.00000000  0.51581000  1
  Se  Se18  1  0.28982900  0.50000000  0.50049200  1
  Se  Se19  1  0.71017100  0.00000000  0.00049200  1
  Se  Se20  1  0.80228200  0.50000000  0.74468900  1
  Se  Se21  1  0.19771800  0.00000000  0.24468900  1
  Se  Se22  1  0.50595300  0.50000000  0.15214000  1
  Se  Se23  1  0.49404700  0.00000000  0.65214000  1
  Se  Se24  1  0.00432400  0.50000000  0.16773300  1
  Se  Se25  1  0.99567600  0.00000000  0.66773300  1
  Se  Se26  1  0.24285700  0.23980600  0.88852400  1
  Se  Se27  1  0.75714300  0.26019400  0.38852400  1
  Se  Se28  1  0.75714300  0.73980600  0.38852400  1
  Se  Se29  1  0.24285700  0.76019400  0.88852400  1
