# generated using pymatgen
data_K3NdV2O8
_symmetry_space_group_name_H-M   'P 1'
_cell_length_a   6.06988700
_cell_length_b   7.68588800
_cell_length_c   10.04907714
_cell_angle_alpha   89.01792610
_cell_angle_beta   90.00000000
_cell_angle_gamma   90.00000000
_symmetry_Int_Tables_number   1
_chemical_formula_structural   K3NdV2O8
_chemical_formula_sum   'K6 Nd2 V4 O16'
_cell_volume   468.74542085
_cell_formula_units_Z   2
loop_
 _symmetry_equiv_pos_site_id
 _symmetry_equiv_pos_as_xyz
  1  'x, y, z'
loop_
 _atom_site_type_symbol
 _atom_site_label
 _atom_site_symmetry_multiplicity
 _atom_site_fract_x
 _atom_site_fract_y
 _atom_site_fract_z
 _atom_site_occupancy
  K  K0  1  0.25000000  0.14102800  0.08382600  1
  K  K1  1  0.75000000  0.85897200  0.91617400  1
  K  K2  1  0.25000000  0.69238800  0.41809400  1
  K  K3  1  0.75000000  0.30761200  0.58190600  1
  K  K4  1  0.25000000  0.99837100  0.69271600  1
  K  K5  1  0.75000000  0.00162900  0.30728400  1
  Nd  Nd6  1  0.75000000  0.50629000  0.21139400  1
  Nd  Nd7  1  0.25000000  0.49371000  0.78860600  1
  V  V8  1  0.25000000  0.26104500  0.41265400  1
  V  V9  1  0.75000000  0.73895500  0.58734600  1
  V  V10  1  0.25000000  0.68999200  0.07480600  1
  V  V11  1  0.75000000  0.31000800  0.92519400  1
  O  O12  1  0.98693700  0.65950200  0.66862900  1
  O  O13  1  0.48693700  0.34049800  0.33137100  1
  O  O14  1  0.01306300  0.34049800  0.33137100  1
  O  O15  1  0.51306300  0.65950200  0.66862900  1
  O  O16  1  0.25000000  0.32926900  0.57806000  1
  O  O17  1  0.75000000  0.67073100  0.42194000  1
  O  O18  1  0.25000000  0.03898300  0.40753400  1
  O  O19  1  0.75000000  0.96101700  0.59246600  1
  O  O20  1  0.98629000  0.25863000  0.83367200  1
  O  O21  1  0.48629000  0.74137000  0.16632800  1
  O  O22  1  0.01371000  0.74137000  0.16632800  1
  O  O23  1  0.51371000  0.25863000  0.83367200  1
  O  O24  1  0.75000000  0.52755800  0.96512200  1
  O  O25  1  0.25000000  0.47244200  0.03487800  1
  O  O26  1  0.75000000  0.20595900  0.08055800  1
  O  O27  1  0.25000000  0.79404100  0.91944200  1
