# generated using pymatgen
data_Dy5Pb4
_symmetry_space_group_name_H-M   'P 1'
_cell_length_a   8.20707800
_cell_length_b   8.27695000
_cell_length_c   15.70901400
_cell_angle_alpha   90.00000000
_cell_angle_beta   90.00000000
_cell_angle_gamma   90.00000000
_symmetry_Int_Tables_number   1
_chemical_formula_structural   Dy5Pb4
_chemical_formula_sum   'Dy20 Pb16'
_cell_volume   1067.10663294
_cell_formula_units_Z   4
loop_
 _symmetry_equiv_pos_site_id
 _symmetry_equiv_pos_as_xyz
  1  'x, y, z'
loop_
 _atom_site_type_symbol
 _atom_site_label
 _atom_site_symmetry_multiplicity
 _atom_site_fract_x
 _atom_site_fract_y
 _atom_site_fract_z
 _atom_site_occupancy
  Dy  Dy0  1  0.37637400  0.84116900  0.87947400  1
  Dy  Dy1  1  0.87637400  0.65883100  0.62052600  1
  Dy  Dy2  1  0.62362600  0.15883100  0.37947400  1
  Dy  Dy3  1  0.12362600  0.34116900  0.12052600  1
  Dy  Dy4  1  0.62362600  0.15883100  0.12052600  1
  Dy  Dy5  1  0.12362600  0.34116900  0.37947400  1
  Dy  Dy6  1  0.37637400  0.84116900  0.62052600  1
  Dy  Dy7  1  0.87637400  0.65883100  0.87947400  1
  Dy  Dy8  1  0.53635500  0.32298800  0.89987300  1
  Dy  Dy9  1  0.03635500  0.17701200  0.60012700  1
  Dy  Dy10  1  0.46364500  0.67701200  0.39987300  1
  Dy  Dy11  1  0.96364500  0.82298800  0.10012700  1
  Dy  Dy12  1  0.46364500  0.67701200  0.10012700  1
  Dy  Dy13  1  0.96364500  0.82298800  0.39987300  1
  Dy  Dy14  1  0.53635500  0.32298800  0.60012700  1
  Dy  Dy15  1  0.03635500  0.17701200  0.89987300  1
  Dy  Dy16  1  0.20838200  0.50409200  0.75000000  1
  Dy  Dy17  1  0.70838200  0.99590800  0.75000000  1
  Dy  Dy18  1  0.79161800  0.49590800  0.25000000  1
  Dy  Dy19  1  0.29161800  0.00409200  0.25000000  1
  Pb  Pb20  1  0.28131100  0.03221000  0.04249700  1
  Pb  Pb21  1  0.78131100  0.46779000  0.45750300  1
  Pb  Pb22  1  0.71868900  0.96779000  0.54249700  1
  Pb  Pb23  1  0.21868900  0.53221000  0.95750300  1
  Pb  Pb24  1  0.71868900  0.96779000  0.95750300  1
  Pb  Pb25  1  0.21868900  0.53221000  0.54249700  1
  Pb  Pb26  1  0.28131100  0.03221000  0.45750300  1
  Pb  Pb27  1  0.78131100  0.46779000  0.04249700  1
  Pb  Pb28  1  0.57080000  0.62633300  0.75000000  1
  Pb  Pb29  1  0.07080000  0.87366700  0.75000000  1
  Pb  Pb30  1  0.42920000  0.37366700  0.25000000  1
  Pb  Pb31  1  0.92920000  0.12633300  0.25000000  1
  Pb  Pb32  1  0.34642300  0.15314200  0.75000000  1
  Pb  Pb33  1  0.84642300  0.34685800  0.75000000  1
  Pb  Pb34  1  0.65357700  0.84685800  0.25000000  1
  Pb  Pb35  1  0.15357700  0.65314200  0.25000000  1
