# generated using pymatgen
data_CaSmMgNbO6
_symmetry_space_group_name_H-M   'P 1'
_cell_length_a   5.72762500
_cell_length_b   5.50178600
_cell_length_c   9.60516830
_cell_angle_alpha   55.29215373
_cell_angle_beta   90.00000000
_cell_angle_gamma   90.00000000
_symmetry_Int_Tables_number   1
_chemical_formula_structural   CaSmMgNbO6
_chemical_formula_sum   'Ca2 Sm2 Mg2 Nb2 O12'
_cell_volume   248.82268644
_cell_formula_units_Z   2
loop_
 _symmetry_equiv_pos_site_id
 _symmetry_equiv_pos_as_xyz
  1  'x, y, z'
loop_
 _atom_site_type_symbol
 _atom_site_label
 _atom_site_symmetry_multiplicity
 _atom_site_fract_x
 _atom_site_fract_y
 _atom_site_fract_z
 _atom_site_occupancy
  Ca  Ca0  1  0.19780000  0.73679600  0.75131300  1
  Ca  Ca1  1  0.80220000  0.73679600  0.25131300  1
  Sm  Sm2  1  0.31178800  0.26772000  0.24719300  1
  Sm  Sm3  1  0.68821200  0.26772000  0.74719300  1
  Mg  Mg4  1  0.24684100  0.50173200  0.49973100  1
  Mg  Mg5  1  0.75315900  0.50173200  0.99973100  1
  Nb  Nb6  1  0.75454700  0.00141100  0.49915500  1
  Nb  Nb7  1  0.24545300  0.00141100  0.99915500  1
  O  O8  1  0.95136200  0.24324500  0.94299300  1
  O  O9  1  0.04863800  0.24324500  0.44299300  1
  O  O10  1  0.53798400  0.74934500  0.05533900  1
  O  O11  1  0.46201600  0.74934500  0.55533900  1
  O  O12  1  0.94108500  0.64681000  0.55281800  1
  O  O13  1  0.05891500  0.64681000  0.05281800  1
  O  O14  1  0.55374100  0.34189900  0.45146500  1
  O  O15  1  0.44625900  0.34189900  0.95146500  1
  O  O16  1  0.78665600  0.86271800  0.74486600  1
  O  O17  1  0.21334400  0.86271800  0.24486600  1
  O  O18  1  0.71285600  0.14832400  0.25512700  1
  O  O19  1  0.28714400  0.14832400  0.75512700  1
