# generated using pymatgen
data_NaAlH12(SO7)2
_symmetry_space_group_name_H-M   'P 1'
_cell_length_a   6.16965897
_cell_length_b   7.43771960
_cell_length_c   25.51564600
_cell_angle_alpha   90.00000000
_cell_angle_beta   90.00000000
_cell_angle_gamma   94.66594716
_symmetry_Int_Tables_number   1
_chemical_formula_structural   NaAlH12(SO7)2
_chemical_formula_sum   'Na4 Al4 H48 S8 O56'
_cell_volume   1166.98654017
_cell_formula_units_Z   4
loop_
 _symmetry_equiv_pos_site_id
 _symmetry_equiv_pos_as_xyz
  1  'x, y, z'
loop_
 _atom_site_type_symbol
 _atom_site_label
 _atom_site_symmetry_multiplicity
 _atom_site_fract_x
 _atom_site_fract_y
 _atom_site_fract_z
 _atom_site_occupancy
  Na  Na0  1  0.19674500  0.11312800  0.44859900  1
  Na  Na1  1  0.80325500  0.38687200  0.94859900  1
  Na  Na2  1  0.80325500  0.88687200  0.55140100  1
  Na  Na3  1  0.19674500  0.61312800  0.05140100  1
  Al  Al4  1  0.67647100  0.64195700  0.35461300  1
  Al  Al5  1  0.32352900  0.85804300  0.85461300  1
  Al  Al6  1  0.32352900  0.35804300  0.64538700  1
  Al  Al7  1  0.67647100  0.14195700  0.14538700  1
  H  H8  1  0.31053400  0.52002300  0.32122200  1
  H  H9  1  0.68946600  0.97997700  0.82122200  1
  H  H10  1  0.68946600  0.47997700  0.67877800  1
  H  H11  1  0.31053400  0.02002300  0.17877800  1
  H  H12  1  0.42047200  0.64526800  0.27395300  1
  H  H13  1  0.57952800  0.85473200  0.77395300  1
  H  H14  1  0.57952800  0.35473200  0.72604700  1
  H  H15  1  0.42047200  0.14526800  0.22604700  1
  H  H16  1  0.41962800  0.64487600  0.43399200  1
  H  H17  1  0.58037200  0.85512400  0.93399200  1
  H  H18  1  0.58037200  0.35512400  0.56600800  1
  H  H19  1  0.41962800  0.14487600  0.06600800  1
  H  H20  1  0.51851500  0.44343500  0.43100200  1
  H  H21  1  0.48148500  0.05656500  0.93100200  1
  H  H22  1  0.48148500  0.55656500  0.56899800  1
  H  H23  1  0.51851500  0.94343500  0.06899800  1
  H  H24  1  0.68948000  0.93941700  0.40765900  1
  H  H25  1  0.31052000  0.56058300  0.90765900  1
  H  H26  1  0.31052000  0.06058300  0.59234100  1
  H  H27  1  0.68948000  0.43941700  0.09234100  1
  H  H28  1  0.49204000  0.93464400  0.36522600  1
  H  H29  1  0.50796000  0.56535600  0.86522600  1
  H  H30  1  0.50796000  0.06535600  0.63477400  1
  H  H31  1  0.49204000  0.43464400  0.13477400  1
  H  H32  1  0.62370400  0.31578000  0.31756400  1
  H  H33  1  0.37629600  0.18422000  0.81756400  1
  H  H34  1  0.37629600  0.68422000  0.68243600  1
  H  H35  1  0.62370400  0.81578000  0.18243600  1
  H  H36  1  0.88154300  0.35720000  0.33651400  1
  H  H37  1  0.11845700  0.14280000  0.83651400  1
  H  H38  1  0.11845700  0.64280000  0.66348600  1
  H  H39  1  0.88154300  0.85720000  0.16348600  1
  H  H40  1  0.91481000  0.86246000  0.29492500  1
  H  H41  1  0.08519000  0.63754000  0.79492500  1
  H  H42  1  0.08519000  0.13754000  0.70507500  1
  H  H43  1  0.91481000  0.36246000  0.20507500  1
  H  H44  1  0.91951600  0.66279100  0.27028200  1
  H  H45  1  0.08048400  0.83720900  0.77028200  1
  H  H46  1  0.08048400  0.33720900  0.72971800  1
  H  H47  1  0.91951600  0.16279100  0.22971800  1
  H  H48  1  0.04511000  0.73279800  0.40623300  1
  H  H49  1  0.95489000  0.76720200  0.90623300  1
  H  H50  1  0.95489000  0.26720200  0.59376700  1
  H  H51  1  0.04511000  0.23279800  0.09376700  1
  H  H52  1  0.93529200  0.54178200  0.42617600  1
  H  H53  1  0.06470800  0.95821800  0.92617600  1
  H  H54  1  0.06470800  0.45821800  0.57382400  1
  H  H55  1  0.93529200  0.04178200  0.07382400  1
  S  S56  1  0.21036300  0.14637300  0.31610000  1
  S  S57  1  0.78963700  0.35362700  0.81610000  1
  S  S58  1  0.78963700  0.85362700  0.68390000  1
  S  S59  1  0.21036300  0.64637300  0.18390000  1
  S  S60  1  0.74918200  0.21274700  0.47862700  1
  S  S61  1  0.25081800  0.28725300  0.97862700  1
  S  S62  1  0.25081800  0.78725300  0.52137300  1
  S  S63  1  0.74918200  0.71274700  0.02137300  1
  O  O64  1  0.04277700  0.05865800  0.27985300  1
  O  O65  1  0.95722300  0.44134200  0.77985300  1
  O  O66  1  0.95722300  0.94134200  0.72014700  1
  O  O67  1  0.04277700  0.55865800  0.22014700  1
  O  O68  1  0.13620300  0.31964600  0.33625400  1
  O  O69  1  0.86379700  0.18035400  0.83625400  1
  O  O70  1  0.86379700  0.68035400  0.66374600  1
  O  O71  1  0.13620300  0.81964600  0.16374600  1
  O  O72  1  0.24670200  0.02247000  0.36055300  1
  O  O73  1  0.75329800  0.47753000  0.86055300  1
  O  O74  1  0.75329800  0.97753000  0.63944700  1
  O  O75  1  0.24670200  0.52247000  0.13944700  1
  O  O76  1  0.41985300  0.18699100  0.28699300  1
  O  O77  1  0.58014700  0.31300900  0.78699300  1
  O  O78  1  0.58014700  0.81300900  0.71300700  1
  O  O79  1  0.41985300  0.68699100  0.21300700  1
  O  O80  1  0.73453300  0.21113700  0.53734700  1
  O  O81  1  0.26546700  0.28886300  0.03734700  1
  O  O82  1  0.26546700  0.78886300  0.46265300  1
  O  O83  1  0.73453300  0.71113700  0.96265300  1
  O  O84  1  0.53700400  0.26040100  0.45675300  1
  O  O85  1  0.46299600  0.23959900  0.95675300  1
  O  O86  1  0.46299600  0.73959900  0.54324700  1
  O  O87  1  0.53700400  0.76040100  0.04324700  1
  O  O88  1  0.79181600  0.02520100  0.46179000  1
  O  O89  1  0.20818400  0.47479900  0.96179000  1
  O  O90  1  0.20818400  0.97479900  0.53821000  1
  O  O91  1  0.79181600  0.52520100  0.03821000  1
  O  O92  1  0.93020800  0.34002100  0.46035900  1
  O  O93  1  0.06979200  0.15997900  0.96035900  1
  O  O94  1  0.06979200  0.65997900  0.53964100  1
  O  O95  1  0.93020800  0.84002100  0.03964100  1
  O  O96  1  0.41880500  0.62295600  0.31314300  1
  O  O97  1  0.58119500  0.87704400  0.81314300  1
  O  O98  1  0.58119500  0.37704400  0.68685700  1
  O  O99  1  0.41880500  0.12295600  0.18685700  1
  O  O100  1  0.49940700  0.56064900  0.41178700  1
  O  O101  1  0.50059300  0.93935100  0.91178700  1
  O  O102  1  0.50059300  0.43935100  0.58821300  1
  O  O103  1  0.49940700  0.06064900  0.08821300  1
  O  O104  1  0.63523000  0.88577100  0.37315500  1
  O  O105  1  0.36477000  0.61422900  0.87315500  1
  O  O106  1  0.36477000  0.11422900  0.62684500  1
  O  O107  1  0.63523000  0.38577100  0.12684400  1
  O  O108  1  0.73075700  0.40110800  0.33631200  1
  O  O109  1  0.26924300  0.09889200  0.83631200  1
  O  O110  1  0.26924300  0.59889200  0.66368800  1
  O  O111  1  0.73075700  0.90110800  0.16368800  1
  O  O112  1  0.84619600  0.73532900  0.29701700  1
  O  O113  1  0.15380400  0.76467100  0.79701700  1
  O  O114  1  0.15380400  0.26467100  0.70298300  1
  O  O115  1  0.84619600  0.23532900  0.20298300  1
  O  O116  1  0.92858600  0.63904400  0.39912500  1
  O  O117  1  0.07141400  0.86095600  0.89912500  1
  O  O118  1  0.07141400  0.36095600  0.60087500  1
  O  O119  1  0.92858600  0.13904400  0.10087500  1
