# generated using pymatgen
data_Na2AgF4
_symmetry_space_group_name_H-M   'P 1'
_cell_length_a   10.52748500
_cell_length_b   3.38467800
_cell_length_c   6.18379288
_cell_angle_alpha   65.88569748
_cell_angle_beta   90.00000000
_cell_angle_gamma   90.00000000
_symmetry_Int_Tables_number   1
_chemical_formula_structural   Na2AgF4
_chemical_formula_sum   'Na4 Ag2 F8'
_cell_volume   201.11307489
_cell_formula_units_Z   2
loop_
 _symmetry_equiv_pos_site_id
 _symmetry_equiv_pos_as_xyz
  1  'x, y, z'
loop_
 _atom_site_type_symbol
 _atom_site_label
 _atom_site_symmetry_multiplicity
 _atom_site_fract_x
 _atom_site_fract_y
 _atom_site_fract_z
 _atom_site_occupancy
  Na  Na0  1  0.65151100  0.25073400  0.96764200  1
  Na  Na1  1  0.15151100  0.74926600  0.53235800  1
  Na  Na2  1  0.34848900  0.74926600  0.03235800  1
  Na  Na3  1  0.84848900  0.25073400  0.46764200  1
  Ag  Ag4  1  0.50000000  0.00000000  0.50000000  1
  Ag  Ag5  1  0.00000000  0.00000000  0.00000000  1
  F  F6  1  0.06164400  0.42835900  0.29235800  1
  F  F7  1  0.56164400  0.57164100  0.20764200  1
  F  F8  1  0.93835600  0.57164100  0.70764200  1
  F  F9  1  0.43835600  0.42835900  0.79235800  1
  F  F10  1  0.32742200  0.04296600  0.31086700  1
  F  F11  1  0.82742200  0.95703400  0.18913300  1
  F  F12  1  0.67257800  0.95703400  0.68913300  1
  F  F13  1  0.17257800  0.04296600  0.81086700  1
