# generated using pymatgen
data_BPb7Br3O7
_symmetry_space_group_name_H-M   'P 1'
_cell_length_a   9.48051183
_cell_length_b   9.48051183
_cell_length_c   21.74053074
_cell_angle_alpha   83.02457543
_cell_angle_beta   83.02457543
_cell_angle_gamma   57.20118639
_symmetry_Int_Tables_number   1
_chemical_formula_structural   BPb7Br3O7
_chemical_formula_sum   'B4 Pb28 Br12 O28'
_cell_volume   1626.73462015
_cell_formula_units_Z   4
loop_
 _symmetry_equiv_pos_site_id
 _symmetry_equiv_pos_as_xyz
  1  'x, y, z'
loop_
 _atom_site_type_symbol
 _atom_site_label
 _atom_site_symmetry_multiplicity
 _atom_site_fract_x
 _atom_site_fract_y
 _atom_site_fract_z
 _atom_site_occupancy
  B  B0  1  0.72055600  0.71528700  0.28472900  1
  B  B1  1  0.28471300  0.27944400  0.21527100  1
  B  B2  1  0.27944400  0.28471300  0.71527100  1
  B  B3  1  0.71528700  0.72055600  0.78472900  1
  Pb  Pb4  1  0.75303300  0.62473800  0.42252400  1
  Pb  Pb5  1  0.37526200  0.24696700  0.07747600  1
  Pb  Pb6  1  0.24696700  0.37526200  0.57747600  1
  Pb  Pb7  1  0.62473800  0.75303300  0.92252400  1
  Pb  Pb8  1  0.62107400  0.31661900  0.44717700  1
  Pb  Pb9  1  0.68338100  0.37892600  0.05282300  1
  Pb  Pb10  1  0.37892600  0.68338100  0.55282300  1
  Pb  Pb11  1  0.31661900  0.62107400  0.94717700  1
  Pb  Pb12  1  0.07217200  0.15005300  0.48449500  1
  Pb  Pb13  1  0.84994700  0.92782800  0.01550500  1
  Pb  Pb14  1  0.92782800  0.84994700  0.51550500  1
  Pb  Pb15  1  0.15005300  0.07217200  0.98449500  1
  Pb  Pb16  1  0.43367100  0.10296600  0.35423000  1
  Pb  Pb17  1  0.89703400  0.56632900  0.14577000  1
  Pb  Pb18  1  0.56632900  0.89703400  0.64577000  1
  Pb  Pb19  1  0.10296600  0.43367100  0.85423000  1
  Pb  Pb20  1  0.70149600  0.22199800  0.61355400  1
  Pb  Pb21  1  0.77800200  0.29850400  0.88644600  1
  Pb  Pb22  1  0.29850400  0.77800200  0.38644600  1
  Pb  Pb23  1  0.22199800  0.70149600  0.11355400  1
  Pb  Pb24  1  0.98046900  0.24917400  0.31738000  1
  Pb  Pb25  1  0.75082600  0.01953100  0.18262000  1
  Pb  Pb26  1  0.01953100  0.75082600  0.68262000  1
  Pb  Pb27  1  0.24917400  0.98046900  0.81738000  1
  Pb  Pb28  1  0.12644500  0.59275500  0.28388800  1
  Pb  Pb29  1  0.40724500  0.87355500  0.21611200  1
  Pb  Pb30  1  0.87355500  0.40724500  0.71611200  1
  Pb  Pb31  1  0.59275500  0.12644500  0.78388800  1
  Br  Br32  1  0.19095100  0.47244000  0.41629800  1
  Br  Br33  1  0.52756000  0.80904900  0.08370200  1
  Br  Br34  1  0.80904900  0.52756000  0.58370200  1
  Br  Br35  1  0.47244000  0.19095100  0.91629800  1
  Br  Br36  1  0.54086300  0.45913700  0.25000000  1
  Br  Br37  1  0.45913700  0.54086300  0.75000000  1
  Br  Br38  1  0.50000000  0.00000000  0.50000000  1
  Br  Br39  1  0.00000000  0.50000000  0.00000000  1
  Br  Br40  1  0.88622200  0.96216800  0.34878000  1
  Br  Br41  1  0.03783200  0.11377800  0.15122000  1
  Br  Br42  1  0.11377800  0.03783200  0.65122000  1
  Br  Br43  1  0.96216800  0.88622200  0.84878000  1
  O  O44  1  0.52055700  0.61051700  0.45038600  1
  O  O45  1  0.38948300  0.47944300  0.04961400  1
  O  O46  1  0.47944300  0.38948300  0.54961400  1
  O  O47  1  0.61051700  0.52055700  0.95038600  1
  O  O48  1  0.83152700  0.13803100  0.51839700  1
  O  O49  1  0.86196900  0.16847300  0.98160300  1
  O  O50  1  0.16847300  0.86196900  0.48160300  1
  O  O51  1  0.13803100  0.83152700  0.01839700  1
  O  O52  1  0.58733800  0.79560600  0.32844000  1
  O  O53  1  0.20439400  0.41266200  0.17156000  1
  O  O54  1  0.41266200  0.20439400  0.67156000  1
  O  O55  1  0.79560600  0.58733800  0.82844000  1
  O  O56  1  0.21952800  0.06418300  0.37497200  1
  O  O57  1  0.93581700  0.78047200  0.12502800  1
  O  O58  1  0.78047200  0.93581700  0.62502800  1
  O  O59  1  0.06418300  0.21952800  0.87497200  1
  O  O60  1  0.86295800  0.34224200  0.41079000  1
  O  O61  1  0.65775800  0.13704200  0.08921000  1
  O  O62  1  0.13704200  0.65775800  0.58921000  1
  O  O63  1  0.34224200  0.86295800  0.91079000  1
  O  O64  1  0.87826700  0.58861100  0.30267700  1
  O  O65  1  0.41138900  0.12173300  0.19732300  1
  O  O66  1  0.12173300  0.41138900  0.69732300  1
  O  O67  1  0.58861100  0.87826700  0.80267700  1
  O  O68  1  0.69267300  0.76262800  0.22193100  1
  O  O69  1  0.23737200  0.30732700  0.27806900  1
  O  O70  1  0.30732700  0.23737200  0.77806900  1
  O  O71  1  0.76262800  0.69267300  0.72193100  1
