# generated using pymatgen
data_Ba5B3ClO9
_symmetry_space_group_name_H-M   'P 1'
_cell_length_a   9.24156823
_cell_length_b   9.24156823
_cell_length_c   7.99094900
_cell_angle_alpha   90.00000000
_cell_angle_beta   90.00000000
_cell_angle_gamma   109.95568430
_symmetry_Int_Tables_number   1
_chemical_formula_structural   Ba5B3ClO9
_chemical_formula_sum   'Ba10 B6 Cl2 O18'
_cell_volume   641.50144237
_cell_formula_units_Z   2
loop_
 _symmetry_equiv_pos_site_id
 _symmetry_equiv_pos_as_xyz
  1  'x, y, z'
loop_
 _atom_site_type_symbol
 _atom_site_label
 _atom_site_symmetry_multiplicity
 _atom_site_fract_x
 _atom_site_fract_y
 _atom_site_fract_z
 _atom_site_occupancy
  Ba  Ba0  1  0.23875900  0.23875900  0.00000000  1
  Ba  Ba1  1  0.76124100  0.76124100  0.50000000  1
  Ba  Ba2  1  0.99516200  0.73586500  0.05635800  1
  Ba  Ba3  1  0.73586500  0.99516200  0.94364200  1
  Ba  Ba4  1  0.00483800  0.26413500  0.55635800  1
  Ba  Ba5  1  0.26413500  0.00483800  0.44364200  1
  Ba  Ba6  1  0.63701600  0.36298400  0.25000000  1
  Ba  Ba7  1  0.36298400  0.63701600  0.75000000  1
  Ba  Ba8  1  0.35886400  0.64113600  0.25000000  1
  Ba  Ba9  1  0.64113600  0.35886400  0.75000000  1
  B  B10  1  0.40406200  0.98496900  0.03137800  1
  B  B11  1  0.98496900  0.40406200  0.96862200  1
  B  B12  1  0.59593800  0.01503100  0.53137800  1
  B  B13  1  0.01503100  0.59593800  0.46862200  1
  B  B14  1  0.62750000  0.62750000  0.00000000  1
  B  B15  1  0.37250000  0.37250000  0.50000000  1
  Cl  Cl16  1  0.95293900  0.04706100  0.25000000  1
  Cl  Cl17  1  0.04706100  0.95293900  0.75000000  1
  O  O18  1  0.49467400  0.49467400  0.00000000  1
  O  O19  1  0.50532600  0.50532600  0.50000000  1
  O  O20  1  0.50934500  0.13202900  0.99209100  1
  O  O21  1  0.13202900  0.50934500  0.00790900  1
  O  O22  1  0.49065500  0.86797100  0.49209100  1
  O  O23  1  0.86797100  0.49065500  0.50790900  1
  O  O24  1  0.85230700  0.43488000  0.01427800  1
  O  O25  1  0.43488000  0.85230700  0.98572200  1
  O  O26  1  0.14769300  0.56512000  0.51427800  1
  O  O27  1  0.56512000  0.14769300  0.48572200  1
  O  O28  1  0.31042800  0.30742700  0.65258300  1
  O  O29  1  0.30742700  0.31042800  0.34741700  1
  O  O30  1  0.68957200  0.69257300  0.15258300  1
  O  O31  1  0.69257300  0.68957200  0.84741700  1
  O  O32  1  0.27022000  0.97128400  0.11922700  1
  O  O33  1  0.97128400  0.27022000  0.88077300  1
  O  O34  1  0.72978000  0.02871600  0.61922700  1
  O  O35  1  0.02871600  0.72978000  0.38077300  1
