# generated using pymatgen
data_Cs2FeF5
_symmetry_space_group_name_H-M   'P 1'
_cell_length_a   6.09360000
_cell_length_b   8.02404600
_cell_length_c   12.86409700
_cell_angle_alpha   90.00000000
_cell_angle_beta   90.00000000
_cell_angle_gamma   90.00000000
_symmetry_Int_Tables_number   1
_chemical_formula_structural   Cs2FeF5
_chemical_formula_sum   'Cs8 Fe4 F20'
_cell_volume   628.99422559
_cell_formula_units_Z   4
loop_
 _symmetry_equiv_pos_site_id
 _symmetry_equiv_pos_as_xyz
  1  'x, y, z'
loop_
 _atom_site_type_symbol
 _atom_site_label
 _atom_site_symmetry_multiplicity
 _atom_site_fract_x
 _atom_site_fract_y
 _atom_site_fract_z
 _atom_site_occupancy
  Cs  Cs0  1  0.75000000  0.49204600  0.72557800  1
  Cs  Cs1  1  0.25000000  0.50795400  0.27442200  1
  Cs  Cs2  1  0.25000000  0.00795400  0.22557800  1
  Cs  Cs3  1  0.75000000  0.99204600  0.77442200  1
  Cs  Cs4  1  0.75000000  0.14994800  0.41572600  1
  Cs  Cs5  1  0.25000000  0.85005200  0.58427400  1
  Cs  Cs6  1  0.25000000  0.35005200  0.91572600  1
  Cs  Cs7  1  0.75000000  0.64994800  0.08427400  1
  Fe  Fe8  1  0.75000000  0.15382300  0.06134600  1
  Fe  Fe9  1  0.25000000  0.84617700  0.93865400  1
  Fe  Fe10  1  0.25000000  0.34617700  0.56134600  1
  Fe  Fe11  1  0.75000000  0.65382300  0.43865400  1
  F  F12  1  0.75000000  0.27383300  0.92888000  1
  F  F13  1  0.25000000  0.72616700  0.07112000  1
  F  F14  1  0.25000000  0.22616700  0.42888000  1
  F  F15  1  0.75000000  0.77383300  0.57112000  1
  F  F16  1  0.52152000  0.29569300  0.11569800  1
  F  F17  1  0.47848000  0.70430700  0.88430200  1
  F  F18  1  0.47848000  0.20430700  0.61569800  1
  F  F19  1  0.02152000  0.70430700  0.88430200  1
  F  F20  1  0.52152000  0.79569300  0.38430200  1
  F  F21  1  0.97848000  0.29569300  0.11569800  1
  F  F22  1  0.97848000  0.79569300  0.38430200  1
  F  F23  1  0.02152000  0.20430700  0.61569800  1
  F  F24  1  0.50000000  0.00000000  0.00000000  1
  F  F25  1  0.50000000  0.50000000  0.50000000  1
  F  F26  1  0.00000000  0.00000000  0.00000000  1
  F  F27  1  0.00000000  0.50000000  0.50000000  1
  F  F28  1  0.75000000  0.01387900  0.18249900  1
  F  F29  1  0.25000000  0.98612100  0.81750100  1
  F  F30  1  0.25000000  0.48612100  0.68249900  1
  F  F31  1  0.75000000  0.51387900  0.31750100  1
