# generated using pymatgen
data_LaSb3Pd
_symmetry_space_group_name_H-M   'P 1'
_cell_length_a   6.31829100
_cell_length_b   12.95229500
_cell_length_c   12.98275300
_cell_angle_alpha   90.00000000
_cell_angle_beta   90.00000000
_cell_angle_gamma   90.00000000
_symmetry_Int_Tables_number   1
_chemical_formula_structural   LaSb3Pd
_chemical_formula_sum   'La8 Sb24 Pd8'
_cell_volume   1062.46136421
_cell_formula_units_Z   8
loop_
 _symmetry_equiv_pos_site_id
 _symmetry_equiv_pos_as_xyz
  1  'x, y, z'
loop_
 _atom_site_type_symbol
 _atom_site_label
 _atom_site_symmetry_multiplicity
 _atom_site_fract_x
 _atom_site_fract_y
 _atom_site_fract_z
 _atom_site_occupancy
  La  La0  1  0.27410900  0.25000000  0.19058400  1
  La  La1  1  0.72589100  0.75000000  0.80941600  1
  La  La2  1  0.77410900  0.25000000  0.80941600  1
  La  La3  1  0.22589100  0.75000000  0.19058400  1
  La  La4  1  0.25000000  0.00000000  0.80064100  1
  La  La5  1  0.75000000  0.00000000  0.19935900  1
  La  La6  1  0.75000000  0.50000000  0.19935900  1
  La  La7  1  0.25000000  0.50000000  0.80064100  1
  Sb  Sb8  1  0.26760300  0.25000000  0.72645800  1
  Sb  Sb9  1  0.73239700  0.75000000  0.27354200  1
  Sb  Sb10  1  0.76760300  0.25000000  0.27354200  1
  Sb  Sb11  1  0.23239700  0.75000000  0.72645800  1
  Sb  Sb12  1  0.25000000  0.00000000  0.52600800  1
  Sb  Sb13  1  0.75000000  0.00000000  0.47399200  1
  Sb  Sb14  1  0.75000000  0.50000000  0.47399200  1
  Sb  Sb15  1  0.25000000  0.50000000  0.52600800  1
  Sb  Sb16  1  0.42107500  0.25000000  0.43684000  1
  Sb  Sb17  1  0.57892500  0.75000000  0.56316000  1
  Sb  Sb18  1  0.92107500  0.25000000  0.56316000  1
  Sb  Sb19  1  0.07892500  0.75000000  0.43684000  1
  Sb  Sb20  1  0.25000000  0.00000000  0.26513800  1
  Sb  Sb21  1  0.75000000  0.00000000  0.73486200  1
  Sb  Sb22  1  0.75000000  0.50000000  0.73486200  1
  Sb  Sb23  1  0.25000000  0.50000000  0.26513800  1
  Sb  Sb24  1  0.01415400  0.12070000  0.00251600  1
  Sb  Sb25  1  0.98584600  0.87930000  0.99748400  1
  Sb  Sb26  1  0.98584600  0.62070000  0.99748400  1
  Sb  Sb27  1  0.51415400  0.37930000  0.99748400  1
  Sb  Sb28  1  0.01415400  0.37930000  0.00251600  1
  Sb  Sb29  1  0.48584600  0.62070000  0.00251600  1
  Sb  Sb30  1  0.48584600  0.87930000  0.00251600  1
  Sb  Sb31  1  0.51415400  0.12070000  0.99748400  1
  Pd  Pd32  1  0.04914500  0.13468100  0.39775600  1
  Pd  Pd33  1  0.95085500  0.86531900  0.60224400  1
  Pd  Pd34  1  0.95085500  0.63468100  0.60224400  1
  Pd  Pd35  1  0.54914500  0.36531900  0.60224400  1
  Pd  Pd36  1  0.04914500  0.36531900  0.39775600  1
  Pd  Pd37  1  0.45085500  0.63468100  0.39775600  1
  Pd  Pd38  1  0.45085500  0.86531900  0.39775600  1
  Pd  Pd39  1  0.54914500  0.13468100  0.60224400  1
