# generated using pymatgen
data_LuAlPt
_symmetry_space_group_name_H-M   'P 1'
_cell_length_a   4.38979200
_cell_length_b   6.77984800
_cell_length_c   7.68752700
_cell_angle_alpha   90.00000000
_cell_angle_beta   90.00000000
_cell_angle_gamma   90.00000000
_symmetry_Int_Tables_number   1
_chemical_formula_structural   LuAlPt
_chemical_formula_sum   'Lu4 Al4 Pt4'
_cell_volume   228.79712039
_cell_formula_units_Z   4
loop_
 _symmetry_equiv_pos_site_id
 _symmetry_equiv_pos_as_xyz
  1  'x, y, z'
loop_
 _atom_site_type_symbol
 _atom_site_label
 _atom_site_symmetry_multiplicity
 _atom_site_fract_x
 _atom_site_fract_y
 _atom_site_fract_z
 _atom_site_occupancy
  Lu  Lu0  1  0.25000000  0.03125700  0.68003800  1
  Lu  Lu1  1  0.25000000  0.53125700  0.81996200  1
  Lu  Lu2  1  0.75000000  0.96874300  0.31996200  1
  Lu  Lu3  1  0.75000000  0.46874300  0.18003800  1
  Al  Al4  1  0.25000000  0.14640200  0.06257000  1
  Al  Al5  1  0.25000000  0.64640200  0.43743000  1
  Al  Al6  1  0.75000000  0.85359800  0.93743000  1
  Al  Al7  1  0.75000000  0.35359800  0.56257000  1
  Pt  Pt8  1  0.25000000  0.27146700  0.38186400  1
  Pt  Pt9  1  0.25000000  0.77146700  0.11813600  1
  Pt  Pt10  1  0.75000000  0.72853300  0.61813600  1
  Pt  Pt11  1  0.75000000  0.22853300  0.88186400  1
