# generated using pymatgen
data_H6C(NO)2
_symmetry_space_group_name_H-M   'P 1'
_cell_length_a   6.80490800
_cell_length_b   6.80824700
_cell_length_c   17.22612500
_cell_angle_alpha   90.00000000
_cell_angle_beta   90.00000000
_cell_angle_gamma   90.00000000
_symmetry_Int_Tables_number   1
_chemical_formula_structural   H6C(NO)2
_chemical_formula_sum   'H48 C8 N16 O16'
_cell_volume   798.07766304
_cell_formula_units_Z   8
loop_
 _symmetry_equiv_pos_site_id
 _symmetry_equiv_pos_as_xyz
  1  'x, y, z'
loop_
 _atom_site_type_symbol
 _atom_site_label
 _atom_site_symmetry_multiplicity
 _atom_site_fract_x
 _atom_site_fract_y
 _atom_site_fract_z
 _atom_site_occupancy
  H  H0  1  0.26456600  0.29309800  0.04291600  1
  H  H1  1  0.73543400  0.70690200  0.95708400  1
  H  H2  1  0.23543400  0.70690200  0.54291600  1
  H  H3  1  0.73543400  0.79309800  0.45708400  1
  H  H4  1  0.76456600  0.29309800  0.45708400  1
  H  H5  1  0.26456600  0.20690200  0.54291600  1
  H  H6  1  0.76456600  0.20690200  0.95708400  1
  H  H7  1  0.23543400  0.79309800  0.04291600  1
  H  H8  1  0.08207100  0.17111900  0.25966000  1
  H  H9  1  0.91792900  0.82888100  0.74034000  1
  H  H10  1  0.41792900  0.82888100  0.75966000  1
  H  H11  1  0.91792900  0.67111900  0.24034000  1
  H  H12  1  0.58207100  0.17111900  0.24034000  1
  H  H13  1  0.08207100  0.32888100  0.75966000  1
  H  H14  1  0.58207100  0.32888100  0.74034000  1
  H  H15  1  0.41792900  0.67111900  0.25966000  1
  H  H16  1  0.13522200  0.38948700  0.49398700  1
  H  H17  1  0.86477800  0.61051300  0.50601300  1
  H  H18  1  0.36477800  0.61051300  0.99398700  1
  H  H19  1  0.86477800  0.88948700  0.00601300  1
  H  H20  1  0.63522200  0.38948700  0.00601300  1
  H  H21  1  0.13522200  0.11051300  0.99398700  1
  H  H22  1  0.63522200  0.11051300  0.50601300  1
  H  H23  1  0.36477800  0.88948700  0.49398700  1
  H  H24  1  0.03750300  0.26486800  0.34878300  1
  H  H25  1  0.96249700  0.73513200  0.65121700  1
  H  H26  1  0.46249700  0.73513200  0.84878300  1
  H  H27  1  0.96249700  0.76486800  0.15121700  1
  H  H28  1  0.53750300  0.26486800  0.15121700  1
  H  H29  1  0.03750300  0.23513200  0.84878300  1
  H  H30  1  0.53750300  0.23513200  0.65121700  1
  H  H31  1  0.46249700  0.76486800  0.34878300  1
  H  H32  1  0.47961600  0.02225700  0.17038100  1
  H  H33  1  0.52038400  0.97774300  0.82961900  1
  H  H34  1  0.02038400  0.97774300  0.67038100  1
  H  H35  1  0.52038400  0.52225700  0.32961900  1
  H  H36  1  0.97961600  0.02225700  0.32961900  1
  H  H37  1  0.47961600  0.47774300  0.67038100  1
  H  H38  1  0.97961600  0.47774300  0.82961900  1
  H  H39  1  0.02038400  0.52225700  0.17038100  1
  H  H40  1  0.21437200  0.09206200  0.34055300  1
  H  H41  1  0.78562800  0.90793800  0.65944700  1
  H  H42  1  0.28562800  0.90793800  0.84055300  1
  H  H43  1  0.78562800  0.59206200  0.15944700  1
  H  H44  1  0.71437200  0.09206200  0.15944700  1
  H  H45  1  0.21437200  0.40793800  0.84055300  1
  H  H46  1  0.71437200  0.40793800  0.65944700  1
  H  H47  1  0.28562800  0.59206200  0.34055300  1
  C  C48  1  0.06444100  0.14712200  0.11086100  1
  C  C49  1  0.93555900  0.85287800  0.88913900  1
  C  C50  1  0.43555900  0.85287800  0.61086100  1
  C  C51  1  0.93555900  0.64712200  0.38913900  1
  C  C52  1  0.56444100  0.14712200  0.38913900  1
  C  C53  1  0.06444100  0.35287800  0.61086100  1
  C  C54  1  0.56444100  0.35287800  0.88913900  1
  C  C55  1  0.43555900  0.64712200  0.11086100  1
  N  N56  1  0.07677300  0.13688700  0.31984900  1
  N  N57  1  0.92322700  0.86311300  0.68015100  1
  N  N58  1  0.42322700  0.86311300  0.81984900  1
  N  N59  1  0.92322700  0.63688700  0.18015100  1
  N  N60  1  0.57677300  0.13688700  0.18015100  1
  N  N61  1  0.07677300  0.36311300  0.81984900  1
  N  N62  1  0.57677300  0.36311300  0.68015100  1
  N  N63  1  0.42322700  0.63688700  0.31984900  1
  N  N64  1  0.17662800  0.17331200  0.04550900  1
  N  N65  1  0.82337200  0.82668800  0.95449100  1
  N  N66  1  0.32337200  0.82668800  0.54550900  1
  N  N67  1  0.82337200  0.67331200  0.45449100  1
  N  N68  1  0.67662800  0.17331200  0.45449100  1
  N  N69  1  0.17662800  0.32668800  0.54550900  1
  N  N70  1  0.67662800  0.32668800  0.95449100  1
  N  N71  1  0.32337200  0.67331200  0.04550900  1
  O  O72  1  0.43222100  0.01115600  0.39080500  1
  O  O73  1  0.56777900  0.98884400  0.60919500  1
  O  O74  1  0.06777900  0.98884400  0.89080500  1
  O  O75  1  0.56777900  0.51115600  0.10919500  1
  O  O76  1  0.93222100  0.01115600  0.10919500  1
  O  O77  1  0.43222100  0.48884400  0.89080500  1
  O  O78  1  0.93222100  0.48884400  0.60919500  1
  O  O79  1  0.06777900  0.51115600  0.39080500  1
  O  O80  1  0.09946800  0.25673100  0.16983300  1
  O  O81  1  0.90053200  0.74326900  0.83016700  1
  O  O82  1  0.40053200  0.74326900  0.66983300  1
  O  O83  1  0.90053200  0.75673100  0.33016700  1
  O  O84  1  0.59946800  0.25673100  0.33016700  1
  O  O85  1  0.09946800  0.24326900  0.66983300  1
  O  O86  1  0.59946800  0.24326900  0.83016700  1
  O  O87  1  0.40053200  0.75673100  0.16983300  1
