# generated using pymatgen
data_Cs19(W2N5)6
_symmetry_space_group_name_H-M   'P 1'
_cell_length_a   12.31953056
_cell_length_b   12.31953056
_cell_length_c   12.31953072
_cell_angle_alpha   65.66055939
_cell_angle_beta   65.66055939
_cell_angle_gamma   65.66055343
_symmetry_Int_Tables_number   1
_chemical_formula_structural   Cs19(W2N5)6
_chemical_formula_sum   'Cs19 W12 N30'
_cell_volume   1484.57213179
_cell_formula_units_Z   1
loop_
 _symmetry_equiv_pos_site_id
 _symmetry_equiv_pos_as_xyz
  1  'x, y, z'
loop_
 _atom_site_type_symbol
 _atom_site_label
 _atom_site_symmetry_multiplicity
 _atom_site_fract_x
 _atom_site_fract_y
 _atom_site_fract_z
 _atom_site_occupancy
  Cs  Cs0  1  0.44290800  0.82802100  0.55631900  1
  Cs  Cs1  1  0.82802100  0.55631900  0.44290800  1
  Cs  Cs2  1  0.55631900  0.44290800  0.82802100  1
  Cs  Cs3  1  0.94424900  0.05507500  0.32312800  1
  Cs  Cs4  1  0.05507500  0.32312800  0.94424900  1
  Cs  Cs5  1  0.32312800  0.94424900  0.05507500  1
  Cs  Cs6  1  0.55709200  0.17197900  0.44368100  1
  Cs  Cs7  1  0.17197900  0.44368100  0.55709200  1
  Cs  Cs8  1  0.44368100  0.55709200  0.17197900  1
  Cs  Cs9  1  0.05575100  0.94492500  0.67687200  1
  Cs  Cs10  1  0.94492500  0.67687200  0.05575100  1
  Cs  Cs11  1  0.67687200  0.05575100  0.94492500  1
  Cs  Cs12  1  0.57611200  0.92312200  0.75030000  1
  Cs  Cs13  1  0.92312200  0.75030000  0.57611200  1
  Cs  Cs14  1  0.75030000  0.57611200  0.92312200  1
  Cs  Cs15  1  0.07687800  0.24970000  0.42388800  1
  Cs  Cs16  1  0.24970000  0.42388800  0.07687800  1
  Cs  Cs17  1  0.42388800  0.07687800  0.24970000  1
  Cs  Cs18  1  0.50000000  0.50000000  0.50000000  1
  W  W19  1  0.60034300  0.74444700  0.20841400  1
  W  W20  1  0.74444700  0.20841400  0.60034300  1
  W  W21  1  0.20841400  0.60034300  0.74444700  1
  W  W22  1  0.09951800  0.71026600  0.24295300  1
  W  W23  1  0.71026600  0.24295300  0.09951800  1
  W  W24  1  0.24295300  0.09951800  0.71026600  1
  W  W25  1  0.39965700  0.25555300  0.79158600  1
  W  W26  1  0.25555300  0.79158600  0.39965700  1
  W  W27  1  0.79158600  0.39965700  0.25555300  1
  W  W28  1  0.90048200  0.28973400  0.75704700  1
  W  W29  1  0.28973400  0.75704700  0.90048200  1
  W  W30  1  0.75704700  0.90048200  0.28973400  1
  N  N31  1  0.33043400  0.16955000  0.74996100  1
  N  N32  1  0.16955000  0.74996100  0.33043400  1
  N  N33  1  0.74996100  0.33043400  0.16955000  1
  N  N34  1  0.83045000  0.25003900  0.66956600  1
  N  N35  1  0.25003900  0.66956600  0.83045000  1
  N  N36  1  0.66956600  0.83045000  0.25003900  1
  N  N37  1  0.69257500  0.57080900  0.23887800  1
  N  N38  1  0.57080900  0.23887800  0.69257500  1
  N  N39  1  0.23887800  0.69257500  0.57080900  1
  N  N40  1  0.19546200  0.73509800  0.07186100  1
  N  N41  1  0.73509800  0.07186100  0.19546200  1
  N  N42  1  0.07186100  0.19546200  0.73509800  1
  N  N43  1  0.30742500  0.42919100  0.76112200  1
  N  N44  1  0.42919100  0.76112200  0.30742500  1
  N  N45  1  0.76112200  0.30742500  0.42919100  1
  N  N46  1  0.80453800  0.26490200  0.92813900  1
  N  N47  1  0.26490200  0.92813900  0.80453800  1
  N  N48  1  0.92813900  0.80453800  0.26490200  1
  N  N49  1  0.69044800  0.89367400  0.45181100  1
  N  N50  1  0.89367400  0.45181100  0.69044800  1
  N  N51  1  0.45181100  0.69044800  0.89367400  1
  N  N52  1  0.19009600  0.95311700  0.39305200  1
  N  N53  1  0.95311700  0.39305200  0.19009600  1
  N  N54  1  0.39305200  0.19009600  0.95311700  1
  N  N55  1  0.30955200  0.10632600  0.54818900  1
  N  N56  1  0.10632600  0.54818900  0.30955200  1
  N  N57  1  0.54818900  0.30955200  0.10632600  1
  N  N58  1  0.80990400  0.04688300  0.60694800  1
  N  N59  1  0.04688300  0.60694800  0.80990400  1
  N  N60  1  0.60694800  0.80990400  0.04688300  1
