# generated using pymatgen
data_EuHgPb
_symmetry_space_group_name_H-M   'P 1'
_cell_length_a   5.10258455
_cell_length_b   5.10258455
_cell_length_c   8.06445100
_cell_angle_alpha   90.00000000
_cell_angle_beta   90.00000000
_cell_angle_gamma   120.00000709
_symmetry_Int_Tables_number   1
_chemical_formula_structural   EuHgPb
_chemical_formula_sum   'Eu2 Hg2 Pb2'
_cell_volume   181.83849447
_cell_formula_units_Z   2
loop_
 _symmetry_equiv_pos_site_id
 _symmetry_equiv_pos_as_xyz
  1  'x, y, z'
loop_
 _atom_site_type_symbol
 _atom_site_label
 _atom_site_symmetry_multiplicity
 _atom_site_fract_x
 _atom_site_fract_y
 _atom_site_fract_z
 _atom_site_occupancy
  Eu  Eu0  1  0.00000000  0.00000000  0.74976000  1
  Eu  Eu1  1  0.00000000  0.00000000  0.24976000  1
  Hg  Hg2  1  0.66666700  0.33333300  0.55700900  1
  Hg  Hg3  1  0.33333300  0.66666700  0.05700900  1
  Pb  Pb4  1  0.66666700  0.33333300  0.96323100  1
  Pb  Pb5  1  0.33333300  0.66666700  0.46323100  1
