# generated using pymatgen
data_Cs3LaN18
_symmetry_space_group_name_H-M   'P 1'
_cell_length_a   9.51863800
_cell_length_b   9.75493637
_cell_length_c   10.17792817
_cell_angle_alpha   97.75669603
_cell_angle_beta   110.20065822
_cell_angle_gamma   102.46177240
_symmetry_Int_Tables_number   1
_chemical_formula_structural   Cs3LaN18
_chemical_formula_sum   'Cs6 La2 N36'
_cell_volume   843.09982852
_cell_formula_units_Z   2
loop_
 _symmetry_equiv_pos_site_id
 _symmetry_equiv_pos_as_xyz
  1  'x, y, z'
loop_
 _atom_site_type_symbol
 _atom_site_label
 _atom_site_symmetry_multiplicity
 _atom_site_fract_x
 _atom_site_fract_y
 _atom_site_fract_z
 _atom_site_occupancy
  Cs  Cs0  1  0.72913100  0.91170600  0.86340800  1
  Cs  Cs1  1  0.27086900  0.08829400  0.13659200  1
  Cs  Cs2  1  0.77258500  0.53065900  0.11491700  1
  Cs  Cs3  1  0.22741500  0.46934100  0.88508300  1
  Cs  Cs4  1  0.80919900  0.08977700  0.33152200  1
  Cs  Cs5  1  0.19080100  0.91022300  0.66847800  1
  La  La6  1  0.68035200  0.38729800  0.62271300  1
  La  La7  1  0.31964800  0.61270200  0.37728700  1
  N  N8  1  0.52416500  0.11198300  0.46707500  1
  N  N9  1  0.47583500  0.88801700  0.53292500  1
  N  N10  1  0.50000000  0.00000000  0.50000000  1
  N  N11  1  0.93997000  0.51311300  0.58355500  1
  N  N12  1  0.06003000  0.48688700  0.41644500  1
  N  N13  1  0.00000000  0.50000000  0.50000000  1
  N  N14  1  0.63051200  0.63234200  0.53445400  1
  N  N15  1  0.36948800  0.36765800  0.46554600  1
  N  N16  1  0.72255300  0.71706200  0.50682500  1
  N  N17  1  0.27744700  0.28293800  0.49317500  1
  N  N18  1  0.81064000  0.79935900  0.47853600  1
  N  N19  1  0.18936000  0.20064100  0.52146400  1
  N  N20  1  0.86623800  0.22965800  0.66774300  1
  N  N21  1  0.13376200  0.77034200  0.33225700  1
  N  N22  1  0.94687000  0.17133300  0.74424500  1
  N  N23  1  0.05313000  0.82866700  0.25575500  1
  N  N24  1  0.02931500  0.11485800  0.81994400  1
  N  N25  1  0.97068500  0.88514200  0.18005600  1
  N  N26  1  0.88326400  0.56912100  0.85547300  1
  N  N27  1  0.11673600  0.43087900  0.14452700  1
  N  N28  1  0.98632300  0.67570600  0.87904200  1
  N  N29  1  0.01367700  0.32429400  0.12095800  1
  N  N30  1  0.08909600  0.77949200  0.90294100  1
  N  N31  1  0.91090400  0.22050800  0.09705900  1
  N  N32  1  0.54093500  0.52803400  0.78587300  1
  N  N33  1  0.45906500  0.47196600  0.21412700  1
  N  N34  1  0.45502400  0.59095000  0.72441600  1
  N  N35  1  0.54497600  0.40905000  0.27558400  1
  N  N36  1  0.36718300  0.65230900  0.66243800  1
  N  N37  1  0.63281700  0.34769100  0.33756200  1
  N  N38  1  0.60614300  0.23597500  0.78669700  1
  N  N39  1  0.39385700  0.76402500  0.21330300  1
  N  N40  1  0.53360800  0.21624400  0.86052000  1
  N  N41  1  0.46639200  0.78375600  0.13948000  1
  N  N42  1  0.46260600  0.19407100  0.93424100  1
  N  N43  1  0.53739400  0.80592900  0.06575900  1
