# generated using pymatgen
data_CrGeSbO6
_symmetry_space_group_name_H-M   'P 1'
_cell_length_a   4.60414200
_cell_length_b   9.20828400
_cell_length_c   9.12888200
_cell_angle_alpha   90.00000000
_cell_angle_beta   90.00000000
_cell_angle_gamma   90.00000000
_symmetry_Int_Tables_number   1
_chemical_formula_structural   CrGeSbO6
_chemical_formula_sum   'Cr4 Ge4 Sb4 O24'
_cell_volume   387.03033713
_cell_formula_units_Z   4
loop_
 _symmetry_equiv_pos_site_id
 _symmetry_equiv_pos_as_xyz
  1  'x, y, z'
loop_
 _atom_site_type_symbol
 _atom_site_label
 _atom_site_symmetry_multiplicity
 _atom_site_fract_x
 _atom_site_fract_y
 _atom_site_fract_z
 _atom_site_occupancy
  Cr  Cr0  1  0.50000000  0.75000000  0.16677600  1
  Cr  Cr1  1  0.00000000  0.50000000  0.66677600  1
  Cr  Cr2  1  0.50000000  0.25000000  0.16677600  1
  Cr  Cr3  1  0.00000000  0.00000000  0.66677600  1
  Ge  Ge4  1  0.50000000  0.25000000  0.49961500  1
  Ge  Ge5  1  0.50000000  0.75000000  0.49961500  1
  Ge  Ge6  1  0.00000000  0.00000000  0.99961500  1
  Ge  Ge7  1  0.00000000  0.50000000  0.99961500  1
  Sb  Sb8  1  0.50000000  0.25000000  0.83366700  1
  Sb  Sb9  1  0.50000000  0.75000000  0.83366700  1
  Sb  Sb10  1  0.00000000  0.00000000  0.33366700  1
  Sb  Sb11  1  0.00000000  0.50000000  0.33366700  1
  O  O12  1  0.19040400  0.40479800  0.16106800  1
  O  O13  1  0.19040400  0.90479800  0.16106800  1
  O  O14  1  0.80959600  0.09520200  0.16106800  1
  O  O15  1  0.80959600  0.59520200  0.16106800  1
  O  O16  1  0.30959600  0.15479800  0.66106800  1
  O  O17  1  0.30959600  0.65479800  0.66106800  1
  O  O18  1  0.69040400  0.34520200  0.66106800  1
  O  O19  1  0.69040400  0.84520200  0.66106800  1
  O  O20  1  0.20122500  0.39938800  0.49943900  1
  O  O21  1  0.20122500  0.89938800  0.49943900  1
  O  O22  1  0.79877500  0.10061200  0.49943900  1
  O  O23  1  0.79877500  0.60061200  0.49943900  1
  O  O24  1  0.29877500  0.14938800  0.99943900  1
  O  O25  1  0.29877500  0.64938800  0.99943900  1
  O  O26  1  0.70122500  0.35061200  0.99943900  1
  O  O27  1  0.70122500  0.85061200  0.99943900  1
  O  O28  1  0.18971700  0.40514100  0.83946400  1
  O  O29  1  0.18971700  0.90514100  0.83946400  1
  O  O30  1  0.81028300  0.09485900  0.83946400  1
  O  O31  1  0.81028300  0.59485900  0.83946400  1
  O  O32  1  0.31028300  0.15514100  0.33946400  1
  O  O33  1  0.31028300  0.65514100  0.33946400  1
  O  O34  1  0.68971700  0.34485900  0.33946400  1
  O  O35  1  0.68971700  0.84485900  0.33946400  1
