# generated using pymatgen
data_LuSeO3F
_symmetry_space_group_name_H-M   'P 1'
_cell_length_a   6.92674700
_cell_length_b   4.29940100
_cell_length_c   6.52822166
_cell_angle_alpha   84.71402932
_cell_angle_beta   90.00000000
_cell_angle_gamma   90.00000000
_symmetry_Int_Tables_number   1
_chemical_formula_structural   LuSeO3F
_chemical_formula_sum   'Lu2 Se2 O6 F2'
_cell_volume   193.58927878
_cell_formula_units_Z   2
loop_
 _symmetry_equiv_pos_site_id
 _symmetry_equiv_pos_as_xyz
  1  'x, y, z'
loop_
 _atom_site_type_symbol
 _atom_site_label
 _atom_site_symmetry_multiplicity
 _atom_site_fract_x
 _atom_site_fract_y
 _atom_site_fract_z
 _atom_site_occupancy
  Lu  Lu0  1  0.25000000  0.53651700  0.36940700  1
  Lu  Lu1  1  0.75000000  0.46348300  0.63059300  1
  Se  Se2  1  0.75000000  0.67858900  0.14799200  1
  Se  Se3  1  0.25000000  0.32141100  0.85200800  1
  O  O4  1  0.25000000  0.58751500  0.02781500  1
  O  O5  1  0.75000000  0.41248500  0.97218500  1
  O  O6  1  0.57167300  0.54633400  0.32400400  1
  O  O7  1  0.07167300  0.45366600  0.67599600  1
  O  O8  1  0.42832700  0.45366600  0.67599600  1
  O  O9  1  0.92832700  0.54633400  0.32400400  1
  F  F10  1  0.25000000  0.03685000  0.35868600  1
  F  F11  1  0.75000000  0.96315000  0.64131400  1
