# generated using pymatgen
data_CaB2F8
_symmetry_space_group_name_H-M   'P 1'
_cell_length_a   9.05665300
_cell_length_b   9.41320200
_cell_length_c   13.59525400
_cell_angle_alpha   90.00000000
_cell_angle_beta   90.00000000
_cell_angle_gamma   90.00000000
_symmetry_Int_Tables_number   1
_chemical_formula_structural   CaB2F8
_chemical_formula_sum   'Ca8 B16 F64'
_cell_volume   1159.02400972
_cell_formula_units_Z   8
loop_
 _symmetry_equiv_pos_site_id
 _symmetry_equiv_pos_as_xyz
  1  'x, y, z'
loop_
 _atom_site_type_symbol
 _atom_site_label
 _atom_site_symmetry_multiplicity
 _atom_site_fract_x
 _atom_site_fract_y
 _atom_site_fract_z
 _atom_site_occupancy
  Ca  Ca0  1  0.78075000  0.46609100  0.39616400  1
  Ca  Ca1  1  0.28075000  0.53390900  0.10383600  1
  Ca  Ca2  1  0.71925000  0.96609100  0.60383600  1
  Ca  Ca3  1  0.21925000  0.03390900  0.89616400  1
  Ca  Ca4  1  0.21925000  0.53390900  0.60383600  1
  Ca  Ca5  1  0.71925000  0.46609100  0.89616400  1
  Ca  Ca6  1  0.28075000  0.03390900  0.39616400  1
  Ca  Ca7  1  0.78075000  0.96609100  0.10383600  1
  B  B8  1  0.00275100  0.72115800  0.94368200  1
  B  B9  1  0.67574900  0.10358700  0.34121400  1
  B  B10  1  0.17574900  0.89641300  0.15878600  1
  B  B11  1  0.82425100  0.60358700  0.65878600  1
  B  B12  1  0.32425100  0.39641300  0.84121400  1
  B  B13  1  0.32425100  0.89641300  0.65878600  1
  B  B14  1  0.82425100  0.10358700  0.84121400  1
  B  B15  1  0.17574900  0.39641300  0.34121400  1
  B  B16  1  0.67574900  0.60358700  0.15878600  1
  B  B17  1  0.50275100  0.27884200  0.55631800  1
  B  B18  1  0.49724900  0.22115700  0.05631800  1
  B  B19  1  0.99724900  0.77884200  0.44368200  1
  B  B20  1  0.99724900  0.27884200  0.05631800  1
  B  B21  1  0.49724900  0.72115800  0.44368200  1
  B  B22  1  0.50275100  0.77884200  0.94368200  1
  B  B23  1  0.00275100  0.22115700  0.55631800  1
  F  F24  1  0.97897600  0.08549700  0.83100600  1
  F  F25  1  0.74967600  0.51302700  0.22592200  1
  F  F26  1  0.24967600  0.48697300  0.27407800  1
  F  F27  1  0.75032400  0.01302700  0.77407800  1
  F  F28  1  0.25032400  0.98697300  0.72592200  1
  F  F29  1  0.25032400  0.48697300  0.77407800  1
  F  F30  1  0.75032400  0.51302700  0.72592200  1
  F  F31  1  0.24967600  0.98697300  0.22592200  1
  F  F32  1  0.90445200  0.81306900  0.99453200  1
  F  F33  1  0.40445200  0.18693100  0.50546800  1
  F  F34  1  0.59554800  0.31306900  0.00546800  1
  F  F35  1  0.09554800  0.68693100  0.49453200  1
  F  F36  1  0.09554800  0.18693100  0.00546800  1
  F  F37  1  0.59554800  0.81306900  0.49453200  1
  F  F38  1  0.40445200  0.68693100  0.99453200  1
  F  F39  1  0.90445200  0.31306900  0.50546800  1
  F  F40  1  0.58020100  0.12731600  0.11594000  1
  F  F41  1  0.08020100  0.87268400  0.38406000  1
  F  F42  1  0.91979900  0.62731600  0.88406000  1
  F  F43  1  0.41979900  0.37268400  0.61594000  1
  F  F44  1  0.41979900  0.87268400  0.88406000  1
  F  F45  1  0.91979900  0.12731600  0.61594000  1
  F  F46  1  0.08020100  0.37268400  0.11594000  1
  F  F47  1  0.58020100  0.62731600  0.38406000  1
  F  F48  1  0.90226400  0.19520000  0.11520100  1
  F  F49  1  0.40226400  0.80480000  0.38479900  1
  F  F50  1  0.59773600  0.69520000  0.88479900  1
  F  F51  1  0.09773600  0.30480000  0.61520100  1
  F  F52  1  0.09773600  0.80480000  0.88479900  1
  F  F53  1  0.59773600  0.19520000  0.61520100  1
  F  F54  1  0.40226400  0.30480000  0.11520100  1
  F  F55  1  0.90226400  0.69520000  0.38479900  1
  F  F56  1  0.58479200  0.85833700  0.01280400  1
  F  F57  1  0.08479200  0.14166300  0.48719600  1
  F  F58  1  0.91520800  0.35833700  0.98719600  1
  F  F59  1  0.41520800  0.64166300  0.51280400  1
  F  F60  1  0.41520800  0.14166300  0.98719600  1
  F  F61  1  0.91520800  0.85833700  0.51280400  1
  F  F62  1  0.08479200  0.64166300  0.01280400  1
  F  F63  1  0.58479200  0.35833700  0.48719600  1
  F  F64  1  0.52102400  0.58549700  0.16899400  1
  F  F65  1  0.02102400  0.41450300  0.33100600  1
  F  F66  1  0.74967600  0.01302700  0.27407800  1
  F  F67  1  0.47897600  0.91450300  0.66899400  1
  F  F68  1  0.47897600  0.41450300  0.83100600  1
  F  F69  1  0.97897600  0.58549700  0.66899400  1
  F  F70  1  0.02102400  0.91450300  0.16899400  1
  F  F71  1  0.52102400  0.08549700  0.33100600  1
  F  F72  1  0.71814600  0.56927500  0.06126700  1
  F  F73  1  0.21814600  0.43072500  0.43873300  1
  F  F74  1  0.71528300  0.24639200  0.32086800  1
  F  F75  1  0.28185400  0.93072500  0.56126700  1
  F  F76  1  0.28185400  0.43072500  0.93873300  1
  F  F77  1  0.78185400  0.56927500  0.56126700  1
  F  F78  1  0.21814600  0.93072500  0.06126700  1
  F  F79  1  0.71814600  0.06927500  0.43873300  1
  F  F80  1  0.71528300  0.74639200  0.17913200  1
  F  F81  1  0.21528300  0.25360800  0.32086800  1
  F  F82  1  0.78471700  0.24639200  0.82086800  1
  F  F83  1  0.28471700  0.75360800  0.67913200  1
  F  F84  1  0.28471700  0.25360800  0.82086800  1
  F  F85  1  0.78471700  0.74639200  0.67913200  1
  F  F86  1  0.21528300  0.75360800  0.17913200  1
  F  F87  1  0.78185400  0.06927500  0.93873300  1
