# generated using pymatgen
data_CsTa4P3S19
_symmetry_space_group_name_H-M   'P 1'
_cell_length_a   8.74631642
_cell_length_b   12.89346037
_cell_length_c   27.55663733
_cell_angle_alpha   90.00000000
_cell_angle_beta   90.00000000
_cell_angle_gamma   90.00000000
_symmetry_Int_Tables_number   1
_chemical_formula_structural   CsTa4P3S19
_chemical_formula_sum   'Cs4 Ta16 P12 S76'
_cell_volume   3107.56982178
_cell_formula_units_Z   4
loop_
 _symmetry_equiv_pos_site_id
 _symmetry_equiv_pos_as_xyz
  1  'x, y, z'
loop_
 _atom_site_type_symbol
 _atom_site_label
 _atom_site_symmetry_multiplicity
 _atom_site_fract_x
 _atom_site_fract_y
 _atom_site_fract_z
 _atom_site_occupancy
  Cs  Cs0  1  0.45702407  0.59823689  0.51939849  1
  Cs  Cs1  1  0.54297593  0.40176311  0.01939849  1
  Cs  Cs2  1  0.54297593  0.09823689  0.51939849  1
  Cs  Cs3  1  0.45702407  0.90176311  0.01939849  1
  Ta  Ta4  1  0.33161151  0.38183495  0.68785320  1
  Ta  Ta5  1  0.66838849  0.61816505  0.18785320  1
  Ta  Ta6  1  0.33109150  0.11680265  0.31298466  1
  Ta  Ta7  1  0.66890850  0.88319735  0.81298466  1
  Ta  Ta8  1  0.66890850  0.61680265  0.31298466  1
  Ta  Ta9  1  0.33109150  0.38319735  0.81298466  1
  Ta  Ta10  1  0.66838849  0.88183495  0.68785320  1
  Ta  Ta11  1  0.33161151  0.11816505  0.18785320  1
  Ta  Ta12  1  0.02577661  0.34179232  0.61226694  1
  Ta  Ta13  1  0.97422339  0.65820768  0.11226694  1
  Ta  Ta14  1  0.02542126  0.15923843  0.38782220  1
  Ta  Ta15  1  0.97457874  0.84076157  0.88782220  1
  Ta  Ta16  1  0.97457874  0.65923843  0.38782220  1
  Ta  Ta17  1  0.02542126  0.34076157  0.88782220  1
  Ta  Ta18  1  0.97422339  0.84179232  0.61226694  1
  Ta  Ta19  1  0.02577661  0.15820768  0.11226694  1
  P  P20  1  0.03473231  0.25037464  0.49954127  1
  P  P21  1  0.96526769  0.74962536  0.99954127  1
  P  P22  1  0.96526769  0.75037464  0.49954127  1
  P  P23  1  0.03473231  0.24962536  0.99954127  1
  P  P24  1  0.33040415  0.89698765  0.63894258  1
  P  P25  1  0.66959585  0.10301235  0.13894258  1
  P  P26  1  0.33123125  0.60305116  0.36101644  1
  P  P27  1  0.66876875  0.39694884  0.86101644  1
  P  P28  1  0.66876875  0.10305116  0.36101644  1
  P  P29  1  0.33123125  0.89694884  0.86101644  1
  P  P30  1  0.66959585  0.39698765  0.63894258  1
  P  P31  1  0.33040415  0.60301235  0.13894258  1
  S  S32  1  0.55469626  0.50307532  0.68115513  1
  S  S33  1  0.44530374  0.49692468  0.18115513  1
  S  S34  1  0.55522889  0.99706534  0.31846377  1
  S  S35  1  0.44477111  0.00293466  0.81846377  1
  S  S36  1  0.44477111  0.49706534  0.31846377  1
  S  S37  1  0.55522889  0.50293466  0.81846377  1
  S  S38  1  0.44530374  0.00307532  0.68115513  1
  S  S39  1  0.55469626  0.99692468  0.18115513  1
  S  S40  1  0.17141392  0.22978138  0.65770699  1
  S  S41  1  0.82858608  0.77021862  0.15770699  1
  S  S42  1  0.17183605  0.27020324  0.34220293  1
  S  S43  1  0.82816395  0.72979676  0.84220293  1
  S  S44  1  0.82816395  0.77020324  0.34220293  1
  S  S45  1  0.17183605  0.22979676  0.84220293  1
  S  S46  1  0.82858608  0.72978138  0.65770699  1
  S  S47  1  0.17141392  0.27021862  0.15770699  1
  S  S48  1  0.43823148  0.27586058  0.74995624  1
  S  S49  1  0.56176852  0.72413942  0.24995624  1
  S  S50  1  0.43823148  0.22413942  0.24995624  1
  S  S51  1  0.56176852  0.77586058  0.74995624  1
  S  S52  1  0.48537544  0.30274507  0.62113798  1
  S  S53  1  0.51462456  0.69725493  0.12113798  1
  S  S54  1  0.48568244  0.19781387  0.37885468  1
  S  S55  1  0.51431756  0.80218613  0.87885468  1
  S  S56  1  0.51431756  0.69781387  0.37885468  1
  S  S57  1  0.48568244  0.30218613  0.87885468  1
  S  S58  1  0.51462456  0.80274507  0.62113798  1
  S  S59  1  0.48537544  0.19725493  0.12113798  1
  S  S60  1  0.91384221  0.19788650  0.55850480  1
  S  S61  1  0.08615779  0.80211350  0.05850480  1
  S  S62  1  0.91136939  0.30217853  0.44150377  1
  S  S63  1  0.08863061  0.69782147  0.94150377  1
  S  S64  1  0.08863061  0.80217853  0.44150377  1
  S  S65  1  0.91136939  0.19782147  0.94150377  1
  S  S66  1  0.08615779  0.69788650  0.55850480  1
  S  S67  1  0.91384221  0.30211350  0.05850480  1
  S  S68  1  0.17176915  0.80630022  0.67455844  1
  S  S69  1  0.82823085  0.19369978  0.17455844  1
  S  S70  1  0.17149217  0.69332378  0.32544594  1
  S  S71  1  0.82850783  0.30667622  0.82544594  1
  S  S72  1  0.82850783  0.19332378  0.32544594  1
  S  S73  1  0.17149217  0.80667622  0.82544594  1
  S  S74  1  0.82823085  0.30630022  0.67455844  1
  S  S75  1  0.17176915  0.69369978  0.17455844  1
  S  S76  1  0.15756444  0.36848197  0.53194559  1
  S  S77  1  0.84243556  0.63151803  0.03194559  1
  S  S78  1  0.15660452  0.13067333  0.46837287  1
  S  S79  1  0.84339548  0.86932667  0.96837287  1
  S  S80  1  0.84339548  0.63067333  0.46837287  1
  S  S81  1  0.15660452  0.36932667  0.96837287  1
  S  S82  1  0.84243556  0.86848197  0.53194559  1
  S  S83  1  0.15756444  0.13151803  0.03194559  1
  S  S84  1  0.11586199  0.40903062  0.75005083  1
  S  S85  1  0.88413801  0.59096938  0.25005083  1
  S  S86  1  0.11586199  0.09096938  0.25005083  1
  S  S87  1  0.88413801  0.90903062  0.75005083  1
  S  S88  1  0.27601345  0.52426034  0.74993248  1
  S  S89  1  0.72398655  0.47573966  0.24993248  1
  S  S90  1  0.27601345  0.97573966  0.24993248  1
  S  S91  1  0.72398655  0.02426034  0.74993248  1
  S  S92  1  0.20677054  0.96206555  0.58483486  1
  S  S93  1  0.79322946  0.03793445  0.08483486  1
  S  S94  1  0.20609431  0.53782901  0.41498892  1
  S  S95  1  0.79390569  0.46217099  0.91498892  1
  S  S96  1  0.79390569  0.03782901  0.41498892  1
  S  S97  1  0.20609431  0.96217099  0.91498892  1
  S  S98  1  0.79322946  0.46206555  0.58483486  1
  S  S99  1  0.20677054  0.53793445  0.08483486  1
  S  S100  1  0.16335849  0.48974524  0.63450209  1
  S  S101  1  0.83664151  0.51025476  0.13450209  1
  S  S102  1  0.16272691  0.01072732  0.36525591  1
  S  S103  1  0.83727309  0.98927268  0.86525591  1
  S  S104  1  0.83727309  0.51072732  0.36525591  1
  S  S105  1  0.16272691  0.48927268  0.86525591  1
  S  S106  1  0.83664151  0.98974524  0.63450209  1
  S  S107  1  0.16335849  0.01025476  0.13450209  1
