# generated using pymatgen
data_Dy3Pt
_symmetry_space_group_name_H-M   'P 1'
_cell_length_a   6.52939400
_cell_length_b   7.02794800
_cell_length_c   9.59495400
_cell_angle_alpha   90.00000000
_cell_angle_beta   90.00000000
_cell_angle_gamma   90.00000000
_symmetry_Int_Tables_number   1
_chemical_formula_structural   Dy3Pt
_chemical_formula_sum   'Dy12 Pt4'
_cell_volume   440.29556637
_cell_formula_units_Z   4
loop_
 _symmetry_equiv_pos_site_id
 _symmetry_equiv_pos_as_xyz
  1  'x, y, z'
loop_
 _atom_site_type_symbol
 _atom_site_label
 _atom_site_symmetry_multiplicity
 _atom_site_fract_x
 _atom_site_fract_y
 _atom_site_fract_z
 _atom_site_occupancy
  Dy  Dy0  1  0.32133100  0.68003200  0.06125000  1
  Dy  Dy1  1  0.17866900  0.18003200  0.43875000  1
  Dy  Dy2  1  0.67866900  0.31996800  0.56125000  1
  Dy  Dy3  1  0.82133100  0.81996800  0.93875000  1
  Dy  Dy4  1  0.67866900  0.31996800  0.93875000  1
  Dy  Dy5  1  0.82133100  0.81996800  0.56125000  1
  Dy  Dy6  1  0.32133100  0.68003200  0.43875000  1
  Dy  Dy7  1  0.17866900  0.18003200  0.06125000  1
  Dy  Dy8  1  0.86700700  0.52808600  0.25000000  1
  Dy  Dy9  1  0.63299300  0.02808600  0.25000000  1
  Dy  Dy10  1  0.13299300  0.47191400  0.75000000  1
  Dy  Dy11  1  0.36700700  0.97191400  0.75000000  1
  Pt  Pt12  1  0.05108400  0.88943200  0.25000000  1
  Pt  Pt13  1  0.44891600  0.38943200  0.25000000  1
  Pt  Pt14  1  0.94891600  0.11056800  0.75000000  1
  Pt  Pt15  1  0.55108400  0.61056800  0.75000000  1
