# generated using pymatgen
data_Ce3(Sn3Pd2)2
_symmetry_space_group_name_H-M   'P 1'
_cell_length_a   4.65451200
_cell_length_b   15.69109700
_cell_length_c   16.85050200
_cell_angle_alpha   90.00000000
_cell_angle_beta   90.00000000
_cell_angle_gamma   90.00000000
_symmetry_Int_Tables_number   1
_chemical_formula_structural   Ce3(Sn3Pd2)2
_chemical_formula_sum   'Ce12 Sn24 Pd16'
_cell_volume   1230.66629113
_cell_formula_units_Z   4
loop_
 _symmetry_equiv_pos_site_id
 _symmetry_equiv_pos_as_xyz
  1  'x, y, z'
loop_
 _atom_site_type_symbol
 _atom_site_label
 _atom_site_symmetry_multiplicity
 _atom_site_fract_x
 _atom_site_fract_y
 _atom_site_fract_z
 _atom_site_occupancy
  Ce  Ce0  1  0.25000000  0.61763900  0.64282700  1
  Ce  Ce1  1  0.75000000  0.38236100  0.35717300  1
  Ce  Ce2  1  0.75000000  0.11763900  0.85717300  1
  Ce  Ce3  1  0.25000000  0.88236100  0.14282700  1
  Ce  Ce4  1  0.25000000  0.75219900  0.38437000  1
  Ce  Ce5  1  0.75000000  0.24780100  0.61563000  1
  Ce  Ce6  1  0.75000000  0.25219900  0.11563000  1
  Ce  Ce7  1  0.25000000  0.74780100  0.88437000  1
  Ce  Ce8  1  0.25000000  0.01743700  0.35076100  1
  Ce  Ce9  1  0.75000000  0.98256300  0.64923900  1
  Ce  Ce10  1  0.75000000  0.51743700  0.14923900  1
  Ce  Ce11  1  0.25000000  0.48256300  0.85076100  1
  Sn  Sn12  1  0.25000000  0.58021900  0.02569600  1
  Sn  Sn13  1  0.75000000  0.41978100  0.97430400  1
  Sn  Sn14  1  0.75000000  0.08021900  0.47430400  1
  Sn  Sn15  1  0.25000000  0.91978100  0.52569600  1
  Sn  Sn16  1  0.25000000  0.54116600  0.44918300  1
  Sn  Sn17  1  0.75000000  0.45883400  0.55081700  1
  Sn  Sn18  1  0.75000000  0.04116600  0.05081700  1
  Sn  Sn19  1  0.25000000  0.95883400  0.94918300  1
  Sn  Sn20  1  0.25000000  0.23145100  0.44450100  1
  Sn  Sn21  1  0.75000000  0.76854900  0.55549900  1
  Sn  Sn22  1  0.75000000  0.73145100  0.05549900  1
  Sn  Sn23  1  0.25000000  0.26854900  0.94450100  1
  Sn  Sn24  1  0.25000000  0.37970600  0.20632100  1
  Sn  Sn25  1  0.75000000  0.62029400  0.79367900  1
  Sn  Sn26  1  0.75000000  0.87970600  0.29367900  1
  Sn  Sn27  1  0.25000000  0.12029400  0.70632100  1
  Sn  Sn28  1  0.25000000  0.10641800  0.17159300  1
  Sn  Sn29  1  0.75000000  0.89358200  0.82840700  1
  Sn  Sn30  1  0.75000000  0.60641800  0.32840700  1
  Sn  Sn31  1  0.25000000  0.39358200  0.67159300  1
  Sn  Sn32  1  0.25000000  0.66357700  0.18901700  1
  Sn  Sn33  1  0.75000000  0.33642300  0.81098300  1
  Sn  Sn34  1  0.75000000  0.16357700  0.31098300  1
  Sn  Sn35  1  0.25000000  0.83642300  0.68901700  1
  Pd  Pd36  1  0.25000000  0.52529900  0.29057600  1
  Pd  Pd37  1  0.75000000  0.47470100  0.70942400  1
  Pd  Pd38  1  0.75000000  0.02529900  0.20942400  1
  Pd  Pd39  1  0.25000000  0.97470100  0.79057600  1
  Pd  Pd40  1  0.25000000  0.11960700  0.01023000  1
  Pd  Pd41  1  0.75000000  0.88039300  0.98977000  1
  Pd  Pd42  1  0.75000000  0.61960700  0.48977000  1
  Pd  Pd43  1  0.25000000  0.38039300  0.51023000  1
  Pd  Pd44  1  0.25000000  0.23375900  0.28332500  1
  Pd  Pd45  1  0.75000000  0.76624100  0.71667500  1
  Pd  Pd46  1  0.75000000  0.73375900  0.21667500  1
  Pd  Pd47  1  0.25000000  0.26624100  0.78332500  1
  Pd  Pd48  1  0.25000000  0.40073000  0.04772400  1
  Pd  Pd49  1  0.75000000  0.59927000  0.95227600  1
  Pd  Pd50  1  0.75000000  0.90073000  0.45227600  1
  Pd  Pd51  1  0.25000000  0.09927000  0.54772400  1
