# generated using pymatgen
data_Ca3ZrSi2O9
_symmetry_space_group_name_H-M   'P 1'
_cell_length_a   10.33124900
_cell_length_b   7.44342400
_cell_length_c   10.52680598
_cell_angle_alpha   88.92726676
_cell_angle_beta   90.00000000
_cell_angle_gamma   90.00000000
_symmetry_Int_Tables_number   1
_chemical_formula_structural   Ca3ZrSi2O9
_chemical_formula_sum   'Ca12 Zr4 Si8 O36'
_cell_volume   809.36809852
_cell_formula_units_Z   4
loop_
 _symmetry_equiv_pos_site_id
 _symmetry_equiv_pos_as_xyz
  1  'x, y, z'
loop_
 _atom_site_type_symbol
 _atom_site_label
 _atom_site_symmetry_multiplicity
 _atom_site_fract_x
 _atom_site_fract_y
 _atom_site_fract_z
 _atom_site_occupancy
  Ca  Ca0  1  0.92286200  0.36489000  0.11410100  1
  Ca  Ca1  1  0.42286200  0.63511000  0.38589900  1
  Ca  Ca2  1  0.07713800  0.63511000  0.88589900  1
  Ca  Ca3  1  0.57713800  0.36489000  0.61410100  1
  Ca  Ca4  1  0.32493800  0.88118900  0.08960500  1
  Ca  Ca5  1  0.82493800  0.11881100  0.41039500  1
  Ca  Ca6  1  0.67506200  0.11881100  0.91039500  1
  Ca  Ca7  1  0.17506200  0.88118900  0.58960500  1
  Ca  Ca8  1  0.30381100  0.37298400  0.09928700  1
  Ca  Ca9  1  0.80381100  0.62701600  0.40071300  1
  Ca  Ca10  1  0.69618900  0.62701600  0.90071300  1
  Ca  Ca11  1  0.19618900  0.37298400  0.59928700  1
  Zr  Zr12  1  0.56398800  0.87648100  0.61514400  1
  Zr  Zr13  1  0.06398800  0.12351900  0.88485600  1
  Zr  Zr14  1  0.43601200  0.12351900  0.38485600  1
  Zr  Zr15  1  0.93601200  0.87648100  0.11514400  1
  Si  Si16  1  0.13501700  0.59765500  0.31057800  1
  Si  Si17  1  0.63501700  0.40234500  0.18942200  1
  Si  Si18  1  0.86498300  0.40234500  0.68942200  1
  Si  Si19  1  0.36498300  0.59765500  0.81057800  1
  Si  Si20  1  0.12432200  0.16636000  0.31807700  1
  Si  Si21  1  0.62432200  0.83364000  0.18192300  1
  Si  Si22  1  0.87567800  0.83364000  0.68192300  1
  Si  Si23  1  0.37567800  0.16636000  0.81807700  1
  O  O24  1  0.39217200  0.34394900  0.48468800  1
  O  O25  1  0.89217200  0.65605100  0.01531200  1
  O  O26  1  0.60782800  0.65605100  0.51531200  1
  O  O27  1  0.10782800  0.34394900  0.98468800  1
  O  O28  1  0.11022600  0.90373000  0.01029400  1
  O  O29  1  0.61022600  0.09627000  0.48970600  1
  O  O30  1  0.88977400  0.09627000  0.98970600  1
  O  O31  1  0.38977400  0.90373000  0.51029400  1
  O  O32  1  0.16646400  0.62079100  0.46029400  1
  O  O33  1  0.66646400  0.37920900  0.03970600  1
  O  O34  1  0.83353600  0.37920900  0.53970600  1
  O  O35  1  0.33353600  0.62079100  0.96029400  1
  O  O36  1  0.00048500  0.69260200  0.26318700  1
  O  O37  1  0.50048500  0.30739800  0.23681300  1
  O  O38  1  0.87672900  0.86005700  0.52941700  1
  O  O39  1  0.99951500  0.30739800  0.73681300  1
  O  O40  1  0.23530400  0.64322100  0.72651600  1
  O  O41  1  0.73530400  0.35677900  0.77348400  1
  O  O42  1  0.76469600  0.35677900  0.27348400  1
  O  O43  1  0.26469600  0.64322100  0.22651600  1
  O  O44  1  0.76387000  0.89306400  0.24378600  1
  O  O45  1  0.26387000  0.10693600  0.25621400  1
  O  O46  1  0.23613000  0.10693600  0.75621400  1
  O  O47  1  0.73613000  0.89306400  0.74378600  1
  O  O48  1  0.39432600  0.38249000  0.77516600  1
  O  O49  1  0.89432600  0.61751000  0.72483400  1
  O  O50  1  0.60567400  0.61751000  0.22483400  1
  O  O51  1  0.10567400  0.38249000  0.27516600  1
  O  O52  1  0.00379500  0.91572800  0.75086200  1
  O  O53  1  0.50379500  0.08427200  0.74913800  1
  O  O54  1  0.99620500  0.08427200  0.24913800  1
  O  O55  1  0.49620500  0.91572800  0.25086200  1
  O  O56  1  0.62327100  0.86005700  0.02941700  1
  O  O57  1  0.12327100  0.13994300  0.47058300  1
  O  O58  1  0.37672900  0.13994300  0.97058300  1
  O  O59  1  0.49951500  0.69260200  0.76318700  1
