# generated using pymatgen
data_CsVSeO5
_symmetry_space_group_name_H-M   'P 1'
_cell_length_a   8.04833700
_cell_length_b   8.16603600
_cell_length_c   9.57295667
_cell_angle_alpha   87.48667926
_cell_angle_beta   90.00000000
_cell_angle_gamma   90.00000000
_symmetry_Int_Tables_number   1
_chemical_formula_structural   CsVSeO5
_chemical_formula_sum   'Cs4 V4 Se4 O20'
_cell_volume   628.55830240
_cell_formula_units_Z   4
loop_
 _symmetry_equiv_pos_site_id
 _symmetry_equiv_pos_as_xyz
  1  'x, y, z'
loop_
 _atom_site_type_symbol
 _atom_site_label
 _atom_site_symmetry_multiplicity
 _atom_site_fract_x
 _atom_site_fract_y
 _atom_site_fract_z
 _atom_site_occupancy
  Cs  Cs0  1  0.99039000  0.87481900  0.38642200  1
  Cs  Cs1  1  0.49039000  0.12518100  0.61357800  1
  Cs  Cs2  1  0.26105900  0.40467100  0.13448400  1
  Cs  Cs3  1  0.76105900  0.59532900  0.86551600  1
  V  V4  1  0.29744400  0.58366600  0.72853700  1
  V  V5  1  0.79744400  0.41633400  0.27146300  1
  V  V6  1  0.43401900  0.92678500  0.23433700  1
  V  V7  1  0.93401900  0.07321500  0.76566300  1
  Se  Se8  1  0.00114100  0.37901500  0.55514200  1
  Se  Se9  1  0.50114100  0.62098500  0.44485800  1
  Se  Se10  1  0.71804900  0.11957800  0.07340000  1
  Se  Se11  1  0.21804900  0.88042200  0.92660000  1
  O  O12  1  0.88829200  0.56271900  0.17390900  1
  O  O13  1  0.38829200  0.43728100  0.82609100  1
  O  O14  1  0.16151600  0.68560200  0.87428900  1
  O  O15  1  0.66151600  0.31439800  0.12571100  1
  O  O16  1  0.92592200  0.25390600  0.29127600  1
  O  O17  1  0.42592200  0.74609400  0.70872400  1
  O  O18  1  0.85859200  0.49877300  0.45950000  1
  O  O19  1  0.35859200  0.50122700  0.54050000  1
  O  O20  1  0.06721900  0.52852700  0.66542100  1
  O  O21  1  0.56721900  0.47147300  0.33457900  1
  O  O22  1  0.33023200  0.07142000  0.31235900  1
  O  O23  1  0.83023200  0.92858000  0.68764100  1
  O  O24  1  0.12297000  0.08604500  0.68980000  1
  O  O25  1  0.62297000  0.91395500  0.31020000  1
  O  O26  1  0.51835700  0.03319800  0.05986200  1
  O  O27  1  0.01835700  0.96680200  0.94013800  1
  O  O28  1  0.25782200  0.83606100  0.09962500  1
  O  O29  1  0.75782200  0.16393900  0.90037500  1
  O  O30  1  0.35857800  0.72144300  0.33234400  1
  O  O31  1  0.85857800  0.27855700  0.66765600  1
