# generated using pymatgen
data_NdS2
_symmetry_space_group_name_H-M   'P 1'
_cell_length_a   4.04871600
_cell_length_b   8.06723800
_cell_length_c   8.14597668
_cell_angle_alpha   89.87090466
_cell_angle_beta   90.00000000
_cell_angle_gamma   90.00000000
_symmetry_Int_Tables_number   1
_chemical_formula_structural   NdS2
_chemical_formula_sum   'Nd4 S8'
_cell_volume   266.06285292
_cell_formula_units_Z   4
loop_
 _symmetry_equiv_pos_site_id
 _symmetry_equiv_pos_as_xyz
  1  'x, y, z'
loop_
 _atom_site_type_symbol
 _atom_site_label
 _atom_site_symmetry_multiplicity
 _atom_site_fract_x
 _atom_site_fract_y
 _atom_site_fract_z
 _atom_site_occupancy
  Nd  Nd0  1  0.28881500  0.37118300  0.27575300  1
  Nd  Nd1  1  0.78881500  0.12881700  0.72424700  1
  Nd  Nd2  1  0.71118500  0.62881700  0.72424700  1
  Nd  Nd3  1  0.21118500  0.87118300  0.27575300  1
  S  S4  1  0.84405800  0.39195000  0.00270900  1
  S  S5  1  0.34405800  0.10805000  0.99729100  1
  S  S6  1  0.15594200  0.60805000  0.99729100  1
  S  S7  1  0.65594200  0.89195000  0.00270900  1
  S  S8  1  0.23916200  0.87436800  0.63285000  1
  S  S9  1  0.73916200  0.62563200  0.36715000  1
  S  S10  1  0.76083800  0.12563200  0.36715000  1
  S  S11  1  0.26083800  0.37436800  0.63285000  1
