# generated using pymatgen
data_Mn4SiTeBr2O7
_symmetry_space_group_name_H-M   'P 1'
_cell_length_a   5.59195056
_cell_length_b   6.57535060
_cell_length_c   13.19395300
_cell_angle_alpha   90.05887754
_cell_angle_beta   93.32227713
_cell_angle_gamma   90.11838154
_symmetry_Int_Tables_number   1
_chemical_formula_structural   Mn4SiTeBr2O7
_chemical_formula_sum   'Mn8 Si2 Te2 Br4 O14'
_cell_volume   484.31224465
_cell_formula_units_Z   2
loop_
 _symmetry_equiv_pos_site_id
 _symmetry_equiv_pos_as_xyz
  1  'x, y, z'
loop_
 _atom_site_type_symbol
 _atom_site_label
 _atom_site_symmetry_multiplicity
 _atom_site_fract_x
 _atom_site_fract_y
 _atom_site_fract_z
 _atom_site_occupancy
  Mn  Mn0  1  0.14886600  0.75137800  0.33650100  1
  Mn  Mn1  1  0.85113100  0.24862100  0.66349800  1
  Mn  Mn2  1  0.35407100  0.50472800  0.63338500  1
  Mn  Mn3  1  0.64592300  0.49527500  0.36661100  1
  Mn  Mn4  1  0.95928000  0.25018200  0.17644700  1
  Mn  Mn5  1  0.04074600  0.74981600  0.82356600  1
  Mn  Mn6  1  0.64599900  0.00287000  0.36750100  1
  Mn  Mn7  1  0.35399500  0.99712800  0.63249800  1
  Si  Si8  1  0.15626700  0.25049200  0.43883500  1
  Si  Si9  1  0.84372900  0.74950600  0.56116300  1
  Te  Te10  1  0.70635100  0.74921800  0.15654900  1
  Te  Te11  1  0.29364800  0.25078200  0.84345000  1
  Br  Br12  1  0.42650600  0.24999900  0.17901800  1
  Br  Br13  1  0.57350900  0.75001100  0.82098100  1
  Br  Br14  1  0.85051700  0.25004200  0.98242900  1
  Br  Br15  1  0.14948900  0.74995900  0.01757800  1
  O  O16  1  0.49158900  0.74949900  0.26708800  1
  O  O17  1  0.50840400  0.25050100  0.73290800  1
  O  O18  1  0.15417500  0.25052800  0.56548400  1
  O  O19  1  0.84581900  0.74946800  0.43451400  1
  O  O20  1  0.87931500  0.24948000  0.38766300  1
  O  O21  1  0.12068500  0.75051900  0.61233100  1
  O  O22  1  0.29417500  0.03855800  0.40868600  1
  O  O23  1  0.70585300  0.53779000  0.59166600  1
  O  O24  1  0.70582200  0.96144100  0.59131200  1
  O  O25  1  0.29414400  0.46220900  0.40833400  1
  O  O26  1  0.89677300  0.95282100  0.22851000  1
  O  O27  1  0.10284200  0.45258100  0.77086800  1
  O  O28  1  0.10322200  0.04717800  0.77149200  1
  O  O29  1  0.89715500  0.54742100  0.22913300  1
