# generated using pymatgen
data_Ta3VSe6
_symmetry_space_group_name_H-M   'P 1'
_cell_length_a   6.01072428
_cell_length_b   6.01072428
_cell_length_c   12.79807900
_cell_angle_alpha   90.00000000
_cell_angle_beta   90.00000000
_cell_angle_gamma   120.00000306
_symmetry_Int_Tables_number   1
_chemical_formula_structural   Ta3VSe6
_chemical_formula_sum   'Ta6 V2 Se12'
_cell_volume   400.43222304
_cell_formula_units_Z   2
loop_
 _symmetry_equiv_pos_site_id
 _symmetry_equiv_pos_as_xyz
  1  'x, y, z'
loop_
 _atom_site_type_symbol
 _atom_site_label
 _atom_site_symmetry_multiplicity
 _atom_site_fract_x
 _atom_site_fract_y
 _atom_site_fract_z
 _atom_site_occupancy
  Ta  Ta0  1  0.00000000  0.00000000  0.50000000  1
  Ta  Ta1  1  0.00000000  0.00000000  0.00000000  1
  Ta  Ta2  1  0.33333300  0.66666700  0.99941800  1
  Ta  Ta3  1  0.66666700  0.33333300  0.00058200  1
  Ta  Ta4  1  0.66666700  0.33333300  0.49941800  1
  Ta  Ta5  1  0.33333300  0.66666700  0.50058200  1
  V  V6  1  0.33333300  0.66666700  0.25000000  1
  V  V7  1  0.66666700  0.33333300  0.75000000  1
  Se  Se8  1  0.33350500  0.33200000  0.36827200  1
  Se  Se9  1  0.66800000  0.00150500  0.36827200  1
  Se  Se10  1  0.99849500  0.66649500  0.36827200  1
  Se  Se11  1  0.33200000  0.33350500  0.63172800  1
  Se  Se12  1  0.00150500  0.66800000  0.63172800  1
  Se  Se13  1  0.66649500  0.99849500  0.63172800  1
  Se  Se14  1  0.66649500  0.66800000  0.86827200  1
  Se  Se15  1  0.33200000  0.99849500  0.86827200  1
  Se  Se16  1  0.00150500  0.33350500  0.86827200  1
  Se  Se17  1  0.66800000  0.66649500  0.13172800  1
  Se  Se18  1  0.99849500  0.33200000  0.13172800  1
  Se  Se19  1  0.33350500  0.00150500  0.13172800  1
