# generated using pymatgen
data_KAl11O17
_symmetry_space_group_name_H-M   'P 1'
_cell_length_a   5.65291803
_cell_length_b   5.65292583
_cell_length_c   22.96102400
_cell_angle_alpha   89.99959099
_cell_angle_beta   90.00038473
_cell_angle_gamma   120.01193672
_symmetry_Int_Tables_number   1
_chemical_formula_structural   KAl11O17
_chemical_formula_sum   'K2 Al22 O34'
_cell_volume   635.35376720
_cell_formula_units_Z   2
loop_
 _symmetry_equiv_pos_site_id
 _symmetry_equiv_pos_as_xyz
  1  'x, y, z'
loop_
 _atom_site_type_symbol
 _atom_site_label
 _atom_site_symmetry_multiplicity
 _atom_site_fract_x
 _atom_site_fract_y
 _atom_site_fract_z
 _atom_site_occupancy
  K  K0  1  0.33149900  0.66848900  0.75000900  1
  K  K1  1  0.66849900  0.33149600  0.24999400  1
  Al  Al2  1  0.16743500  0.83257300  0.89404400  1
  Al  Al3  1  0.16743700  0.83256600  0.60595500  1
  Al  Al4  1  0.33369900  0.66630500  0.17524900  1
  Al  Al5  1  0.33333600  0.66666800  0.02471200  1
  Al  Al6  1  0.00000100  0.00000300  0.00000100  1
  Al  Al7  1  0.33369400  0.66630500  0.32477600  1
  Al  Al8  1  0.99999900  0.00000100  0.50000100  1
  Al  Al9  1  0.33333500  0.66666400  0.47529300  1
  Al  Al10  1  0.16723800  0.33489900  0.60595900  1
  Al  Al11  1  0.16723900  0.33490100  0.89403900  1
  Al  Al12  1  0.66510600  0.83276900  0.89403900  1
  Al  Al13  1  0.66509800  0.83275600  0.60596000  1
  Al  Al14  1  0.33490000  0.16724600  0.39404100  1
  Al  Al15  1  0.33490400  0.16724200  0.10596200  1
  Al  Al16  1  0.83276000  0.66510200  0.39404200  1
  Al  Al17  1  0.66630500  0.33369600  0.67522500  1
  Al  Al18  1  0.66630300  0.33370000  0.82475400  1
  Al  Al19  1  0.66666600  0.33333700  0.52471100  1
  Al  Al20  1  0.66666700  0.33334200  0.97529100  1
  Al  Al21  1  0.83277000  0.66511000  0.10596200  1
  Al  Al22  1  0.83257000  0.16743600  0.10595700  1
  Al  Al23  1  0.83256500  0.16743700  0.39404600  1
  O  O24  1  0.15710500  0.84290100  0.04937800  1
  O  O25  1  0.15710300  0.84290100  0.45062000  1
  O  O26  1  0.00453700  0.50236200  0.64484500  1
  O  O27  1  0.00452600  0.50236400  0.85515500  1
  O  O28  1  0.33463100  0.66535400  0.24998300  1
  O  O29  1  0.15705600  0.31427400  0.45068500  1
  O  O30  1  0.99997400  0.00003500  0.14044100  1
  O  O31  1  0.99996600  0.00003700  0.35955700  1
  O  O32  1  0.33319900  0.66680200  0.55513200  1
  O  O33  1  0.00002900  0.99997100  0.85955800  1
  O  O34  1  0.00003300  0.99996400  0.64044200  1
  O  O35  1  0.33320000  0.66680500  0.94485900  1
  O  O36  1  0.15705900  0.31427400  0.04931400  1
  O  O37  1  0.49763800  0.99547400  0.85515400  1
  O  O38  1  0.49763600  0.99546000  0.64484600  1
  O  O39  1  0.31426900  0.15705300  0.54931400  1
  O  O40  1  0.31426900  0.15705600  0.95068400  1
  O  O41  1  0.49752800  0.50246800  0.64465900  1
  O  O42  1  0.49752800  0.50247600  0.85534000  1
  O  O43  1  0.50246600  0.49753700  0.35534000  1
  O  O44  1  0.50248100  0.49752800  0.14466000  1
  O  O45  1  0.68573200  0.84294800  0.04931500  1
  O  O46  1  0.68572900  0.84294800  0.45068500  1
  O  O47  1  0.50235800  0.00453100  0.35515400  1
  O  O48  1  0.66679900  0.33319900  0.44486600  1
  O  O49  1  0.50237000  0.00453700  0.14484600  1
  O  O50  1  0.84294300  0.68572900  0.95068400  1
  O  O51  1  0.84294500  0.68573000  0.54931300  1
  O  O52  1  0.66680400  0.33320100  0.05513800  1
  O  O53  1  0.66536800  0.33465800  0.75001600  1
  O  O54  1  0.99547300  0.49763800  0.14484500  1
  O  O55  1  0.99547200  0.49764200  0.35515400  1
  O  O56  1  0.84289800  0.15710400  0.95062100  1
  O  O57  1  0.84289800  0.15710200  0.54937800  1
