# generated using pymatgen
data_V2Cu3NiO6
_symmetry_space_group_name_H-M   'P 1'
_cell_length_a   5.25361772
_cell_length_b   5.25301456
_cell_length_c   11.67596130
_cell_angle_alpha   94.54586259
_cell_angle_beta   85.46242922
_cell_angle_gamma   60.49401786
_symmetry_Int_Tables_number   1
_chemical_formula_structural   V2Cu3NiO6
_chemical_formula_sum   'V4 Cu6 Ni2 O12'
_cell_volume   276.94752421
_cell_formula_units_Z   2
loop_
 _symmetry_equiv_pos_site_id
 _symmetry_equiv_pos_as_xyz
  1  'x, y, z'
loop_
 _atom_site_type_symbol
 _atom_site_label
 _atom_site_symmetry_multiplicity
 _atom_site_fract_x
 _atom_site_fract_y
 _atom_site_fract_z
 _atom_site_occupancy
  V  V0  1  0.25050400  0.75051200  0.25000400  1
  V  V1  1  0.75047400  0.25047300  0.75000600  1
  V  V2  1  0.58432800  0.08425700  0.24999200  1
  V  V3  1  0.08436200  0.58427300  0.74999400  1
  Cu  Cu4  1  0.16406500  0.16434400  0.50002800  1
  Cu  Cu5  1  0.83770700  0.83803000  0.50003900  1
  Cu  Cu6  1  0.49739300  0.49716100  0.49999600  1
  Cu  Cu7  1  0.66430600  0.66408600  0.99994900  1
  Cu  Cu8  1  0.33806800  0.33772200  0.99999500  1
  Cu  Cu9  1  0.99717300  0.99741000  0.00000200  1
  Ni  Ni10  1  0.91615300  0.41620700  0.24998700  1
  Ni  Ni11  1  0.41609100  0.91615600  0.75000000  1
  O  O12  1  0.22626000  0.09871800  0.33987200  1
  O  O13  1  0.72632100  0.59865700  0.83981400  1
  O  O14  1  0.59870000  0.72627900  0.16010800  1
  O  O15  1  0.09865700  0.22635600  0.66016800  1
  O  O16  1  0.53415500  0.45756100  0.34001600  1
  O  O17  1  0.03408300  0.95754700  0.84004700  1
  O  O18  1  0.89776800  0.78522000  0.33975800  1
  O  O19  1  0.39784100  0.28529000  0.83978500  1
  O  O20  1  0.28515900  0.39777600  0.16026700  1
  O  O21  1  0.78524000  0.89783700  0.66024400  1
  O  O22  1  0.95759400  0.03411100  0.15998000  1
  O  O23  1  0.45759700  0.53401600  0.65994800  1
