# generated using pymatgen
data_Ba6Na2V2Sb2O17
_symmetry_space_group_name_H-M   'P 1'
_cell_length_a   6.00786773
_cell_length_b   6.00786773
_cell_length_c   30.44963100
_cell_angle_alpha   90.00000000
_cell_angle_beta   90.00000000
_cell_angle_gamma   119.99999704
_symmetry_Int_Tables_number   1
_chemical_formula_structural   Ba6Na2V2Sb2O17
_chemical_formula_sum   'Ba12 Na4 V4 Sb4 O34'
_cell_volume   951.81688344
_cell_formula_units_Z   2
loop_
 _symmetry_equiv_pos_site_id
 _symmetry_equiv_pos_as_xyz
  1  'x, y, z'
loop_
 _atom_site_type_symbol
 _atom_site_label
 _atom_site_symmetry_multiplicity
 _atom_site_fract_x
 _atom_site_fract_y
 _atom_site_fract_z
 _atom_site_occupancy
  Ba  Ba0  1  0.33333300  0.66666700  0.17783000  1
  Ba  Ba1  1  0.66666700  0.33333300  0.82217000  1
  Ba  Ba2  1  0.66666700  0.33333300  0.67783000  1
  Ba  Ba3  1  0.33333300  0.66666700  0.32217000  1
  Ba  Ba4  1  0.00000000  0.00000000  0.00000000  1
  Ba  Ba5  1  0.00000000  0.00000000  0.50000000  1
  Ba  Ba6  1  0.33333300  0.66666700  0.59134700  1
  Ba  Ba7  1  0.66666700  0.33333300  0.40865300  1
  Ba  Ba8  1  0.66666700  0.33333300  0.09134700  1
  Ba  Ba9  1  0.33333300  0.66666700  0.90865300  1
  Ba  Ba10  1  0.00000000  0.00000000  0.25000000  1
  Ba  Ba11  1  0.00000000  0.00000000  0.75000000  1
  Na  Na12  1  0.00000000  0.00000000  0.12462300  1
  Na  Na13  1  0.00000000  0.00000000  0.87537700  1
  Na  Na14  1  0.00000000  0.00000000  0.62462300  1
  Na  Na15  1  0.00000000  0.00000000  0.37537700  1
  V  V16  1  0.33333300  0.66666700  0.05215900  1
  V  V17  1  0.66666700  0.33333300  0.94784100  1
  V  V18  1  0.66666700  0.33333300  0.55215900  1
  V  V19  1  0.33333300  0.66666700  0.44784100  1
  Sb  Sb20  1  0.33333300  0.66666700  0.70244100  1
  Sb  Sb21  1  0.66666700  0.33333300  0.29755900  1
  Sb  Sb22  1  0.66666700  0.33333300  0.20244100  1
  Sb  Sb23  1  0.33333300  0.66666700  0.79755900  1
  O  O24  1  0.33333300  0.66666700  0.50467300  1
  O  O25  1  0.66666700  0.33333300  0.49532700  1
  O  O26  1  0.66666700  0.33333300  0.00467300  1
  O  O27  1  0.33333300  0.66666700  0.99532700  1
  O  O28  1  0.17277900  0.34555800  0.66994100  1
  O  O29  1  0.82722100  0.65444200  0.33005900  1
  O  O30  1  0.65444200  0.82722100  0.66994100  1
  O  O31  1  0.82722100  0.65444200  0.16994100  1
  O  O32  1  0.34555800  0.17277900  0.33005900  1
  O  O33  1  0.17277900  0.34555800  0.83005900  1
  O  O34  1  0.17277900  0.82722100  0.66994100  1
  O  O35  1  0.34555800  0.17277900  0.16994100  1
  O  O36  1  0.82722100  0.17277900  0.33005900  1
  O  O37  1  0.65444200  0.82722100  0.83005900  1
  O  O38  1  0.82722100  0.17277900  0.16994100  1
  O  O39  1  0.17277900  0.82722100  0.83005900  1
  O  O40  1  0.51842400  0.03684900  0.25000000  1
  O  O41  1  0.48157600  0.96315100  0.75000000  1
  O  O42  1  0.96315100  0.48157600  0.25000000  1
  O  O43  1  0.03684900  0.51842400  0.75000000  1
  O  O44  1  0.51842400  0.48157600  0.25000000  1
  O  O45  1  0.48157600  0.51842400  0.75000000  1
  O  O46  1  0.17618500  0.35237000  0.07261600  1
  O  O47  1  0.82381500  0.64763000  0.92738400  1
  O  O48  1  0.64763000  0.82381500  0.07261600  1
  O  O49  1  0.82381500  0.64763000  0.57261600  1
  O  O50  1  0.35237000  0.17618500  0.92738400  1
  O  O51  1  0.17618500  0.35237000  0.42738400  1
  O  O52  1  0.17618500  0.82381500  0.07261600  1
  O  O53  1  0.35237000  0.17618500  0.57261600  1
  O  O54  1  0.82381500  0.17618500  0.92738400  1
  O  O55  1  0.64763000  0.82381500  0.42738400  1
  O  O56  1  0.82381500  0.17618500  0.57261600  1
  O  O57  1  0.17618500  0.82381500  0.42738400  1
