# generated using pymatgen
data_B2S2O9
_symmetry_space_group_name_H-M   'P 1'
_cell_length_a   4.47639252
_cell_length_b   4.47639252
_cell_length_c   8.86518586
_cell_angle_alpha   86.40310102
_cell_angle_beta   86.40310102
_cell_angle_gamma   56.94763527
_symmetry_Int_Tables_number   1
_chemical_formula_structural   B2S2O9
_chemical_formula_sum   'B2 S2 O9'
_cell_volume   148.51443044
_cell_formula_units_Z   1
loop_
 _symmetry_equiv_pos_site_id
 _symmetry_equiv_pos_as_xyz
  1  'x, y, z'
loop_
 _atom_site_type_symbol
 _atom_site_label
 _atom_site_symmetry_multiplicity
 _atom_site_fract_x
 _atom_site_fract_y
 _atom_site_fract_z
 _atom_site_occupancy
  B  B0  1  0.82451900  0.17934600  0.14259400  1
  B  B1  1  0.82065400  0.17548100  0.85740600  1
  S  S2  1  0.49155300  0.84461900  0.26416100  1
  S  S3  1  0.15538100  0.50844700  0.73583900  1
  O  O4  1  0.62689300  0.70972100  0.40972700  1
  O  O5  1  0.29027900  0.37310700  0.59027300  1
  O  O6  1  0.50655400  0.16155300  0.20306200  1
  O  O7  1  0.83844700  0.49344600  0.79693800  1
  O  O8  1  0.68384600  0.57303300  0.13938800  1
  O  O9  1  0.42696700  0.31615400  0.86061200  1
  O  O10  1  0.09685200  0.98358400  0.26346700  1
  O  O11  1  0.01641600  0.90314800  0.73653300  1
  O  O12  1  0.95486000  0.04514000  0.00000000  1
