# generated using pymatgen
data_NdNiGe3
_symmetry_space_group_name_H-M   'P 1'
_cell_length_a   11.14934963
_cell_length_b   11.14934963
_cell_length_c   4.16995200
_cell_angle_alpha   90.00000000
_cell_angle_beta   90.00000000
_cell_angle_gamma   158.57495898
_symmetry_Int_Tables_number   1
_chemical_formula_structural   NdNiGe3
_chemical_formula_sum   'Nd2 Ni2 Ge6'
_cell_volume   189.34784979
_cell_formula_units_Z   2
loop_
 _symmetry_equiv_pos_site_id
 _symmetry_equiv_pos_as_xyz
  1  'x, y, z'
loop_
 _atom_site_type_symbol
 _atom_site_label
 _atom_site_symmetry_multiplicity
 _atom_site_fract_x
 _atom_site_fract_y
 _atom_site_fract_z
 _atom_site_occupancy
  Nd  Nd0  1  0.66849000  0.33151000  0.50000000  1
  Nd  Nd1  1  0.33151000  0.66849000  0.50000000  1
  Ni  Ni2  1  0.89071800  0.10928200  0.00000000  1
  Ni  Ni3  1  0.10928200  0.89071800  0.00000000  1
  Ge  Ge4  1  0.94329600  0.05670400  0.50000000  1
  Ge  Ge5  1  0.05670400  0.94329600  0.50000000  1
  Ge  Ge6  1  0.55664700  0.44335300  0.00000000  1
  Ge  Ge7  1  0.44335300  0.55664700  0.00000000  1
  Ge  Ge8  1  0.78395300  0.21604700  0.00000000  1
  Ge  Ge9  1  0.21604700  0.78395300  0.00000000  1
