# generated using pymatgen
data_TlMoPO6
_symmetry_space_group_name_H-M   'P 1'
_cell_length_a   10.25189060
_cell_length_b   9.73211443
_cell_length_c   8.47710965
_cell_angle_alpha   68.12580465
_cell_angle_beta   61.75764104
_cell_angle_gamma   50.11655431
_symmetry_Int_Tables_number   1
_chemical_formula_structural   TlMoPO6
_chemical_formula_sum   'Tl4 Mo4 P4 O24'
_cell_volume   568.75132866
_cell_formula_units_Z   4
loop_
 _symmetry_equiv_pos_site_id
 _symmetry_equiv_pos_as_xyz
  1  'x, y, z'
loop_
 _atom_site_type_symbol
 _atom_site_label
 _atom_site_symmetry_multiplicity
 _atom_site_fract_x
 _atom_site_fract_y
 _atom_site_fract_z
 _atom_site_occupancy
  Tl  Tl0  1  0.66704600  0.08295400  0.08295400  1
  Tl  Tl1  1  0.08295400  0.66704600  0.66704600  1
  Tl  Tl2  1  0.33295400  0.91704600  0.91704600  1
  Tl  Tl3  1  0.91704600  0.33295400  0.33295400  1
  Mo  Mo4  1  0.15735800  0.59264200  0.15735800  1
  Mo  Mo5  1  0.59264200  0.15735800  0.59264200  1
  Mo  Mo6  1  0.84264200  0.40735800  0.84264200  1
  Mo  Mo7  1  0.40735800  0.84264200  0.40735800  1
  P  P8  1  0.50675000  0.50675000  0.24325000  1
  P  P9  1  0.24325000  0.24325000  0.50675000  1
  P  P10  1  0.49325000  0.49325000  0.75675000  1
  P  P11  1  0.75675000  0.75675000  0.49325000  1
  O  O12  1  0.30699200  0.60234300  0.27581800  1
  O  O13  1  0.31484600  0.27581800  0.60234300  1
  O  O14  1  0.27581800  0.31484600  0.30699200  1
  O  O15  1  0.60234300  0.30699200  0.31484600  1
  O  O16  1  0.69300800  0.39765700  0.72418200  1
  O  O17  1  0.68515400  0.72418200  0.39765700  1
  O  O18  1  0.72418200  0.68515400  0.69300800  1
  O  O19  1  0.39765700  0.69300800  0.68515400  1
  O  O20  1  0.96487100  0.66855800  0.39798700  1
  O  O21  1  0.46858400  0.39798700  0.66855800  1
  O  O22  1  0.39798700  0.46858400  0.96487100  1
  O  O23  1  0.66855800  0.96487100  0.46858400  1
  O  O24  1  0.19238400  0.90963500  0.45105200  1
  O  O25  1  0.94692900  0.45105200  0.90963500  1
  O  O26  1  0.45105200  0.94692900  0.19238400  1
  O  O27  1  0.90963500  0.19238400  0.94692900  1
  O  O28  1  0.80761600  0.09036500  0.54894800  1
  O  O29  1  0.05307100  0.54894800  0.09036500  1
  O  O30  1  0.54894800  0.05307100  0.80761600  1
  O  O31  1  0.09036500  0.80761600  0.05307100  1
  O  O32  1  0.33144200  0.03512900  0.53141600  1
  O  O33  1  0.60201300  0.53141600  0.03512900  1
  O  O34  1  0.53141600  0.60201300  0.33144200  1
  O  O35  1  0.03512900  0.33144200  0.60201300  1
