# generated using pymatgen
data_Dy2TeO2
_symmetry_space_group_name_H-M   'P 1'
_cell_length_a   6.85211906
_cell_length_b   6.85211906
_cell_length_c   6.85211906
_cell_angle_alpha   146.63283193
_cell_angle_beta   146.63283193
_cell_angle_gamma   47.90774381
_symmetry_Int_Tables_number   1
_chemical_formula_structural   Dy2TeO2
_chemical_formula_sum   'Dy2 Te1 O2'
_cell_volume   96.92696834
_cell_formula_units_Z   1
loop_
 _symmetry_equiv_pos_site_id
 _symmetry_equiv_pos_as_xyz
  1  'x, y, z'
loop_
 _atom_site_type_symbol
 _atom_site_label
 _atom_site_symmetry_multiplicity
 _atom_site_fract_x
 _atom_site_fract_y
 _atom_site_fract_z
 _atom_site_occupancy
  Dy  Dy0  1  0.66266900  0.66266900  0.00000000  1
  Dy  Dy1  1  0.33733100  0.33733100  0.00000000  1
  Te  Te2  1  0.00000000  0.00000000  0.00000000  1
  O  O3  1  0.75000000  0.25000000  0.50000000  1
  O  O4  1  0.25000000  0.75000000  0.50000000  1
