# generated using pymatgen
data_Ba2GaSbSe5
_symmetry_space_group_name_H-M   'P 1'
_cell_length_a   9.27160300
_cell_length_b   9.45881500
_cell_length_c   12.80890900
_cell_angle_alpha   90.00000000
_cell_angle_beta   90.00000000
_cell_angle_gamma   90.00000000
_symmetry_Int_Tables_number   1
_chemical_formula_structural   Ba2GaSbSe5
_chemical_formula_sum   'Ba8 Ga4 Sb4 Se20'
_cell_volume   1123.32053724
_cell_formula_units_Z   4
loop_
 _symmetry_equiv_pos_site_id
 _symmetry_equiv_pos_as_xyz
  1  'x, y, z'
loop_
 _atom_site_type_symbol
 _atom_site_label
 _atom_site_symmetry_multiplicity
 _atom_site_fract_x
 _atom_site_fract_y
 _atom_site_fract_z
 _atom_site_occupancy
  Ba  Ba0  1  0.00689900  0.12333500  0.82502900  1
  Ba  Ba1  1  0.49310100  0.37666500  0.32502900  1
  Ba  Ba2  1  0.50689900  0.87666500  0.17497100  1
  Ba  Ba3  1  0.99310100  0.62333500  0.67497100  1
  Ba  Ba4  1  0.99310100  0.87666500  0.17497100  1
  Ba  Ba5  1  0.50689900  0.62333500  0.67497100  1
  Ba  Ba6  1  0.49310100  0.12333500  0.82502900  1
  Ba  Ba7  1  0.00689900  0.37666500  0.32502900  1
  Ga  Ga8  1  0.25000000  0.33279000  0.59707300  1
  Ga  Ga9  1  0.25000000  0.16721000  0.09707300  1
  Ga  Ga10  1  0.75000000  0.66721000  0.40292700  1
  Ga  Ga11  1  0.75000000  0.83279000  0.90292700  1
  Sb  Sb12  1  0.25000000  0.98098900  0.52673200  1
  Sb  Sb13  1  0.25000000  0.51901100  0.02673200  1
  Sb  Sb14  1  0.75000000  0.01901100  0.47326800  1
  Sb  Sb15  1  0.75000000  0.48098900  0.97326800  1
  Se  Se16  1  0.04329900  0.17566600  0.55851000  1
  Se  Se17  1  0.45670100  0.32433400  0.05851000  1
  Se  Se18  1  0.54329900  0.82433400  0.44149000  1
  Se  Se19  1  0.95670100  0.67566600  0.94149000  1
  Se  Se20  1  0.95670100  0.82433400  0.44149000  1
  Se  Se21  1  0.54329900  0.67566600  0.94149000  1
  Se  Se22  1  0.45670100  0.17566600  0.55851000  1
  Se  Se23  1  0.04329900  0.32433400  0.05851000  1
  Se  Se24  1  0.25000000  0.88385600  0.71846000  1
  Se  Se25  1  0.25000000  0.61614400  0.21846000  1
  Se  Se26  1  0.75000000  0.11614400  0.28154000  1
  Se  Se27  1  0.75000000  0.38385600  0.78154000  1
  Se  Se28  1  0.25000000  0.39282100  0.78016700  1
  Se  Se29  1  0.25000000  0.10717900  0.28016700  1
  Se  Se30  1  0.75000000  0.60717900  0.21983300  1
  Se  Se31  1  0.75000000  0.89282100  0.71983300  1
  Se  Se32  1  0.25000000  0.96163800  0.99033300  1
  Se  Se33  1  0.25000000  0.53836200  0.49033300  1
  Se  Se34  1  0.75000000  0.03836200  0.00966700  1
  Se  Se35  1  0.75000000  0.46163800  0.50966700  1
