# generated using pymatgen
data_K2GaP2
_symmetry_space_group_name_H-M   'P 1'
_cell_length_a   14.10197600
_cell_length_b   8.75215600
_cell_length_c   11.08110859
_cell_angle_alpha   61.40066228
_cell_angle_beta   90.00000000
_cell_angle_gamma   90.00000000
_symmetry_Int_Tables_number   1
_chemical_formula_structural   K2GaP2
_chemical_formula_sum   'K16 Ga8 P16'
_cell_volume   1200.79000292
_cell_formula_units_Z   8
loop_
 _symmetry_equiv_pos_site_id
 _symmetry_equiv_pos_as_xyz
  1  'x, y, z'
loop_
 _atom_site_type_symbol
 _atom_site_label
 _atom_site_symmetry_multiplicity
 _atom_site_fract_x
 _atom_site_fract_y
 _atom_site_fract_z
 _atom_site_occupancy
  K  K0  1  0.11705300  0.51170300  0.93202200  1
  K  K1  1  0.38294700  0.51170300  0.43202200  1
  K  K2  1  0.88294700  0.48829700  0.06797800  1
  K  K3  1  0.61398800  0.21151000  0.97385600  1
  K  K4  1  0.62868400  0.01239700  0.46178000  1
  K  K5  1  0.38601200  0.78849000  0.02614400  1
  K  K6  1  0.88601200  0.21151000  0.47385600  1
  K  K7  1  0.86938500  0.57869700  0.59848300  1
  K  K8  1  0.36938500  0.42130300  0.90151700  1
  K  K9  1  0.13061500  0.42130300  0.40151700  1
  K  K10  1  0.63061500  0.57869700  0.09848300  1
  K  K11  1  0.87131600  0.01239700  0.96178000  1
  K  K12  1  0.37131600  0.98760300  0.53822000  1
  K  K13  1  0.12868400  0.98760300  0.03822000  1
  K  K14  1  0.61705300  0.48829700  0.56797800  1
  K  K15  1  0.11398800  0.78849000  0.52614400  1
  Ga  Ga16  1  0.55835700  0.00791200  0.75694500  1
  Ga  Ga17  1  0.05835700  0.99208800  0.74305500  1
  Ga  Ga18  1  0.44164300  0.99208800  0.24305500  1
  Ga  Ga19  1  0.78305100  0.85385200  0.75450100  1
  Ga  Ga20  1  0.28305100  0.14614800  0.74549900  1
  Ga  Ga21  1  0.21694900  0.14614800  0.24549900  1
  Ga  Ga22  1  0.71694900  0.85385200  0.25450100  1
  Ga  Ga23  1  0.94164300  0.00791200  0.25694500  1
  P  P24  1  0.53583400  0.73496200  0.77816900  1
  P  P25  1  0.31902000  0.36660900  0.21725200  1
  P  P26  1  0.81902000  0.63339100  0.28274800  1
  P  P27  1  0.71395900  0.10912500  0.72472200  1
  P  P28  1  0.21395900  0.89087500  0.77527800  1
  P  P29  1  0.28604100  0.89087500  0.27527800  1
  P  P30  1  0.78604100  0.10912500  0.22472200  1
  P  P31  1  0.55544400  0.79079900  0.25748500  1
  P  P32  1  0.05544400  0.20920100  0.24251500  1
  P  P33  1  0.44455600  0.20920100  0.74251500  1
  P  P34  1  0.68098000  0.63339100  0.78274800  1
  P  P35  1  0.94455600  0.79079900  0.75748500  1
  P  P36  1  0.96416600  0.73496200  0.27816900  1
  P  P37  1  0.46416600  0.26503800  0.22183100  1
  P  P38  1  0.03583400  0.26503800  0.72183100  1
  P  P39  1  0.18098000  0.36660900  0.71725200  1
