# generated using pymatgen
data_BaGe3Pd
_symmetry_space_group_name_H-M   'P 1'
_cell_length_a   6.23523059
_cell_length_b   6.23523059
_cell_length_c   6.23523059
_cell_angle_alpha   136.67871873
_cell_angle_beta   136.67871873
_cell_angle_gamma   62.93275264
_symmetry_Int_Tables_number   1
_chemical_formula_structural   BaGe3Pd
_chemical_formula_sum   'Ba1 Ge3 Pd1'
_cell_volume   112.68011342
_cell_formula_units_Z   1
loop_
 _symmetry_equiv_pos_site_id
 _symmetry_equiv_pos_as_xyz
  1  'x, y, z'
loop_
 _atom_site_type_symbol
 _atom_site_label
 _atom_site_symmetry_multiplicity
 _atom_site_fract_x
 _atom_site_fract_y
 _atom_site_fract_z
 _atom_site_occupancy
  Ba  Ba0  1  0.60379700  0.60379700  0.00000000  1
  Ge  Ge1  1  0.35617500  0.85617500  0.50000000  1
  Ge  Ge2  1  0.85617500  0.35617500  0.50000000  1
  Ge  Ge3  1  0.00228300  0.00228300  0.00000000  1
  Pd  Pd4  1  0.24990000  0.24990000  0.00000000  1
