# generated using pymatgen
data_La3Nd3Al22
_symmetry_space_group_name_H-M   'P 1'
_cell_length_a   8.52833351
_cell_length_b   8.52833351
_cell_length_c   16.56482395
_cell_angle_alpha   75.40056226
_cell_angle_beta   75.40056226
_cell_angle_gamma   29.93225904
_symmetry_Int_Tables_number   1
_chemical_formula_structural   La3Nd3Al22
_chemical_formula_sum   'La3 Nd3 Al22'
_cell_volume   580.34371445
_cell_formula_units_Z   1
loop_
 _symmetry_equiv_pos_site_id
 _symmetry_equiv_pos_as_xyz
  1  'x, y, z'
loop_
 _atom_site_type_symbol
 _atom_site_label
 _atom_site_symmetry_multiplicity
 _atom_site_fract_x
 _atom_site_fract_y
 _atom_site_fract_z
 _atom_site_occupancy
  La  La0  1  0.65815900  0.65815900  0.65842400  1
  La  La1  1  0.15837700  0.15837700  0.15837500  1
  La  La2  1  0.84189500  0.84189500  0.84147500  1
  Nd  Nd3  1  0.34123800  0.34123800  0.34132400  1
  Nd  Nd4  1  0.99970600  0.99970600  0.00022600  1
  Nd  Nd5  1  0.49987100  0.49987100  0.49938300  1
  Al  Al6  1  0.35198100  0.35198100  0.98330900  1
  Al  Al7  1  0.85233400  0.85233400  0.48238100  1
  Al  Al8  1  0.14791400  0.14791400  0.51700700  1
  Al  Al9  1  0.64796200  0.64796200  0.01671100  1
  Al  Al10  1  0.48279800  0.48279800  0.85181600  1
  Al  Al11  1  0.98186100  0.98186100  0.35191500  1
  Al  Al12  1  0.01715700  0.01715700  0.64827600  1
  Al  Al13  1  0.51751100  0.51751100  0.14815000  1
  Al  Al14  1  0.85838200  0.85838200  0.64118300  1
  Al  Al15  1  0.35862900  0.35862900  0.14215100  1
  Al  Al16  1  0.64160800  0.64160800  0.85856900  1
  Al  Al17  1  0.14197500  0.14197500  0.35871300  1
  Al  Al18  1  0.24995700  0.24995700  0.75013200  1
  Al  Al19  1  0.75045300  0.75045300  0.25032600  1
  Al  Al20  1  0.20454200  0.20454200  0.93158200  1
  Al  Al21  1  0.70525600  0.70525600  0.43163800  1
  Al  Al22  1  0.29524000  0.29524000  0.56799700  1
  Al  Al23  1  0.79549800  0.79549800  0.06839700  1
  Al  Al24  1  0.43153700  0.43153700  0.70472900  1
  Al  Al25  1  0.93134000  0.93134000  0.20542800  1
  Al  Al26  1  0.06846300  0.06846300  0.79524700  1
  Al  Al27  1  0.56835700  0.56835700  0.29513600  1
