# generated using pymatgen
data_MgCd2
_symmetry_space_group_name_H-M   'P 1'
_cell_length_a   8.19989128
_cell_length_b   8.19989128
_cell_length_c   5.09418100
_cell_angle_alpha   90.00000000
_cell_angle_beta   90.00000000
_cell_angle_gamma   157.36019663
_symmetry_Int_Tables_number   1
_chemical_formula_structural   MgCd2
_chemical_formula_sum   'Mg2 Cd4'
_cell_volume   131.84988272
_cell_formula_units_Z   2
loop_
 _symmetry_equiv_pos_site_id
 _symmetry_equiv_pos_as_xyz
  1  'x, y, z'
loop_
 _atom_site_type_symbol
 _atom_site_label
 _atom_site_symmetry_multiplicity
 _atom_site_fract_x
 _atom_site_fract_y
 _atom_site_fract_z
 _atom_site_occupancy
  Mg  Mg0  1  0.11087400  0.88912600  0.25000000  1
  Mg  Mg1  1  0.88912600  0.11087400  0.75000000  1
  Cd  Cd2  1  0.44485300  0.55514700  0.25000000  1
  Cd  Cd3  1  0.77778500  0.22221500  0.25000000  1
  Cd  Cd4  1  0.22221500  0.77778500  0.75000000  1
  Cd  Cd5  1  0.55514700  0.44485300  0.75000000  1
