# generated using pymatgen
data_Ca2(TlPb)3
_symmetry_space_group_name_H-M   'P 1'
_cell_length_a   4.89693100
_cell_length_b   4.90359300
_cell_length_c   9.89023800
_cell_angle_alpha   90.00000000
_cell_angle_beta   90.00000000
_cell_angle_gamma   90.00000000
_symmetry_Int_Tables_number   1
_chemical_formula_structural   Ca2(TlPb)3
_chemical_formula_sum   'Ca2 Tl3 Pb3'
_cell_volume   237.48989950
_cell_formula_units_Z   1
loop_
 _symmetry_equiv_pos_site_id
 _symmetry_equiv_pos_as_xyz
  1  'x, y, z'
loop_
 _atom_site_type_symbol
 _atom_site_label
 _atom_site_symmetry_multiplicity
 _atom_site_fract_x
 _atom_site_fract_y
 _atom_site_fract_z
 _atom_site_occupancy
  Ca  Ca0  1  0.00000000  0.00000000  0.74923000  1
  Ca  Ca1  1  0.00000000  0.00000000  0.25077000  1
  Tl  Tl2  1  0.50000000  0.00000000  0.50000000  1
  Tl  Tl3  1  0.00000000  0.50000000  0.00000000  1
  Tl  Tl4  1  0.00000000  0.50000000  0.50000000  1
  Pb  Pb5  1  0.50000000  0.50000000  0.74777800  1
  Pb  Pb6  1  0.50000000  0.50000000  0.25222200  1
  Pb  Pb7  1  0.50000000  0.00000000  0.00000000  1
