# generated using pymatgen
data_Eu(PO3)3
_symmetry_space_group_name_H-M   'P 1'
_cell_length_a   7.15477609
_cell_length_b   7.15477609
_cell_length_c   7.42806400
_cell_angle_alpha   90.00000000
_cell_angle_beta   90.00000000
_cell_angle_gamma   105.33562407
_symmetry_Int_Tables_number   1
_chemical_formula_structural   Eu(PO3)3
_chemical_formula_sum   'Eu2 P6 O18'
_cell_volume   366.70924196
_cell_formula_units_Z   2
loop_
 _symmetry_equiv_pos_site_id
 _symmetry_equiv_pos_as_xyz
  1  'x, y, z'
loop_
 _atom_site_type_symbol
 _atom_site_label
 _atom_site_symmetry_multiplicity
 _atom_site_fract_x
 _atom_site_fract_y
 _atom_site_fract_z
 _atom_site_occupancy
  Eu  Eu0  1  0.62636400  0.62636400  0.50000000  1
  Eu  Eu1  1  0.37363600  0.37363600  0.00000000  1
  P  P2  1  0.83366200  0.18208200  0.95319600  1
  P  P3  1  0.16633800  0.81791800  0.45319600  1
  P  P4  1  0.81791800  0.16633800  0.54680400  1
  P  P5  1  0.18208200  0.83366200  0.04680400  1
  P  P6  1  0.25128100  0.25128100  0.50000000  1
  P  P7  1  0.74871900  0.74871900  0.00000000  1
  O  O8  1  0.32980700  0.36521900  0.66749300  1
  O  O9  1  0.67019300  0.63478100  0.16749300  1
  O  O10  1  0.63478100  0.67019300  0.83250700  1
  O  O11  1  0.36521900  0.32980700  0.33250700  1
  O  O12  1  0.87367100  0.12632900  0.75000000  1
  O  O13  1  0.12632900  0.87367100  0.25000000  1
  O  O14  1  0.71656800  0.32373200  0.53798400  1
  O  O15  1  0.28343200  0.67626800  0.03798400  1
  O  O16  1  0.67626800  0.28343200  0.96201600  1
  O  O17  1  0.32373200  0.71656800  0.46201600  1
  O  O18  1  0.96965900  0.75390100  0.95837000  1
  O  O19  1  0.03034100  0.24609900  0.45837000  1
  O  O20  1  0.24609900  0.03034100  0.54163000  1
  O  O21  1  0.75390100  0.96965900  0.04163000  1
  O  O22  1  0.97373100  0.72205100  0.53691700  1
  O  O23  1  0.02626900  0.27794900  0.03691700  1
  O  O24  1  0.27794900  0.02626900  0.96308300  1
  O  O25  1  0.72205100  0.97373100  0.46308300  1
