# generated using pymatgen
data_Pr3Se3N
_symmetry_space_group_name_H-M   'P 1'
_cell_length_a   4.18709400
_cell_length_b   12.88112100
_cell_length_c   13.59026900
_cell_angle_alpha   90.00000000
_cell_angle_beta   90.00000000
_cell_angle_gamma   90.00000000
_symmetry_Int_Tables_number   1
_chemical_formula_structural   Pr3Se3N
_chemical_formula_sum   'Pr12 Se12 N4'
_cell_volume   732.98388028
_cell_formula_units_Z   4
loop_
 _symmetry_equiv_pos_site_id
 _symmetry_equiv_pos_as_xyz
  1  'x, y, z'
loop_
 _atom_site_type_symbol
 _atom_site_label
 _atom_site_symmetry_multiplicity
 _atom_site_fract_x
 _atom_site_fract_y
 _atom_site_fract_z
 _atom_site_occupancy
  Pr  Pr0  1  0.25000000  0.71643500  0.86576700  1
  Pr  Pr1  1  0.75000000  0.28356500  0.13423300  1
  Pr  Pr2  1  0.75000000  0.78356500  0.36576700  1
  Pr  Pr3  1  0.25000000  0.21643500  0.63423300  1
  Pr  Pr4  1  0.25000000  0.58053400  0.63060200  1
  Pr  Pr5  1  0.75000000  0.41946600  0.36939800  1
  Pr  Pr6  1  0.75000000  0.91946600  0.13060200  1
  Pr  Pr7  1  0.25000000  0.08053400  0.86939800  1
  Pr  Pr8  1  0.25000000  0.53397700  0.15395500  1
  Pr  Pr9  1  0.75000000  0.46602300  0.84604500  1
  Pr  Pr10  1  0.75000000  0.96602300  0.65395500  1
  Pr  Pr11  1  0.25000000  0.03397700  0.34604500  1
  Se  Se12  1  0.25000000  0.76730500  0.19543500  1
  Se  Se13  1  0.75000000  0.23269500  0.80456500  1
  Se  Se14  1  0.75000000  0.73269500  0.69543500  1
  Se  Se15  1  0.25000000  0.26730500  0.30456500  1
  Se  Se16  1  0.25000000  0.08410900  0.10811700  1
  Se  Se17  1  0.75000000  0.91589100  0.89188300  1
  Se  Se18  1  0.75000000  0.41589100  0.60811700  1
  Se  Se19  1  0.25000000  0.58410900  0.39188300  1
  Se  Se20  1  0.25000000  0.86382700  0.50043000  1
  Se  Se21  1  0.75000000  0.13617300  0.49957000  1
  Se  Se22  1  0.75000000  0.63617300  0.00043000  1
  Se  Se23  1  0.25000000  0.36382700  0.99957000  1
  N  N24  1  0.25000000  0.54925500  0.79686700  1
  N  N25  1  0.75000000  0.45074500  0.20313300  1
  N  N26  1  0.75000000  0.95074500  0.29686700  1
  N  N27  1  0.25000000  0.04925500  0.70313300  1
