# generated using pymatgen
data_KNb3(PO5)3
_symmetry_space_group_name_H-M   'P 1'
_cell_length_a   14.99039800
_cell_length_b   6.56858800
_cell_length_c   15.04475837
_cell_angle_alpha   64.04922991
_cell_angle_beta   90.00000000
_cell_angle_gamma   90.00000000
_symmetry_Int_Tables_number   1
_chemical_formula_structural   KNb3(PO5)3
_chemical_formula_sum   'K4 Nb12 P12 O60'
_cell_volume   1332.02504992
_cell_formula_units_Z   4
loop_
 _symmetry_equiv_pos_site_id
 _symmetry_equiv_pos_as_xyz
  1  'x, y, z'
loop_
 _atom_site_type_symbol
 _atom_site_label
 _atom_site_symmetry_multiplicity
 _atom_site_fract_x
 _atom_site_fract_y
 _atom_site_fract_z
 _atom_site_occupancy
  K  K0  1  0.82323000  0.91983300  0.49123000  1
  K  K1  1  0.32323000  0.08016700  0.00877000  1
  K  K2  1  0.17677000  0.08016700  0.50877000  1
  K  K3  1  0.67677000  0.91983300  0.99123000  1
  Nb  Nb4  1  0.88698800  0.43705400  0.06201700  1
  Nb  Nb5  1  0.11301200  0.56294600  0.93798300  1
  Nb  Nb6  1  0.61301200  0.43705400  0.56201700  1
  Nb  Nb7  1  0.38698800  0.56294600  0.43798300  1
  Nb  Nb8  1  0.47360400  0.35963700  0.14123300  1
  Nb  Nb9  1  0.52639600  0.64036300  0.85876700  1
  Nb  Nb10  1  0.02639600  0.35963700  0.64123300  1
  Nb  Nb11  1  0.97360400  0.64036300  0.35876700  1
  Nb  Nb12  1  0.77658600  0.69179200  0.80683400  1
  Nb  Nb13  1  0.22341400  0.30820800  0.19316600  1
  Nb  Nb14  1  0.72341400  0.69179200  0.30683400  1
  Nb  Nb15  1  0.27658600  0.30820800  0.69316600  1
  P  P16  1  0.87951500  0.87459400  0.12553200  1
  P  P17  1  0.12048500  0.12540600  0.87446800  1
  P  P18  1  0.62048500  0.87459400  0.62553200  1
  P  P19  1  0.37951500  0.12540600  0.37446800  1
  P  P20  1  0.70202700  0.27228000  0.22755700  1
  P  P21  1  0.29797300  0.72772000  0.77244300  1
  P  P22  1  0.79797300  0.27228000  0.72755700  1
  P  P23  1  0.20202700  0.72772000  0.27244300  1
  P  P24  1  0.00265100  0.20645500  0.29356800  1
  P  P25  1  0.99734900  0.79354500  0.70643200  1
  P  P26  1  0.49734900  0.20645500  0.79356800  1
  P  P27  1  0.50265100  0.79354500  0.20643200  1
  O  O28  1  0.82606600  0.56581200  0.93493300  1
  O  O29  1  0.17393400  0.43418800  0.06506700  1
  O  O30  1  0.67393400  0.56581200  0.43493300  1
  O  O31  1  0.32606600  0.43418800  0.56506700  1
  O  O32  1  0.60644700  0.31292600  0.18736500  1
  O  O33  1  0.39355300  0.68707400  0.81263500  1
  O  O34  1  0.89355300  0.31292600  0.68736500  1
  O  O35  1  0.10644700  0.68707400  0.31263500  1
  O  O36  1  0.95253700  0.79598000  0.20397800  1
  O  O37  1  0.04746300  0.20402000  0.79602200  1
  O  O38  1  0.54746300  0.79598000  0.70397800  1
  O  O39  1  0.45253700  0.20402000  0.29602200  1
  O  O40  1  0.94504700  0.29952200  0.20047400  1
  O  O41  1  0.05495300  0.70047800  0.79952600  1
  O  O42  1  0.55495300  0.29952200  0.70047400  1
  O  O43  1  0.44504700  0.70047800  0.29952600  1
  O  O44  1  0.76547300  0.36250300  0.13821600  1
  O  O45  1  0.23452700  0.63749700  0.86178400  1
  O  O46  1  0.73452700  0.36250300  0.63821600  1
  O  O47  1  0.26547300  0.63749700  0.36178400  1
  O  O48  1  0.71639200  0.83163800  0.66804700  1
  O  O49  1  0.28360800  0.16836200  0.33195300  1
  O  O50  1  0.78360800  0.83163800  0.16804700  1
  O  O51  1  0.21639200  0.16836200  0.83195300  1
  O  O52  1  0.88677100  0.13211800  0.05890800  1
  O  O53  1  0.11357900  0.24942500  0.94119700  1
  O  O54  1  0.61357900  0.75057500  0.55880300  1
  O  O55  1  0.38677100  0.86788200  0.44109200  1
  O  O56  1  0.11322900  0.86788200  0.94109200  1
  O  O57  1  0.88642100  0.75057500  0.05880300  1
  O  O58  1  0.38642100  0.24942500  0.44119700  1
  O  O59  1  0.61322900  0.13211800  0.55890800  1
  O  O60  1  0.89701100  0.77080200  0.72909800  1
  O  O61  1  0.10298900  0.22919800  0.27090200  1
  O  O62  1  0.60298900  0.77080200  0.22909800  1
  O  O63  1  0.39701100  0.22919800  0.77090200  1
  O  O64  1  0.78015100  0.39348200  0.79485700  1
  O  O65  1  0.22004500  0.98337600  0.20483200  1
  O  O66  1  0.72004500  0.01662400  0.29516800  1
  O  O67  1  0.28015100  0.60651800  0.70514300  1
  O  O68  1  0.21984900  0.60651800  0.20514300  1
  O  O69  1  0.77995500  0.01662400  0.79516800  1
  O  O70  1  0.27995500  0.98337600  0.70483200  1
  O  O71  1  0.71984900  0.39348200  0.29485700  1
  O  O72  1  0.50000000  0.50000000  0.00000000  1
  O  O73  1  0.00000000  0.50000000  0.50000000  1
  O  O74  1  0.97870500  0.95390900  0.35913900  1
  O  O75  1  0.02085200  0.67216900  0.64088100  1
  O  O76  1  0.52085200  0.32783100  0.85911900  1
  O  O77  1  0.47870500  0.04609100  0.14086100  1
  O  O78  1  0.02129500  0.04609100  0.64086100  1
  O  O79  1  0.97914800  0.32783100  0.35911900  1
  O  O80  1  0.47914800  0.67216900  0.14088100  1
  O  O81  1  0.52129500  0.95390900  0.85913900  1
  O  O82  1  0.00000000  0.50000000  0.00000000  1
  O  O83  1  0.50000000  0.50000000  0.50000000  1
  O  O84  1  0.65429400  0.63667500  0.86463400  1
  O  O85  1  0.34570600  0.36332500  0.13536600  1
  O  O86  1  0.84570600  0.63667500  0.36463400  1
  O  O87  1  0.15429400  0.36332500  0.63536600  1
