# generated using pymatgen
data_Zr5Sb3C
_symmetry_space_group_name_H-M   'P 1'
_cell_length_a   8.44654651
_cell_length_b   8.44654651
_cell_length_c   5.89036400
_cell_angle_alpha   90.00000000
_cell_angle_beta   90.00000000
_cell_angle_gamma   120.00000400
_symmetry_Int_Tables_number   1
_chemical_formula_structural   Zr5Sb3C
_chemical_formula_sum   'Zr10 Sb6 C2'
_cell_volume   363.94109974
_cell_formula_units_Z   2
loop_
 _symmetry_equiv_pos_site_id
 _symmetry_equiv_pos_as_xyz
  1  'x, y, z'
loop_
 _atom_site_type_symbol
 _atom_site_label
 _atom_site_symmetry_multiplicity
 _atom_site_fract_x
 _atom_site_fract_y
 _atom_site_fract_z
 _atom_site_occupancy
  Zr  Zr0  1  0.66666700  0.33333300  0.50000000  1
  Zr  Zr1  1  0.33333300  0.66666700  0.50000000  1
  Zr  Zr2  1  0.33333300  0.66666700  0.00000000  1
  Zr  Zr3  1  0.66666700  0.33333300  0.00000000  1
  Zr  Zr4  1  0.78020100  0.78020100  0.25000000  1
  Zr  Zr5  1  0.21979900  0.00000000  0.25000000  1
  Zr  Zr6  1  0.00000000  0.21979900  0.25000000  1
  Zr  Zr7  1  0.21979900  0.21979900  0.75000000  1
  Zr  Zr8  1  0.78020100  0.00000000  0.75000000  1
  Zr  Zr9  1  0.00000000  0.78020100  0.75000000  1
  Sb  Sb10  1  0.40493500  0.40493500  0.25000000  1
  Sb  Sb11  1  0.59506500  0.00000000  0.25000000  1
  Sb  Sb12  1  0.00000000  0.59506500  0.25000000  1
  Sb  Sb13  1  0.59506500  0.59506500  0.75000000  1
  Sb  Sb14  1  0.40493500  0.00000000  0.75000000  1
  Sb  Sb15  1  0.00000000  0.40493500  0.75000000  1
  C  C16  1  0.00000000  0.00000000  0.50000000  1
  C  C17  1  0.00000000  0.00000000  0.00000000  1
