# generated using pymatgen
data_Ga40GeMo8
_symmetry_space_group_name_H-M   'P 1'
_cell_length_a   9.61823301
_cell_length_b   9.61823301
_cell_length_c   9.61823232
_cell_angle_alpha   94.00349159
_cell_angle_beta   94.00349159
_cell_angle_gamma   94.00348838
_symmetry_Int_Tables_number   1
_chemical_formula_structural   Ga40GeMo8
_chemical_formula_sum   'Ga40 Ge1 Mo8'
_cell_volume   882.95168864
_cell_formula_units_Z   1
loop_
 _symmetry_equiv_pos_site_id
 _symmetry_equiv_pos_as_xyz
  1  'x, y, z'
loop_
 _atom_site_type_symbol
 _atom_site_label
 _atom_site_symmetry_multiplicity
 _atom_site_fract_x
 _atom_site_fract_y
 _atom_site_fract_z
 _atom_site_occupancy
  Ga  Ga0  1  0.50000000  0.50000000  0.50000000  1
  Ga  Ga1  1  0.50000000  0.00000000  0.50000000  1
  Ga  Ga2  1  0.00000000  0.50000000  0.50000000  1
  Ga  Ga3  1  0.50000000  0.50000000  0.00000000  1
  Ga  Ga4  1  0.36577600  0.73350000  0.38984200  1
  Ga  Ga5  1  0.73350000  0.38984200  0.36577600  1
  Ga  Ga6  1  0.38984200  0.36577600  0.73350000  1
  Ga  Ga7  1  0.63422400  0.26650000  0.61015800  1
  Ga  Ga8  1  0.26650000  0.61015800  0.63422400  1
  Ga  Ga9  1  0.61015800  0.63422400  0.26650000  1
  Ga  Ga10  1  0.22156600  0.32627600  0.46853900  1
  Ga  Ga11  1  0.32627600  0.46853900  0.22156600  1
  Ga  Ga12  1  0.46853900  0.22156600  0.32627600  1
  Ga  Ga13  1  0.77843400  0.67372400  0.53146100  1
  Ga  Ga14  1  0.67372400  0.53146100  0.77843400  1
  Ga  Ga15  1  0.53146100  0.77843400  0.67372400  1
  Ga  Ga16  1  0.92522100  0.22209700  0.55099300  1
  Ga  Ga17  1  0.22209700  0.55099300  0.92522100  1
  Ga  Ga18  1  0.55099300  0.92522100  0.22209700  1
  Ga  Ga19  1  0.07477900  0.77790300  0.44900700  1
  Ga  Ga20  1  0.77790300  0.44900700  0.07477900  1
  Ga  Ga21  1  0.44900700  0.07477900  0.77790300  1
  Ga  Ga22  1  0.21494100  0.03369300  0.40137000  1
  Ga  Ga23  1  0.03369300  0.40137000  0.21494100  1
  Ga  Ga24  1  0.40137000  0.21494100  0.03369300  1
  Ga  Ga25  1  0.78505900  0.96630700  0.59863000  1
  Ga  Ga26  1  0.96630700  0.59863000  0.78505900  1
  Ga  Ga27  1  0.59863000  0.78505900  0.96630700  1
  Ga  Ga28  1  0.25565500  0.95065700  0.12586800  1
  Ga  Ga29  1  0.95065700  0.12586800  0.25565500  1
  Ga  Ga30  1  0.12586800  0.25565500  0.95065700  1
  Ga  Ga31  1  0.74434500  0.04934300  0.87413200  1
  Ga  Ga32  1  0.04934300  0.87413200  0.74434500  1
  Ga  Ga33  1  0.87413200  0.74434500  0.04934300  1
  Ga  Ga34  1  0.82507000  0.87516100  0.31703600  1
  Ga  Ga35  1  0.87516100  0.31703600  0.82507000  1
  Ga  Ga36  1  0.31703600  0.82507000  0.87516100  1
  Ga  Ga37  1  0.17493000  0.12483900  0.68296400  1
  Ga  Ga38  1  0.12483900  0.68296400  0.17493000  1
  Ga  Ga39  1  0.68296400  0.17493000  0.12483900  1
  Ge  Ge40  1  0.00000000  0.00000000  0.00000000  1
  Mo  Mo41  1  0.21272100  0.21272100  0.21272100  1
  Mo  Mo42  1  0.78727900  0.78727900  0.78727900  1
  Mo  Mo43  1  0.38711500  0.71297800  0.11081900  1
  Mo  Mo44  1  0.71297800  0.11081900  0.38711500  1
  Mo  Mo45  1  0.11081900  0.38711500  0.71297800  1
  Mo  Mo46  1  0.61288500  0.28702200  0.88918100  1
  Mo  Mo47  1  0.28702200  0.88918100  0.61288500  1
  Mo  Mo48  1  0.88918100  0.61288500  0.28702200  1
