# generated using pymatgen
data_Ca5Si(PO6)2
_symmetry_space_group_name_H-M   'P 1'
_cell_length_a   6.79427300
_cell_length_b   10.19719700
_cell_length_c   15.56043100
_cell_angle_alpha   90.00000000
_cell_angle_beta   90.00000000
_cell_angle_gamma   90.00000000
_symmetry_Int_Tables_number   1
_chemical_formula_structural   Ca5Si(PO6)2
_chemical_formula_sum   'Ca20 Si4 P8 O48'
_cell_volume   1078.06618711
_cell_formula_units_Z   4
loop_
 _symmetry_equiv_pos_site_id
 _symmetry_equiv_pos_as_xyz
  1  'x, y, z'
loop_
 _atom_site_type_symbol
 _atom_site_label
 _atom_site_symmetry_multiplicity
 _atom_site_fract_x
 _atom_site_fract_y
 _atom_site_fract_z
 _atom_site_occupancy
  Ca  Ca0  1  0.21033300  0.68574100  0.49781700  1
  Ca  Ca1  1  0.71033300  0.81425900  0.50218300  1
  Ca  Ca2  1  0.28966700  0.31425900  0.99781700  1
  Ca  Ca3  1  0.78966700  0.18574100  0.00218300  1
  Ca  Ca4  1  0.88404400  0.56823600  0.65954000  1
  Ca  Ca5  1  0.38404400  0.93176400  0.34046000  1
  Ca  Ca6  1  0.61595600  0.43176400  0.15954000  1
  Ca  Ca7  1  0.11595600  0.06823600  0.84046000  1
  Ca  Ca8  1  0.61835400  0.43764400  0.84308500  1
  Ca  Ca9  1  0.11835400  0.06235600  0.15691500  1
  Ca  Ca10  1  0.88164600  0.56235600  0.34308500  1
  Ca  Ca11  1  0.38164600  0.93764400  0.65691500  1
  Ca  Ca12  1  0.07737800  0.66146500  0.85683900  1
  Ca  Ca13  1  0.57737800  0.83853500  0.14316100  1
  Ca  Ca14  1  0.42262200  0.33853500  0.35683900  1
  Ca  Ca15  1  0.92262200  0.16146500  0.64316100  1
  Ca  Ca16  1  0.41402300  0.33346800  0.64316500  1
  Ca  Ca17  1  0.91402300  0.16653200  0.35683500  1
  Ca  Ca18  1  0.08597700  0.66653200  0.14316500  1
  Ca  Ca19  1  0.58597700  0.83346800  0.85683500  1
  Si  Si20  1  0.89837600  0.86849500  0.67799100  1
  Si  Si21  1  0.39837600  0.63150500  0.32200900  1
  Si  Si22  1  0.60162400  0.13150500  0.17799100  1
  Si  Si23  1  0.10162400  0.36849500  0.82200900  1
  P  P24  1  0.22357700  0.07828300  0.49902900  1
  P  P25  1  0.72357700  0.42171700  0.50097100  1
  P  P26  1  0.27642300  0.92171700  0.99902900  1
  P  P27  1  0.77642300  0.57828300  0.00097100  1
  P  P28  1  0.60152800  0.13086700  0.82265200  1
  P  P29  1  0.10152800  0.36913300  0.17734800  1
  P  P30  1  0.89847200  0.86913300  0.32265200  1
  P  P31  1  0.39847200  0.63086700  0.67734800  1
  O  O32  1  0.71528600  0.95599600  0.63701500  1
  O  O33  1  0.21528600  0.54400400  0.36298500  1
  O  O34  1  0.78471400  0.04400400  0.13701500  1
  O  O35  1  0.28471400  0.45599600  0.86298500  1
  O  O36  1  0.77450200  0.04823600  0.85933200  1
  O  O37  1  0.27450200  0.45176400  0.14066800  1
  O  O38  1  0.72549800  0.95176400  0.35933200  1
  O  O39  1  0.22549800  0.54823600  0.64066800  1
  O  O40  1  0.29538700  0.14689500  0.58291600  1
  O  O41  1  0.79538700  0.35310500  0.41708400  1
  O  O42  1  0.20461300  0.85310500  0.08291600  1
  O  O43  1  0.70461300  0.64689500  0.91708400  1
  O  O44  1  0.20589600  0.85351800  0.91478400  1
  O  O45  1  0.70589600  0.64648200  0.08521600  1
  O  O46  1  0.29410400  0.14648200  0.41478400  1
  O  O47  1  0.79410400  0.35351800  0.58521600  1
  O  O48  1  0.99573800  0.07987900  0.49921300  1
  O  O49  1  0.49573800  0.42012100  0.50078700  1
  O  O50  1  0.50426200  0.92012100  0.99921300  1
  O  O51  1  0.00426200  0.57987900  0.00078700  1
  O  O52  1  0.06607000  0.97659300  0.70698100  1
  O  O53  1  0.56607000  0.52340700  0.29301900  1
  O  O54  1  0.43393000  0.02340700  0.20698100  1
  O  O55  1  0.93393000  0.47659300  0.79301900  1
  O  O56  1  0.44229000  0.02926600  0.79518200  1
  O  O57  1  0.94229000  0.47073400  0.20481800  1
  O  O58  1  0.05771000  0.97073400  0.29518200  1
  O  O59  1  0.55771000  0.52926600  0.70481800  1
  O  O60  1  0.84059900  0.77130500  0.75878200  1
  O  O61  1  0.34059900  0.72869500  0.24121800  1
  O  O62  1  0.65940100  0.22869500  0.25878200  1
  O  O63  1  0.15940100  0.27130500  0.74121800  1
  O  O64  1  0.65643700  0.22255600  0.74616400  1
  O  O65  1  0.15643700  0.27744400  0.25383600  1
  O  O66  1  0.84356300  0.77744400  0.24616400  1
  O  O67  1  0.34356300  0.72255600  0.75383600  1
  O  O68  1  0.31561000  0.93712700  0.50008600  1
  O  O69  1  0.81561000  0.56287300  0.49991400  1
  O  O70  1  0.18439000  0.06287300  0.00008600  1
  O  O71  1  0.68439000  0.43712700  0.99991400  1
  O  O72  1  0.97549100  0.77286100  0.59859400  1
  O  O73  1  0.47549100  0.72713900  0.40140600  1
  O  O74  1  0.52450900  0.22713900  0.09859400  1
  O  O75  1  0.02450900  0.27286100  0.90140600  1
  O  O76  1  0.52662500  0.22032100  0.89694100  1
  O  O77  1  0.02662500  0.27967900  0.10305900  1
  O  O78  1  0.97337500  0.77967900  0.39694100  1
  O  O79  1  0.47337500  0.72032100  0.60305900  1
