# generated using pymatgen
data_Y3(SiNi3)2
_symmetry_space_group_name_H-M   'P 1'
_cell_length_a   7.60351772
_cell_length_b   7.60351772
_cell_length_c   7.60351772
_cell_angle_alpha   109.47122063
_cell_angle_beta   109.47122063
_cell_angle_gamma   109.47122063
_symmetry_Int_Tables_number   1
_chemical_formula_structural   Y3(SiNi3)2
_chemical_formula_sum   'Y6 Si4 Ni12'
_cell_volume   338.39333123
_cell_formula_units_Z   2
loop_
 _symmetry_equiv_pos_site_id
 _symmetry_equiv_pos_as_xyz
  1  'x, y, z'
loop_
 _atom_site_type_symbol
 _atom_site_label
 _atom_site_symmetry_multiplicity
 _atom_site_fract_x
 _atom_site_fract_y
 _atom_site_fract_z
 _atom_site_occupancy
  Y  Y0  1  0.00000000  0.28550500  0.28550500  1
  Y  Y1  1  0.00000000  0.71449500  0.71449500  1
  Y  Y2  1  0.28550500  0.00000000  0.28550500  1
  Y  Y3  1  0.71449500  0.00000000  0.71449500  1
  Y  Y4  1  0.28550500  0.28550500  0.00000000  1
  Y  Y5  1  0.71449500  0.71449500  0.00000000  1
  Si  Si6  1  0.50000000  0.50000000  0.50000000  1
  Si  Si7  1  0.00000000  0.00000000  0.50000000  1
  Si  Si8  1  0.00000000  0.50000000  0.00000000  1
  Si  Si9  1  0.50000000  0.00000000  0.00000000  1
  Ni  Ni10  1  0.66032300  0.33016100  0.33016100  1
  Ni  Ni11  1  0.33967700  0.66983900  0.66983900  1
  Ni  Ni12  1  0.00000000  0.33016100  0.66983900  1
  Ni  Ni13  1  0.00000000  0.66983900  0.33016100  1
  Ni  Ni14  1  0.33016100  0.66032300  0.33016100  1
  Ni  Ni15  1  0.66983900  0.00000000  0.33016100  1
  Ni  Ni16  1  0.66983900  0.33967700  0.66983900  1
  Ni  Ni17  1  0.33016100  0.00000000  0.66983900  1
  Ni  Ni18  1  0.33016100  0.33016100  0.66032300  1
  Ni  Ni19  1  0.66983900  0.66983900  0.33967700  1
  Ni  Ni20  1  0.66983900  0.33016100  0.00000000  1
  Ni  Ni21  1  0.33016100  0.66983900  0.00000000  1
