# generated using pymatgen
data_KEuH2S2O9
_symmetry_space_group_name_H-M   'P 1'
_cell_length_a   10.49499600
_cell_length_b   8.70309100
_cell_length_c   10.77467872
_cell_angle_alpha   90.00000000
_cell_angle_beta   119.11663712
_cell_angle_gamma   90.00000000
_symmetry_Int_Tables_number   1
_chemical_formula_structural   KEuH2S2O9
_chemical_formula_sum   'K4 Eu4 H8 S8 O36'
_cell_volume   859.78160947
_cell_formula_units_Z   4
loop_
 _symmetry_equiv_pos_site_id
 _symmetry_equiv_pos_as_xyz
  1  'x, y, z'
loop_
 _atom_site_type_symbol
 _atom_site_label
 _atom_site_symmetry_multiplicity
 _atom_site_fract_x
 _atom_site_fract_y
 _atom_site_fract_z
 _atom_site_occupancy
  K  K0  1  0.28794800  0.68194700  0.80847700  1
  K  K1  1  0.71205200  0.18194700  0.69152300  1
  K  K2  1  0.71205200  0.31805300  0.19152300  1
  K  K3  1  0.28794800  0.81805300  0.30847700  1
  Eu  Eu4  1  0.75729400  0.64721600  0.53383800  1
  Eu  Eu5  1  0.24270600  0.14721600  0.96616200  1
  Eu  Eu6  1  0.24270600  0.35278400  0.46616200  1
  Eu  Eu7  1  0.75729400  0.85278400  0.03383800  1
  H  H8  1  0.91006800  0.97298200  0.61145600  1
  H  H9  1  0.08993200  0.47298200  0.88854400  1
  H  H10  1  0.08993200  0.02701800  0.38854400  1
  H  H11  1  0.91006800  0.52701800  0.11145600  1
  H  H12  1  0.78561200  0.97300100  0.45450200  1
  H  H13  1  0.21438800  0.47300100  0.04549800  1
  H  H14  1  0.21438800  0.02699900  0.54549800  1
  H  H15  1  0.78561200  0.52699900  0.95450200  1
  S  S16  1  0.55137200  0.63325200  0.67926500  1
  S  S17  1  0.44862800  0.13325200  0.82073500  1
  S  S18  1  0.44862800  0.36674800  0.32073500  1
  S  S19  1  0.55137200  0.86674800  0.17926500  1
  S  S20  1  0.99138000  0.69170500  0.39383400  1
  S  S21  1  0.00862000  0.19170500  0.10616600  1
  S  S22  1  0.00862000  0.30829500  0.60616600  1
  S  S23  1  0.99138000  0.80829500  0.89383400  1
  O  O24  1  0.57410900  0.71099400  0.81105900  1
  O  O25  1  0.42589100  0.21099400  0.68894100  1
  O  O26  1  0.42589100  0.28900600  0.18894100  1
  O  O27  1  0.57410900  0.78900600  0.31105900  1
  O  O28  1  0.40533300  0.55734000  0.61395500  1
  O  O29  1  0.59466700  0.05734000  0.88604500  1
  O  O30  1  0.59466700  0.44266000  0.38604500  1
  O  O31  1  0.40533300  0.94266000  0.11395500  1
  O  O32  1  0.55531900  0.74589000  0.57567900  1
  O  O33  1  0.44468100  0.24589000  0.92432100  1
  O  O34  1  0.44468100  0.25411000  0.42432100  1
  O  O35  1  0.55531900  0.75411000  0.07567900  1
  O  O36  1  0.67000400  0.51898600  0.71022500  1
  O  O37  1  0.32999600  0.01898600  0.78977500  1
  O  O38  1  0.32999600  0.48101400  0.28977500  1
  O  O39  1  0.67000400  0.98101400  0.21022500  1
  O  O40  1  0.95523900  0.81344600  0.28251700  1
  O  O41  1  0.04476100  0.31344600  0.21748300  1
  O  O42  1  0.04476100  0.18655400  0.71748300  1
  O  O43  1  0.95523900  0.68655400  0.78251700  1
  O  O44  1  0.09332100  0.58250500  0.37963100  1
  O  O45  1  0.90667900  0.08250500  0.12036900  1
  O  O46  1  0.90667900  0.41749500  0.62036900  1
  O  O47  1  0.09332100  0.91749500  0.87963100  1
  O  O48  1  0.85315500  0.61041100  0.36478000  1
  O  O49  1  0.14684500  0.11041100  0.13522000  1
  O  O50  1  0.14684500  0.38958900  0.63522000  1
  O  O51  1  0.85315500  0.88958900  0.86478000  1
  O  O52  1  0.05766100  0.76127100  0.53630300  1
  O  O53  1  0.94233900  0.26127100  0.96369700  1
  O  O54  1  0.94233900  0.23872900  0.46369700  1
  O  O55  1  0.05766100  0.73872900  0.03630300  1
  O  O56  1  0.81077900  0.93509700  0.54944800  1
  O  O57  1  0.18922100  0.43509700  0.95055200  1
  O  O58  1  0.18922100  0.06490300  0.45055200  1
  O  O59  1  0.81077900  0.56490300  0.04944800  1
