# generated using pymatgen
data_CsLiZnS2
_symmetry_space_group_name_H-M   'P 1'
_cell_length_a   7.70477095
_cell_length_b   7.70477095
_cell_length_c   7.70477095
_cell_angle_alpha   149.25198564
_cell_angle_beta   149.25198564
_cell_angle_gamma   44.04052760
_symmetry_Int_Tables_number   1
_chemical_formula_structural   CsLiZnS2
_chemical_formula_sum   'Cs1 Li1 Zn1 S2'
_cell_volume   119.21303474
_cell_formula_units_Z   1
loop_
 _symmetry_equiv_pos_site_id
 _symmetry_equiv_pos_as_xyz
  1  'x, y, z'
loop_
 _atom_site_type_symbol
 _atom_site_label
 _atom_site_symmetry_multiplicity
 _atom_site_fract_x
 _atom_site_fract_y
 _atom_site_fract_z
 _atom_site_occupancy
  Cs  Cs0  1  0.00000000  0.00000000  0.00000000  1
  Li  Li1  1  0.25000000  0.75000000  0.50000000  1
  Zn  Zn2  1  0.75000000  0.25000000  0.50000000  1
  S  S3  1  0.65820500  0.65820500  0.00000000  1
  S  S4  1  0.34179500  0.34179500  0.00000000  1
