# generated using pymatgen
data_Hf3AgHg3F20
_symmetry_space_group_name_H-M   'P 1'
_cell_length_a   10.77755439
_cell_length_b   10.77755439
_cell_length_c   8.63257400
_cell_angle_alpha   90.00000000
_cell_angle_beta   90.00000000
_cell_angle_gamma   120.00000237
_symmetry_Int_Tables_number   1
_chemical_formula_structural   Hf3AgHg3F20
_chemical_formula_sum   'Hf6 Ag2 Hg6 F40'
_cell_volume   868.38312899
_cell_formula_units_Z   2
loop_
 _symmetry_equiv_pos_site_id
 _symmetry_equiv_pos_as_xyz
  1  'x, y, z'
loop_
 _atom_site_type_symbol
 _atom_site_label
 _atom_site_symmetry_multiplicity
 _atom_site_fract_x
 _atom_site_fract_y
 _atom_site_fract_z
 _atom_site_occupancy
  Hf  Hf0  1  0.41826300  0.14006100  0.25000000  1
  Hf  Hf1  1  0.58173700  0.85993900  0.75000000  1
  Hf  Hf2  1  0.85993900  0.27820200  0.25000000  1
  Hf  Hf3  1  0.14006100  0.72179800  0.75000000  1
  Hf  Hf4  1  0.72179800  0.58173700  0.25000000  1
  Hf  Hf5  1  0.27820200  0.41826300  0.75000000  1
  Ag  Ag6  1  0.00000000  0.00000000  0.25000000  1
  Ag  Ag7  1  0.00000000  0.00000000  0.75000000  1
  Hg  Hg8  1  0.27071900  0.43053900  0.25000000  1
  Hg  Hg9  1  0.72928100  0.56946100  0.75000000  1
  Hg  Hg10  1  0.56946100  0.84018100  0.25000000  1
  Hg  Hg11  1  0.43053900  0.15981900  0.75000000  1
  Hg  Hg12  1  0.15981900  0.72928100  0.25000000  1
  Hg  Hg13  1  0.84018100  0.27071900  0.75000000  1
  F  F14  1  0.42506800  0.14516200  0.02002600  1
  F  F15  1  0.57493200  0.85483800  0.97997400  1
  F  F16  1  0.85483800  0.27990600  0.02002600  1
  F  F17  1  0.57493200  0.85483800  0.52002600  1
  F  F18  1  0.14516200  0.72009400  0.97997400  1
  F  F19  1  0.42506800  0.14516200  0.47997400  1
  F  F20  1  0.72009400  0.57493200  0.02002600  1
  F  F21  1  0.14516200  0.72009400  0.52002600  1
  F  F22  1  0.27990600  0.42506800  0.97997400  1
  F  F23  1  0.85483800  0.27990600  0.47997400  1
  F  F24  1  0.27990600  0.42506800  0.52002600  1
  F  F25  1  0.72009400  0.57493200  0.47997400  1
  F  F26  1  0.28273100  0.22208500  0.25000000  1
  F  F27  1  0.71726900  0.77791500  0.75000000  1
  F  F28  1  0.77791500  0.06064700  0.25000000  1
  F  F29  1  0.22208500  0.93935300  0.75000000  1
  F  F30  1  0.93935300  0.71726900  0.25000000  1
  F  F31  1  0.06064700  0.28273100  0.75000000  1
  F  F32  1  0.02969200  0.23311500  0.25000000  1
  F  F33  1  0.97030800  0.76688500  0.75000000  1
  F  F34  1  0.76688500  0.79657800  0.25000000  1
  F  F35  1  0.23311500  0.20342200  0.75000000  1
  F  F36  1  0.20342200  0.97030800  0.25000000  1
  F  F37  1  0.79657800  0.02969200  0.75000000  1
  F  F38  1  0.33333300  0.66666700  0.25000000  1
  F  F39  1  0.66666700  0.33333300  0.75000000  1
  F  F40  1  0.63421000  0.18547600  0.25000000  1
  F  F41  1  0.36579000  0.81452400  0.75000000  1
  F  F42  1  0.81452400  0.44873400  0.25000000  1
  F  F43  1  0.18547600  0.55126600  0.75000000  1
  F  F44  1  0.55126600  0.36579000  0.25000000  1
  F  F45  1  0.44873400  0.63421000  0.75000000  1
  F  F46  1  0.05330300  0.46755200  0.25000000  1
  F  F47  1  0.94669700  0.53244800  0.75000000  1
  F  F48  1  0.53244800  0.58575100  0.25000000  1
  F  F49  1  0.46755200  0.41424900  0.75000000  1
  F  F50  1  0.41424900  0.94669700  0.25000000  1
  F  F51  1  0.58575100  0.05330300  0.75000000  1
  F  F52  1  0.00000000  0.00000000  0.00000000  1
  F  F53  1  0.00000000  0.00000000  0.50000000  1
