# generated using pymatgen
data_VCr
_symmetry_space_group_name_H-M   'P 1'
_cell_length_a   2.53305848
_cell_length_b   2.53305848
_cell_length_c   4.08625600
_cell_angle_alpha   90.00000000
_cell_angle_beta   90.00000000
_cell_angle_gamma   109.57961262
_symmetry_Int_Tables_number   1
_chemical_formula_structural   VCr
_chemical_formula_sum   'V1 Cr1'
_cell_volume   24.70292548
_cell_formula_units_Z   1
loop_
 _symmetry_equiv_pos_site_id
 _symmetry_equiv_pos_as_xyz
  1  'x, y, z'
loop_
 _atom_site_type_symbol
 _atom_site_label
 _atom_site_symmetry_multiplicity
 _atom_site_fract_x
 _atom_site_fract_y
 _atom_site_fract_z
 _atom_site_occupancy
  V  V0  1  0.50000000  0.50000000  0.50000000  1
  Cr  Cr1  1  0.00000000  0.00000000  0.00000000  1
