# generated using pymatgen
data_AlPPd4
_symmetry_space_group_name_H-M   'P 1'
_cell_length_a   3.46437900
_cell_length_b   6.66086000
_cell_length_c   11.52042279
_cell_angle_alpha   89.89650827
_cell_angle_beta   90.00000000
_cell_angle_gamma   90.00000000
_symmetry_Int_Tables_number   1
_chemical_formula_structural   AlPPd4
_chemical_formula_sum   'Al3 P3 Pd12'
_cell_volume   265.84188779
_cell_formula_units_Z   3
loop_
 _symmetry_equiv_pos_site_id
 _symmetry_equiv_pos_as_xyz
  1  'x, y, z'
loop_
 _atom_site_type_symbol
 _atom_site_label
 _atom_site_symmetry_multiplicity
 _atom_site_fract_x
 _atom_site_fract_y
 _atom_site_fract_z
 _atom_site_occupancy
  Al  Al0  1  0.00000000  0.50218000  0.16643400  1
  Al  Al1  1  0.00000000  0.49836400  0.83432300  1
  Al  Al2  1  0.00000000  0.00141600  0.33213500  1
  P  P3  1  0.50000000  0.00163900  0.00057800  1
  P  P4  1  0.50000000  0.49724200  0.49984400  1
  P  P5  1  0.00000000  0.99701300  0.66707900  1
  Pd  Pd6  1  0.00000000  0.74385700  0.99855800  1
  Pd  Pd7  1  0.00000000  0.23625900  0.50567600  1
  Pd  Pd8  1  0.00000000  0.63659000  0.63053900  1
  Pd  Pd9  1  0.00000000  0.13047700  0.12719700  1
  Pd  Pd10  1  0.00000000  0.12369800  0.86382400  1
  Pd  Pd11  1  0.00000000  0.63013900  0.37341800  1
  Pd  Pd12  1  0.50000000  0.89911000  0.50515100  1
  Pd  Pd13  1  0.50000000  0.39171600  0.99852200  1
  Pd  Pd14  1  0.50000000  0.80719900  0.79833800  1
  Pd  Pd15  1  0.50000000  0.30299000  0.30451000  1
  Pd  Pd16  1  0.50000000  0.29814400  0.69491300  1
  Pd  Pd17  1  0.50000000  0.80216600  0.19896200  1
