# generated using pymatgen
data_CsTaS3
_symmetry_space_group_name_H-M   'P 1'
_cell_length_a   7.48849706
_cell_length_b   7.48849706
_cell_length_c   6.06128300
_cell_angle_alpha   90.00000000
_cell_angle_beta   90.00000000
_cell_angle_gamma   120.00000939
_symmetry_Int_Tables_number   1
_chemical_formula_structural   CsTaS3
_chemical_formula_sum   'Cs2 Ta2 S6'
_cell_volume   294.36385364
_cell_formula_units_Z   2
loop_
 _symmetry_equiv_pos_site_id
 _symmetry_equiv_pos_as_xyz
  1  'x, y, z'
loop_
 _atom_site_type_symbol
 _atom_site_label
 _atom_site_symmetry_multiplicity
 _atom_site_fract_x
 _atom_site_fract_y
 _atom_site_fract_z
 _atom_site_occupancy
  Cs  Cs0  1  0.66666700  0.33333300  0.24963300  1
  Cs  Cs1  1  0.33333300  0.66666700  0.74963300  1
  Ta  Ta2  1  0.00000000  0.00000000  0.54463500  1
  Ta  Ta3  1  0.00000000  0.00000000  0.04463500  1
  S  S4  1  0.30580800  0.15290400  0.74647700  1
  S  S5  1  0.84709600  0.69419200  0.74647700  1
  S  S6  1  0.84709600  0.15290400  0.74647700  1
  S  S7  1  0.69419200  0.84709600  0.24647700  1
  S  S8  1  0.15290400  0.30580800  0.24647700  1
  S  S9  1  0.15290400  0.84709600  0.24647700  1
