# generated using pymatgen
data_Ca2MgPd2
_symmetry_space_group_name_H-M   'P 1'
_cell_length_a   5.80493711
_cell_length_b   5.80493711
_cell_length_c   5.80493711
_cell_angle_alpha   136.20271521
_cell_angle_beta   118.53553576
_cell_angle_gamma   78.49246796
_symmetry_Int_Tables_number   1
_chemical_formula_structural   Ca2MgPd2
_chemical_formula_sum   'Ca2 Mg1 Pd2'
_cell_volume   115.49137783
_cell_formula_units_Z   1
loop_
 _symmetry_equiv_pos_site_id
 _symmetry_equiv_pos_as_xyz
  1  'x, y, z'
loop_
 _atom_site_type_symbol
 _atom_site_label
 _atom_site_symmetry_multiplicity
 _atom_site_fract_x
 _atom_site_fract_y
 _atom_site_fract_z
 _atom_site_occupancy
  Ca  Ca0  1  0.69904100  0.19904100  0.50000000  1
  Ca  Ca1  1  0.30095900  0.80095900  0.50000000  1
  Mg  Mg2  1  0.00000000  0.00000000  0.00000000  1
  Pd  Pd3  1  0.73588000  0.50000000  0.23588000  1
  Pd  Pd4  1  0.26412000  0.50000000  0.76412000  1
