# generated using pymatgen
data_DyZnSi
_symmetry_space_group_name_H-M   'P 1'
_cell_length_a   4.11892552
_cell_length_b   4.11892552
_cell_length_c   4.04445900
_cell_angle_alpha   90.00000000
_cell_angle_beta   90.00000000
_cell_angle_gamma   119.99999232
_symmetry_Int_Tables_number   1
_chemical_formula_structural   DyZnSi
_chemical_formula_sum   'Dy1 Zn1 Si1'
_cell_volume   59.42360302
_cell_formula_units_Z   1
loop_
 _symmetry_equiv_pos_site_id
 _symmetry_equiv_pos_as_xyz
  1  'x, y, z'
loop_
 _atom_site_type_symbol
 _atom_site_label
 _atom_site_symmetry_multiplicity
 _atom_site_fract_x
 _atom_site_fract_y
 _atom_site_fract_z
 _atom_site_occupancy
  Dy  Dy0  1  0.33333300  0.66666700  0.00000000  1
  Zn  Zn1  1  0.66666700  0.33333300  0.50000000  1
  Si  Si2  1  0.00000000  0.00000000  0.50000000  1
