# generated using pymatgen
data_K3HoCl6
_symmetry_space_group_name_H-M   'P 1'
_cell_length_a   7.82783900
_cell_length_b   12.70739800
_cell_length_c   13.25931303
_cell_angle_alpha   71.28936110
_cell_angle_beta   90.00000000
_cell_angle_gamma   90.00000000
_symmetry_Int_Tables_number   1
_chemical_formula_structural   K3HoCl6
_chemical_formula_sum   'K12 Ho4 Cl24'
_cell_volume   1249.21916546
_cell_formula_units_Z   4
loop_
 _symmetry_equiv_pos_site_id
 _symmetry_equiv_pos_as_xyz
  1  'x, y, z'
loop_
 _atom_site_type_symbol
 _atom_site_label
 _atom_site_symmetry_multiplicity
 _atom_site_fract_x
 _atom_site_fract_y
 _atom_site_fract_z
 _atom_site_occupancy
  K  K0  1  0.43355100  0.73567700  0.31453900  1
  K  K1  1  0.56644900  0.26432300  0.68546100  1
  K  K2  1  0.93355100  0.76432300  0.68546100  1
  K  K3  1  0.06644900  0.23567700  0.31453900  1
  K  K4  1  0.96825200  0.63951900  0.09896200  1
  K  K5  1  0.03174800  0.36048100  0.90103800  1
  K  K6  1  0.46825200  0.86048100  0.90103800  1
  K  K7  1  0.53174800  0.13951900  0.09896200  1
  K  K8  1  0.93477700  0.88679400  0.32084500  1
  K  K9  1  0.06522300  0.11320600  0.67915500  1
  K  K10  1  0.43477700  0.61320600  0.67915500  1
  K  K11  1  0.56522300  0.38679400  0.32084500  1
  Ho  Ho12  1  0.00000000  0.50000000  0.50000000  1
  Ho  Ho13  1  0.50000000  0.00000000  0.50000000  1
  Ho  Ho14  1  0.00000000  0.00000000  0.00000000  1
  Ho  Ho15  1  0.50000000  0.50000000  0.00000000  1
  Cl  Cl16  1  0.49764900  0.62852900  0.11925200  1
  Cl  Cl17  1  0.50235100  0.37147100  0.88074800  1
  Cl  Cl18  1  0.99764900  0.87147100  0.88074800  1
  Cl  Cl19  1  0.00235100  0.12852900  0.11925200  1
  Cl  Cl20  1  0.29210500  0.99471000  0.34585400  1
  Cl  Cl21  1  0.70789500  0.00529000  0.65414600  1
  Cl  Cl22  1  0.79210500  0.50529000  0.65414600  1
  Cl  Cl23  1  0.20789500  0.49471000  0.34585400  1
  Cl  Cl24  1  0.78503600  0.60763100  0.34805000  1
  Cl  Cl25  1  0.21496400  0.39236900  0.65195000  1
  Cl  Cl26  1  0.28503600  0.89236900  0.65195000  1
  Cl  Cl27  1  0.71496400  0.10763100  0.34805000  1
  Cl  Cl28  1  0.64172100  0.80947100  0.50002100  1
  Cl  Cl29  1  0.35827900  0.19052900  0.49997900  1
  Cl  Cl30  1  0.14172100  0.69052900  0.49997900  1
  Cl  Cl31  1  0.85827900  0.30947100  0.50002100  1
  Cl  Cl32  1  0.18258400  0.84699600  0.13740600  1
  Cl  Cl33  1  0.81741600  0.15300400  0.86259400  1
  Cl  Cl34  1  0.68258400  0.65300400  0.86259400  1
  Cl  Cl35  1  0.31741600  0.34699600  0.13740600  1
  Cl  Cl36  1  0.71813900  0.90277700  0.10101400  1
  Cl  Cl37  1  0.28186100  0.09722300  0.89898600  1
  Cl  Cl38  1  0.21813900  0.59722300  0.89898600  1
  Cl  Cl39  1  0.78186100  0.40277700  0.10101400  1
