# generated using pymatgen
data_Yb(GaFe)6
_symmetry_space_group_name_H-M   'P 1'
_cell_length_a   6.56234665
_cell_length_b   6.56234665
_cell_length_c   6.56234665
_cell_angle_alpha   135.16004922
_cell_angle_beta   99.33172421
_cell_angle_gamma   97.39855276
_symmetry_Int_Tables_number   1
_chemical_formula_structural   Yb(GaFe)6
_chemical_formula_sum   'Yb1 Ga6 Fe6'
_cell_volume   184.17437888
_cell_formula_units_Z   1
loop_
 _symmetry_equiv_pos_site_id
 _symmetry_equiv_pos_as_xyz
  1  'x, y, z'
loop_
 _atom_site_type_symbol
 _atom_site_label
 _atom_site_symmetry_multiplicity
 _atom_site_fract_x
 _atom_site_fract_y
 _atom_site_fract_z
 _atom_site_occupancy
  Yb  Yb0  1  0.00000000  0.00000000  0.00000000  1
  Ga  Ga1  1  0.32486900  0.00000000  0.32486900  1
  Ga  Ga2  1  0.67513100  0.00000000  0.67513100  1
  Ga  Ga3  1  0.66001600  0.66001600  0.00000000  1
  Ga  Ga4  1  0.33998400  0.33998400  0.00000000  1
  Ga  Ga5  1  0.17718100  0.67718100  0.50000000  1
  Ga  Ga6  1  0.82281900  0.32281900  0.50000000  1
  Fe  Fe7  1  0.75279100  0.50000000  0.25279100  1
  Fe  Fe8  1  0.24720900  0.50000000  0.74720900  1
  Fe  Fe9  1  0.00000000  0.00000000  0.50000000  1
  Fe  Fe10  1  0.00000000  0.50000000  0.00000000  1
  Fe  Fe11  1  0.50000000  0.00000000  0.00000000  1
  Fe  Fe12  1  0.50000000  0.50000000  0.50000000  1
