# generated using pymatgen
data_Ca2GePd3
_symmetry_space_group_name_H-M   'P 1'
_cell_length_a   5.29028614
_cell_length_b   5.29028614
_cell_length_c   5.29028556
_cell_angle_alpha   64.69766690
_cell_angle_beta   64.69766690
_cell_angle_gamma   64.69766607
_symmetry_Int_Tables_number   1
_chemical_formula_structural   Ca2GePd3
_chemical_formula_sum   'Ca2 Ge1 Pd3'
_cell_volume   115.46227656
_cell_formula_units_Z   1
loop_
 _symmetry_equiv_pos_site_id
 _symmetry_equiv_pos_as_xyz
  1  'x, y, z'
loop_
 _atom_site_type_symbol
 _atom_site_label
 _atom_site_symmetry_multiplicity
 _atom_site_fract_x
 _atom_site_fract_y
 _atom_site_fract_z
 _atom_site_occupancy
  Ca  Ca0  1  0.87080700  0.87080700  0.87080700  1
  Ca  Ca1  1  0.12919300  0.12919300  0.12919300  1
  Ge  Ge2  1  0.50000000  0.50000000  0.50000000  1
  Pd  Pd3  1  0.50000000  0.50000000  0.00000000  1
  Pd  Pd4  1  0.00000000  0.50000000  0.50000000  1
  Pd  Pd5  1  0.50000000  0.00000000  0.50000000  1
