# generated using pymatgen
data_ZrVW
_symmetry_space_group_name_H-M   'P 1'
_cell_length_a   5.31006280
_cell_length_b   5.31006280
_cell_length_c   5.31006280
_cell_angle_alpha   119.98132013
_cell_angle_beta   119.85620280
_cell_angle_gamma   90.14080102
_symmetry_Int_Tables_number   1
_chemical_formula_structural   ZrVW
_chemical_formula_sum   'Zr2 V2 W2'
_cell_volume   106.00219516
_cell_formula_units_Z   2
loop_
 _symmetry_equiv_pos_site_id
 _symmetry_equiv_pos_as_xyz
  1  'x, y, z'
loop_
 _atom_site_type_symbol
 _atom_site_label
 _atom_site_symmetry_multiplicity
 _atom_site_fract_x
 _atom_site_fract_y
 _atom_site_fract_z
 _atom_site_occupancy
  Zr  Zr0  1  0.12485600  0.87485600  0.25000000  1
  Zr  Zr1  1  0.87514400  0.12514400  0.75000000  1
  V  V2  1  0.00000000  0.50000000  0.50000000  1
  V  V3  1  0.50000000  0.50000000  0.00000000  1
  W  W4  1  0.50000000  0.00000000  0.00000000  1
  W  W5  1  0.50000000  0.50000000  0.50000000  1
