# generated using pymatgen
data_K6Te3(H8O7)4
_symmetry_space_group_name_H-M   'P 1'
_cell_length_a   8.16066967
_cell_length_b   9.34313135
_cell_length_c   10.28043837
_cell_angle_alpha   101.91143083
_cell_angle_beta   106.78901273
_cell_angle_gamma   95.86402284
_symmetry_Int_Tables_number   1
_chemical_formula_structural   K6Te3(H8O7)4
_chemical_formula_sum   'K6 Te3 H32 O28'
_cell_volume   723.24066159
_cell_formula_units_Z   1
loop_
 _symmetry_equiv_pos_site_id
 _symmetry_equiv_pos_as_xyz
  1  'x, y, z'
loop_
 _atom_site_type_symbol
 _atom_site_label
 _atom_site_symmetry_multiplicity
 _atom_site_fract_x
 _atom_site_fract_y
 _atom_site_fract_z
 _atom_site_occupancy
  K  K0  1  0.38258300  0.80824000  0.04479300  1
  K  K1  1  0.61862800  0.19216600  0.95672100  1
  K  K2  1  0.99195000  0.52018900  0.30334900  1
  K  K3  1  0.03708500  0.46591900  0.70726400  1
  K  K4  1  0.41575200  0.78368700  0.41230300  1
  K  K5  1  0.57858800  0.21453900  0.58782300  1
  Te  Te6  1  0.12722300  0.15115400  0.04881800  1
  Te  Te7  1  0.86973400  0.84349000  0.94426600  1
  Te  Te8  1  0.00088400  0.00590300  0.50054900  1
  H  H9  1  0.81487800  0.78588000  0.52133300  1
  H  H10  1  0.20750700  0.23474100  0.49463800  1
  H  H11  1  0.16325000  0.75826200  0.59257100  1
  H  H12  1  0.83003200  0.25823600  0.42084900  1
  H  H13  1  0.21348200  0.02686500  0.84289700  1
  H  H14  1  0.78632900  0.97306400  0.15057700  1
  H  H15  1  0.27463000  0.64034600  0.64668800  1
  H  H16  1  0.71727200  0.36712700  0.35181900  1
  H  H17  1  0.96000200  0.17699800  0.22104500  1
  H  H18  1  0.04135300  0.82304100  0.77659200  1
  H  H19  1  0.37179800  0.45043000  0.47566300  1
  H  H20  1  0.68329800  0.52456600  0.53192100  1
  H  H21  1  0.29291200  0.31385800  0.33837700  1
  H  H22  1  0.64198500  0.65356000  0.64407600  1
  H  H23  1  0.44574000  0.09200200  0.27057600  1
  H  H24  1  0.55318300  0.90733700  0.72879100  1
  H  H25  1  0.63410300  0.04343600  0.32379600  1
  H  H26  1  0.36637400  0.95910100  0.67776300  1
  H  H27  1  0.07818700  0.64055000  0.09643700  1
  H  H28  1  0.92005600  0.35796100  0.90139000  1
  H  H29  1  0.73627900  0.67715900  0.12092100  1
  H  H30  1  0.26674500  0.31908300  0.88043600  1
  H  H31  1  0.51236100  0.67303300  0.80887000  1
  H  H32  1  0.48516400  0.32824900  0.19242100  1
  H  H33  1  0.71777900  0.73529400  0.27347200  1
  H  H34  1  0.28616100  0.26012800  0.72807400  1
  H  H35  1  0.92326400  0.09809700  0.71587100  1
  H  H36  1  0.07322400  0.90607800  0.28327200  1
  H  H37  1  0.40815000  0.51633100  0.81616700  1
  H  H38  1  0.59730500  0.48375500  0.18717100  1
  H  H39  1  0.18043000  0.50497600  0.08907700  1
  H  H40  1  0.81990100  0.49488400  0.90915000  1
  O  O41  1  0.90756500  0.13719100  0.63144100  1
  O  O42  1  0.08952400  0.87050200  0.36950900  1
  O  O43  1  0.27928000  0.06040700  0.94530700  1
  O  O44  1  0.71912600  0.93560700  0.04942900  1
  O  O45  1  0.66029700  0.66432500  0.18107200  1
  O  O46  1  0.34292100  0.33266900  0.82055400  1
  O  O47  1  0.19043100  0.65668400  0.56167200  1
  O  O48  1  0.79405800  0.35749100  0.44527200  1
  O  O49  1  0.91742900  0.03664000  0.88767800  1
  O  O50  1  0.08061400  0.95758500  0.10494400  1
  O  O51  1  0.39724800  0.61906200  0.80682200  1
  O  O52  1  0.60259000  0.38019000  0.19690100  1
  O  O53  1  0.97114800  0.23484700  0.15228700  1
  O  O54  1  0.02040800  0.75669400  0.83611900  1
  O  O55  1  0.79069300  0.84420300  0.45123700  1
  O  O56  1  0.21092100  0.16153500  0.55440200  1
  O  O57  1  0.50953700  0.01928600  0.31540900  1
  O  O58  1  0.49074000  0.98223300  0.68641800  1
  O  O59  1  0.19004500  0.60906600  0.14285400  1
  O  O60  1  0.80980000  0.39105100  0.85404200  1
  O  O61  1  0.32825100  0.21784300  0.20772500  1
  O  O62  1  0.66708000  0.77780900  0.78674200  1
  O  O63  1  0.12591300  0.31925700  0.97335000  1
  O  O64  1  0.87222500  0.67712000  0.02184000  1
  O  O65  1  0.87409600  0.08439500  0.35344800  1
  O  O66  1  0.12158200  0.92623200  0.64950700  1
  O  O67  1  0.27129600  0.37009000  0.42651200  1
  O  O68  1  0.59662200  0.58646500  0.54542500  1
