# generated using pymatgen
data_K2Pb3C3O9F2
_symmetry_space_group_name_H-M   'P 1'
_cell_length_a   5.37608906
_cell_length_b   5.37608906
_cell_length_c   23.62087300
_cell_angle_alpha   90.00000000
_cell_angle_beta   90.00000000
_cell_angle_gamma   120.00001299
_symmetry_Int_Tables_number   1
_chemical_formula_structural   K2Pb3C3O9F2
_chemical_formula_sum   'K4 Pb6 C6 O18 F4'
_cell_volume   591.23403667
_cell_formula_units_Z   2
loop_
 _symmetry_equiv_pos_site_id
 _symmetry_equiv_pos_as_xyz
  1  'x, y, z'
loop_
 _atom_site_type_symbol
 _atom_site_label
 _atom_site_symmetry_multiplicity
 _atom_site_fract_x
 _atom_site_fract_y
 _atom_site_fract_z
 _atom_site_occupancy
  K  K0  1  0.66666700  0.33333300  0.34677400  1
  K  K1  1  0.33333300  0.66666700  0.65322600  1
  K  K2  1  0.33333300  0.66666700  0.84677400  1
  K  K3  1  0.66666700  0.33333300  0.15322600  1
  Pb  Pb4  1  0.33333300  0.66666700  0.25000000  1
  Pb  Pb5  1  0.66666700  0.33333300  0.75000000  1
  Pb  Pb6  1  0.33333300  0.66666700  0.45191600  1
  Pb  Pb7  1  0.66666700  0.33333300  0.54808400  1
  Pb  Pb8  1  0.66666700  0.33333300  0.95191600  1
  Pb  Pb9  1  0.33333300  0.66666700  0.04808400  1
  C  C10  1  0.00000000  0.00000000  0.43484300  1
  C  C11  1  0.00000000  0.00000000  0.56515700  1
  C  C12  1  0.00000000  0.00000000  0.93484300  1
  C  C13  1  0.00000000  0.00000000  0.06515700  1
  C  C14  1  0.00000000  0.00000000  0.25000000  1
  C  C15  1  0.00000000  0.00000000  0.75000000  1
  O  O16  1  0.86000900  0.72001800  0.43511100  1
  O  O17  1  0.27998200  0.13999100  0.43511100  1
  O  O18  1  0.86000900  0.13999100  0.43511100  1
  O  O19  1  0.13999100  0.27998200  0.56488900  1
  O  O20  1  0.72001800  0.86000900  0.56488900  1
  O  O21  1  0.13999100  0.86000900  0.56488900  1
  O  O22  1  0.13999100  0.27998200  0.93511100  1
  O  O23  1  0.72001800  0.86000900  0.93511100  1
  O  O24  1  0.13999100  0.86000900  0.93511100  1
  O  O25  1  0.86000900  0.72001800  0.06488900  1
  O  O26  1  0.27998200  0.13999100  0.06488900  1
  O  O27  1  0.86000900  0.13999100  0.06488900  1
  O  O28  1  0.86007800  0.72015500  0.25000000  1
  O  O29  1  0.27984500  0.13992200  0.25000000  1
  O  O30  1  0.86007800  0.13992200  0.25000000  1
  O  O31  1  0.13992200  0.27984500  0.75000000  1
  O  O32  1  0.72015500  0.86007800  0.75000000  1
  O  O33  1  0.13992200  0.86007800  0.75000000  1
  F  F34  1  0.33333300  0.66666700  0.35418200  1
  F  F35  1  0.66666700  0.33333300  0.64581800  1
  F  F36  1  0.66666700  0.33333300  0.85418200  1
  F  F37  1  0.33333300  0.66666700  0.14581800  1
