# generated using pymatgen
data_Fe3P
_symmetry_space_group_name_H-M   'P 1'
_cell_length_a   6.76178891
_cell_length_b   6.76178891
_cell_length_c   6.76178891
_cell_angle_alpha   96.04236151
_cell_angle_beta   96.04236151
_cell_angle_gamma   142.13624640
_symmetry_Int_Tables_number   1
_chemical_formula_structural   Fe3P
_chemical_formula_sum   'Fe12 P4'
_cell_volume   179.49371525
_cell_formula_units_Z   4
loop_
 _symmetry_equiv_pos_site_id
 _symmetry_equiv_pos_as_xyz
  1  'x, y, z'
loop_
 _atom_site_type_symbol
 _atom_site_label
 _atom_site_symmetry_multiplicity
 _atom_site_fract_x
 _atom_site_fract_y
 _atom_site_fract_z
 _atom_site_occupancy
  Fe  Fe0  1  0.04124900  0.37250700  0.39336600  1
  Fe  Fe1  1  0.62749300  0.02085900  0.66874200  1
  Fe  Fe2  1  0.35211600  0.95875100  0.33125800  1
  Fe  Fe3  1  0.97914100  0.64788400  0.60663400  1
  Fe  Fe4  1  0.46225900  0.41231100  0.39001500  1
  Fe  Fe5  1  0.58768900  0.97770400  0.04994800  1
  Fe  Fe6  1  0.92775600  0.53774100  0.95005200  1
  Fe  Fe7  1  0.02229600  0.07224400  0.60998500  1
  Fe  Fe8  1  0.65936800  0.68663000  0.81522600  1
  Fe  Fe9  1  0.31337000  0.12859600  0.97273800  1
  Fe  Fe10  1  0.15585800  0.34063200  0.02726200  1
  Fe  Fe11  1  0.87140400  0.84414200  0.18477400  1
  P  P12  1  0.46161700  0.21540900  0.66377300  1
  P  P13  1  0.78459100  0.44836400  0.24620800  1
  P  P14  1  0.20215600  0.53838300  0.75379200  1
  P  P15  1  0.55163600  0.79784400  0.33622700  1
