# generated using pymatgen
data_Li2MgSi
_symmetry_space_group_name_H-M   'P 1'
_cell_length_a   6.36734900
_cell_length_b   6.36734900
_cell_length_c   6.36734900
_cell_angle_alpha   90.00000000
_cell_angle_beta   90.00000000
_cell_angle_gamma   90.00000000
_symmetry_Int_Tables_number   1
_chemical_formula_structural   Li2MgSi
_chemical_formula_sum   'Li8 Mg4 Si4'
_cell_volume   258.15227920
_cell_formula_units_Z   4
loop_
 _symmetry_equiv_pos_site_id
 _symmetry_equiv_pos_as_xyz
  1  'x, y, z'
loop_
 _atom_site_type_symbol
 _atom_site_label
 _atom_site_symmetry_multiplicity
 _atom_site_fract_x
 _atom_site_fract_y
 _atom_site_fract_z
 _atom_site_occupancy
  Li  Li0  1  0.50000000  0.50000000  0.50000000  1
  Li  Li1  1  0.50000000  0.50000000  0.00000000  1
  Li  Li2  1  0.50000000  0.00000000  0.50000000  1
  Li  Li3  1  0.00000000  0.50000000  0.50000000  1
  Li  Li4  1  0.27201300  0.27201300  0.72798700  1
  Li  Li5  1  0.27201300  0.72798700  0.27201300  1
  Li  Li6  1  0.72798700  0.27201300  0.27201300  1
  Li  Li7  1  0.72798700  0.72798700  0.72798700  1
  Mg  Mg8  1  0.00000000  0.00000000  0.00000000  1
  Mg  Mg9  1  0.00000000  0.00000000  0.50000000  1
  Mg  Mg10  1  0.00000000  0.50000000  0.00000000  1
  Mg  Mg11  1  0.50000000  0.00000000  0.00000000  1
  Si  Si12  1  0.74749600  0.74749600  0.25250400  1
  Si  Si13  1  0.74749600  0.25250400  0.74749600  1
  Si  Si14  1  0.25250400  0.74749600  0.74749600  1
  Si  Si15  1  0.25250400  0.25250400  0.25250400  1
