# generated using pymatgen
data_Ba3Dy(BO3)3
_symmetry_space_group_name_H-M   'P 1'
_cell_length_a   9.52147815
_cell_length_b   9.52147815
_cell_length_c   17.94875600
_cell_angle_alpha   90.00000000
_cell_angle_beta   90.00000000
_cell_angle_gamma   120.00000103
_symmetry_Int_Tables_number   1
_chemical_formula_structural   Ba3Dy(BO3)3
_chemical_formula_sum   'Ba18 Dy6 B18 O54'
_cell_volume   1409.20355766
_cell_formula_units_Z   6
loop_
 _symmetry_equiv_pos_site_id
 _symmetry_equiv_pos_as_xyz
  1  'x, y, z'
loop_
 _atom_site_type_symbol
 _atom_site_label
 _atom_site_symmetry_multiplicity
 _atom_site_fract_x
 _atom_site_fract_y
 _atom_site_fract_z
 _atom_site_occupancy
  Ba  Ba0  1  0.00000000  0.00000000  0.71917900  1
  Ba  Ba1  1  0.00000000  0.00000000  0.21917900  1
  Ba  Ba2  1  0.34624800  0.34624800  0.63031900  1
  Ba  Ba3  1  0.00000000  0.65375200  0.63031900  1
  Ba  Ba4  1  0.65375200  0.65375200  0.13031900  1
  Ba  Ba5  1  0.00000000  0.34624800  0.13031900  1
  Ba  Ba6  1  0.65375200  0.00000000  0.63031900  1
  Ba  Ba7  1  0.34624800  0.00000000  0.13031900  1
  Ba  Ba8  1  0.31975100  0.31975100  0.86967000  1
  Ba  Ba9  1  0.00000000  0.68024900  0.86967000  1
  Ba  Ba10  1  0.68024900  0.68024900  0.36967000  1
  Ba  Ba11  1  0.00000000  0.31975100  0.36967000  1
  Ba  Ba12  1  0.68024900  0.00000000  0.86967000  1
  Ba  Ba13  1  0.31975100  0.00000000  0.36967000  1
  Ba  Ba14  1  0.66666700  0.33333300  0.77350300  1
  Ba  Ba15  1  0.33333300  0.66666700  0.27350300  1
  Ba  Ba16  1  0.66666700  0.33333300  0.27350300  1
  Ba  Ba17  1  0.33333300  0.66666700  0.77350300  1
  Dy  Dy18  1  0.00000000  0.00000000  0.00324200  1
  Dy  Dy19  1  0.00000000  0.00000000  0.50324200  1
  Dy  Dy20  1  0.66666700  0.33333300  0.99786900  1
  Dy  Dy21  1  0.33333300  0.66666700  0.49786900  1
  Dy  Dy22  1  0.66666700  0.33333300  0.49786900  1
  Dy  Dy23  1  0.33333300  0.66666700  0.99786900  1
  B  B24  1  0.66695500  0.66695500  0.74893400  1
  B  B25  1  0.00000000  0.33304500  0.74893400  1
  B  B26  1  0.33304500  0.33304500  0.24893400  1
  B  B27  1  0.00000000  0.66695500  0.24893400  1
  B  B28  1  0.33304500  0.00000000  0.74893400  1
  B  B29  1  0.66695500  0.00000000  0.24893400  1
  B  B30  1  0.67286700  0.67286700  0.57562600  1
  B  B31  1  0.00000000  0.32713300  0.57562600  1
  B  B32  1  0.32713300  0.32713300  0.07562600  1
  B  B33  1  0.00000000  0.67286700  0.07562600  1
  B  B34  1  0.32713300  0.00000000  0.57562600  1
  B  B35  1  0.67286700  0.00000000  0.07562600  1
  B  B36  1  0.66119400  0.66119400  0.92139300  1
  B  B37  1  0.00000000  0.33880600  0.92139300  1
  B  B38  1  0.33880600  0.33880600  0.42139300  1
  B  B39  1  0.00000000  0.66119400  0.42139300  1
  B  B40  1  0.33880600  0.00000000  0.92139300  1
  B  B41  1  0.66119400  0.00000000  0.42139300  1
  O  O42  1  0.85339500  0.18660900  0.74952400  1
  O  O43  1  0.33321300  0.14660500  0.74952400  1
  O  O44  1  0.14660500  0.81339100  0.24952400  1
  O  O45  1  0.33321300  0.18660900  0.24952400  1
  O  O46  1  0.81339100  0.66678700  0.74952400  1
  O  O47  1  0.66678700  0.85339500  0.24952400  1
  O  O48  1  0.81339100  0.14660500  0.24952400  1
  O  O49  1  0.66678700  0.81339100  0.74952400  1
  O  O50  1  0.18660900  0.33321300  0.24952400  1
  O  O51  1  0.18660900  0.85339500  0.74952400  1
  O  O52  1  0.85339500  0.66678700  0.24952400  1
  O  O53  1  0.14660500  0.33321300  0.74952400  1
  O  O54  1  0.80673200  0.80673200  0.93056200  1
  O  O55  1  0.00000000  0.19326800  0.93056200  1
  O  O56  1  0.19326800  0.19326800  0.43056200  1
  O  O57  1  0.00000000  0.80673200  0.43056200  1
  O  O58  1  0.19326800  0.00000000  0.93056200  1
  O  O59  1  0.80673200  0.00000000  0.43056200  1
  O  O60  1  0.52017900  0.52017900  0.74845100  1
  O  O61  1  0.00000000  0.47982100  0.74845100  1
  O  O62  1  0.47982100  0.47982100  0.24845100  1
  O  O63  1  0.00000000  0.52017900  0.24845100  1
  O  O64  1  0.47982100  0.00000000  0.74845100  1
  O  O65  1  0.52017900  0.00000000  0.24845100  1
  O  O66  1  0.85356500  0.33759200  0.91672000  1
  O  O67  1  0.48402700  0.14643500  0.91672000  1
  O  O68  1  0.14643500  0.66240800  0.41672000  1
  O  O69  1  0.48402700  0.33759200  0.41672000  1
  O  O70  1  0.66240800  0.51597300  0.91672000  1
  O  O71  1  0.51597300  0.85356500  0.41672000  1
  O  O72  1  0.66240800  0.14643500  0.41672000  1
  O  O73  1  0.51597300  0.66240800  0.91672000  1
  O  O74  1  0.33759200  0.48402700  0.41672000  1
  O  O75  1  0.33759200  0.85356500  0.91672000  1
  O  O76  1  0.85356500  0.51597300  0.41672000  1
  O  O77  1  0.14643500  0.48402700  0.91672000  1
  O  O78  1  0.81804100  0.81804100  0.58441700  1
  O  O79  1  0.00000000  0.18195900  0.58441700  1
  O  O80  1  0.18195900  0.18195900  0.08441700  1
  O  O81  1  0.00000000  0.81804100  0.08441700  1
  O  O82  1  0.18195900  0.00000000  0.58441700  1
  O  O83  1  0.81804100  0.00000000  0.08441700  1
  O  O84  1  0.85416000  0.32690500  0.57127500  1
  O  O85  1  0.47274500  0.14584000  0.57127500  1
  O  O86  1  0.14584000  0.67309500  0.07127500  1
  O  O87  1  0.47274500  0.32690500  0.07127500  1
  O  O88  1  0.67309500  0.52725500  0.57127500  1
  O  O89  1  0.52725500  0.85416000  0.07127500  1
  O  O90  1  0.67309500  0.14584000  0.07127500  1
  O  O91  1  0.52725500  0.67309500  0.57127500  1
  O  O92  1  0.32690500  0.47274500  0.07127500  1
  O  O93  1  0.32690500  0.85416000  0.57127500  1
  O  O94  1  0.85416000  0.52725500  0.07127500  1
  O  O95  1  0.14584000  0.47274500  0.57127500  1
