# generated using pymatgen
data_Nb13AgO33
_symmetry_space_group_name_H-M   'P 1'
_cell_length_a   3.82254200
_cell_length_b   11.62848384
_cell_length_c   15.74115572
_cell_angle_alpha   91.84338627
_cell_angle_beta   90.00000000
_cell_angle_gamma   99.46012451
_symmetry_Int_Tables_number   1
_chemical_formula_structural   Nb13AgO33
_chemical_formula_sum   'Nb13 Ag1 O33'
_cell_volume   689.81730242
_cell_formula_units_Z   1
loop_
 _symmetry_equiv_pos_site_id
 _symmetry_equiv_pos_as_xyz
  1  'x, y, z'
loop_
 _atom_site_type_symbol
 _atom_site_label
 _atom_site_symmetry_multiplicity
 _atom_site_fract_x
 _atom_site_fract_y
 _atom_site_fract_z
 _atom_site_occupancy
  Nb  Nb0  1  0.70831600  0.41663100  0.62588500  1
  Nb  Nb1  1  0.29168400  0.58336900  0.37411500  1
  Nb  Nb2  1  0.91490700  0.82981400  0.32512800  1
  Nb  Nb3  1  0.08509300  0.17018600  0.67487200  1
  Nb  Nb4  1  0.15368300  0.30736700  0.90384500  1
  Nb  Nb5  1  0.84631700  0.69263300  0.09615500  1
  Nb  Nb6  1  0.92870200  0.85740300  0.77350700  1
  Nb  Nb7  1  0.07129800  0.14259700  0.22649300  1
  Nb  Nb8  1  0.77548900  0.55097800  0.86296800  1
  Nb  Nb9  1  0.22451100  0.44902200  0.13703200  1
  Nb  Nb10  1  0.86328000  0.72656100  0.53374700  1
  Nb  Nb11  1  0.13672000  0.27343900  0.46625300  1
  Nb  Nb12  1  0.00000000  0.00000000  0.00000000  1
  Ag  Ag13  1  0.50000000  0.00000000  0.50000000  1
  O  O14  1  0.08112200  0.16224300  0.95184500  1
  O  O15  1  0.91887800  0.83775700  0.04815500  1
  O  O16  1  0.43069500  0.86139000  0.74568800  1
  O  O17  1  0.56930500  0.13861000  0.25431200  1
  O  O18  1  0.73257400  0.46514800  0.73599600  1
  O  O19  1  0.26742600  0.53485200  0.26400400  1
  O  O20  1  0.67943800  0.35887600  0.90132600  1
  O  O21  1  0.32056200  0.64112400  0.09867400  1
  O  O22  1  0.65267700  0.30535300  0.49696000  1
  O  O23  1  0.34732300  0.69464700  0.50304000  1
  O  O24  1  0.25025900  0.50051800  0.86300000  1
  O  O25  1  0.74974100  0.49948200  0.13700000  1
  O  O26  1  0.80597200  0.61194400  0.97227900  1
  O  O27  1  0.19402800  0.38805600  0.02772100  1
  O  O28  1  0.89910700  0.79821400  0.63579200  1
  O  O29  1  0.10089300  0.20178600  0.36420800  1
  O  O30  1  0.60982600  0.21965200  0.66288800  1
  O  O31  1  0.39017400  0.78034800  0.33711200  1
  O  O32  1  0.96464900  0.92929800  0.88146300  1
  O  O33  1  0.03535100  0.07070200  0.11853700  1
  O  O34  1  0.87286100  0.74572100  0.21231400  1
  O  O35  1  0.12713900  0.25427900  0.78768600  1
  O  O36  1  0.93248000  0.86495900  0.45591400  1
  O  O37  1  0.06752000  0.13504100  0.54408600  1
  O  O38  1  0.84706500  0.69412900  0.80501100  1
  O  O39  1  0.15293500  0.30587100  0.19498900  1
  O  O40  1  0.77805500  0.55611000  0.56949600  1
  O  O41  1  0.22194500  0.44389000  0.43050400  1
  O  O42  1  0.81766400  0.63532800  0.38832800  1
  O  O43  1  0.18233600  0.36467200  0.61167200  1
  O  O44  1  0.50000000  0.00000000  0.00000000  1
  O  O45  1  0.98867200  0.97734400  0.28913200  1
  O  O46  1  0.01132800  0.02265600  0.71086800  1
