# generated using pymatgen
data_Mg2GaB2Ir5
_symmetry_space_group_name_H-M   'P 1'
_cell_length_a   9.49382800
_cell_length_b   9.49382800
_cell_length_c   2.94113100
_cell_angle_alpha   90.00000000
_cell_angle_beta   90.00000000
_cell_angle_gamma   90.00000000
_symmetry_Int_Tables_number   1
_chemical_formula_structural   Mg2GaB2Ir5
_chemical_formula_sum   'Mg4 Ga2 B4 Ir10'
_cell_volume   265.09228424
_cell_formula_units_Z   2
loop_
 _symmetry_equiv_pos_site_id
 _symmetry_equiv_pos_as_xyz
  1  'x, y, z'
loop_
 _atom_site_type_symbol
 _atom_site_label
 _atom_site_symmetry_multiplicity
 _atom_site_fract_x
 _atom_site_fract_y
 _atom_site_fract_z
 _atom_site_occupancy
  Mg  Mg0  1  0.82487900  0.32487900  0.00000000  1
  Mg  Mg1  1  0.17512100  0.67512100  0.00000000  1
  Mg  Mg2  1  0.32487900  0.17512100  0.00000000  1
  Mg  Mg3  1  0.67512100  0.82487900  0.00000000  1
  Ga  Ga4  1  0.50000000  0.50000000  0.00000000  1
  Ga  Ga5  1  0.00000000  0.00000000  0.00000000  1
  B  B6  1  0.62685200  0.12685200  0.00000000  1
  B  B7  1  0.37314800  0.87314800  0.00000000  1
  B  B8  1  0.12685200  0.37314800  0.00000000  1
  B  B9  1  0.87314800  0.62685200  0.00000000  1
  Ir  Ir10  1  0.50000000  0.00000000  0.50000000  1
  Ir  Ir11  1  0.00000000  0.50000000  0.50000000  1
  Ir  Ir12  1  0.71484500  0.57193400  0.50000000  1
  Ir  Ir13  1  0.28515500  0.42806600  0.50000000  1
  Ir  Ir14  1  0.21484500  0.92806600  0.50000000  1
  Ir  Ir15  1  0.78515500  0.07193400  0.50000000  1
  Ir  Ir16  1  0.42806600  0.71484500  0.50000000  1
  Ir  Ir17  1  0.57193400  0.28515500  0.50000000  1
  Ir  Ir18  1  0.07193400  0.21484500  0.50000000  1
  Ir  Ir19  1  0.92806600  0.78515500  0.50000000  1
