# generated using pymatgen
data_Ti2HC
_symmetry_space_group_name_H-M   'P 1'
_cell_length_a   5.14009996
_cell_length_b   5.14009996
_cell_length_c   5.14009953
_cell_angle_alpha   35.13294723
_cell_angle_beta   35.13294723
_cell_angle_gamma   35.13294074
_symmetry_Int_Tables_number   1
_chemical_formula_structural   Ti2HC
_chemical_formula_sum   'Ti2 H1 C1'
_cell_volume   40.16619769
_cell_formula_units_Z   1
loop_
 _symmetry_equiv_pos_site_id
 _symmetry_equiv_pos_as_xyz
  1  'x, y, z'
loop_
 _atom_site_type_symbol
 _atom_site_label
 _atom_site_symmetry_multiplicity
 _atom_site_fract_x
 _atom_site_fract_y
 _atom_site_fract_z
 _atom_site_occupancy
  Ti  Ti0  1  0.24366900  0.24366900  0.24366900  1
  Ti  Ti1  1  0.75633100  0.75633100  0.75633100  1
  H  H2  1  0.00000000  0.00000000  0.00000000  1
  C  C3  1  0.50000000  0.50000000  0.50000000  1
