# generated using pymatgen
data_Ba3TmRu2O9
_symmetry_space_group_name_H-M   'P 1'
_cell_length_a   5.93107644
_cell_length_b   5.93107644
_cell_length_c   14.54995600
_cell_angle_alpha   90.00000000
_cell_angle_beta   90.00000000
_cell_angle_gamma   120.00000495
_symmetry_Int_Tables_number   1
_chemical_formula_structural   Ba3TmRu2O9
_chemical_formula_sum   'Ba6 Tm2 Ru4 O18'
_cell_volume   443.26080732
_cell_formula_units_Z   2
loop_
 _symmetry_equiv_pos_site_id
 _symmetry_equiv_pos_as_xyz
  1  'x, y, z'
loop_
 _atom_site_type_symbol
 _atom_site_label
 _atom_site_symmetry_multiplicity
 _atom_site_fract_x
 _atom_site_fract_y
 _atom_site_fract_z
 _atom_site_occupancy
  Ba  Ba0  1  0.33333300  0.66666700  0.09291000  1
  Ba  Ba1  1  0.66666700  0.33333300  0.90709000  1
  Ba  Ba2  1  0.66666700  0.33333300  0.59291000  1
  Ba  Ba3  1  0.33333300  0.66666700  0.40709000  1
  Ba  Ba4  1  0.00000000  0.00000000  0.25000000  1
  Ba  Ba5  1  0.00000000  0.00000000  0.75000000  1
  Tm  Tm6  1  0.00000000  0.00000000  0.00000000  1
  Tm  Tm7  1  0.00000000  0.00000000  0.50000000  1
  Ru  Ru8  1  0.33333300  0.66666700  0.66345000  1
  Ru  Ru9  1  0.66666700  0.33333300  0.33655000  1
  Ru  Ru10  1  0.66666700  0.33333300  0.16345000  1
  Ru  Ru11  1  0.33333300  0.66666700  0.83655000  1
  O  O12  1  0.51030900  0.02061800  0.25000000  1
  O  O13  1  0.48969100  0.97938200  0.75000000  1
  O  O14  1  0.97938200  0.48969100  0.25000000  1
  O  O15  1  0.02061800  0.51030900  0.75000000  1
  O  O16  1  0.51030900  0.48969100  0.25000000  1
  O  O17  1  0.48969100  0.51030900  0.75000000  1
  O  O18  1  0.17462900  0.34925800  0.58702600  1
  O  O19  1  0.82537100  0.65074200  0.41297400  1
  O  O20  1  0.65074200  0.82537100  0.58702600  1
  O  O21  1  0.82537100  0.65074200  0.08702600  1
  O  O22  1  0.34925800  0.17462900  0.41297400  1
  O  O23  1  0.17462900  0.34925800  0.91297400  1
  O  O24  1  0.17462900  0.82537100  0.58702600  1
  O  O25  1  0.34925800  0.17462900  0.08702600  1
  O  O26  1  0.82537100  0.17462900  0.41297400  1
  O  O27  1  0.65074200  0.82537100  0.91297400  1
  O  O28  1  0.82537100  0.17462900  0.08702600  1
  O  O29  1  0.17462900  0.82537100  0.91297400  1
