# generated using pymatgen
data_CeTl(PS3)2
_symmetry_space_group_name_H-M   'P 1'
_cell_length_a   7.54659000
_cell_length_b   11.47165100
_cell_length_c   12.18866429
_cell_angle_alpha   70.53415454
_cell_angle_beta   90.00000000
_cell_angle_gamma   90.00000000
_symmetry_Int_Tables_number   1
_chemical_formula_structural   CeTl(PS3)2
_chemical_formula_sum   'Ce4 Tl4 P8 S24'
_cell_volume   994.88054592
_cell_formula_units_Z   4
loop_
 _symmetry_equiv_pos_site_id
 _symmetry_equiv_pos_as_xyz
  1  'x, y, z'
loop_
 _atom_site_type_symbol
 _atom_site_label
 _atom_site_symmetry_multiplicity
 _atom_site_fract_x
 _atom_site_fract_y
 _atom_site_fract_z
 _atom_site_occupancy
  Ce  Ce0  1  0.89349000  0.40223500  0.35231200  1
  Ce  Ce1  1  0.39349000  0.09776500  0.64768800  1
  Ce  Ce2  1  0.10651000  0.59776500  0.64768800  1
  Ce  Ce3  1  0.60651000  0.90223500  0.35231200  1
  Tl  Tl4  1  0.09098000  0.12564200  0.12666000  1
  Tl  Tl5  1  0.59098000  0.37435800  0.87334000  1
  Tl  Tl6  1  0.90902000  0.87435800  0.87334000  1
  Tl  Tl7  1  0.40902000  0.62564200  0.12666000  1
  P  P8  1  0.62174200  0.22874200  0.21216700  1
  P  P9  1  0.12174200  0.27125800  0.78783300  1
  P  P10  1  0.37825800  0.77125800  0.78783300  1
  P  P11  1  0.87825800  0.72874200  0.21216700  1
  P  P12  1  0.89955700  0.25507500  0.67206700  1
  P  P13  1  0.39955700  0.24492500  0.32793300  1
  P  P14  1  0.10044300  0.74492500  0.32793300  1
  P  P15  1  0.60044300  0.75507500  0.67206700  1
  S  S16  1  0.21291300  0.35513200  0.22436400  1
  S  S17  1  0.71291300  0.14486800  0.77563600  1
  S  S18  1  0.78708700  0.64486800  0.77563600  1
  S  S19  1  0.28708700  0.85513200  0.22436400  1
  S  S20  1  0.52701500  0.12750400  0.11877700  1
  S  S21  1  0.02701500  0.37249600  0.88122300  1
  S  S22  1  0.47298500  0.87249600  0.88122300  1
  S  S23  1  0.97298500  0.62750400  0.11877700  1
  S  S24  1  0.51759500  0.31391700  0.44498700  1
  S  S25  1  0.01759500  0.18608300  0.55501300  1
  S  S26  1  0.48240500  0.68608300  0.55501300  1
  S  S27  1  0.98240500  0.81391700  0.44498700  1
  S  S28  1  0.80760200  0.13373600  0.32817000  1
  S  S29  1  0.30760200  0.36626400  0.67183000  1
  S  S30  1  0.19239800  0.86626400  0.67183000  1
  S  S31  1  0.69239800  0.63373600  0.32817000  1
  S  S32  1  0.81461800  0.43193000  0.58973700  1
  S  S33  1  0.31461800  0.06807000  0.41026300  1
  S  S34  1  0.18538200  0.56807000  0.41026300  1
  S  S35  1  0.68538200  0.93193000  0.58973700  1
  S  S36  1  0.71094700  0.40340800  0.13297600  1
  S  S37  1  0.21094700  0.09659200  0.86702400  1
  S  S38  1  0.28905300  0.59659200  0.86702400  1
  S  S39  1  0.78905300  0.90340800  0.13297600  1
