# generated using pymatgen
data_Ta4AgS8
_symmetry_space_group_name_H-M   'P 1'
_cell_length_a   3.35831700
_cell_length_b   5.82935100
_cell_length_c   13.76451709
_cell_angle_alpha   81.43399679
_cell_angle_beta   90.00000000
_cell_angle_gamma   90.00000000
_symmetry_Int_Tables_number   1
_chemical_formula_structural   Ta4AgS8
_chemical_formula_sum   'Ta4 Ag1 S8'
_cell_volume   266.45941277
_cell_formula_units_Z   1
loop_
 _symmetry_equiv_pos_site_id
 _symmetry_equiv_pos_as_xyz
  1  'x, y, z'
loop_
 _atom_site_type_symbol
 _atom_site_label
 _atom_site_symmetry_multiplicity
 _atom_site_fract_x
 _atom_site_fract_y
 _atom_site_fract_z
 _atom_site_occupancy
  Ta  Ta0  1  0.50000000  0.43269100  0.22703100  1
  Ta  Ta1  1  0.00000000  0.91435200  0.22727900  1
  Ta  Ta2  1  0.50000000  0.58839100  0.77335200  1
  Ta  Ta3  1  0.00000000  0.06180000  0.77314300  1
  Ag  Ag4  1  0.50000000  0.34669400  0.47919400  1
  S  S5  1  0.50000000  0.28348100  0.65947800  1
  S  S6  1  0.00000000  0.78057600  0.65566200  1
  S  S7  1  0.50000000  0.72128500  0.34495800  1
  S  S8  1  0.00000000  0.21216900  0.34186100  1
  S  S9  1  0.50000000  0.20685500  0.88173500  1
  S  S10  1  0.00000000  0.69850600  0.88966700  1
  S  S11  1  0.50000000  0.79874900  0.11204000  1
  S  S12  1  0.00000000  0.29375100  0.11670100  1
