# generated using pymatgen
data_Ba3Er2MoO9
_symmetry_space_group_name_H-M   'P 1'
_cell_length_a   6.06493770
_cell_length_b   6.06493770
_cell_length_c   14.84257659
_cell_angle_alpha   89.75774804
_cell_angle_beta   89.75774804
_cell_angle_gamma   59.83269347
_symmetry_Int_Tables_number   1
_chemical_formula_structural   Ba3Er2MoO9
_chemical_formula_sum   'Ba6 Er4 Mo2 O18'
_cell_volume   472.01174627
_cell_formula_units_Z   2
loop_
 _symmetry_equiv_pos_site_id
 _symmetry_equiv_pos_as_xyz
  1  'x, y, z'
loop_
 _atom_site_type_symbol
 _atom_site_label
 _atom_site_symmetry_multiplicity
 _atom_site_fract_x
 _atom_site_fract_y
 _atom_site_fract_z
 _atom_site_occupancy
  Ba  Ba0  1  0.66808600  0.66541000  0.08752300  1
  Ba  Ba1  1  0.99760100  0.00239900  0.75000000  1
  Ba  Ba2  1  0.33459000  0.33191400  0.41247700  1
  Ba  Ba3  1  0.33191400  0.33459000  0.91247700  1
  Ba  Ba4  1  0.66541000  0.66808600  0.58752300  1
  Ba  Ba5  1  0.00239900  0.99760100  0.25000000  1
  Er  Er6  1  0.33297700  0.33351300  0.16721700  1
  Er  Er7  1  0.66702300  0.66648700  0.83278300  1
  Er  Er8  1  0.33351300  0.33297700  0.66721700  1
  Er  Er9  1  0.66648700  0.66702300  0.33278300  1
  Mo  Mo10  1  0.00000000  0.00000000  0.50000000  1
  Mo  Mo11  1  0.00000000  0.00000000  0.00000000  1
  O  O12  1  0.97921700  0.54141700  0.23962700  1
  O  O13  1  0.29018100  0.87979600  0.91670000  1
  O  O14  1  0.67718900  0.18612000  0.56652400  1
  O  O15  1  0.70981900  0.12020400  0.08330000  1
  O  O16  1  0.02078300  0.45858300  0.76037300  1
  O  O17  1  0.32281100  0.81388000  0.43347600  1
  O  O18  1  0.54141700  0.97921700  0.73962700  1
  O  O19  1  0.87979600  0.29018100  0.41670000  1
  O  O20  1  0.18612000  0.67718900  0.06652400  1
  O  O21  1  0.45858300  0.02078300  0.26037300  1
  O  O22  1  0.81388000  0.32281100  0.93347600  1
  O  O23  1  0.12020400  0.70981900  0.58330000  1
  O  O24  1  0.15392500  0.15300800  0.07514200  1
  O  O25  1  0.49885700  0.50114300  0.75000000  1
  O  O26  1  0.84699200  0.84607500  0.42485800  1
  O  O27  1  0.84607500  0.84699200  0.92485800  1
  O  O28  1  0.15300800  0.15392500  0.57514200  1
  O  O29  1  0.50114300  0.49885700  0.25000000  1
