# generated using pymatgen
data_ErCrO3
_symmetry_space_group_name_H-M   'P 1'
_cell_length_a   5.26750400
_cell_length_b   5.59176000
_cell_length_c   7.62117400
_cell_angle_alpha   90.00000000
_cell_angle_beta   90.00000000
_cell_angle_gamma   90.00000000
_symmetry_Int_Tables_number   1
_chemical_formula_structural   ErCrO3
_chemical_formula_sum   'Er4 Cr4 O12'
_cell_volume   224.47877015
_cell_formula_units_Z   4
loop_
 _symmetry_equiv_pos_site_id
 _symmetry_equiv_pos_as_xyz
  1  'x, y, z'
loop_
 _atom_site_type_symbol
 _atom_site_label
 _atom_site_symmetry_multiplicity
 _atom_site_fract_x
 _atom_site_fract_y
 _atom_site_fract_z
 _atom_site_occupancy
  Er  Er0  1  0.02084300  0.92991000  0.75000000  1
  Er  Er1  1  0.52084300  0.57009000  0.25000000  1
  Er  Er2  1  0.47915700  0.42991000  0.75000000  1
  Er  Er3  1  0.97915700  0.07009000  0.25000000  1
  Cr  Cr4  1  0.50000000  0.00000000  0.50000000  1
  Cr  Cr5  1  0.00000000  0.50000000  0.50000000  1
  Cr  Cr6  1  0.00000000  0.50000000  0.00000000  1
  Cr  Cr7  1  0.50000000  0.00000000  0.00000000  1
  O  O8  1  0.69047500  0.30458500  0.43948900  1
  O  O9  1  0.19047500  0.19541500  0.56051100  1
  O  O10  1  0.80952500  0.80458500  0.06051100  1
  O  O11  1  0.30952500  0.69541500  0.93948900  1
  O  O12  1  0.30952500  0.69541500  0.56051100  1
  O  O13  1  0.80952500  0.80458500  0.43948900  1
  O  O14  1  0.19047500  0.19541500  0.93948900  1
  O  O15  1  0.69047500  0.30458500  0.06051100  1
  O  O16  1  0.11866100  0.45531200  0.25000000  1
  O  O17  1  0.61866100  0.04468800  0.75000000  1
  O  O18  1  0.38133900  0.95531200  0.25000000  1
  O  O19  1  0.88133900  0.54468800  0.75000000  1
