# generated using pymatgen
data_Ta5Si3
_symmetry_space_group_name_H-M   'P 1'
_cell_length_a   7.55802266
_cell_length_b   7.55802266
_cell_length_c   7.55802266
_cell_angle_alpha   128.54916622
_cell_angle_beta   128.54916622
_cell_angle_gamma   75.73707402
_symmetry_Int_Tables_number   1
_chemical_formula_structural   Ta5Si3
_chemical_formula_sum   'Ta10 Si6'
_cell_volume   256.85644111
_cell_formula_units_Z   2
loop_
 _symmetry_equiv_pos_site_id
 _symmetry_equiv_pos_as_xyz
  1  'x, y, z'
loop_
 _atom_site_type_symbol
 _atom_site_label
 _atom_site_symmetry_multiplicity
 _atom_site_fract_x
 _atom_site_fract_y
 _atom_site_fract_z
 _atom_site_occupancy
  Ta  Ta0  1  0.01480500  0.18499800  0.50000000  1
  Ta  Ta1  1  0.68499800  0.51480500  0.50000000  1
  Ta  Ta2  1  0.51480500  0.01480500  0.82980700  1
  Ta  Ta3  1  0.18499800  0.68499800  0.17019300  1
  Ta  Ta4  1  0.98519500  0.81500200  0.50000000  1
  Ta  Ta5  1  0.31500200  0.48519500  0.50000000  1
  Ta  Ta6  1  0.48519500  0.98519500  0.17019300  1
  Ta  Ta7  1  0.81500200  0.31500200  0.82980700  1
  Ta  Ta8  1  0.00000000  0.00000000  0.00000000  1
  Ta  Ta9  1  0.50000000  0.50000000  0.00000000  1
  Si  Si10  1  0.75000000  0.75000000  0.00000000  1
  Si  Si11  1  0.25000000  0.25000000  0.00000000  1
  Si  Si12  1  0.36995500  0.13004500  0.50000000  1
  Si  Si13  1  0.63004500  0.86995500  0.50000000  1
  Si  Si14  1  0.86995500  0.36995500  0.23991000  1
  Si  Si15  1  0.13004500  0.63004500  0.76009000  1
