# generated using pymatgen
data_K2VCuS4
_symmetry_space_group_name_H-M   'P 1'
_cell_length_a   13.23790720
_cell_length_b   11.81425633
_cell_length_c   7.09938163
_cell_angle_alpha   84.96039859
_cell_angle_beta   62.74866339
_cell_angle_gamma   32.29093801
_symmetry_Int_Tables_number   1
_chemical_formula_structural   K2VCuS4
_chemical_formula_sum   'K4 V2 Cu2 S8'
_cell_volume   409.48035839
_cell_formula_units_Z   2
loop_
 _symmetry_equiv_pos_site_id
 _symmetry_equiv_pos_as_xyz
  1  'x, y, z'
loop_
 _atom_site_type_symbol
 _atom_site_label
 _atom_site_symmetry_multiplicity
 _atom_site_fract_x
 _atom_site_fract_y
 _atom_site_fract_z
 _atom_site_occupancy
  K  K0  1  0.67880800  0.67880800  0.32119200  1
  K  K1  1  0.92880800  0.92880800  0.57119200  1
  K  K2  1  0.32119200  0.32119200  0.67880800  1
  K  K3  1  0.57119200  0.57119200  0.92880800  1
  V  V4  1  0.75000000  0.75000000  0.75000000  1
  V  V5  1  0.50000000  0.50000000  0.50000000  1
  Cu  Cu6  1  0.00000000  0.00000000  0.00000000  1
  Cu  Cu7  1  0.25000000  0.25000000  0.25000000  1
  S  S8  1  0.02323600  0.36791200  0.67053200  1
  S  S9  1  0.22676400  0.88208800  0.57946800  1
  S  S10  1  0.88208800  0.22676400  0.31168100  1
  S  S11  1  0.57946800  0.31168100  0.22676400  1
  S  S12  1  0.93831900  0.67053200  0.36791200  1
  S  S13  1  0.67053200  0.93831900  0.02323600  1
  S  S14  1  0.36791200  0.02323600  0.93831900  1
  S  S15  1  0.31168100  0.57946800  0.88208800  1
