# generated using pymatgen
data_KCrP2O7
_symmetry_space_group_name_H-M   'P 1'
_cell_length_a   10.08805400
_cell_length_b   7.47541100
_cell_length_c   8.31650703
_cell_angle_alpha   73.00876254
_cell_angle_beta   90.00000000
_cell_angle_gamma   90.00000000
_symmetry_Int_Tables_number   1
_chemical_formula_structural   KCrP2O7
_chemical_formula_sum   'K4 Cr4 P8 O28'
_cell_volume   599.79114409
_cell_formula_units_Z   4
loop_
 _symmetry_equiv_pos_site_id
 _symmetry_equiv_pos_as_xyz
  1  'x, y, z'
loop_
 _atom_site_type_symbol
 _atom_site_label
 _atom_site_symmetry_multiplicity
 _atom_site_fract_x
 _atom_site_fract_y
 _atom_site_fract_z
 _atom_site_occupancy
  K  K0  1  0.67775400  0.32265800  0.55720000  1
  K  K1  1  0.17775400  0.67734200  0.94280000  1
  K  K2  1  0.32224600  0.67734200  0.44280000  1
  K  K3  1  0.82224600  0.32265800  0.05720000  1
  Cr  Cr4  1  0.89890600  0.73670600  0.23925000  1
  Cr  Cr5  1  0.39890600  0.26329400  0.26075000  1
  Cr  Cr6  1  0.10109400  0.26329400  0.76075000  1
  Cr  Cr7  1  0.60109400  0.73670600  0.73925000  1
  P  P8  1  0.63510900  0.93855100  0.30777900  1
  P  P9  1  0.13510900  0.06144900  0.19222100  1
  P  P10  1  0.36489100  0.06144900  0.69222100  1
  P  P11  1  0.86489100  0.93855100  0.80777900  1
  P  P12  1  0.59765400  0.63036600  0.16958400  1
  P  P13  1  0.09765400  0.36963400  0.33041600  1
  P  P14  1  0.40234600  0.36963400  0.83041600  1
  P  P15  1  0.90234600  0.63036600  0.66958400  1
  O  O16  1  0.59321900  0.64106500  0.98648200  1
  O  O17  1  0.09321900  0.35893500  0.51351800  1
  O  O18  1  0.40678100  0.35893500  0.01351800  1
  O  O19  1  0.90678100  0.64106500  0.48648200  1
  O  O20  1  0.76393300  0.58014300  0.74852400  1
  O  O21  1  0.26393300  0.41985700  0.75147600  1
  O  O22  1  0.23606700  0.41985700  0.25147600  1
  O  O23  1  0.73606700  0.58014300  0.24852400  1
  O  O24  1  0.50298000  0.50594100  0.72107900  1
  O  O25  1  0.00298000  0.49405900  0.77892100  1
  O  O26  1  0.49702000  0.49405900  0.27892100  1
  O  O27  1  0.99702000  0.50594100  0.22107900  1
  O  O28  1  0.55780100  0.83482600  0.18656800  1
  O  O29  1  0.05780100  0.16517400  0.31343200  1
  O  O30  1  0.44219900  0.16517400  0.81343200  1
  O  O31  1  0.94219900  0.83482600  0.68656800  1
  O  O32  1  0.71766100  0.95150800  0.75546100  1
  O  O33  1  0.21766100  0.04849200  0.74453900  1
  O  O34  1  0.28233900  0.04849200  0.24453900  1
  O  O35  1  0.78233900  0.95150800  0.25546100  1
  O  O36  1  0.92214000  0.13634100  0.76250800  1
  O  O37  1  0.42214000  0.86365900  0.73749200  1
  O  O38  1  0.07786000  0.86365900  0.23749200  1
  O  O39  1  0.57786000  0.13634100  0.26250800  1
  O  O40  1  0.89493700  0.81896600  0.98602600  1
  O  O41  1  0.39493700  0.18103400  0.51397400  1
  O  O42  1  0.10506300  0.18103400  0.01397400  1
  O  O43  1  0.60506300  0.81896600  0.48602600  1
