# generated using pymatgen
data_Ba3YRuPtO9
_symmetry_space_group_name_H-M   'P 1'
_cell_length_a   5.96188040
_cell_length_b   5.96188040
_cell_length_c   14.97522500
_cell_angle_alpha   90.00000000
_cell_angle_beta   90.00000000
_cell_angle_gamma   120.00000448
_symmetry_Int_Tables_number   1
_chemical_formula_structural   Ba3YRuPtO9
_chemical_formula_sum   'Ba6 Y2 Ru2 Pt2 O18'
_cell_volume   460.96769198
_cell_formula_units_Z   2
loop_
 _symmetry_equiv_pos_site_id
 _symmetry_equiv_pos_as_xyz
  1  'x, y, z'
loop_
 _atom_site_type_symbol
 _atom_site_label
 _atom_site_symmetry_multiplicity
 _atom_site_fract_x
 _atom_site_fract_y
 _atom_site_fract_z
 _atom_site_occupancy
  Ba  Ba0  1  0.33333300  0.66666700  0.58964400  1
  Ba  Ba1  1  0.66666700  0.33333300  0.41035600  1
  Ba  Ba2  1  0.66666700  0.33333300  0.09935700  1
  Ba  Ba3  1  0.33333300  0.66666700  0.90064300  1
  Ba  Ba4  1  0.00000000  0.00000000  0.25656000  1
  Ba  Ba5  1  0.00000000  0.00000000  0.74344000  1
  Y  Y6  1  0.00000000  0.00000000  0.50000000  1
  Y  Y7  1  0.00000000  0.00000000  0.00000000  1
  Ru  Ru8  1  0.66666700  0.33333300  0.84259300  1
  Ru  Ru9  1  0.33333300  0.66666700  0.15740700  1
  Pt  Pt10  1  0.33333300  0.66666700  0.33712300  1
  Pt  Pt11  1  0.66666700  0.33333300  0.66287700  1
  O  O12  1  0.17505700  0.82494300  0.08665800  1
  O  O13  1  0.17505700  0.35011500  0.08665800  1
  O  O14  1  0.64988500  0.82494300  0.08665800  1
  O  O15  1  0.82494300  0.17505700  0.91334200  1
  O  O16  1  0.82494300  0.64988500  0.91334200  1
  O  O17  1  0.35011500  0.17505700  0.91334200  1
  O  O18  1  0.82649700  0.17350300  0.58695900  1
  O  O19  1  0.82649700  0.65299400  0.58695900  1
  O  O20  1  0.34700600  0.17350300  0.58695900  1
  O  O21  1  0.17350300  0.82649700  0.41304100  1
  O  O22  1  0.17350300  0.34700600  0.41304100  1
  O  O23  1  0.65299400  0.82649700  0.41304100  1
  O  O24  1  0.48486000  0.51514000  0.24581000  1
  O  O25  1  0.48486000  0.96971900  0.24581000  1
  O  O26  1  0.03028100  0.51514000  0.24581000  1
  O  O27  1  0.51514000  0.48486000  0.75419000  1
  O  O28  1  0.51514000  0.03028100  0.75419000  1
  O  O29  1  0.96971900  0.48486000  0.75419000  1
