# generated using pymatgen
data_Na3LaMn3(AsO5)3
_symmetry_space_group_name_H-M   'P 1'
_cell_length_a   11.37084197
_cell_length_b   11.37084197
_cell_length_c   6.17815500
_cell_angle_alpha   90.00000000
_cell_angle_beta   90.00000000
_cell_angle_gamma   119.99999983
_symmetry_Int_Tables_number   1
_chemical_formula_structural   Na3LaMn3(AsO5)3
_chemical_formula_sum   'Na6 La2 Mn6 As6 O30'
_cell_volume   691.79063730
_cell_formula_units_Z   2
loop_
 _symmetry_equiv_pos_site_id
 _symmetry_equiv_pos_as_xyz
  1  'x, y, z'
loop_
 _atom_site_type_symbol
 _atom_site_label
 _atom_site_symmetry_multiplicity
 _atom_site_fract_x
 _atom_site_fract_y
 _atom_site_fract_z
 _atom_site_occupancy
  Na  Na0  1  0.84254500  0.73940200  0.75000000  1
  Na  Na1  1  0.89685700  0.15745500  0.75000000  1
  Na  Na2  1  0.26059800  0.10314300  0.75000000  1
  Na  Na3  1  0.15745500  0.26059800  0.25000000  1
  Na  Na4  1  0.10314300  0.84254500  0.25000000  1
  Na  Na5  1  0.73940200  0.89685700  0.25000000  1
  La  La6  1  0.33333300  0.66666700  0.25000000  1
  La  La7  1  0.66666700  0.33333300  0.75000000  1
  Mn  Mn8  1  0.50000000  0.50000000  0.50000000  1
  Mn  Mn9  1  0.00000000  0.50000000  0.50000000  1
  Mn  Mn10  1  0.50000000  0.00000000  0.50000000  1
  Mn  Mn11  1  0.50000000  0.50000000  0.00000000  1
  Mn  Mn12  1  0.00000000  0.50000000  0.00000000  1
  Mn  Mn13  1  0.50000000  0.00000000  0.00000000  1
  As  As14  1  0.21451100  0.39839500  0.75000000  1
  As  As15  1  0.18388400  0.78548900  0.75000000  1
  As  As16  1  0.60160500  0.81611600  0.75000000  1
  As  As17  1  0.78548900  0.60160500  0.25000000  1
  As  As18  1  0.81611600  0.21451100  0.25000000  1
  As  As19  1  0.39839500  0.18388400  0.25000000  1
  O  O20  1  0.52352800  0.61069700  0.25000000  1
  O  O21  1  0.08716900  0.47647200  0.25000000  1
  O  O22  1  0.38930300  0.91283100  0.25000000  1
  O  O23  1  0.47647200  0.38930300  0.75000000  1
  O  O24  1  0.91283100  0.52352800  0.75000000  1
  O  O25  1  0.61069700  0.08716900  0.75000000  1
  O  O26  1  0.30934300  0.47810600  0.51951900  1
  O  O27  1  0.16876300  0.69065700  0.51951900  1
  O  O28  1  0.52189400  0.83123700  0.51951900  1
  O  O29  1  0.69065700  0.52189400  0.01951900  1
  O  O30  1  0.83123700  0.30934300  0.01951900  1
  O  O31  1  0.47810600  0.16876300  0.01951900  1
  O  O32  1  0.69065700  0.52189400  0.48048100  1
  O  O33  1  0.83123700  0.30934300  0.48048100  1
  O  O34  1  0.47810600  0.16876300  0.48048100  1
  O  O35  1  0.30934300  0.47810600  0.98048100  1
  O  O36  1  0.16876300  0.69065700  0.98048100  1
  O  O37  1  0.52189400  0.83123700  0.98048100  1
  O  O38  1  0.07795100  0.42424600  0.75000000  1
  O  O39  1  0.34629500  0.92204900  0.75000000  1
  O  O40  1  0.57575400  0.65370500  0.75000000  1
  O  O41  1  0.92204900  0.57575400  0.25000000  1
  O  O42  1  0.65370500  0.07795100  0.25000000  1
  O  O43  1  0.42424600  0.34629500  0.25000000  1
  O  O44  1  0.14857600  0.22774600  0.75000000  1
  O  O45  1  0.07917000  0.85142400  0.75000000  1
  O  O46  1  0.77225400  0.92083000  0.75000000  1
  O  O47  1  0.85142400  0.77225400  0.25000000  1
  O  O48  1  0.92083000  0.14857600  0.25000000  1
  O  O49  1  0.22774600  0.07917000  0.25000000  1
