# generated using pymatgen
data_Rb2TaCuSe4
_symmetry_space_group_name_H-M   'P 1'
_cell_length_a   14.49023747
_cell_length_b   12.93446399
_cell_length_c   7.71366873
_cell_angle_alpha   85.16063209
_cell_angle_beta   62.80432411
_cell_angle_gamma   32.03504380
_symmetry_Int_Tables_number   1
_chemical_formula_structural   Rb2TaCuSe4
_chemical_formula_sum   'Rb4 Ta2 Cu2 Se8'
_cell_volume   522.74465719
_cell_formula_units_Z   2
loop_
 _symmetry_equiv_pos_site_id
 _symmetry_equiv_pos_as_xyz
  1  'x, y, z'
loop_
 _atom_site_type_symbol
 _atom_site_label
 _atom_site_symmetry_multiplicity
 _atom_site_fract_x
 _atom_site_fract_y
 _atom_site_fract_z
 _atom_site_occupancy
  Rb  Rb0  1  0.32112900  0.32112900  0.67887100  1
  Rb  Rb1  1  0.67887100  0.67887100  0.32112900  1
  Rb  Rb2  1  0.92887100  0.92887100  0.57112900  1
  Rb  Rb3  1  0.57112900  0.57112900  0.92887100  1
  Ta  Ta4  1  0.50000000  0.50000000  0.50000000  1
  Ta  Ta5  1  0.75000000  0.75000000  0.75000000  1
  Cu  Cu6  1  0.00000000  0.00000000  0.00000000  1
  Cu  Cu7  1  0.25000000  0.25000000  0.25000000  1
  Se  Se8  1  0.29930200  0.59034800  0.89687700  1
  Se  Se9  1  0.21347300  0.89687700  0.59034800  1
  Se  Se10  1  0.89687700  0.21347300  0.29930200  1
  Se  Se11  1  0.59034800  0.29930200  0.21347300  1
  Se  Se12  1  0.65965200  0.95069800  0.03652700  1
  Se  Se13  1  0.35312300  0.03652700  0.95069800  1
  Se  Se14  1  0.03652700  0.35312300  0.65965200  1
  Se  Se15  1  0.95069800  0.65965200  0.35312300  1
