# generated using pymatgen
data_Ta6Be15Ni8
_symmetry_space_group_name_H-M   'P 1'
_cell_length_a   7.55159212
_cell_length_b   7.55159212
_cell_length_c   7.55159212
_cell_angle_alpha   60.00000000
_cell_angle_beta   60.00000000
_cell_angle_gamma   60.00000000
_symmetry_Int_Tables_number   1
_chemical_formula_structural   Ta6Be15Ni8
_chemical_formula_sum   'Ta6 Be15 Ni8'
_cell_volume   304.50931112
_cell_formula_units_Z   1
loop_
 _symmetry_equiv_pos_site_id
 _symmetry_equiv_pos_as_xyz
  1  'x, y, z'
loop_
 _atom_site_type_symbol
 _atom_site_label
 _atom_site_symmetry_multiplicity
 _atom_site_fract_x
 _atom_site_fract_y
 _atom_site_fract_z
 _atom_site_occupancy
  Ta  Ta0  1  0.70395100  0.29604900  0.29604900  1
  Ta  Ta1  1  0.29604900  0.70395100  0.70395100  1
  Ta  Ta2  1  0.29604900  0.70395100  0.29604900  1
  Ta  Ta3  1  0.70395100  0.29604900  0.70395100  1
  Ta  Ta4  1  0.29604900  0.29604900  0.70395100  1
  Ta  Ta5  1  0.70395100  0.70395100  0.29604900  1
  Be  Be6  1  0.32688600  0.32688600  0.32688600  1
  Be  Be7  1  0.67311400  0.67311400  0.67311400  1
  Be  Be8  1  0.32688600  0.32688600  0.01934100  1
  Be  Be9  1  0.32688600  0.01934100  0.32688600  1
  Be  Be10  1  0.67311400  0.67311400  0.98065900  1
  Be  Be11  1  0.67311400  0.98065900  0.67311400  1
  Be  Be12  1  0.01934100  0.32688600  0.32688600  1
  Be  Be13  1  0.98065900  0.67311400  0.67311400  1
  Be  Be14  1  0.50000000  0.00000000  0.00000000  1
  Be  Be15  1  0.00000000  0.50000000  0.50000000  1
  Be  Be16  1  0.00000000  0.50000000  0.00000000  1
  Be  Be17  1  0.50000000  0.00000000  0.50000000  1
  Be  Be18  1  0.00000000  0.00000000  0.50000000  1
  Be  Be19  1  0.50000000  0.50000000  0.00000000  1
  Be  Be20  1  0.00000000  0.00000000  0.00000000  1
  Ni  Ni21  1  0.12269400  0.12269400  0.12269400  1
  Ni  Ni22  1  0.87730600  0.87730700  0.87730600  1
  Ni  Ni23  1  0.12269400  0.12269400  0.63191900  1
  Ni  Ni24  1  0.12269400  0.63191900  0.12269300  1
  Ni  Ni25  1  0.87730600  0.87730700  0.36808100  1
  Ni  Ni26  1  0.87730600  0.36808100  0.87730600  1
  Ni  Ni27  1  0.63191900  0.12269400  0.12269400  1
  Ni  Ni28  1  0.36808100  0.87730600  0.87730600  1
