# generated using pymatgen
data_Rb(Nb2Cl5)3
_symmetry_space_group_name_H-M   'P 1'
_cell_length_a   9.49764000
_cell_length_b   13.72576500
_cell_length_c   18.22276100
_cell_angle_alpha   90.00000000
_cell_angle_beta   90.00000000
_cell_angle_gamma   90.00000000
_symmetry_Int_Tables_number   1
_chemical_formula_structural   Rb(Nb2Cl5)3
_chemical_formula_sum   'Rb4 Nb24 Cl60'
_cell_volume   2375.56239745
_cell_formula_units_Z   4
loop_
 _symmetry_equiv_pos_site_id
 _symmetry_equiv_pos_as_xyz
  1  'x, y, z'
loop_
 _atom_site_type_symbol
 _atom_site_label
 _atom_site_symmetry_multiplicity
 _atom_site_fract_x
 _atom_site_fract_y
 _atom_site_fract_z
 _atom_site_occupancy
  Rb  Rb0  1  0.81758200  0.25484200  0.75000000  1
  Rb  Rb1  1  0.18241800  0.74515800  0.25000000  1
  Rb  Rb2  1  0.81758200  0.74515800  0.75000000  1
  Rb  Rb3  1  0.18241800  0.25484200  0.25000000  1
  Nb  Nb4  1  0.07883200  0.50000000  0.10523500  1
  Nb  Nb5  1  0.92116800  0.50000000  0.89476500  1
  Nb  Nb6  1  0.07883200  0.50000000  0.39476500  1
  Nb  Nb7  1  0.92116800  0.50000000  0.60523500  1
  Nb  Nb8  1  0.14604500  0.39210600  0.52910200  1
  Nb  Nb9  1  0.85395500  0.60789400  0.47089800  1
  Nb  Nb10  1  0.14604500  0.60789400  0.97089800  1
  Nb  Nb11  1  0.85395500  0.39210600  0.47089800  1
  Nb  Nb12  1  0.85395500  0.39210600  0.02910200  1
  Nb  Nb13  1  0.14604500  0.60789400  0.52910200  1
  Nb  Nb14  1  0.85395500  0.60789400  0.02910200  1
  Nb  Nb15  1  0.14604500  0.39210600  0.97089800  1
  Nb  Nb16  1  0.33305600  0.10833400  0.66841700  1
  Nb  Nb17  1  0.66694400  0.89166600  0.33158300  1
  Nb  Nb18  1  0.33305600  0.89166600  0.83158300  1
  Nb  Nb19  1  0.66694400  0.10833400  0.33158300  1
  Nb  Nb20  1  0.66694400  0.10833400  0.16841700  1
  Nb  Nb21  1  0.33305600  0.89166600  0.66841700  1
  Nb  Nb22  1  0.66694400  0.89166600  0.16841700  1
  Nb  Nb23  1  0.33305600  0.10833400  0.83158300  1
  Nb  Nb24  1  0.54905700  0.00000000  0.75000000  1
  Nb  Nb25  1  0.45094300  0.00000000  0.25000000  1
  Nb  Nb26  1  0.11887000  0.00000000  0.75000000  1
  Nb  Nb27  1  0.88113000  0.00000000  0.25000000  1
  Cl  Cl28  1  0.33310000  0.25026000  0.56510500  1
  Cl  Cl29  1  0.66690000  0.74974000  0.43489500  1
  Cl  Cl30  1  0.33310000  0.74974000  0.93489500  1
  Cl  Cl31  1  0.66690000  0.25026000  0.43489500  1
  Cl  Cl32  1  0.66690000  0.25026000  0.06510500  1
  Cl  Cl33  1  0.33310000  0.74974000  0.56510500  1
  Cl  Cl34  1  0.66690000  0.74974000  0.06510500  1
  Cl  Cl35  1  0.33310000  0.25026000  0.93489500  1
  Cl  Cl36  1  0.07943400  0.37705300  0.65902500  1
  Cl  Cl37  1  0.92056600  0.62294700  0.34097500  1
  Cl  Cl38  1  0.07943400  0.62294700  0.84097500  1
  Cl  Cl39  1  0.92056600  0.37705300  0.34097500  1
  Cl  Cl40  1  0.92056600  0.37705300  0.15902500  1
  Cl  Cl41  1  0.07943400  0.62294700  0.65902500  1
  Cl  Cl42  1  0.92056600  0.62294700  0.15902500  1
  Cl  Cl43  1  0.07943400  0.37705300  0.84097500  1
  Cl  Cl44  1  0.59167900  0.12320400  0.65154700  1
  Cl  Cl45  1  0.40832100  0.87679600  0.34845300  1
  Cl  Cl46  1  0.59167900  0.87679600  0.84845300  1
  Cl  Cl47  1  0.40832100  0.12320400  0.34845300  1
  Cl  Cl48  1  0.40832100  0.12320400  0.15154700  1
  Cl  Cl49  1  0.59167900  0.87679600  0.65154700  1
  Cl  Cl50  1  0.40832100  0.87679600  0.15154700  1
  Cl  Cl51  1  0.59167900  0.12320400  0.84845300  1
  Cl  Cl52  1  0.34067600  0.50000000  0.56890800  1
  Cl  Cl53  1  0.65932400  0.50000000  0.43109200  1
  Cl  Cl54  1  0.34067600  0.50000000  0.93109200  1
  Cl  Cl55  1  0.65932400  0.50000000  0.06890800  1
  Cl  Cl56  1  0.34460400  0.25229400  0.75000000  1
  Cl  Cl57  1  0.65539600  0.74770600  0.25000000  1
  Cl  Cl58  1  0.34460400  0.74770600  0.75000000  1
  Cl  Cl59  1  0.65539600  0.25229400  0.25000000  1
  Cl  Cl60  1  0.33023800  0.00000000  0.55987600  1
  Cl  Cl61  1  0.66976200  0.00000000  0.44012400  1
  Cl  Cl62  1  0.33023800  0.00000000  0.94012400  1
  Cl  Cl63  1  0.66976200  0.00000000  0.05987600  1
  Cl  Cl64  1  0.81370100  0.50000000  0.75000000  1
  Cl  Cl65  1  0.18629900  0.50000000  0.25000000  1
  Cl  Cl66  1  0.83274900  0.00000000  0.75000000  1
  Cl  Cl67  1  0.16725100  0.00000000  0.25000000  1
  Cl  Cl68  1  0.26767400  0.37491700  0.09165600  1
  Cl  Cl69  1  0.73232600  0.62508300  0.90834400  1
  Cl  Cl70  1  0.26767400  0.62508300  0.40834400  1
  Cl  Cl71  1  0.73232600  0.37491700  0.90834400  1
  Cl  Cl72  1  0.73232600  0.37491700  0.59165600  1
  Cl  Cl73  1  0.26767400  0.62508300  0.09165600  1
  Cl  Cl74  1  0.73232600  0.62508300  0.59165600  1
  Cl  Cl75  1  0.26767400  0.37491700  0.40834400  1
  Cl  Cl76  1  0.07482400  0.12349300  0.65412000  1
  Cl  Cl77  1  0.92517600  0.87650700  0.34588000  1
  Cl  Cl78  1  0.07482400  0.87650700  0.84588000  1
  Cl  Cl79  1  0.92517600  0.12349300  0.34588000  1
  Cl  Cl80  1  0.92517600  0.12349300  0.15412000  1
  Cl  Cl81  1  0.07482400  0.87650700  0.65412000  1
  Cl  Cl82  1  0.92517600  0.87650700  0.15412000  1
  Cl  Cl83  1  0.07482400  0.12349300  0.84588000  1
  Cl  Cl84  1  0.00000000  0.24860500  0.50000000  1
  Cl  Cl85  1  0.00000000  0.75139500  0.50000000  1
  Cl  Cl86  1  0.00000000  0.75139500  0.00000000  1
  Cl  Cl87  1  0.00000000  0.24860500  0.00000000  1
