# generated using pymatgen
data_Ta5GeB2
_symmetry_space_group_name_H-M   'P 1'
_cell_length_a   7.33542784
_cell_length_b   7.33542784
_cell_length_c   7.33542784
_cell_angle_alpha   129.28592759
_cell_angle_beta   129.28592759
_cell_angle_gamma   74.55093724
_symmetry_Int_Tables_number   1
_chemical_formula_structural   Ta5GeB2
_chemical_formula_sum   'Ta10 Ge2 B4'
_cell_volume   230.41665533
_cell_formula_units_Z   2
loop_
 _symmetry_equiv_pos_site_id
 _symmetry_equiv_pos_as_xyz
  1  'x, y, z'
loop_
 _atom_site_type_symbol
 _atom_site_label
 _atom_site_symmetry_multiplicity
 _atom_site_fract_x
 _atom_site_fract_y
 _atom_site_fract_z
 _atom_site_occupancy
  Ta  Ta0  1  0.52840600  0.69791500  0.50000000  1
  Ta  Ta1  1  0.19791500  0.02840600  0.50000000  1
  Ta  Ta2  1  0.02840600  0.52840600  0.83049100  1
  Ta  Ta3  1  0.69791500  0.19791500  0.16950900  1
  Ta  Ta4  1  0.47159400  0.30208500  0.50000000  1
  Ta  Ta5  1  0.80208500  0.97159400  0.50000000  1
  Ta  Ta6  1  0.97159400  0.47159400  0.16950900  1
  Ta  Ta7  1  0.30208500  0.80208500  0.83049100  1
  Ta  Ta8  1  0.50000000  0.50000000  0.00000000  1
  Ta  Ta9  1  0.00000000  0.00000000  0.00000000  1
  Ge  Ge10  1  0.25000000  0.25000000  0.00000000  1
  Ge  Ge11  1  0.75000000  0.75000000  0.00000000  1
  B  B12  1  0.87878500  0.62121500  0.50000000  1
  B  B13  1  0.12121500  0.37878500  0.50000000  1
  B  B14  1  0.37878500  0.87878500  0.25756900  1
  B  B15  1  0.62121500  0.12121500  0.74243100  1
