# generated using pymatgen
data_BaSi2
_symmetry_space_group_name_H-M   'P 1'
_cell_length_a   6.77785000
_cell_length_b   9.00946800
_cell_length_c   11.60214300
_cell_angle_alpha   90.00000000
_cell_angle_beta   90.00000000
_cell_angle_gamma   90.00000000
_symmetry_Int_Tables_number   1
_chemical_formula_structural   BaSi2
_chemical_formula_sum   'Ba8 Si16'
_cell_volume   708.48280505
_cell_formula_units_Z   8
loop_
 _symmetry_equiv_pos_site_id
 _symmetry_equiv_pos_as_xyz
  1  'x, y, z'
loop_
 _atom_site_type_symbol
 _atom_site_label
 _atom_site_symmetry_multiplicity
 _atom_site_fract_x
 _atom_site_fract_y
 _atom_site_fract_z
 _atom_site_occupancy
  Ba  Ba0  1  0.25000000  0.01517300  0.30869000  1
  Ba  Ba1  1  0.25000000  0.51517300  0.19131000  1
  Ba  Ba2  1  0.75000000  0.98482700  0.69131000  1
  Ba  Ba3  1  0.75000000  0.48482700  0.80869000  1
  Ba  Ba4  1  0.25000000  0.84069100  0.90665000  1
  Ba  Ba5  1  0.25000000  0.34069100  0.59335000  1
  Ba  Ba6  1  0.75000000  0.15930900  0.09335000  1
  Ba  Ba7  1  0.75000000  0.65930900  0.40665000  1
  Si  Si8  1  0.25000000  0.41709500  0.90799900  1
  Si  Si9  1  0.25000000  0.91709500  0.59200100  1
  Si  Si10  1  0.75000000  0.58290500  0.09200100  1
  Si  Si11  1  0.75000000  0.08290500  0.40799900  1
  Si  Si12  1  0.25000000  0.19769400  0.03306000  1
  Si  Si13  1  0.25000000  0.69769400  0.46694000  1
  Si  Si14  1  0.75000000  0.80230600  0.96694000  1
  Si  Si15  1  0.75000000  0.30230600  0.53306000  1
  Si  Si16  1  0.07254100  0.19427000  0.85325600  1
  Si  Si17  1  0.42745900  0.69427000  0.64674400  1
  Si  Si18  1  0.57254100  0.80573000  0.14674400  1
  Si  Si19  1  0.92745900  0.30573000  0.35325600  1
  Si  Si20  1  0.92745900  0.80573000  0.14674400  1
  Si  Si21  1  0.57254100  0.30573000  0.35325600  1
  Si  Si22  1  0.42745900  0.19427000  0.85325600  1
  Si  Si23  1  0.07254100  0.69427000  0.64674400  1
