# generated using pymatgen
data_K3Zr6BeCl15
_symmetry_space_group_name_H-M   'P 1'
_cell_length_a   10.13996128
_cell_length_b   10.13996128
_cell_length_c   14.33320818
_cell_angle_alpha   87.73780770
_cell_angle_beta   87.73780770
_cell_angle_gamma   69.55381324
_symmetry_Int_Tables_number   1
_chemical_formula_structural   K3Zr6BeCl15
_chemical_formula_sum   'K6 Zr12 Be2 Cl30'
_cell_volume   1379.28449685
_cell_formula_units_Z   2
loop_
 _symmetry_equiv_pos_site_id
 _symmetry_equiv_pos_as_xyz
  1  'x, y, z'
loop_
 _atom_site_type_symbol
 _atom_site_label
 _atom_site_symmetry_multiplicity
 _atom_site_fract_x
 _atom_site_fract_y
 _atom_site_fract_z
 _atom_site_occupancy
  K  K0  1  0.93807800  0.06192200  0.25000000  1
  K  K1  1  0.06192200  0.93807800  0.75000000  1
  K  K2  1  0.64105900  0.13211300  0.56798000  1
  K  K3  1  0.35894100  0.86788700  0.43202000  1
  K  K4  1  0.86788700  0.35894100  0.93202000  1
  K  K5  1  0.13211300  0.64105900  0.06798000  1
  Zr  Zr6  1  0.54711100  0.84822800  0.13407300  1
  Zr  Zr7  1  0.45288900  0.15177200  0.86592700  1
  Zr  Zr8  1  0.15177200  0.45288900  0.36592700  1
  Zr  Zr9  1  0.84822800  0.54711100  0.63407300  1
  Zr  Zr10  1  0.27009900  0.99879000  0.00130900  1
  Zr  Zr11  1  0.72990100  0.00121000  0.99869100  1
  Zr  Zr12  1  0.00121000  0.72990100  0.49869100  1
  Zr  Zr13  1  0.99879000  0.27009900  0.50130900  1
  Zr  Zr14  1  0.42500200  0.19765800  0.09717800  1
  Zr  Zr15  1  0.57499800  0.80234200  0.90282200  1
  Zr  Zr16  1  0.80234200  0.57499800  0.40282200  1
  Zr  Zr17  1  0.19765800  0.42500200  0.59717800  1
  Be  Be18  1  0.50000000  0.00000000  0.00000000  1
  Be  Be19  1  0.00000000  0.50000000  0.50000000  1
  Cl  Cl20  1  0.29074200  0.84284200  0.15047700  1
  Cl  Cl21  1  0.70925800  0.15715800  0.84952300  1
  Cl  Cl22  1  0.15715800  0.70925800  0.34952300  1
  Cl  Cl23  1  0.84284200  0.29074200  0.65047700  1
  Cl  Cl24  1  0.57826400  0.67135300  0.28924000  1
  Cl  Cl25  1  0.42173600  0.32864700  0.71076000  1
  Cl  Cl26  1  0.32864700  0.42173600  0.21076000  1
  Cl  Cl27  1  0.67135300  0.57826400  0.78924000  1
  Cl  Cl28  1  0.67519600  0.22033400  0.10199000  1
  Cl  Cl29  1  0.32480400  0.77966600  0.89801000  1
  Cl  Cl30  1  0.77966600  0.32480400  0.39801000  1
  Cl  Cl31  1  0.22033400  0.67519600  0.60199000  1
  Cl  Cl32  1  0.48173000  0.04851100  0.25141100  1
  Cl  Cl33  1  0.51827000  0.95148900  0.74858900  1
  Cl  Cl34  1  0.95148900  0.51827000  0.24858900  1
  Cl  Cl35  1  0.04851100  0.48173000  0.75141100  1
  Cl  Cl36  1  0.61877500  0.63223000  0.54040100  1
  Cl  Cl37  1  0.38122500  0.36777000  0.45959900  1
  Cl  Cl38  1  0.36777000  0.38122500  0.95959900  1
  Cl  Cl39  1  0.63223000  0.61877500  0.04040100  1
  Cl  Cl40  1  0.80638600  0.84172700  0.14572700  1
  Cl  Cl41  1  0.19361400  0.15827300  0.85427300  1
  Cl  Cl42  1  0.15827300  0.19361400  0.35427300  1
  Cl  Cl43  1  0.84172700  0.80638600  0.64572700  1
  Cl  Cl44  1  0.78084400  0.83981300  0.39923200  1
  Cl  Cl45  1  0.21915600  0.16018700  0.60076800  1
  Cl  Cl46  1  0.16018700  0.21915600  0.10076800  1
  Cl  Cl47  1  0.83981300  0.78084400  0.89923200  1
  Cl  Cl48  1  0.00000000  0.00000000  0.00000000  1
  Cl  Cl49  1  0.00000000  0.00000000  0.50000000  1
