# generated using pymatgen
data_Gd(AlFe)6
_symmetry_space_group_name_H-M   'P 1'
_cell_length_a   4.99305100
_cell_length_b   6.56721699
_cell_length_c   6.56721699
_cell_angle_alpha   98.93346611
_cell_angle_beta   112.34295035
_cell_angle_gamma   67.65704965
_symmetry_Int_Tables_number   1
_chemical_formula_structural   Gd(AlFe)6
_chemical_formula_sum   'Gd1 Al6 Fe6'
_cell_volume   184.20751214
_cell_formula_units_Z   1
loop_
 _symmetry_equiv_pos_site_id
 _symmetry_equiv_pos_as_xyz
  1  'x, y, z'
loop_
 _atom_site_type_symbol
 _atom_site_label
 _atom_site_symmetry_multiplicity
 _atom_site_fract_x
 _atom_site_fract_y
 _atom_site_fract_z
 _atom_site_occupancy
  Gd  Gd0  1  0.00000000  0.00000000  0.00000000  1
  Al  Al1  1  0.65355800  0.34644200  0.65355800  1
  Al  Al2  1  0.34644200  0.65355800  0.34644200  1
  Al  Al3  1  0.00000000  0.33735300  0.33735300  1
  Al  Al4  1  0.00000000  0.66264700  0.66264700  1
  Al  Al5  1  0.69263300  0.80736700  0.19263300  1
  Al  Al6  1  0.30736700  0.19263300  0.80736700  1
  Fe  Fe7  1  0.50000000  0.00000000  0.50000000  1
  Fe  Fe8  1  0.00000000  0.00000000  0.50000000  1
  Fe  Fe9  1  0.50000000  0.50000000  0.00000000  1
  Fe  Fe10  1  0.00000000  0.50000000  0.00000000  1
  Fe  Fe11  1  0.50000000  0.75925200  0.75925200  1
  Fe  Fe12  1  0.50000000  0.24074800  0.24074800  1
