# generated using pymatgen
data_LaCd(BO2)5
_symmetry_space_group_name_H-M   'P 1'
_cell_length_a   7.98793600
_cell_length_b   8.88334400
_cell_length_c   13.04211253
_cell_angle_alpha   48.09202163
_cell_angle_beta   90.00000000
_cell_angle_gamma   90.00000000
_symmetry_Int_Tables_number   1
_chemical_formula_structural   LaCd(BO2)5
_chemical_formula_sum   'La4 Cd4 B20 O40'
_cell_volume   688.74663052
_cell_formula_units_Z   4
loop_
 _symmetry_equiv_pos_site_id
 _symmetry_equiv_pos_as_xyz
  1  'x, y, z'
loop_
 _atom_site_type_symbol
 _atom_site_label
 _atom_site_symmetry_multiplicity
 _atom_site_fract_x
 _atom_site_fract_y
 _atom_site_fract_z
 _atom_site_occupancy
  La  La0  1  0.17736000  0.95786600  0.23500800  1
  La  La1  1  0.67736000  0.04213400  0.26499200  1
  La  La2  1  0.82264000  0.04213400  0.76499200  1
  La  La3  1  0.32264000  0.95786600  0.73500800  1
  Cd  Cd4  1  0.40897400  0.48541700  0.12404800  1
  Cd  Cd5  1  0.90897400  0.51458300  0.37595200  1
  Cd  Cd6  1  0.59102600  0.51458300  0.87595200  1
  Cd  Cd7  1  0.09102600  0.48541700  0.62404800  1
  B  B8  1  0.57841500  0.66117100  0.25480400  1
  B  B9  1  0.17385600  0.52534400  0.90725300  1
  B  B10  1  0.67385600  0.47465600  0.59274700  1
  B  B11  1  0.82614400  0.47465600  0.09274700  1
  B  B12  1  0.32614400  0.52534400  0.40725300  1
  B  B13  1  0.89522300  0.85407800  0.49728900  1
  B  B14  1  0.39522300  0.14592200  0.00271100  1
  B  B15  1  0.10477700  0.14592200  0.50271100  1
  B  B16  1  0.60477700  0.85407800  0.99728900  1
  B  B17  1  0.07841500  0.33882900  0.24519600  1
  B  B18  1  0.42158500  0.33882900  0.74519600  1
  B  B19  1  0.92158500  0.66117100  0.75480400  1
  B  B20  1  0.32682100  0.08421300  0.40037700  1
  B  B21  1  0.82682100  0.91578700  0.09962300  1
  B  B22  1  0.67317900  0.91578700  0.59962300  1
  B  B23  1  0.17317900  0.08421300  0.90037700  1
  B  B24  1  0.52960400  0.27547000  0.44247700  1
  B  B25  1  0.02960400  0.72453000  0.05752300  1
  B  B26  1  0.47039600  0.72453000  0.55752300  1
  B  B27  1  0.97039600  0.27547000  0.94247700  1
  O  O28  1  0.21291900  0.19621700  0.27539700  1
  O  O29  1  0.67114000  0.42053200  0.07837100  1
  O  O30  1  0.17114000  0.57946800  0.42162900  1
  O  O31  1  0.32886000  0.57946800  0.92162900  1
  O  O32  1  0.82886000  0.42053200  0.57837100  1
  O  O33  1  0.44449200  0.12315600  0.11245000  1
  O  O34  1  0.94449200  0.87684400  0.38755000  1
  O  O35  1  0.55550800  0.87684400  0.88755000  1
  O  O36  1  0.71291900  0.80378300  0.22460300  1
  O  O37  1  0.05550800  0.12315600  0.61245000  1
  O  O38  1  0.28708100  0.19621700  0.77539700  1
  O  O39  1  0.78708100  0.80378300  0.72460300  1
  O  O40  1  0.53477500  0.70794100  0.12526000  1
  O  O41  1  0.03477500  0.29205900  0.37474000  1
  O  O42  1  0.46522500  0.29205900  0.87474000  1
  O  O43  1  0.96522500  0.70794100  0.62526000  1
  O  O44  1  0.42477700  0.68758800  0.30430900  1
  O  O45  1  0.92477700  0.31241200  0.19569100  1
  O  O46  1  0.57522300  0.31241200  0.69569100  1
  O  O47  1  0.07522300  0.68758800  0.80430900  1
  O  O48  1  0.64029600  0.45168400  0.35706300  1
  O  O49  1  0.14029600  0.54831600  0.14293700  1
  O  O50  1  0.35970400  0.54831600  0.64293700  1
  O  O51  1  0.85970400  0.45168400  0.85706300  1
  O  O52  1  0.46805900  0.22315500  0.36124500  1
  O  O53  1  0.96805900  0.77684500  0.13875500  1
  O  O54  1  0.53194100  0.77684500  0.63875500  1
  O  O55  1  0.03194100  0.22315500  0.86124500  1
  O  O56  1  0.39058500  0.90517000  0.42417400  1
  O  O57  1  0.89058500  0.09483000  0.07582600  1
  O  O58  1  0.60941500  0.09483000  0.57582600  1
  O  O59  1  0.11956300  0.32871400  0.98567100  1
  O  O60  1  0.23220700  0.02383300  0.51994200  1
  O  O61  1  0.73220700  0.97616700  0.98005800  1
  O  O62  1  0.76779300  0.97616700  0.48005800  1
  O  O63  1  0.26779300  0.02383300  0.01994200  1
  O  O64  1  0.38043700  0.32871400  0.48567100  1
  O  O65  1  0.88043700  0.67128600  0.01432900  1
  O  O66  1  0.61956300  0.67128600  0.51432900  1
  O  O67  1  0.10941500  0.90517000  0.92417400  1
