# generated using pymatgen
data_Dy4Te3N2
_symmetry_space_group_name_H-M   'P 1'
_cell_length_a   11.74376500
_cell_length_b   7.28704100
_cell_length_c   13.06959678
_cell_angle_alpha   57.63442355
_cell_angle_beta   90.00000000
_cell_angle_gamma   90.00000000
_symmetry_Int_Tables_number   1
_chemical_formula_structural   Dy4Te3N2
_chemical_formula_sum   'Dy16 Te12 N8'
_cell_volume   944.70755048
_cell_formula_units_Z   4
loop_
 _symmetry_equiv_pos_site_id
 _symmetry_equiv_pos_as_xyz
  1  'x, y, z'
loop_
 _atom_site_type_symbol
 _atom_site_label
 _atom_site_symmetry_multiplicity
 _atom_site_fract_x
 _atom_site_fract_y
 _atom_site_fract_z
 _atom_site_occupancy
  Dy  Dy0  1  0.85717400  0.22392100  0.13697000  1
  Dy  Dy1  1  0.64282600  0.22392100  0.63697000  1
  Dy  Dy2  1  0.14282600  0.77607900  0.86303000  1
  Dy  Dy3  1  0.35717400  0.77607900  0.36303000  1
  Dy  Dy4  1  0.65710400  0.93981000  0.38822600  1
  Dy  Dy5  1  0.84289600  0.93981000  0.88822600  1
  Dy  Dy6  1  0.34289600  0.06019000  0.61177400  1
  Dy  Dy7  1  0.15710400  0.06019000  0.11177400  1
  Dy  Dy8  1  0.60149400  0.86309500  0.16730600  1
  Dy  Dy9  1  0.89850600  0.86309500  0.66730600  1
  Dy  Dy10  1  0.39850600  0.13690500  0.83269400  1
  Dy  Dy11  1  0.10149400  0.13690500  0.33269400  1
  Dy  Dy12  1  0.91402500  0.70480400  0.31522100  1
  Dy  Dy13  1  0.58597500  0.70480400  0.81522100  1
  Dy  Dy14  1  0.08597500  0.29519600  0.68477900  1
  Dy  Dy15  1  0.41402500  0.29519600  0.18477900  1
  Te  Te16  1  0.48480900  0.64259900  0.60485100  1
  Te  Te17  1  0.01519100  0.64259900  0.10485100  1
  Te  Te18  1  0.51519100  0.35740100  0.39514900  1
  Te  Te19  1  0.98480900  0.35740100  0.89514900  1
  Te  Te20  1  0.65444000  0.21978700  0.90122300  1
  Te  Te21  1  0.84556000  0.21978700  0.40122300  1
  Te  Te22  1  0.34556000  0.78021300  0.09877700  1
  Te  Te23  1  0.15444000  0.78021300  0.59877700  1
  Te  Te24  1  0.83789200  0.55588000  0.57311300  1
  Te  Te25  1  0.66210800  0.55588000  0.07311300  1
  Te  Te26  1  0.16210800  0.44412000  0.42688700  1
  Te  Te27  1  0.33789200  0.44412000  0.92688700  1
  N  N28  1  0.50881800  0.98049100  0.27064100  1
  N  N29  1  0.99118200  0.98049100  0.77064100  1
  N  N30  1  0.49118200  0.01950900  0.72935900  1
  N  N31  1  0.00881800  0.01950900  0.22935900  1
  N  N32  1  0.75785700  0.91283400  0.24736000  1
  N  N33  1  0.74214300  0.91283400  0.74736000  1
  N  N34  1  0.24214300  0.08716600  0.75264000  1
  N  N35  1  0.25785700  0.08716600  0.25264000  1
