# generated using pymatgen
data_Y3ErTi4(SiO9)2
_symmetry_space_group_name_H-M   'P 1'
_cell_length_a   11.23668900
_cell_length_b   4.90554300
_cell_length_c   12.40314971
_cell_angle_alpha   84.27928393
_cell_angle_beta   90.00000000
_cell_angle_gamma   90.00000000
_symmetry_Int_Tables_number   1
_chemical_formula_structural   Y3ErTi4(SiO9)2
_chemical_formula_sum   'Y6 Er2 Ti8 Si4 O36'
_cell_volume   680.28213665
_cell_formula_units_Z   2
loop_
 _symmetry_equiv_pos_site_id
 _symmetry_equiv_pos_as_xyz
  1  'x, y, z'
loop_
 _atom_site_type_symbol
 _atom_site_label
 _atom_site_symmetry_multiplicity
 _atom_site_fract_x
 _atom_site_fract_y
 _atom_site_fract_z
 _atom_site_occupancy
  Y  Y0  1  0.35893600  0.69699100  0.93090500  1
  Y  Y1  1  0.85893600  0.30300900  0.06909500  1
  Y  Y2  1  0.63774000  0.73604500  0.42192700  1
  Y  Y3  1  0.13774000  0.26395500  0.57807300  1
  Y  Y4  1  0.36223200  0.76397800  0.57794200  1
  Y  Y5  1  0.86223200  0.23602200  0.42205800  1
  Er  Er6  1  0.64071200  0.80437700  0.06905700  1
  Er  Er7  1  0.14071200  0.19562300  0.93094300  1
  Ti  Ti8  1  0.83674500  0.94911300  0.85008800  1
  Ti  Ti9  1  0.33674500  0.05088700  0.14991200  1
  Ti  Ti10  1  0.16342700  0.55104100  0.14987400  1
  Ti  Ti11  1  0.66342700  0.44895900  0.85012600  1
  Ti  Ti12  1  0.83599700  0.58472900  0.63949500  1
  Ti  Ti13  1  0.33599700  0.41527100  0.36050500  1
  Ti  Ti14  1  0.16400300  0.91536200  0.36053400  1
  Ti  Ti15  1  0.66400300  0.08463800  0.63946600  1
  Si  Si16  1  0.59424300  0.32178200  0.24740200  1
  Si  Si17  1  0.09424300  0.67821800  0.75259800  1
  Si  Si18  1  0.40560300  0.17859000  0.75241200  1
  Si  Si19  1  0.90560300  0.82141000  0.24758800  1
  O  O20  1  0.84006500  0.75495200  0.13432600  1
  O  O21  1  0.34006500  0.24504800  0.86567400  1
  O  O22  1  0.15888000  0.74705300  0.86582100  1
  O  O23  1  0.65888000  0.25294700  0.13417900  1
  O  O24  1  0.78847800  0.91675000  0.55306500  1
  O  O25  1  0.28847800  0.08325000  0.44693500  1
  O  O26  1  0.21149900  0.58322400  0.44692700  1
  O  O27  1  0.71149900  0.41677600  0.55307300  1
  O  O28  1  0.94957500  0.07873300  0.93349700  1
  O  O29  1  0.44957500  0.92126700  0.06650300  1
  O  O30  1  0.05224200  0.42053500  0.06541400  1
  O  O31  1  0.55224200  0.57946500  0.93458600  1
  O  O32  1  0.59875800  0.65744400  0.24530200  1
  O  O33  1  0.09875800  0.34255600  0.75469800  1
  O  O34  1  0.40161300  0.84323100  0.75354700  1
  O  O35  1  0.90161300  0.15676900  0.24645300  1
  O  O36  1  0.94993600  0.77090000  0.74569500  1
  O  O37  1  0.44993600  0.22910000  0.25430500  1
  O  O38  1  0.04993000  0.72891900  0.25418500  1
  O  O39  1  0.54993000  0.27108100  0.74581500  1
  O  O40  1  0.78887700  0.61704500  0.93544700  1
  O  O41  1  0.28887700  0.38295500  0.06455300  1
  O  O42  1  0.21054600  0.88493700  0.06402300  1
  O  O43  1  0.71054600  0.11506300  0.93597700  1
  O  O44  1  0.95223500  0.44686000  0.56214500  1
  O  O45  1  0.45223500  0.55314000  0.43785500  1
  O  O46  1  0.04781500  0.05311400  0.43790100  1
  O  O47  1  0.54781500  0.94688600  0.56209900  1
  O  O48  1  0.83610300  0.68692000  0.35636100  1
  O  O49  1  0.33610300  0.31308000  0.64363900  1
  O  O50  1  0.16382300  0.81273400  0.64372600  1
  O  O51  1  0.66382300  0.18726600  0.35627400  1
  O  O52  1  0.70752800  0.76747700  0.74451600  1
  O  O53  1  0.20752800  0.23252300  0.25548400  1
  O  O54  1  0.29245900  0.73259600  0.25538100  1
  O  O55  1  0.79245900  0.26740400  0.74461900  1
