# generated using pymatgen
data_Er5S7
_symmetry_space_group_name_H-M   'P 1'
_cell_length_a   6.62900716
_cell_length_b   6.62900716
_cell_length_c   11.52492154
_cell_angle_alpha   75.95103925
_cell_angle_beta   75.95103925
_cell_angle_gamma   33.06870032
_symmetry_Int_Tables_number   1
_chemical_formula_structural   Er5S7
_chemical_formula_sum   'Er5 S7'
_cell_volume   267.33407314
_cell_formula_units_Z   1
loop_
 _symmetry_equiv_pos_site_id
 _symmetry_equiv_pos_as_xyz
  1  'x, y, z'
loop_
 _atom_site_type_symbol
 _atom_site_label
 _atom_site_symmetry_multiplicity
 _atom_site_fract_x
 _atom_site_fract_y
 _atom_site_fract_z
 _atom_site_occupancy
  Er  Er0  1  0.00000000  0.00000000  0.00000000  1
  Er  Er1  1  0.11231300  0.11231300  0.57790400  1
  Er  Er2  1  0.88768700  0.88768700  0.42209600  1
  Er  Er3  1  0.30123300  0.30123300  0.81085400  1
  Er  Er4  1  0.69876700  0.69876700  0.18914600  1
  S  S5  1  0.50000000  0.50000000  0.50000000  1
  S  S6  1  0.65965100  0.65965100  0.94842900  1
  S  S7  1  0.34034900  0.34034900  0.05157100  1
  S  S8  1  0.95965200  0.95965200  0.78462000  1
  S  S9  1  0.04034800  0.04034800  0.21538000  1
  S  S10  1  0.25939800  0.25939800  0.35266800  1
  S  S11  1  0.74060200  0.74060200  0.64733200  1
