# generated using pymatgen
data_Tb2MgNi2
_symmetry_space_group_name_H-M   'P 1'
_cell_length_a   7.28493700
_cell_length_b   7.28493700
_cell_length_c   3.76541200
_cell_angle_alpha   90.00000000
_cell_angle_beta   90.00000000
_cell_angle_gamma   90.00000000
_symmetry_Int_Tables_number   1
_chemical_formula_structural   Tb2MgNi2
_chemical_formula_sum   'Tb4 Mg2 Ni4'
_cell_volume   199.83157118
_cell_formula_units_Z   2
loop_
 _symmetry_equiv_pos_site_id
 _symmetry_equiv_pos_as_xyz
  1  'x, y, z'
loop_
 _atom_site_type_symbol
 _atom_site_label
 _atom_site_symmetry_multiplicity
 _atom_site_fract_x
 _atom_site_fract_y
 _atom_site_fract_z
 _atom_site_occupancy
  Tb  Tb0  1  0.67423100  0.17423100  0.50000000  1
  Tb  Tb1  1  0.32576900  0.82576900  0.50000000  1
  Tb  Tb2  1  0.17423100  0.32576900  0.50000000  1
  Tb  Tb3  1  0.82576900  0.67423100  0.50000000  1
  Mg  Mg4  1  0.00000000  0.00000000  0.00000000  1
  Mg  Mg5  1  0.50000000  0.50000000  0.00000000  1
  Ni  Ni6  1  0.11910100  0.61910100  0.00000000  1
  Ni  Ni7  1  0.88089900  0.38089900  0.00000000  1
  Ni  Ni8  1  0.61910100  0.88089900  0.00000000  1
  Ni  Ni9  1  0.38089900  0.11910100  0.00000000  1
