# generated using pymatgen
data_PrAlPd
_symmetry_space_group_name_H-M   'P 1'
_cell_length_a   7.28744209
_cell_length_b   7.28744209
_cell_length_c   4.24838400
_cell_angle_alpha   90.00000000
_cell_angle_beta   90.00000000
_cell_angle_gamma   120.00000078
_symmetry_Int_Tables_number   1
_chemical_formula_structural   PrAlPd
_chemical_formula_sum   'Pr3 Al3 Pd3'
_cell_volume   195.39103152
_cell_formula_units_Z   3
loop_
 _symmetry_equiv_pos_site_id
 _symmetry_equiv_pos_as_xyz
  1  'x, y, z'
loop_
 _atom_site_type_symbol
 _atom_site_label
 _atom_site_symmetry_multiplicity
 _atom_site_fract_x
 _atom_site_fract_y
 _atom_site_fract_z
 _atom_site_occupancy
  Pr  Pr0  1  0.42066400  0.42066400  0.50000000  1
  Pr  Pr1  1  0.57933600  0.00000000  0.50000000  1
  Pr  Pr2  1  0.00000000  0.57933600  0.50000000  1
  Al  Al3  1  0.77202400  0.77202400  0.00000000  1
  Al  Al4  1  0.22797600  0.00000000  0.00000000  1
  Al  Al5  1  0.00000000  0.22797600  0.00000000  1
  Pd  Pd6  1  0.66666700  0.33333300  0.00000000  1
  Pd  Pd7  1  0.33333300  0.66666700  0.00000000  1
  Pd  Pd8  1  0.00000000  0.00000000  0.50000000  1
