# generated using pymatgen
data_BO2F3
_symmetry_space_group_name_H-M   'P 1'
_cell_length_a   8.00621000
_cell_length_b   6.28655900
_cell_length_c   8.42088765
_cell_angle_alpha   80.33174491
_cell_angle_beta   90.00000000
_cell_angle_gamma   90.00000000
_symmetry_Int_Tables_number   1
_chemical_formula_structural   BO2F3
_chemical_formula_sum   'B4 O8 F12'
_cell_volume   417.81612104
_cell_formula_units_Z   4
loop_
 _symmetry_equiv_pos_site_id
 _symmetry_equiv_pos_as_xyz
  1  'x, y, z'
loop_
 _atom_site_type_symbol
 _atom_site_label
 _atom_site_symmetry_multiplicity
 _atom_site_fract_x
 _atom_site_fract_y
 _atom_site_fract_z
 _atom_site_occupancy
  B  B0  1  0.33093000  0.29699800  0.92675100  1
  B  B1  1  0.83093000  0.70300200  0.57324900  1
  B  B2  1  0.66907000  0.70300200  0.07324900  1
  B  B3  1  0.16907000  0.29699800  0.42675100  1
  O  O4  1  0.21507100  0.89031100  0.96563000  1
  O  O5  1  0.71507100  0.10968900  0.53437000  1
  O  O6  1  0.78492900  0.10968900  0.03437000  1
  O  O7  1  0.28492900  0.89031100  0.46563000  1
  O  O8  1  0.19823600  0.80554300  0.10787100  1
  O  O9  1  0.69823600  0.19445700  0.39212900  1
  O  O10  1  0.80176400  0.19445700  0.89212900  1
  O  O11  1  0.30176400  0.80554300  0.60787100  1
  F  F12  1  0.41858200  0.25533200  0.80162400  1
  F  F13  1  0.91858200  0.74466800  0.69837600  1
  F  F14  1  0.58141800  0.74466800  0.19837600  1
  F  F15  1  0.08141800  0.25533200  0.30162400  1
  F  F16  1  0.39827700  0.26038400  0.07370000  1
  F  F17  1  0.89827700  0.73961600  0.42630000  1
  F  F18  1  0.60172300  0.73961600  0.92630000  1
  F  F19  1  0.10172300  0.26038400  0.57370000  1
  F  F20  1  0.17927800  0.38193500  0.90584400  1
  F  F21  1  0.67927800  0.61806500  0.59415600  1
  F  F22  1  0.82072200  0.61806500  0.09415600  1
  F  F23  1  0.32072200  0.38193500  0.40584400  1
