# generated using pymatgen
data_Ta3(InS3)2
_symmetry_space_group_name_H-M   'P 1'
_cell_length_a   8.73922224
_cell_length_b   8.73922224
_cell_length_c   8.73922208
_cell_angle_alpha   38.98607449
_cell_angle_beta   38.98607449
_cell_angle_gamma   38.98607164
_symmetry_Int_Tables_number   1
_chemical_formula_structural   Ta3(InS3)2
_chemical_formula_sum   'Ta3 In2 S6'
_cell_volume   237.57567244
_cell_formula_units_Z   1
loop_
 _symmetry_equiv_pos_site_id
 _symmetry_equiv_pos_as_xyz
  1  'x, y, z'
loop_
 _atom_site_type_symbol
 _atom_site_label
 _atom_site_symmetry_multiplicity
 _atom_site_fract_x
 _atom_site_fract_y
 _atom_site_fract_z
 _atom_site_occupancy
  Ta  Ta0  1  0.33334200  0.33334200  0.33334200  1
  Ta  Ta1  1  0.66665800  0.66665800  0.66665800  1
  Ta  Ta2  1  0.00000000  0.00000000  0.00000000  1
  In  In3  1  0.16662300  0.16662300  0.16662300  1
  In  In4  1  0.83337700  0.83337700  0.83337700  1
  S  S5  1  0.39759200  0.73025400  0.06464500  1
  S  S6  1  0.06464500  0.39759200  0.73025400  1
  S  S7  1  0.73025400  0.06464500  0.39759200  1
  S  S8  1  0.26974600  0.60240800  0.93535500  1
  S  S9  1  0.93535500  0.26974600  0.60240800  1
  S  S10  1  0.60240800  0.93535500  0.26974600  1
