# generated using pymatgen
data_Cs7(FeS2)4
_symmetry_space_group_name_H-M   'P 1'
_cell_length_a   10.59014666
_cell_length_b   10.59014666
_cell_length_c   17.00580149
_cell_angle_alpha   64.68305917
_cell_angle_beta   64.68305917
_cell_angle_gamma   48.37536092
_symmetry_Int_Tables_number   1
_chemical_formula_structural   Cs7(FeS2)4
_chemical_formula_sum   'Cs14 Fe8 S16'
_cell_volume   1259.31696054
_cell_formula_units_Z   2
loop_
 _symmetry_equiv_pos_site_id
 _symmetry_equiv_pos_as_xyz
  1  'x, y, z'
loop_
 _atom_site_type_symbol
 _atom_site_label
 _atom_site_symmetry_multiplicity
 _atom_site_fract_x
 _atom_site_fract_y
 _atom_site_fract_z
 _atom_site_occupancy
  Cs  Cs0  1  0.23056200  0.76943800  0.75000000  1
  Cs  Cs1  1  0.76943800  0.23056200  0.25000000  1
  Cs  Cs2  1  0.24369300  0.74634800  0.98669900  1
  Cs  Cs3  1  0.25365200  0.75630700  0.51330100  1
  Cs  Cs4  1  0.75630700  0.25365200  0.01330100  1
  Cs  Cs5  1  0.74634800  0.24369300  0.48669900  1
  Cs  Cs6  1  0.00366300  0.52511900  0.60859700  1
  Cs  Cs7  1  0.47488100  0.99633700  0.89140300  1
  Cs  Cs8  1  0.99633700  0.47488100  0.39140300  1
  Cs  Cs9  1  0.52511900  0.00366300  0.10859700  1
  Cs  Cs10  1  0.01266500  0.50582900  0.86037800  1
  Cs  Cs11  1  0.49417100  0.98733500  0.63962200  1
  Cs  Cs12  1  0.98733500  0.49417100  0.13962200  1
  Cs  Cs13  1  0.50582900  0.01266500  0.36037800  1
  Fe  Fe14  1  0.67706400  0.44413500  0.65957600  1
  Fe  Fe15  1  0.55586500  0.32293600  0.84042400  1
  Fe  Fe16  1  0.32293600  0.55586500  0.34042400  1
  Fe  Fe17  1  0.44413500  0.67706400  0.15957600  1
  Fe  Fe18  1  0.90651800  0.21170700  0.77889200  1
  Fe  Fe19  1  0.78829300  0.09348200  0.72110800  1
  Fe  Fe20  1  0.09348200  0.78829300  0.22110800  1
  Fe  Fe21  1  0.21170700  0.90651800  0.27889200  1
  S  S22  1  0.65425100  0.49838700  0.79038300  1
  S  S23  1  0.50161300  0.34574900  0.70961700  1
  S  S24  1  0.34574900  0.50161300  0.20961700  1
  S  S25  1  0.49838700  0.65425100  0.29038300  1
  S  S26  1  0.96429500  0.19363600  0.63009500  1
  S  S27  1  0.80636400  0.03570500  0.86990500  1
  S  S28  1  0.03570500  0.80636400  0.36990500  1
  S  S29  1  0.19363600  0.96429500  0.13009500  1
  S  S30  1  0.67399900  0.60849300  0.04603400  1
  S  S31  1  0.39150700  0.32600100  0.45396600  1
  S  S32  1  0.32600100  0.39150700  0.95396600  1
  S  S33  1  0.60849300  0.67399900  0.54603400  1
  S  S34  1  0.86611800  0.86741000  0.68345300  1
  S  S35  1  0.13259000  0.13388200  0.81654700  1
  S  S36  1  0.13388200  0.13259000  0.31654700  1
  S  S37  1  0.86741000  0.86611800  0.18345300  1
