# generated using pymatgen
data_Mg149Re
_symmetry_space_group_name_H-M   'P 1'
_cell_length_a   15.94618138
_cell_length_b   15.94618786
_cell_length_c   15.65275020
_cell_angle_alpha   90.00000000
_cell_angle_beta   90.00000000
_cell_angle_gamma   120.00001148
_symmetry_Int_Tables_number   1
_chemical_formula_structural   Mg149Re
_chemical_formula_sum   'Mg149 Re1'
_cell_volume   3446.94863569
_cell_formula_units_Z   1
loop_
 _symmetry_equiv_pos_site_id
 _symmetry_equiv_pos_as_xyz
  1  'x, y, z'
loop_
 _atom_site_type_symbol
 _atom_site_label
 _atom_site_symmetry_multiplicity
 _atom_site_fract_x
 _atom_site_fract_y
 _atom_site_fract_z
 _atom_site_occupancy
  Mg  Mg0  1  0.60340007  0.00055469  0.00000000  1
  Mg  Mg1  1  0.39715562  0.00055569  0.00000000  1
  Mg  Mg2  1  0.81277042  0.00165009  -0.00000000  1
  Mg  Mg3  1  0.18887968  0.00165009  0.00000000  1
  Mg  Mg4  1  0.99834991  0.18722858  -0.00000000  1
  Mg  Mg5  1  0.18887968  0.18722858  -0.00000000  1
  Mg  Mg6  1  0.80088480  0.19911520  -0.00000000  1
  Mg  Mg7  1  0.39823141  0.19911520  -0.00000000  1
  Mg  Mg8  1  0.59969505  0.19939011  -0.00000000  1
  Mg  Mg9  1  0.19829410  0.39658720  0.00000000  1
  Mg  Mg10  1  0.99944531  0.39659993  -0.00000000  1
  Mg  Mg11  1  0.39715562  0.39659993  0.00000000  1
  Mg  Mg12  1  0.59969505  0.40030395  0.00000000  1
  Mg  Mg13  1  0.80060989  0.40030495  -0.00000000  1
  Mg  Mg14  1  0.19947778  0.59973839  0.00000000  1
  Mg  Mg15  1  0.40026161  0.59973839  0.00000000  1
  Mg  Mg16  1  0.80088480  0.60176959  -0.00000000  1
  Mg  Mg17  1  0.99944531  0.60284538  0.00000000  1
  Mg  Mg18  1  0.60340007  0.60284538  0.00000000  1
  Mg  Mg19  1  0.40026161  0.80052322  0.00000000  1
  Mg  Mg20  1  0.60341280  0.80170590  0.00000000  1
  Mg  Mg21  1  0.19829410  0.80170690  0.00000000  1
  Mg  Mg22  1  0.81277042  0.81112032  -0.00000000  1
  Mg  Mg23  1  0.99834991  0.81112032  0.00000000  1
  Mg  Mg24  1  0.06279593  0.12559186  0.15600362  1
  Mg  Mg25  1  0.87440814  0.93720407  0.15600362  1
  Mg  Mg26  1  0.06279593  0.93720407  0.15600362  1
  Mg  Mg27  1  0.06608847  0.33094923  0.16538283  1
  Mg  Mg28  1  0.26486076  0.33095023  0.16538283  1
  Mg  Mg29  1  0.06608847  0.73513824  0.16538283  1
  Mg  Mg30  1  0.66905077  0.73513924  0.16538283  1
  Mg  Mg31  1  0.26486076  0.93391153  0.16538283  1
  Mg  Mg32  1  0.66905077  0.93391153  0.16538283  1
  Mg  Mg33  1  0.06656949  0.53328525  0.16585220  1
  Mg  Mg34  1  0.46671575  0.53328525  0.16585220  1
  Mg  Mg35  1  0.46671575  0.93343051  0.16585220  1
  Mg  Mg36  1  0.26641208  0.53282416  0.16617460  1
  Mg  Mg37  1  0.46717584  0.73358792  0.16617460  1
  Mg  Mg38  1  0.26641208  0.73358792  0.16617460  1
  Mg  Mg39  1  0.46717465  0.13369456  0.16679083  1
  Mg  Mg40  1  0.66651992  0.13369456  0.16679083  1
  Mg  Mg41  1  0.46717465  0.33348008  0.16679083  1
  Mg  Mg42  1  0.86630544  0.33348008  0.16679083  1
  Mg  Mg43  1  0.86630544  0.53282535  0.16679083  1
  Mg  Mg44  1  0.66651992  0.53282535  0.16679083  1
  Mg  Mg45  1  0.66666700  0.33333300  0.16679662  1
  Mg  Mg46  1  0.26913396  0.13456698  0.16694074  1
  Mg  Mg47  1  0.86543302  0.13456698  0.16694074  1
  Mg  Mg48  1  0.86543302  0.73086604  0.16694074  1
  Mg  Mg49  1  0.00033783  0.19883707  0.33067794  1
  Mg  Mg50  1  0.19850024  0.19883807  0.33067794  1
  Mg  Mg51  1  0.80116193  0.80149976  0.33067794  1
  Mg  Mg52  1  0.00033783  0.80149976  0.33067794  1
  Mg  Mg53  1  0.80116193  0.99966217  0.33067794  1
  Mg  Mg54  1  0.19850024  0.99966217  0.33067794  1
  Mg  Mg55  1  0.00000000  0.00000000  0.33236672  1
  Mg  Mg56  1  0.39916411  0.99975249  0.33257729  1
  Mg  Mg57  1  0.60058838  0.99975249  0.33257729  1
  Mg  Mg58  1  0.00024851  0.39941162  0.33257729  1
  Mg  Mg59  1  0.39916411  0.39941162  0.33257729  1
  Mg  Mg60  1  0.00024851  0.60083589  0.33257729  1
  Mg  Mg61  1  0.60058838  0.60083689  0.33257729  1
  Mg  Mg62  1  0.19995575  0.39991149  0.33298745  1
  Mg  Mg63  1  0.60008851  0.80004425  0.33298745  1
  Mg  Mg64  1  0.19995575  0.80004425  0.33298745  1
  Mg  Mg65  1  0.20005261  0.60002581  0.33324649  1
  Mg  Mg66  1  0.39997319  0.60002581  0.33324649  1
  Mg  Mg67  1  0.39997319  0.79994739  0.33324649  1
  Mg  Mg68  1  0.59981335  0.19962570  0.33354464  1
  Mg  Mg69  1  0.59981335  0.40018665  0.33354464  1
  Mg  Mg70  1  0.80037330  0.40018665  0.33354464  1
  Mg  Mg71  1  0.39991595  0.19995748  0.33378244  1
  Mg  Mg72  1  0.80004152  0.19995848  0.33378244  1
  Mg  Mg73  1  0.80004152  0.60008305  0.33378244  1
  Mg  Mg74  1  0.86712029  0.13287971  0.50000000  1
  Mg  Mg75  1  0.26575942  0.13287971  0.50000000  1
  Mg  Mg76  1  0.06648460  0.13296921  0.50000000  1
  Mg  Mg77  1  0.46671398  0.13346323  0.50000000  1
  Mg  Mg78  1  0.66674926  0.13346323  0.50000000  1
  Mg  Mg79  1  0.26632535  0.33252260  0.50000000  1
  Mg  Mg80  1  0.06619725  0.33252260  0.50000000  1
  Mg  Mg81  1  0.46671398  0.33325074  0.50000000  1
  Mg  Mg82  1  0.86653677  0.33325074  0.50000000  1
  Mg  Mg83  1  0.66666700  0.33333300  0.50000000  1
  Mg  Mg84  1  0.26636519  0.53273037  0.50000000  1
  Mg  Mg85  1  0.06593732  0.53296816  0.50000000  1
  Mg  Mg86  1  0.46703084  0.53296916  0.50000000  1
  Mg  Mg87  1  0.86653677  0.53328602  0.50000000  1
  Mg  Mg88  1  0.66674926  0.53328602  0.50000000  1
  Mg  Mg89  1  0.46726963  0.73363481  0.50000000  1
  Mg  Mg90  1  0.26636519  0.73363481  0.50000000  1
  Mg  Mg91  1  0.06619725  0.73367465  0.50000000  1
  Mg  Mg92  1  0.66747740  0.73367465  0.50000000  1
  Mg  Mg93  1  0.86712029  0.73424158  0.50000000  1
  Mg  Mg94  1  0.06648460  0.93351540  0.50000000  1
  Mg  Mg95  1  0.86703079  0.93351540  0.50000000  1
  Mg  Mg96  1  0.46703084  0.93406268  0.50000000  1
  Mg  Mg97  1  0.26632535  0.93380275  0.50000000  1
  Mg  Mg98  1  0.66747740  0.93380275  0.50000000  1
  Mg  Mg99  1  0.39991595  0.19995748  0.66621756  1
  Mg  Mg100  1  0.80004152  0.19995848  0.66621756  1
  Mg  Mg101  1  0.80004152  0.60008305  0.66621756  1
  Mg  Mg102  1  0.59981335  0.19962570  0.66645536  1
  Mg  Mg103  1  0.59981335  0.40018665  0.66645536  1
  Mg  Mg104  1  0.80037330  0.40018665  0.66645536  1
  Mg  Mg105  1  0.20005261  0.60002581  0.66675351  1
  Mg  Mg106  1  0.39997319  0.60002581  0.66675351  1
  Mg  Mg107  1  0.39997319  0.79994739  0.66675351  1
  Mg  Mg108  1  0.19995575  0.39991149  0.66701255  1
  Mg  Mg109  1  0.60008851  0.80004425  0.66701255  1
  Mg  Mg110  1  0.19995575  0.80004425  0.66701255  1
  Mg  Mg111  1  0.39916411  0.99975249  0.66742371  1
  Mg  Mg112  1  0.60058838  0.99975249  0.66742371  1
  Mg  Mg113  1  0.00024851  0.39941162  0.66742371  1
  Mg  Mg114  1  0.39916411  0.39941162  0.66742371  1
  Mg  Mg115  1  0.00024851  0.60083589  0.66742371  1
  Mg  Mg116  1  0.60058838  0.60083689  0.66742371  1
  Mg  Mg117  1  0.00000000  0.00000000  0.66763428  1
  Mg  Mg118  1  0.00033783  0.19883707  0.66932206  1
  Mg  Mg119  1  0.19850024  0.19883807  0.66932206  1
  Mg  Mg120  1  0.80116193  0.80149976  0.66932206  1
  Mg  Mg121  1  0.00033783  0.80149976  0.66932206  1
  Mg  Mg122  1  0.80116193  0.99966217  0.66932206  1
  Mg  Mg123  1  0.19850024  0.99966217  0.66932206  1
  Mg  Mg124  1  0.26913396  0.13456698  0.83305826  1
  Mg  Mg125  1  0.86543302  0.13456698  0.83305826  1
  Mg  Mg126  1  0.86543302  0.73086604  0.83305826  1
  Mg  Mg127  1  0.66666700  0.33333300  0.83320338  1
  Mg  Mg128  1  0.46717465  0.13369456  0.83320917  1
  Mg  Mg129  1  0.66651992  0.13369456  0.83320917  1
  Mg  Mg130  1  0.46717465  0.33348008  0.83320917  1
  Mg  Mg131  1  0.86630544  0.33348008  0.83320917  1
  Mg  Mg132  1  0.86630544  0.53282535  0.83320917  1
  Mg  Mg133  1  0.66651992  0.53282535  0.83320917  1
  Mg  Mg134  1  0.26641208  0.53282416  0.83382540  1
  Mg  Mg135  1  0.46717584  0.73358792  0.83382540  1
  Mg  Mg136  1  0.26641208  0.73358792  0.83382540  1
  Mg  Mg137  1  0.06656949  0.53328525  0.83414780  1
  Mg  Mg138  1  0.46671575  0.53328525  0.83414780  1
  Mg  Mg139  1  0.46671575  0.93343051  0.83414780  1
  Mg  Mg140  1  0.06608847  0.33094923  0.83461817  1
  Mg  Mg141  1  0.26486076  0.33095023  0.83461817  1
  Mg  Mg142  1  0.06608847  0.73513824  0.83461817  1
  Mg  Mg143  1  0.66905077  0.73513924  0.83461817  1
  Mg  Mg144  1  0.26486076  0.93391153  0.83461817  1
  Mg  Mg145  1  0.66905077  0.93391153  0.83461817  1
  Mg  Mg146  1  0.06279593  0.12559186  0.84399738  1
  Mg  Mg147  1  0.87440814  0.93720407  0.84399738  1
  Mg  Mg148  1  0.06279593  0.93720407  0.84399738  1
  Re  Re149  1  0.00000000  0.00000000  -0.00000000  1
