# generated using pymatgen
data_P2H9NO8
_symmetry_space_group_name_H-M   'P 1'
_cell_length_a   7.80033900
_cell_length_b   9.72620900
_cell_length_c   10.32775615
_cell_angle_alpha   77.93315792
_cell_angle_beta   90.00000000
_cell_angle_gamma   90.00000000
_symmetry_Int_Tables_number   1
_chemical_formula_structural   P2H9NO8
_chemical_formula_sum   'P8 H36 N4 O32'
_cell_volume   766.23051305
_cell_formula_units_Z   4
loop_
 _symmetry_equiv_pos_site_id
 _symmetry_equiv_pos_as_xyz
  1  'x, y, z'
loop_
 _atom_site_type_symbol
 _atom_site_label
 _atom_site_symmetry_multiplicity
 _atom_site_fract_x
 _atom_site_fract_y
 _atom_site_fract_z
 _atom_site_occupancy
  P  P0  1  0.68888700  0.30588400  0.44399100  1
  P  P1  1  0.18888700  0.19411600  0.55600900  1
  P  P2  1  0.31111300  0.69411600  0.55600900  1
  P  P3  1  0.81111300  0.80588400  0.44399100  1
  P  P4  1  0.69520700  0.19557000  0.07607000  1
  P  P5  1  0.19520700  0.30443000  0.92393000  1
  P  P6  1  0.30479300  0.80443000  0.92393000  1
  P  P7  1  0.80479300  0.69557000  0.07607000  1
  H  H8  1  0.46992700  0.33350500  0.56734900  1
  H  H9  1  0.96992700  0.16649500  0.43265100  1
  H  H10  1  0.53007300  0.66649500  0.43265100  1
  H  H11  1  0.03007300  0.83350500  0.56734900  1
  H  H12  1  0.80672300  0.51424400  0.42236800  1
  H  H13  1  0.30672300  0.98575600  0.57763200  1
  H  H14  1  0.19327700  0.48575600  0.57763200  1
  H  H15  1  0.69327700  0.01424400  0.42236800  1
  H  H16  1  0.55269400  0.26422000  0.26471700  1
  H  H17  1  0.05269400  0.23578000  0.73528300  1
  H  H18  1  0.44730600  0.73578000  0.73528300  1
  H  H19  1  0.94730600  0.76422000  0.26471700  1
  H  H20  1  0.48841400  0.18301100  0.93119400  1
  H  H21  1  0.98841400  0.31698900  0.06880600  1
  H  H22  1  0.51158600  0.81698900  0.06880600  1
  H  H23  1  0.01158600  0.68301100  0.93119400  1
  H  H24  1  0.78603900  0.97763900  0.09928500  1
  H  H25  1  0.28603900  0.52236100  0.90071500  1
  H  H26  1  0.21396100  0.02236100  0.90071500  1
  H  H27  1  0.71396100  0.47763900  0.09928500  1
  H  H28  1  0.27363000  0.91928900  0.18296700  1
  H  H29  1  0.77363000  0.58071100  0.81703300  1
  H  H30  1  0.72637000  0.08071100  0.81703300  1
  H  H31  1  0.22637000  0.41928900  0.18296700  1
  H  H32  1  0.35902900  0.06335900  0.22117900  1
  H  H33  1  0.85902900  0.43664100  0.77882100  1
  H  H34  1  0.64097100  0.93664100  0.77882100  1
  H  H35  1  0.14097100  0.56335900  0.22117900  1
  H  H36  1  0.23705700  0.95085600  0.33602200  1
  H  H37  1  0.73705700  0.54914400  0.66397800  1
  H  H38  1  0.76294300  0.04914400  0.66397800  1
  H  H39  1  0.26294300  0.45085600  0.33602200  1
  H  H40  1  0.14428700  0.05230100  0.20319400  1
  H  H41  1  0.64428700  0.44769900  0.79680600  1
  H  H42  1  0.85571300  0.94769900  0.79680600  1
  H  H43  1  0.35571300  0.55230100  0.20319400  1
  N  N44  1  0.25306100  0.99656100  0.23671000  1
  N  N45  1  0.75306100  0.50343900  0.76329000  1
  N  N46  1  0.74693900  0.00343900  0.76329000  1
  N  N47  1  0.24693900  0.49656100  0.23671000  1
  O  O48  1  0.60080800  0.33298600  0.57358600  1
  O  O49  1  0.10080800  0.16701400  0.42641400  1
  O  O50  1  0.39919200  0.66701400  0.42641400  1
  O  O51  1  0.89919200  0.83298600  0.57358600  1
  O  O52  1  0.83915500  0.41575100  0.41454700  1
  O  O53  1  0.33915500  0.08424900  0.58545300  1
  O  O54  1  0.16084500  0.58424900  0.58545300  1
  O  O55  1  0.66084500  0.91575100  0.41454700  1
  O  O56  1  0.54964100  0.33334000  0.33391100  1
  O  O57  1  0.04964100  0.16666000  0.66608900  1
  O  O58  1  0.45035900  0.66666000  0.66608900  1
  O  O59  1  0.95035900  0.83334000  0.33391100  1
  O  O60  1  0.77025000  0.16103000  0.46046300  1
  O  O61  1  0.27025000  0.33897000  0.53953700  1
  O  O62  1  0.22975000  0.83897000  0.53953700  1
  O  O63  1  0.72975000  0.66103000  0.46046300  1
  O  O64  1  0.62158200  0.18952200  0.93346100  1
  O  O65  1  0.12158200  0.31047800  0.06653900  1
  O  O66  1  0.37841800  0.81047800  0.06653900  1
  O  O67  1  0.87841800  0.68952200  0.93346100  1
  O  O68  1  0.83182300  0.07303600  0.10695200  1
  O  O69  1  0.33182300  0.42696400  0.89304800  1
  O  O70  1  0.16817700  0.92696400  0.89304800  1
  O  O71  1  0.66817700  0.57303600  0.10695200  1
  O  O72  1  0.54645900  0.17644900  0.17547800  1
  O  O73  1  0.04645900  0.32355100  0.82452200  1
  O  O74  1  0.45354100  0.82355100  0.82452200  1
  O  O75  1  0.95354100  0.67644900  0.17547800  1
  O  O76  1  0.79659900  0.33077200  0.07167200  1
  O  O77  1  0.29659900  0.16922800  0.92832800  1
  O  O78  1  0.20340100  0.66922800  0.92832800  1
  O  O79  1  0.70340100  0.83077200  0.07167200  1
