# generated using pymatgen
data_Cs2TiP4O13
_symmetry_space_group_name_H-M   'P 1'
_cell_length_a   5.21970800
_cell_length_b   8.12170266
_cell_length_c   16.05204594
_cell_angle_alpha   84.22910934
_cell_angle_beta   83.93935157
_cell_angle_gamma   80.49840192
_symmetry_Int_Tables_number   1
_chemical_formula_structural   Cs2TiP4O13
_chemical_formula_sum   'Cs4 Ti2 P8 O26'
_cell_volume   665.00477876
_cell_formula_units_Z   2
loop_
 _symmetry_equiv_pos_site_id
 _symmetry_equiv_pos_as_xyz
  1  'x, y, z'
loop_
 _atom_site_type_symbol
 _atom_site_label
 _atom_site_symmetry_multiplicity
 _atom_site_fract_x
 _atom_site_fract_y
 _atom_site_fract_z
 _atom_site_occupancy
  Cs  Cs0  1  0.67564900  0.74330500  0.98859700  1
  Cs  Cs1  1  0.32435100  0.25669500  0.01140300  1
  Cs  Cs2  1  0.26673100  0.29878800  0.52978700  1
  Cs  Cs3  1  0.73326900  0.70121200  0.47021300  1
  Ti  Ti4  1  0.44529400  0.05763600  0.26031600  1
  Ti  Ti5  1  0.55470600  0.94236400  0.73968400  1
  P  P6  1  0.87502700  0.21982300  0.35125300  1
  P  P7  1  0.12497300  0.78017700  0.64874700  1
  P  P8  1  0.66609700  0.40604300  0.19605000  1
  P  P9  1  0.33390300  0.59395700  0.80395000  1
  P  P10  1  0.31482700  0.67360700  0.28699900  1
  P  P11  1  0.68517300  0.32639300  0.71300100  1
  P  P12  1  0.02186900  0.90117800  0.16369900  1
  P  P13  1  0.97813100  0.09882200  0.83630100  1
  O  O14  1  0.70763300  0.08710200  0.33330300  1
  O  O15  1  0.29236700  0.91289800  0.66669700  1
  O  O16  1  0.78921600  0.29992200  0.43135300  1
  O  O17  1  0.21078400  0.70007800  0.56864700  1
  O  O18  1  0.84951800  0.36266700  0.27133900  1
  O  O19  1  0.15048200  0.63733300  0.72866100  1
  O  O20  1  0.16690700  0.14236600  0.34480300  1
  O  O21  1  0.83309300  0.85763400  0.65519700  1
  O  O22  1  0.51338100  0.59135300  0.21237600  1
  O  O23  1  0.48661900  0.40864700  0.78762400  1
  O  O24  1  0.81243500  0.41889000  0.11184200  1
  O  O25  1  0.18756500  0.58111000  0.88815800  1
  O  O26  1  0.46487800  0.28505800  0.20828900  1
  O  O27  1  0.53512200  0.71494200  0.79171100  1
  O  O28  1  0.43313400  0.82486200  0.30783100  1
  O  O29  1  0.56686600  0.17513800  0.69216900  1
  O  O30  1  0.06031100  0.74784500  0.23950600  1
  O  O31  1  0.93968900  0.25215500  0.76049400  1
  O  O32  1  0.25713900  0.55228800  0.35868800  1
  O  O33  1  0.74286100  0.44771200  0.64131200  1
  O  O34  1  0.11737900  0.83682200  0.08035000  1
  O  O35  1  0.88262100  0.16317800  0.91965000  1
  O  O36  1  0.72748100  0.96765700  0.17450300  1
  O  O37  1  0.27251900  0.03234300  0.82549700  1
  O  O38  1  0.18162800  0.03307500  0.18798100  1
  O  O39  1  0.81837200  0.96692500  0.81201900  1
