# generated using pymatgen
data_NdSi2Ni9
_symmetry_space_group_name_H-M   'P 1'
_cell_length_a   7.59137252
_cell_length_b   7.59137252
_cell_length_c   7.59137252
_cell_angle_alpha   99.57748313
_cell_angle_beta   99.57748313
_cell_angle_gamma   131.85421105
_symmetry_Int_Tables_number   1
_chemical_formula_structural   NdSi2Ni9
_chemical_formula_sum   'Nd2 Si4 Ni18'
_cell_volume   297.51616500
_cell_formula_units_Z   2
loop_
 _symmetry_equiv_pos_site_id
 _symmetry_equiv_pos_as_xyz
  1  'x, y, z'
loop_
 _atom_site_type_symbol
 _atom_site_label
 _atom_site_symmetry_multiplicity
 _atom_site_fract_x
 _atom_site_fract_y
 _atom_site_fract_z
 _atom_site_occupancy
  Nd  Nd0  1  0.50000000  0.50000000  0.00000000  1
  Nd  Nd1  1  0.75000000  0.25000000  0.50000000  1
  Si  Si2  1  0.62500000  0.87500000  0.75000000  1
  Si  Si3  1  0.12500000  0.37500000  0.25000000  1
  Si  Si4  1  0.12500000  0.87500000  0.75000000  1
  Si  Si5  1  0.12500000  0.87500000  0.25000000  1
  Ni  Ni6  1  0.25000000  0.75000000  0.50000000  1
  Ni  Ni7  1  0.00000000  0.00000000  0.00000000  1
  Ni  Ni8  1  0.68856600  0.01674300  0.07940000  1
  Ni  Ni9  1  0.68856600  0.60916500  0.67182300  1
  Ni  Ni10  1  0.26674300  0.43856600  0.57940000  1
  Ni  Ni11  1  0.26674300  0.68734300  0.82817700  1
  Ni  Ni12  1  0.93734300  0.01674300  0.32817700  1
  Ni  Ni13  1  0.93734300  0.60916500  0.92060000  1
  Ni  Ni14  1  0.85916500  0.43856600  0.17182300  1
  Ni  Ni15  1  0.85916500  0.68734300  0.42060000  1
  Ni  Ni16  1  0.56143400  0.73325700  0.42060000  1
  Ni  Ni17  1  0.56143400  0.14083500  0.82817700  1
  Ni  Ni18  1  0.98325700  0.31143400  0.92060000  1
  Ni  Ni19  1  0.98325700  0.06265700  0.67182300  1
  Ni  Ni20  1  0.31265700  0.73325700  0.17182300  1
  Ni  Ni21  1  0.31265700  0.14083500  0.57940000  1
  Ni  Ni22  1  0.39083500  0.31143400  0.32817700  1
  Ni  Ni23  1  0.39083500  0.06265700  0.07940000  1
