# generated using pymatgen
data_Ce3Pd4
_symmetry_space_group_name_H-M   'P 1'
_cell_length_a   8.05971305
_cell_length_b   8.05971305
_cell_length_c   8.05971297
_cell_angle_alpha   114.48512457
_cell_angle_beta   114.48512457
_cell_angle_gamma   114.48512306
_symmetry_Int_Tables_number   1
_chemical_formula_structural   Ce3Pd4
_chemical_formula_sum   'Ce6 Pd8'
_cell_volume   306.30619765
_cell_formula_units_Z   2
loop_
 _symmetry_equiv_pos_site_id
 _symmetry_equiv_pos_as_xyz
  1  'x, y, z'
loop_
 _atom_site_type_symbol
 _atom_site_label
 _atom_site_symmetry_multiplicity
 _atom_site_fract_x
 _atom_site_fract_y
 _atom_site_fract_z
 _atom_site_occupancy
  Ce  Ce0  1  0.97494200  0.59546200  0.71935100  1
  Ce  Ce1  1  0.71935100  0.97494200  0.59546200  1
  Ce  Ce2  1  0.59546200  0.71935100  0.97494200  1
  Ce  Ce3  1  0.02505800  0.40453800  0.28064900  1
  Ce  Ce4  1  0.28064900  0.02505800  0.40453800  1
  Ce  Ce5  1  0.40453800  0.28064900  0.02505800  1
  Pd  Pd6  1  0.00000000  0.00000000  0.00000000  1
  Pd  Pd7  1  0.50000000  0.50000000  0.50000000  1
  Pd  Pd8  1  0.94038500  0.77652700  0.44735300  1
  Pd  Pd9  1  0.44735300  0.94038500  0.77652700  1
  Pd  Pd10  1  0.77652700  0.44735300  0.94038500  1
  Pd  Pd11  1  0.05961500  0.22347300  0.55264700  1
  Pd  Pd12  1  0.55264700  0.05961500  0.22347300  1
  Pd  Pd13  1  0.22347300  0.55264700  0.05961500  1
