# generated using pymatgen
data_Tb(Ni2As)2
_symmetry_space_group_name_H-M   'P 1'
_cell_length_a   7.25246800
_cell_length_b   7.25246800
_cell_length_c   3.77543800
_cell_angle_alpha   90.00000000
_cell_angle_beta   90.00000000
_cell_angle_gamma   90.00000000
_symmetry_Int_Tables_number   1
_chemical_formula_structural   Tb(Ni2As)2
_chemical_formula_sum   'Tb2 Ni8 As4'
_cell_volume   198.58159070
_cell_formula_units_Z   2
loop_
 _symmetry_equiv_pos_site_id
 _symmetry_equiv_pos_as_xyz
  1  'x, y, z'
loop_
 _atom_site_type_symbol
 _atom_site_label
 _atom_site_symmetry_multiplicity
 _atom_site_fract_x
 _atom_site_fract_y
 _atom_site_fract_z
 _atom_site_occupancy
  Tb  Tb0  1  0.50000000  0.50000000  0.00000000  1
  Tb  Tb1  1  0.00000000  0.00000000  0.50000000  1
  Ni  Ni2  1  0.58911600  0.15373100  0.50000000  1
  Ni  Ni3  1  0.41088400  0.84626900  0.50000000  1
  Ni  Ni4  1  0.08911600  0.34626900  0.00000000  1
  Ni  Ni5  1  0.91088400  0.65373100  0.00000000  1
  Ni  Ni6  1  0.15373100  0.58911600  0.50000000  1
  Ni  Ni7  1  0.84626900  0.41088400  0.50000000  1
  Ni  Ni8  1  0.34626900  0.08911600  0.00000000  1
  Ni  Ni9  1  0.65373100  0.91088400  0.00000000  1
  As  As10  1  0.71722200  0.71722200  0.50000000  1
  As  As11  1  0.28277800  0.28277800  0.50000000  1
  As  As12  1  0.21722200  0.78277800  0.00000000  1
  As  As13  1  0.78277800  0.21722200  0.00000000  1
