# generated using pymatgen
data_LiMnBO3
_symmetry_space_group_name_H-M   'P 1'
_cell_length_a   6.38936600
_cell_length_b   8.27042000
_cell_length_c   8.86599350
_cell_angle_alpha   117.80167259
_cell_angle_beta   68.87953920
_cell_angle_gamma   90.00000000
_symmetry_Int_Tables_number   1
_chemical_formula_structural   LiMnBO3
_chemical_formula_sum   'Li6 Mn6 B6 O18'
_cell_volume   378.48050003
_cell_formula_units_Z   6
loop_
 _symmetry_equiv_pos_site_id
 _symmetry_equiv_pos_as_xyz
  1  'x, y, z'
loop_
 _atom_site_type_symbol
 _atom_site_label
 _atom_site_symmetry_multiplicity
 _atom_site_fract_x
 _atom_site_fract_y
 _atom_site_fract_z
 _atom_site_occupancy
  Li  Li0  1  0.89146800  0.70142900  0.71706500  1
  Li  Li1  1  0.39146800  0.70142900  0.71706500  1
  Li  Li2  1  0.75781800  0.28293500  0.98436500  1
  Li  Li3  1  0.25781800  0.28293500  0.98436500  1
  Li  Li4  1  0.10071500  0.01563500  0.29857100  1
  Li  Li5  1  0.60071500  0.01563500  0.29857100  1
  Mn  Mn6  1  0.49475900  0.63888100  0.01048200  1
  Mn  Mn7  1  0.18580000  0.98951800  0.62839900  1
  Mn  Mn8  1  0.31944100  0.37160100  0.36111900  1
  Mn  Mn9  1  0.99475900  0.63888100  0.01048200  1
  Mn  Mn10  1  0.68580000  0.98951800  0.62839900  1
  Mn  Mn11  1  0.81944100  0.37160100  0.36111900  1
  B  B12  1  0.91666700  0.33333300  0.66666700  1
  B  B13  1  0.41666700  0.33333300  0.66666700  1
  B  B14  1  0.00000000  0.00000000  0.00000000  1
  B  B15  1  0.50000000  0.00000000  0.00000000  1
  B  B16  1  0.08333300  0.66666700  0.33333300  1
  B  B17  1  0.58333300  0.66666700  0.33333300  1
  O  O18  1  0.96080900  0.13965400  0.57838100  1
  O  O19  1  0.46080900  0.13965400  0.57838100  1
  O  O20  1  0.81982700  0.43872700  0.86034600  1
  O  O21  1  0.31982700  0.43872700  0.86034600  1
  O  O22  1  0.96936300  0.42161900  0.56127300  1
  O  O23  1  0.46936300  0.42161900  0.56127300  1
  O  O24  1  0.53929000  0.11501400  0.92142000  1
  O  O25  1  0.03929000  0.11501400  0.92142000  1
  O  O26  1  0.55750700  0.80640600  0.88498600  1
  O  O27  1  0.05750700  0.80640600  0.88498600  1
  O  O28  1  0.90320300  0.07858000  0.19359400  1
  O  O29  1  0.40320300  0.07858000  0.19359400  1
  O  O30  1  0.13952900  0.74791900  0.22094300  1
  O  O31  1  0.63952900  0.74791900  0.22094300  1
  O  O32  1  0.12395900  0.47302400  0.25208200  1
  O  O33  1  0.62395900  0.47302400  0.25208200  1
  O  O34  1  0.98651200  0.77905700  0.52697600  1
  O  O35  1  0.48651200  0.77905700  0.52697600  1
