# generated using pymatgen
data_Y4CdNi
_symmetry_space_group_name_H-M   'P 1'
_cell_length_a   9.62783158
_cell_length_b   9.62783158
_cell_length_c   9.62783158
_cell_angle_alpha   60.00000000
_cell_angle_beta   60.00000000
_cell_angle_gamma   60.00000000
_symmetry_Int_Tables_number   1
_chemical_formula_structural   Y4CdNi
_chemical_formula_sum   'Y16 Cd4 Ni4'
_cell_volume   631.05971374
_cell_formula_units_Z   4
loop_
 _symmetry_equiv_pos_site_id
 _symmetry_equiv_pos_as_xyz
  1  'x, y, z'
loop_
 _atom_site_type_symbol
 _atom_site_label
 _atom_site_symmetry_multiplicity
 _atom_site_fract_x
 _atom_site_fract_y
 _atom_site_fract_z
 _atom_site_occupancy
  Y  Y0  1  0.59931600  0.59931600  0.59931600  1
  Y  Y1  1  0.59931600  0.59931600  0.20205200  1
  Y  Y2  1  0.59931600  0.20205200  0.59931600  1
  Y  Y3  1  0.20205200  0.59931600  0.59931600  1
  Y  Y4  1  0.06072400  0.43927600  0.43927600  1
  Y  Y5  1  0.43927600  0.06072400  0.06072400  1
  Y  Y6  1  0.43927600  0.06072400  0.43927600  1
  Y  Y7  1  0.06072400  0.43927600  0.06072400  1
  Y  Y8  1  0.43927600  0.43927600  0.06072400  1
  Y  Y9  1  0.06072400  0.06072400  0.43927600  1
  Y  Y10  1  0.18670900  0.81329100  0.81329100  1
  Y  Y11  1  0.81329100  0.18670900  0.18670900  1
  Y  Y12  1  0.81329100  0.18670900  0.81329100  1
  Y  Y13  1  0.18670900  0.81329100  0.18670900  1
  Y  Y14  1  0.81329100  0.81329100  0.18670900  1
  Y  Y15  1  0.18670900  0.18670900  0.81329100  1
  Cd  Cd16  1  0.83160700  0.83160700  0.83160700  1
  Cd  Cd17  1  0.83160700  0.83160700  0.50517800  1
  Cd  Cd18  1  0.83160700  0.50517800  0.83160700  1
  Cd  Cd19  1  0.50517800  0.83160700  0.83160700  1
  Ni  Ni20  1  0.39247200  0.39247200  0.39247200  1
  Ni  Ni21  1  0.39247200  0.39247200  0.82258500  1
  Ni  Ni22  1  0.39247200  0.82258500  0.39247200  1
  Ni  Ni23  1  0.82258500  0.39247200  0.39247200  1
