# generated using pymatgen
data_LiB3
_symmetry_space_group_name_H-M   'P 1'
_cell_length_a   5.98124000
_cell_length_b   5.98124000
_cell_length_c   4.16259000
_cell_angle_alpha   90.00000000
_cell_angle_beta   90.00000000
_cell_angle_gamma   90.00000000
_symmetry_Int_Tables_number   1
_chemical_formula_structural   LiB3
_chemical_formula_sum   'Li4 B12'
_cell_volume   148.91762271
_cell_formula_units_Z   4
loop_
 _symmetry_equiv_pos_site_id
 _symmetry_equiv_pos_as_xyz
  1  'x, y, z'
loop_
 _atom_site_type_symbol
 _atom_site_label
 _atom_site_symmetry_multiplicity
 _atom_site_fract_x
 _atom_site_fract_y
 _atom_site_fract_z
 _atom_site_occupancy
  Li  Li0  1  0.67837200  0.17837200  0.50000000  1
  Li  Li1  1  0.32162800  0.82162800  0.50000000  1
  Li  Li2  1  0.17837200  0.32162800  0.50000000  1
  Li  Li3  1  0.82162800  0.67837200  0.50000000  1
  B  B4  1  0.50000000  0.50000000  0.70584900  1
  B  B5  1  0.00000000  0.00000000  0.70584900  1
  B  B6  1  0.50000000  0.50000000  0.29415100  1
  B  B7  1  0.00000000  0.00000000  0.29415100  1
  B  B8  1  0.63658100  0.66022500  0.00000000  1
  B  B9  1  0.36341900  0.33977500  0.00000000  1
  B  B10  1  0.13658100  0.83977500  0.00000000  1
  B  B11  1  0.86341900  0.16022500  0.00000000  1
  B  B12  1  0.33977500  0.63658100  0.00000000  1
  B  B13  1  0.66022500  0.36341900  0.00000000  1
  B  B14  1  0.16022500  0.13658100  0.00000000  1
  B  B15  1  0.83977500  0.86341900  0.00000000  1
