# generated using pymatgen
data_CsKZr6BCl15
_symmetry_space_group_name_H-M   'P 1'
_cell_length_a   9.90405800
_cell_length_b   14.27007600
_cell_length_c   19.00439900
_cell_angle_alpha   90.00000000
_cell_angle_beta   90.00000000
_cell_angle_gamma   90.00000000
_symmetry_Int_Tables_number   1
_chemical_formula_structural   CsKZr6BCl15
_chemical_formula_sum   'Cs4 K4 Zr24 B4 Cl60'
_cell_volume   2685.92326497
_cell_formula_units_Z   4
loop_
 _symmetry_equiv_pos_site_id
 _symmetry_equiv_pos_as_xyz
  1  'x, y, z'
loop_
 _atom_site_type_symbol
 _atom_site_label
 _atom_site_symmetry_multiplicity
 _atom_site_fract_x
 _atom_site_fract_y
 _atom_site_fract_z
 _atom_site_occupancy
  Cs  Cs0  1  0.40889800  0.50000000  0.75000000  1
  Cs  Cs1  1  0.59110200  0.50000000  0.25000000  1
  Cs  Cs2  1  0.00000000  0.00000000  0.50000000  1
  Cs  Cs3  1  0.00000000  0.00000000  0.00000000  1
  K  K4  1  0.84202600  0.25144700  0.75000000  1
  K  K5  1  0.15797400  0.74855300  0.25000000  1
  K  K6  1  0.84202600  0.74855300  0.75000000  1
  K  K7  1  0.15797400  0.25144700  0.25000000  1
  Zr  Zr8  1  0.58594900  0.00000000  0.75000000  1
  Zr  Zr9  1  0.41405100  0.00000000  0.25000000  1
  Zr  Zr10  1  0.08051100  0.50000000  0.11421300  1
  Zr  Zr11  1  0.91948900  0.50000000  0.88578700  1
  Zr  Zr12  1  0.08051100  0.50000000  0.38578700  1
  Zr  Zr13  1  0.91948900  0.50000000  0.61421300  1
  Zr  Zr14  1  0.15847600  0.38434300  0.52878000  1
  Zr  Zr15  1  0.84152400  0.61565700  0.47122000  1
  Zr  Zr16  1  0.15847600  0.61565700  0.97122000  1
  Zr  Zr17  1  0.84152400  0.38434300  0.47122000  1
  Zr  Zr18  1  0.84152400  0.38434300  0.02878000  1
  Zr  Zr19  1  0.15847600  0.61565700  0.52878000  1
  Zr  Zr20  1  0.84152400  0.61565700  0.02878000  1
  Zr  Zr21  1  0.15847600  0.38434300  0.97122000  1
  Zr  Zr22  1  0.35326700  0.11605200  0.66263000  1
  Zr  Zr23  1  0.64673300  0.88394800  0.33737000  1
  Zr  Zr24  1  0.35326700  0.88394800  0.83737000  1
  Zr  Zr25  1  0.64673300  0.11605200  0.33737000  1
  Zr  Zr26  1  0.64673300  0.11605200  0.16263000  1
  Zr  Zr27  1  0.35326700  0.88394800  0.66263000  1
  Zr  Zr28  1  0.64673300  0.88394800  0.16263000  1
  Zr  Zr29  1  0.35326700  0.11605200  0.83737000  1
  Zr  Zr30  1  0.12203700  0.00000000  0.75000000  1
  Zr  Zr31  1  0.87796300  0.00000000  0.25000000  1
  B  B32  1  0.35448700  0.00000000  0.75000000  1
  B  B33  1  0.64551300  0.00000000  0.25000000  1
  B  B34  1  0.00000000  0.50000000  0.50000000  1
  B  B35  1  0.00000000  0.50000000  0.00000000  1
  Cl  Cl36  1  0.00000000  0.24765600  0.50000000  1
  Cl  Cl37  1  0.00000000  0.75234400  0.50000000  1
  Cl  Cl38  1  0.00000000  0.75234400  0.00000000  1
  Cl  Cl39  1  0.00000000  0.24765600  0.00000000  1
  Cl  Cl40  1  0.08564100  0.37562400  0.65894900  1
  Cl  Cl41  1  0.91435900  0.62437600  0.34105100  1
  Cl  Cl42  1  0.08564100  0.62437600  0.84105100  1
  Cl  Cl43  1  0.91435900  0.37562400  0.34105100  1
  Cl  Cl44  1  0.91435900  0.37562400  0.15894900  1
  Cl  Cl45  1  0.08564100  0.62437600  0.65894900  1
  Cl  Cl46  1  0.91435900  0.62437600  0.15894900  1
  Cl  Cl47  1  0.08564100  0.37562400  0.84105100  1
  Cl  Cl48  1  0.34617900  0.50000000  0.56310900  1
  Cl  Cl49  1  0.65382100  0.50000000  0.43689100  1
  Cl  Cl50  1  0.34617900  0.50000000  0.93689100  1
  Cl  Cl51  1  0.65382100  0.50000000  0.06310900  1
  Cl  Cl52  1  0.35980700  0.25343200  0.75000000  1
  Cl  Cl53  1  0.64019300  0.74656800  0.25000000  1
  Cl  Cl54  1  0.35980700  0.74656800  0.75000000  1
  Cl  Cl55  1  0.64019300  0.25343200  0.25000000  1
  Cl  Cl56  1  0.34330400  0.25096300  0.56270800  1
  Cl  Cl57  1  0.65669600  0.74903700  0.43729200  1
  Cl  Cl58  1  0.34330400  0.74903700  0.93729200  1
  Cl  Cl59  1  0.65669600  0.25096300  0.43729200  1
  Cl  Cl60  1  0.65669600  0.25096300  0.06270800  1
  Cl  Cl61  1  0.34330400  0.74903700  0.56270800  1
  Cl  Cl62  1  0.65669600  0.74903700  0.06270800  1
  Cl  Cl63  1  0.34330400  0.25096300  0.93729200  1
  Cl  Cl64  1  0.09238600  0.12673900  0.65599000  1
  Cl  Cl65  1  0.90761400  0.87326100  0.34401000  1
  Cl  Cl66  1  0.09238600  0.87326100  0.84401000  1
  Cl  Cl67  1  0.90761400  0.12673900  0.34401000  1
  Cl  Cl68  1  0.90761400  0.12673900  0.15599000  1
  Cl  Cl69  1  0.09238600  0.87326100  0.65599000  1
  Cl  Cl70  1  0.90761400  0.87326100  0.15599000  1
  Cl  Cl71  1  0.09238600  0.12673900  0.84401000  1
  Cl  Cl72  1  0.25931500  0.37206700  0.09641300  1
  Cl  Cl73  1  0.74068500  0.62793300  0.90358700  1
  Cl  Cl74  1  0.25931500  0.62793300  0.40358700  1
  Cl  Cl75  1  0.74068500  0.37206700  0.90358700  1
  Cl  Cl76  1  0.74068500  0.37206700  0.59641300  1
  Cl  Cl77  1  0.25931500  0.62793300  0.09641300  1
  Cl  Cl78  1  0.74068500  0.62793300  0.59641300  1
  Cl  Cl79  1  0.25931500  0.37206700  0.40358700  1
  Cl  Cl80  1  0.85366100  0.00000000  0.75000000  1
  Cl  Cl81  1  0.14633900  0.00000000  0.25000000  1
  Cl  Cl82  1  0.34961500  0.00000000  0.55916700  1
  Cl  Cl83  1  0.65038500  0.00000000  0.44083300  1
  Cl  Cl84  1  0.34961500  0.00000000  0.94083300  1
  Cl  Cl85  1  0.65038500  0.00000000  0.05916700  1
  Cl  Cl86  1  0.61254800  0.12659000  0.65392400  1
  Cl  Cl87  1  0.38745200  0.87341000  0.34607600  1
  Cl  Cl88  1  0.61254800  0.87341000  0.84607600  1
  Cl  Cl89  1  0.38745200  0.12659000  0.34607600  1
  Cl  Cl90  1  0.38745200  0.12659000  0.15392400  1
  Cl  Cl91  1  0.61254800  0.87341000  0.65392400  1
  Cl  Cl92  1  0.38745200  0.87341000  0.15392400  1
  Cl  Cl93  1  0.61254800  0.12659000  0.84607600  1
  Cl  Cl94  1  0.81201100  0.50000000  0.75000000  1
  Cl  Cl95  1  0.18798900  0.50000000  0.25000000  1
