# generated using pymatgen
data_BaTiOF4
_symmetry_space_group_name_H-M   'P 1'
_cell_length_a   5.30856000
_cell_length_b   5.60555000
_cell_length_c   13.91016500
_cell_angle_alpha   90.00000000
_cell_angle_beta   90.00000000
_cell_angle_gamma   90.00000000
_symmetry_Int_Tables_number   1
_chemical_formula_structural   BaTiOF4
_chemical_formula_sum   'Ba4 Ti4 O4 F16'
_cell_volume   413.93032322
_cell_formula_units_Z   4
loop_
 _symmetry_equiv_pos_site_id
 _symmetry_equiv_pos_as_xyz
  1  'x, y, z'
loop_
 _atom_site_type_symbol
 _atom_site_label
 _atom_site_symmetry_multiplicity
 _atom_site_fract_x
 _atom_site_fract_y
 _atom_site_fract_z
 _atom_site_occupancy
  Ba  Ba0  1  0.25148300  0.75000000  0.59368300  1
  Ba  Ba1  1  0.25148300  0.25000000  0.90631700  1
  Ba  Ba2  1  0.74851700  0.25000000  0.40631700  1
  Ba  Ba3  1  0.74851700  0.75000000  0.09368300  1
  Ti  Ti4  1  0.18683600  0.75000000  0.32300400  1
  Ti  Ti5  1  0.18683600  0.25000000  0.17699600  1
  Ti  Ti6  1  0.81316400  0.25000000  0.67699600  1
  Ti  Ti7  1  0.81316400  0.75000000  0.82300400  1
  O  O8  1  0.05290600  0.50000000  0.25000000  1
  O  O9  1  0.94709400  0.00000000  0.75000000  1
  O  O10  1  0.94709400  0.50000000  0.75000000  1
  O  O11  1  0.05290600  0.00000000  0.25000000  1
  F  F12  1  0.09725200  0.75000000  0.91205100  1
  F  F13  1  0.09725200  0.25000000  0.58794900  1
  F  F14  1  0.90274800  0.25000000  0.08794900  1
  F  F15  1  0.90274800  0.75000000  0.41205100  1
  F  F16  1  0.32040900  0.51495100  0.41873300  1
  F  F17  1  0.32040900  0.48504900  0.08126700  1
  F  F18  1  0.67959100  0.01495100  0.58126700  1
  F  F19  1  0.67959100  0.98504900  0.91873300  1
  F  F20  1  0.67959100  0.48504900  0.58126700  1
  F  F21  1  0.67959100  0.51495100  0.91873300  1
  F  F22  1  0.32040900  0.98504900  0.41873300  1
  F  F23  1  0.32040900  0.01495100  0.08126700  1
  F  F24  1  0.50539900  0.75000000  0.26461100  1
  F  F25  1  0.50539900  0.25000000  0.23538900  1
  F  F26  1  0.49460100  0.25000000  0.73538900  1
  F  F27  1  0.49460100  0.75000000  0.76461100  1
