# generated using pymatgen
data_K6ZnSe4
_symmetry_space_group_name_H-M   'P 1'
_cell_length_a   10.30109615
_cell_length_b   10.30109615
_cell_length_c   7.98102100
_cell_angle_alpha   90.00000000
_cell_angle_beta   90.00000000
_cell_angle_gamma   120.00000099
_symmetry_Int_Tables_number   1
_chemical_formula_structural   K6ZnSe4
_chemical_formula_sum   'K12 Zn2 Se8'
_cell_volume   733.42542802
_cell_formula_units_Z   2
loop_
 _symmetry_equiv_pos_site_id
 _symmetry_equiv_pos_as_xyz
  1  'x, y, z'
loop_
 _atom_site_type_symbol
 _atom_site_label
 _atom_site_symmetry_multiplicity
 _atom_site_fract_x
 _atom_site_fract_y
 _atom_site_fract_z
 _atom_site_occupancy
  K  K0  1  0.85294100  0.70588300  0.54676400  1
  K  K1  1  0.29411700  0.14705900  0.54676400  1
  K  K2  1  0.85294100  0.14705900  0.54676400  1
  K  K3  1  0.14705900  0.29411700  0.04676400  1
  K  K4  1  0.70588300  0.85294100  0.04676400  1
  K  K5  1  0.14705900  0.85294100  0.04676400  1
  K  K6  1  0.47306200  0.94612500  0.36550700  1
  K  K7  1  0.05387500  0.52693800  0.36550700  1
  K  K8  1  0.47306200  0.52693800  0.36550700  1
  K  K9  1  0.52693800  0.05387500  0.86550700  1
  K  K10  1  0.94612500  0.47306200  0.86550700  1
  K  K11  1  0.52693800  0.47306200  0.86550700  1
  Zn  Zn12  1  0.66666700  0.33333300  0.25027300  1
  Zn  Zn13  1  0.33333300  0.66666700  0.75027300  1
  Se  Se14  1  0.66666700  0.33333300  0.57081800  1
  Se  Se15  1  0.33333300  0.66666700  0.07081800  1
  Se  Se16  1  0.80328200  0.60656500  0.15059600  1
  Se  Se17  1  0.39343500  0.19671800  0.15059600  1
  Se  Se18  1  0.80328200  0.19671800  0.15059600  1
  Se  Se19  1  0.19671800  0.39343500  0.65059600  1
  Se  Se20  1  0.60656500  0.80328200  0.65059600  1
  Se  Se21  1  0.19671800  0.80328200  0.65059600  1
