# generated using pymatgen
data_Eu5Sb3
_symmetry_space_group_name_H-M   'P 1'
_cell_length_a   9.36321471
_cell_length_b   9.36321471
_cell_length_c   7.07286200
_cell_angle_alpha   90.00000000
_cell_angle_beta   90.00000000
_cell_angle_gamma   120.00000499
_symmetry_Int_Tables_number   1
_chemical_formula_structural   Eu5Sb3
_chemical_formula_sum   'Eu10 Sb6'
_cell_volume   537.00182153
_cell_formula_units_Z   2
loop_
 _symmetry_equiv_pos_site_id
 _symmetry_equiv_pos_as_xyz
  1  'x, y, z'
loop_
 _atom_site_type_symbol
 _atom_site_label
 _atom_site_symmetry_multiplicity
 _atom_site_fract_x
 _atom_site_fract_y
 _atom_site_fract_z
 _atom_site_occupancy
  Eu  Eu0  1  0.66666700  0.33333300  0.50000000  1
  Eu  Eu1  1  0.33333300  0.66666700  0.50000000  1
  Eu  Eu2  1  0.33333300  0.66666700  0.00000000  1
  Eu  Eu3  1  0.66666700  0.33333300  0.00000000  1
  Eu  Eu4  1  0.74605600  0.74605600  0.25000000  1
  Eu  Eu5  1  0.25394400  0.00000000  0.25000000  1
  Eu  Eu6  1  0.00000000  0.25394400  0.25000000  1
  Eu  Eu7  1  0.25394400  0.25394400  0.75000000  1
  Eu  Eu8  1  0.74605600  0.00000000  0.75000000  1
  Eu  Eu9  1  0.00000000  0.74605600  0.75000000  1
  Sb  Sb10  1  0.38950900  0.38950900  0.25000000  1
  Sb  Sb11  1  0.61049100  0.00000000  0.25000000  1
  Sb  Sb12  1  0.00000000  0.61049100  0.25000000  1
  Sb  Sb13  1  0.61049100  0.61049100  0.75000000  1
  Sb  Sb14  1  0.38950900  0.00000000  0.75000000  1
  Sb  Sb15  1  0.00000000  0.38950900  0.75000000  1
