# generated using pymatgen
data_Yb12Ga19Au25
_symmetry_space_group_name_H-M   'P 1'
_cell_length_a   4.57136500
_cell_length_b   13.25564100
_cell_length_c   18.52860500
_cell_angle_alpha   90.00000000
_cell_angle_beta   90.00000000
_cell_angle_gamma   90.00000000
_symmetry_Int_Tables_number   1
_chemical_formula_structural   Yb12Ga19Au25
_chemical_formula_sum   'Yb12 Ga19 Au25'
_cell_volume   1122.76626568
_cell_formula_units_Z   1
loop_
 _symmetry_equiv_pos_site_id
 _symmetry_equiv_pos_as_xyz
  1  'x, y, z'
loop_
 _atom_site_type_symbol
 _atom_site_label
 _atom_site_symmetry_multiplicity
 _atom_site_fract_x
 _atom_site_fract_y
 _atom_site_fract_z
 _atom_site_occupancy
  Yb  Yb0  1  0.00000000  0.29329100  0.24634800  1
  Yb  Yb1  1  0.00000000  0.70670900  0.24634800  1
  Yb  Yb2  1  0.00000000  0.00000000  0.26038500  1
  Yb  Yb3  1  0.50000000  0.50000000  0.50513200  1
  Yb  Yb4  1  0.50000000  0.50000000  0.00769300  1
  Yb  Yb5  1  0.50000000  0.20704800  0.50985600  1
  Yb  Yb6  1  0.50000000  0.79295200  0.50985600  1
  Yb  Yb7  1  0.50000000  0.20234000  0.00627200  1
  Yb  Yb8  1  0.50000000  0.79766000  0.00627200  1
  Yb  Yb9  1  0.00000000  0.00000000  0.75328800  1
  Yb  Yb10  1  0.00000000  0.29801200  0.74835200  1
  Yb  Yb11  1  0.00000000  0.70198800  0.74835200  1
  Ga  Ga12  1  0.50000000  0.00000000  0.91526200  1
  Ga  Ga13  1  0.00000000  0.32588200  0.07337500  1
  Ga  Ga14  1  0.00000000  0.67411800  0.07337500  1
  Ga  Ga15  1  0.00000000  0.14807100  0.89831400  1
  Ga  Ga16  1  0.00000000  0.85192900  0.89831400  1
  Ga  Ga17  1  0.50000000  0.50000000  0.24514100  1
  Ga  Ga18  1  0.50000000  0.16648000  0.68050700  1
  Ga  Ga19  1  0.50000000  0.83352000  0.68050700  1
  Ga  Ga20  1  0.50000000  0.16636800  0.32942900  1
  Ga  Ga21  1  0.50000000  0.83363200  0.32942900  1
  Ga  Ga22  1  0.50000000  0.00000000  0.09137100  1
  Ga  Ga23  1  0.00000000  0.13870400  0.11437500  1
  Ga  Ga24  1  0.00000000  0.86129600  0.11437500  1
  Ga  Ga25  1  0.00000000  0.00000000  0.50861900  1
  Ga  Ga26  1  0.50000000  0.34808700  0.86143200  1
  Ga  Ga27  1  0.50000000  0.65191300  0.86143200  1
  Ga  Ga28  1  0.00000000  0.50000000  0.84584700  1
  Ga  Ga29  1  0.00000000  0.33210900  0.42109700  1
  Ga  Ga30  1  0.00000000  0.66789100  0.42109700  1
  Au  Au31  1  0.00000000  0.34816400  0.93572100  1
  Au  Au32  1  0.00000000  0.65183600  0.93572100  1
  Au  Au33  1  0.50000000  0.14236500  0.19212800  1
  Au  Au34  1  0.50000000  0.85763500  0.19212800  1
  Au  Au35  1  0.50000000  0.15214700  0.81995300  1
  Au  Au36  1  0.50000000  0.84785300  0.81995300  1
  Au  Au37  1  0.50000000  0.36561900  0.35506600  1
  Au  Au38  1  0.50000000  0.63438100  0.35506600  1
  Au  Au39  1  0.50000000  0.36052400  0.14003100  1
  Au  Au40  1  0.50000000  0.63947600  0.14003100  1
  Au  Au41  1  0.00000000  0.50000000  0.15742200  1
  Au  Au42  1  0.50000000  0.50000000  0.76973000  1
  Au  Au43  1  0.50000000  0.36441800  0.64661400  1
  Au  Au44  1  0.50000000  0.63558200  0.64661400  1
  Au  Au45  1  0.00000000  0.50000000  0.33951300  1
  Au  Au46  1  0.50000000  0.00000000  0.41477200  1
  Au  Au47  1  0.00000000  0.13525000  0.39966200  1
  Au  Au48  1  0.00000000  0.86475000  0.39966200  1
  Au  Au49  1  0.00000000  0.13511900  0.61882000  1
  Au  Au50  1  0.00000000  0.86488100  0.61882000  1
  Au  Au51  1  0.00000000  0.34784000  0.55680500  1
  Au  Au52  1  0.00000000  0.65216000  0.55680500  1
  Au  Au53  1  0.00000000  0.50000000  0.66727200  1
  Au  Au54  1  0.00000000  0.00000000  0.00296700  1
  Au  Au55  1  0.50000000  0.00000000  0.59237600  1
