# generated using pymatgen
data_Sc5Si7Pt9
_symmetry_space_group_name_H-M   'P 1'
_cell_length_a   10.02957188
_cell_length_b   10.02957188
_cell_length_c   3.91550100
_cell_angle_alpha   90.00000000
_cell_angle_beta   90.00000000
_cell_angle_gamma   119.99999919
_symmetry_Int_Tables_number   1
_chemical_formula_structural   Sc5Si7Pt9
_chemical_formula_sum   'Sc5 Si7 Pt9'
_cell_volume   341.10082098
_cell_formula_units_Z   1
loop_
 _symmetry_equiv_pos_site_id
 _symmetry_equiv_pos_as_xyz
  1  'x, y, z'
loop_
 _atom_site_type_symbol
 _atom_site_label
 _atom_site_symmetry_multiplicity
 _atom_site_fract_x
 _atom_site_fract_y
 _atom_site_fract_z
 _atom_site_occupancy
  Sc  Sc0  1  0.00000000  0.00000000  0.00000000  1
  Sc  Sc1  1  0.33333300  0.66666700  0.50000000  1
  Sc  Sc2  1  0.89616600  0.45853600  0.50000000  1
  Sc  Sc3  1  0.56237000  0.10383400  0.50000000  1
  Sc  Sc4  1  0.54146400  0.43763000  0.50000000  1
  Si  Si5  1  0.23974700  0.18962100  0.50000000  1
  Si  Si6  1  0.81037900  0.05012700  0.50000000  1
  Si  Si7  1  0.94987300  0.76025300  0.50000000  1
  Si  Si8  1  0.55361000  0.64792800  0.00000000  1
  Si  Si9  1  0.35207200  0.90568100  0.00000000  1
  Si  Si10  1  0.09431900  0.44639000  0.00000000  1
  Si  Si11  1  0.66666700  0.33333300  0.00000000  1
  Pt  Pt12  1  0.21742400  0.93592000  0.50000000  1
  Pt  Pt13  1  0.06408000  0.28150500  0.50000000  1
  Pt  Pt14  1  0.71849500  0.78257600  0.50000000  1
  Pt  Pt15  1  0.31540000  0.41595900  0.00000000  1
  Pt  Pt16  1  0.58404100  0.89944100  0.00000000  1
  Pt  Pt17  1  0.10055900  0.68460000  0.00000000  1
  Pt  Pt18  1  0.38253700  0.17211600  0.00000000  1
  Pt  Pt19  1  0.82788400  0.21042100  0.00000000  1
  Pt  Pt20  1  0.78957900  0.61746300  0.00000000  1
