# generated using pymatgen
data_LaZnPd
_symmetry_space_group_name_H-M   'P 1'
_cell_length_a   7.27158800
_cell_length_b   4.44243400
_cell_length_c   8.21231700
_cell_angle_alpha   90.00000000
_cell_angle_beta   90.00000000
_cell_angle_gamma   90.00000000
_symmetry_Int_Tables_number   1
_chemical_formula_structural   LaZnPd
_chemical_formula_sum   'La4 Zn4 Pd4'
_cell_volume   265.28699090
_cell_formula_units_Z   4
loop_
 _symmetry_equiv_pos_site_id
 _symmetry_equiv_pos_as_xyz
  1  'x, y, z'
loop_
 _atom_site_type_symbol
 _atom_site_label
 _atom_site_symmetry_multiplicity
 _atom_site_fract_x
 _atom_site_fract_y
 _atom_site_fract_z
 _atom_site_occupancy
  La  La0  1  0.03229500  0.25000000  0.30439800  1
  La  La1  1  0.53229500  0.25000000  0.19560200  1
  La  La2  1  0.96770500  0.75000000  0.69560200  1
  La  La3  1  0.46770500  0.75000000  0.80439800  1
  Zn  Zn4  1  0.65383200  0.25000000  0.57056500  1
  Zn  Zn5  1  0.15383200  0.25000000  0.92943500  1
  Zn  Zn6  1  0.34616800  0.75000000  0.42943500  1
  Zn  Zn7  1  0.84616800  0.75000000  0.07056500  1
  Pd  Pd8  1  0.27140100  0.25000000  0.60675800  1
  Pd  Pd9  1  0.77140100  0.25000000  0.89324200  1
  Pd  Pd10  1  0.72859900  0.75000000  0.39324200  1
  Pd  Pd11  1  0.22859900  0.75000000  0.10675800  1
