# generated using pymatgen
data_HfNi3
_symmetry_space_group_name_H-M   'P 1'
_cell_length_a   5.26660189
_cell_length_b   5.26660189
_cell_length_c   21.41055300
_cell_angle_alpha   90.00000000
_cell_angle_beta   90.00000000
_cell_angle_gamma   119.99999866
_symmetry_Int_Tables_number   1
_chemical_formula_structural   HfNi3
_chemical_formula_sum   'Hf10 Ni30'
_cell_volume   514.30352853
_cell_formula_units_Z   10
loop_
 _symmetry_equiv_pos_site_id
 _symmetry_equiv_pos_as_xyz
  1  'x, y, z'
loop_
 _atom_site_type_symbol
 _atom_site_label
 _atom_site_symmetry_multiplicity
 _atom_site_fract_x
 _atom_site_fract_y
 _atom_site_fract_z
 _atom_site_occupancy
  Hf  Hf0  1  0.33333300  0.66666700  0.95385300  1
  Hf  Hf1  1  0.66666700  0.33333300  0.45385300  1
  Hf  Hf2  1  0.66666700  0.33333300  0.04614700  1
  Hf  Hf3  1  0.33333300  0.66666700  0.54614700  1
  Hf  Hf4  1  0.33333300  0.66666700  0.15106700  1
  Hf  Hf5  1  0.66666700  0.33333300  0.65106700  1
  Hf  Hf6  1  0.66666700  0.33333300  0.84893300  1
  Hf  Hf7  1  0.33333300  0.66666700  0.34893300  1
  Hf  Hf8  1  0.00000000  0.00000000  0.75000000  1
  Hf  Hf9  1  0.00000000  0.00000000  0.25000000  1
  Ni  Ni10  1  0.83223200  0.16776800  0.35041800  1
  Ni  Ni11  1  0.83223200  0.66446500  0.35041800  1
  Ni  Ni12  1  0.33553500  0.16776800  0.35041800  1
  Ni  Ni13  1  0.66446500  0.83223200  0.85041800  1
  Ni  Ni14  1  0.16776800  0.33553500  0.64958200  1
  Ni  Ni15  1  0.16776800  0.83223200  0.85041800  1
  Ni  Ni16  1  0.16776800  0.33553500  0.85041800  1
  Ni  Ni17  1  0.83223200  0.16776800  0.14958200  1
  Ni  Ni18  1  0.33553500  0.16776800  0.14958200  1
  Ni  Ni19  1  0.66446500  0.83223200  0.64958200  1
  Ni  Ni20  1  0.51065300  0.02130600  0.25000000  1
  Ni  Ni21  1  0.48934700  0.51065300  0.75000000  1
  Ni  Ni22  1  0.02130600  0.51065300  0.75000000  1
  Ni  Ni23  1  0.97869400  0.48934700  0.25000000  1
  Ni  Ni24  1  0.51065300  0.48934700  0.25000000  1
  Ni  Ni25  1  0.48934700  0.97869400  0.75000000  1
  Ni  Ni26  1  0.15629500  0.31259000  0.05119300  1
  Ni  Ni27  1  0.84370500  0.15629500  0.55119300  1
  Ni  Ni28  1  0.31259000  0.15629500  0.55119300  1
  Ni  Ni29  1  0.68741000  0.84370500  0.05119300  1
  Ni  Ni30  1  0.15629500  0.84370500  0.05119300  1
  Ni  Ni31  1  0.84370500  0.68741000  0.94880700  1
  Ni  Ni32  1  0.84370500  0.15629500  0.94880700  1
  Ni  Ni33  1  0.84370500  0.68741000  0.55119300  1
  Ni  Ni34  1  0.31259000  0.15629500  0.94880700  1
  Ni  Ni35  1  0.68741000  0.84370500  0.44880700  1
  Ni  Ni36  1  0.15629500  0.31259000  0.44880700  1
  Ni  Ni37  1  0.15629500  0.84370500  0.44880700  1
  Ni  Ni38  1  0.83223200  0.66446500  0.14958200  1
  Ni  Ni39  1  0.16776800  0.83223200  0.64958200  1
