# generated using pymatgen
data_EuBi2
_symmetry_space_group_name_H-M   'P 1'
_cell_length_a   9.06931544
_cell_length_b   9.06931544
_cell_length_c   4.62743000
_cell_angle_alpha   90.00000000
_cell_angle_beta   90.00000000
_cell_angle_gamma   149.24602704
_symmetry_Int_Tables_number   1
_chemical_formula_structural   EuBi2
_chemical_formula_sum   'Eu2 Bi4'
_cell_volume   194.62983162
_cell_formula_units_Z   2
loop_
 _symmetry_equiv_pos_site_id
 _symmetry_equiv_pos_as_xyz
  1  'x, y, z'
loop_
 _atom_site_type_symbol
 _atom_site_label
 _atom_site_symmetry_multiplicity
 _atom_site_fract_x
 _atom_site_fract_y
 _atom_site_fract_z
 _atom_site_occupancy
  Eu  Eu0  1  0.89909800  0.10090200  0.25000000  1
  Eu  Eu1  1  0.10090200  0.89909800  0.75000000  1
  Bi  Bi2  1  0.56250500  0.43749500  0.25000000  1
  Bi  Bi3  1  0.43749500  0.56250500  0.75000000  1
  Bi  Bi4  1  0.25266000  0.74734000  0.25000000  1
  Bi  Bi5  1  0.74734000  0.25266000  0.75000000  1
