# generated using pymatgen
data_U(Zn10Rh)2
_symmetry_space_group_name_H-M   'P 1'
_cell_length_a   10.08900804
_cell_length_b   10.08900804
_cell_length_c   10.08900804
_cell_angle_alpha   60.00000000
_cell_angle_beta   60.00000000
_cell_angle_gamma   60.00000000
_symmetry_Int_Tables_number   1
_chemical_formula_structural   U(Zn10Rh)2
_chemical_formula_sum   'U2 Zn40 Rh4'
_cell_volume   726.15679639
_cell_formula_units_Z   2
loop_
 _symmetry_equiv_pos_site_id
 _symmetry_equiv_pos_as_xyz
  1  'x, y, z'
loop_
 _atom_site_type_symbol
 _atom_site_label
 _atom_site_symmetry_multiplicity
 _atom_site_fract_x
 _atom_site_fract_y
 _atom_site_fract_z
 _atom_site_occupancy
  U  U0  1  0.50000000  0.50000000  0.50000000  1
  U  U1  1  0.75000000  0.75000000  0.75000000  1
  Zn  Zn2  1  0.12500000  0.62500000  0.62500000  1
  Zn  Zn3  1  0.62500000  0.12500000  0.62500000  1
  Zn  Zn4  1  0.62500000  0.62500000  0.12500000  1
  Zn  Zn5  1  0.62500000  0.62500000  0.62500000  1
  Zn  Zn6  1  0.86249500  0.86249500  0.13750500  1
  Zn  Zn7  1  0.13750500  0.13750500  0.86249500  1
  Zn  Zn8  1  0.86249500  0.13750500  0.86249500  1
  Zn  Zn9  1  0.13750500  0.86249500  0.13750500  1
  Zn  Zn10  1  0.13750500  0.86249500  0.86249500  1
  Zn  Zn11  1  0.86249500  0.13750500  0.13750500  1
  Zn  Zn12  1  0.38750500  0.38750500  0.11249500  1
  Zn  Zn13  1  0.11249500  0.11249500  0.38750500  1
  Zn  Zn14  1  0.38750500  0.11249500  0.38750500  1
  Zn  Zn15  1  0.11249500  0.38750500  0.11249500  1
  Zn  Zn16  1  0.11249500  0.38750500  0.38750500  1
  Zn  Zn17  1  0.38750500  0.11249500  0.11249500  1
  Zn  Zn18  1  0.56839100  0.30198300  0.30198300  1
  Zn  Zn19  1  0.30198300  0.56839000  0.82764400  1
  Zn  Zn20  1  0.30198300  0.82764400  0.56839100  1
  Zn  Zn21  1  0.82764400  0.30198300  0.30198300  1
  Zn  Zn22  1  0.30198300  0.30198300  0.56839100  1
  Zn  Zn23  1  0.56839000  0.82764400  0.30198300  1
  Zn  Zn24  1  0.82764400  0.56839100  0.30198300  1
  Zn  Zn25  1  0.30198300  0.30198300  0.82764400  1
  Zn  Zn26  1  0.30198300  0.56839100  0.30198300  1
  Zn  Zn27  1  0.82764400  0.30198300  0.56839100  1
  Zn  Zn28  1  0.56839100  0.30198300  0.82764400  1
  Zn  Zn29  1  0.30198300  0.82764400  0.30198300  1
  Zn  Zn30  1  0.68160900  0.94801700  0.94801700  1
  Zn  Zn31  1  0.94801700  0.68160900  0.42235600  1
  Zn  Zn32  1  0.94801700  0.42235600  0.68161000  1
  Zn  Zn33  1  0.42235600  0.94801700  0.94801700  1
  Zn  Zn34  1  0.94801700  0.94801700  0.68161000  1
  Zn  Zn35  1  0.68160900  0.42235600  0.94801700  1
  Zn  Zn36  1  0.42235600  0.68160900  0.94801700  1
  Zn  Zn37  1  0.94801700  0.94801700  0.42235600  1
  Zn  Zn38  1  0.94801700  0.68160900  0.94801700  1
  Zn  Zn39  1  0.42235600  0.94801700  0.68160900  1
  Zn  Zn40  1  0.68161000  0.94801700  0.42235600  1
  Zn  Zn41  1  0.94801700  0.42235600  0.94801700  1
  Rh  Rh42  1  0.62500000  0.12500000  0.12500000  1
  Rh  Rh43  1  0.12500000  0.62500000  0.12500000  1
  Rh  Rh44  1  0.12500000  0.12500000  0.62500000  1
  Rh  Rh45  1  0.12500000  0.12500000  0.12500000  1
