# generated using pymatgen
data_Ba4Nb2O9
_symmetry_space_group_name_H-M   'P 1'
_cell_length_a   6.18846044
_cell_length_b   6.18820291
_cell_length_c   16.78266800
_cell_angle_alpha   90.00000000
_cell_angle_beta   90.00000000
_cell_angle_gamma   120.00785426
_symmetry_Int_Tables_number   1
_chemical_formula_structural   Ba4Nb2O9
_chemical_formula_sum   'Ba8 Nb4 O18'
_cell_volume   556.55030087
_cell_formula_units_Z   2
loop_
 _symmetry_equiv_pos_site_id
 _symmetry_equiv_pos_as_xyz
  1  'x, y, z'
loop_
 _atom_site_type_symbol
 _atom_site_label
 _atom_site_symmetry_multiplicity
 _atom_site_fract_x
 _atom_site_fract_y
 _atom_site_fract_z
 _atom_site_occupancy
  Ba  Ba0  1  0.00005100  0.00006400  0.75000000  1
  Ba  Ba1  1  0.99994900  0.99993600  0.25000000  1
  Ba  Ba2  1  0.66667900  0.33336000  0.63771000  1
  Ba  Ba3  1  0.33332100  0.66664000  0.13771000  1
  Ba  Ba4  1  0.33332100  0.66664000  0.36229000  1
  Ba  Ba5  1  0.66667900  0.33336000  0.86229000  1
  Ba  Ba6  1  0.00000000  0.00000000  0.50000000  1
  Ba  Ba7  1  0.00000000  0.00000000  0.00000000  1
  Nb  Nb8  1  0.66682400  0.33359400  0.34099000  1
  Nb  Nb9  1  0.33317600  0.66640600  0.84099000  1
  Nb  Nb10  1  0.33317600  0.66640600  0.65901000  1
  Nb  Nb11  1  0.66682400  0.33359400  0.15901000  1
  O  O12  1  0.53719800  0.95474300  0.75000000  1
  O  O13  1  0.04528900  0.58252500  0.75000000  1
  O  O14  1  0.41755400  0.46279300  0.75000000  1
  O  O15  1  0.46280200  0.04525700  0.25000000  1
  O  O16  1  0.95471100  0.41747500  0.25000000  1
  O  O17  1  0.58244600  0.53720700  0.25000000  1
  O  O18  1  0.10248100  0.35787800  0.60838900  1
  O  O19  1  0.64231600  0.74470200  0.60836400  1
  O  O20  1  0.25534000  0.89774600  0.60836900  1
  O  O21  1  0.89751900  0.64212200  0.10838900  1
  O  O22  1  0.35768400  0.25529800  0.10836400  1
  O  O23  1  0.74466000  0.10225400  0.10836900  1
  O  O24  1  0.89751900  0.64212200  0.39161100  1
  O  O25  1  0.35768400  0.25529800  0.39163600  1
  O  O26  1  0.74466000  0.10225400  0.39163100  1
  O  O27  1  0.10248100  0.35787800  0.89161100  1
  O  O28  1  0.64231600  0.74470200  0.89163600  1
  O  O29  1  0.25534000  0.89774600  0.89163100  1
