# generated using pymatgen
data_Y2(Ga3Rh)3
_symmetry_space_group_name_H-M   'P 1'
_cell_length_a   7.58078748
_cell_length_b   7.58078748
_cell_length_c   9.54204500
_cell_angle_alpha   90.00000000
_cell_angle_beta   90.00000000
_cell_angle_gamma   119.85288666
_symmetry_Int_Tables_number   1
_chemical_formula_structural   Y2(Ga3Rh)3
_chemical_formula_sum   'Y4 Ga18 Rh6'
_cell_volume   475.60086086
_cell_formula_units_Z   2
loop_
 _symmetry_equiv_pos_site_id
 _symmetry_equiv_pos_as_xyz
  1  'x, y, z'
loop_
 _atom_site_type_symbol
 _atom_site_label
 _atom_site_symmetry_multiplicity
 _atom_site_fract_x
 _atom_site_fract_y
 _atom_site_fract_z
 _atom_site_occupancy
  Y  Y0  1  0.00003500  0.66661700  0.25000000  1
  Y  Y1  1  0.99996500  0.33338300  0.75000000  1
  Y  Y2  1  0.66661700  0.00003500  0.25000000  1
  Y  Y3  1  0.33338300  0.99996500  0.75000000  1
  Ga  Ga4  1  0.33104700  0.33104800  0.56308200  1
  Ga  Ga5  1  0.66895200  0.66895300  0.43691800  1
  Ga  Ga6  1  0.66895200  0.66895300  0.06308200  1
  Ga  Ga7  1  0.33104700  0.33104800  0.93691800  1
  Ga  Ga8  1  0.34103200  0.54604800  0.25000000  1
  Ga  Ga9  1  0.65896800  0.45395200  0.75000000  1
  Ga  Ga10  1  0.54604800  0.34103200  0.25000000  1
  Ga  Ga11  1  0.45395200  0.65896800  0.75000000  1
  Ga  Ga12  1  0.00076400  0.33465300  0.07945100  1
  Ga  Ga13  1  0.99923600  0.66534700  0.92054900  1
  Ga  Ga14  1  0.99923600  0.66534700  0.57945100  1
  Ga  Ga15  1  0.33465300  0.00076400  0.42054900  1
  Ga  Ga16  1  0.00076400  0.33465300  0.42054900  1
  Ga  Ga17  1  0.66534700  0.99923600  0.57945100  1
  Ga  Ga18  1  0.66534700  0.99923600  0.92054900  1
  Ga  Ga19  1  0.33465300  0.00076400  0.07945100  1
  Ga  Ga20  1  0.11906900  0.11906900  0.25000000  1
  Ga  Ga21  1  0.88093100  0.88093100  0.75000000  1
  Rh  Rh22  1  0.00000000  0.00000000  0.00000000  1
  Rh  Rh23  1  0.00000000  0.00000000  0.50000000  1
  Rh  Rh24  1  0.67090800  0.32909200  0.00000000  1
  Rh  Rh25  1  0.32909200  0.67090800  0.00000000  1
  Rh  Rh26  1  0.32909200  0.67090800  0.50000000  1
  Rh  Rh27  1  0.67090800  0.32909200  0.50000000  1
