# generated using pymatgen
data_YMoC2
_symmetry_space_group_name_H-M   'P 1'
_cell_length_a   3.40405900
_cell_length_b   5.71495900
_cell_length_c   10.80198500
_cell_angle_alpha   90.00000000
_cell_angle_beta   90.00000000
_cell_angle_gamma   90.00000000
_symmetry_Int_Tables_number   1
_chemical_formula_structural   YMoC2
_chemical_formula_sum   'Y4 Mo4 C8'
_cell_volume   210.14243859
_cell_formula_units_Z   4
loop_
 _symmetry_equiv_pos_site_id
 _symmetry_equiv_pos_as_xyz
  1  'x, y, z'
loop_
 _atom_site_type_symbol
 _atom_site_label
 _atom_site_symmetry_multiplicity
 _atom_site_fract_x
 _atom_site_fract_y
 _atom_site_fract_z
 _atom_site_occupancy
  Y  Y0  1  0.25000000  0.08547200  0.86256600  1
  Y  Y1  1  0.25000000  0.58547200  0.63743400  1
  Y  Y2  1  0.75000000  0.91452800  0.13743400  1
  Y  Y3  1  0.75000000  0.41452800  0.36256600  1
  Mo  Mo4  1  0.25000000  0.40270500  0.10939300  1
  Mo  Mo5  1  0.25000000  0.90270500  0.39060700  1
  Mo  Mo6  1  0.75000000  0.59729500  0.89060700  1
  Mo  Mo7  1  0.75000000  0.09729500  0.60939300  1
  C  C8  1  0.25000000  0.15897200  0.24719800  1
  C  C9  1  0.25000000  0.65897200  0.25280200  1
  C  C10  1  0.75000000  0.84102800  0.75280200  1
  C  C11  1  0.75000000  0.34102800  0.74719800  1
  C  C12  1  0.25000000  0.72277700  0.98404700  1
  C  C13  1  0.25000000  0.22277700  0.51595300  1
  C  C14  1  0.75000000  0.27722300  0.01595300  1
  C  C15  1  0.75000000  0.77722300  0.48404700  1
