# generated using pymatgen
data_CsSc(SO4)2
_symmetry_space_group_name_H-M   'P 1'
_cell_length_a   5.24677437
_cell_length_b   5.24677437
_cell_length_c   8.87164000
_cell_angle_alpha   90.00000000
_cell_angle_beta   90.00000000
_cell_angle_gamma   120.00000467
_symmetry_Int_Tables_number   1
_chemical_formula_structural   CsSc(SO4)2
_chemical_formula_sum   'Cs1 Sc1 S2 O8'
_cell_volume   211.50434737
_cell_formula_units_Z   1
loop_
 _symmetry_equiv_pos_site_id
 _symmetry_equiv_pos_as_xyz
  1  'x, y, z'
loop_
 _atom_site_type_symbol
 _atom_site_label
 _atom_site_symmetry_multiplicity
 _atom_site_fract_x
 _atom_site_fract_y
 _atom_site_fract_z
 _atom_site_occupancy
  Cs  Cs0  1  0.00000000  0.00000000  0.50000000  1
  Sc  Sc1  1  0.00000000  0.00000000  0.00000000  1
  S  S2  1  0.33333300  0.66666700  0.20245900  1
  S  S3  1  0.66666700  0.33333300  0.79754100  1
  O  O4  1  0.13768200  0.36235300  0.14419000  1
  O  O5  1  0.63764700  0.77532800  0.14419000  1
  O  O6  1  0.36235300  0.13768200  0.85581000  1
  O  O7  1  0.22467200  0.86231800  0.14419000  1
  O  O8  1  0.77532800  0.63764700  0.85581000  1
  O  O9  1  0.86231800  0.22467200  0.85581000  1
  O  O10  1  0.33333300  0.66666700  0.36683800  1
  O  O11  1  0.66666700  0.33333300  0.63316200  1
