# generated using pymatgen
data_V3P
_symmetry_space_group_name_H-M   'P 1'
_cell_length_a   9.33978600
_cell_length_b   9.33978600
_cell_length_c   4.74355900
_cell_angle_alpha   90.00000000
_cell_angle_beta   90.00000000
_cell_angle_gamma   90.00000000
_symmetry_Int_Tables_number   1
_chemical_formula_structural   V3P
_chemical_formula_sum   'V24 P8'
_cell_volume   413.78825325
_cell_formula_units_Z   8
loop_
 _symmetry_equiv_pos_site_id
 _symmetry_equiv_pos_as_xyz
  1  'x, y, z'
loop_
 _atom_site_type_symbol
 _atom_site_label
 _atom_site_symmetry_multiplicity
 _atom_site_fract_x
 _atom_site_fract_y
 _atom_site_fract_z
 _atom_site_occupancy
  V  V0  1  0.01105700  0.85227300  0.26387700  1
  V  V1  1  0.35227300  0.48894300  0.76387700  1
  V  V2  1  0.64772700  0.51105700  0.76387700  1
  V  V3  1  0.98894300  0.14772700  0.26387700  1
  V  V4  1  0.48894300  0.64772700  0.23612300  1
  V  V5  1  0.14772700  0.01105700  0.73612300  1
  V  V6  1  0.85227300  0.98894300  0.73612300  1
  V  V7  1  0.51105700  0.35227300  0.23612300  1
  V  V8  1  0.28407200  0.80519300  0.99087800  1
  V  V9  1  0.30519300  0.21592800  0.49087800  1
  V  V10  1  0.69480700  0.78407200  0.49087800  1
  V  V11  1  0.71592800  0.19480700  0.99087800  1
  V  V12  1  0.21592800  0.69480700  0.50912200  1
  V  V13  1  0.19480700  0.28407200  0.00912200  1
  V  V14  1  0.80519300  0.71592800  0.00912200  1
  V  V15  1  0.78407200  0.30519300  0.50912200  1
  V  V16  1  0.90793100  0.41729400  0.01905500  1
  V  V17  1  0.91729400  0.59206900  0.51905500  1
  V  V18  1  0.08270600  0.40793100  0.51905500  1
  V  V19  1  0.09206900  0.58270600  0.01905500  1
  V  V20  1  0.59206900  0.08270600  0.48094500  1
  V  V21  1  0.58270600  0.90793100  0.98094500  1
  V  V22  1  0.41729400  0.09206900  0.98094500  1
  V  V23  1  0.40793100  0.91729400  0.48094500  1
  P  P24  1  0.52150100  0.29185000  0.73367500  1
  P  P25  1  0.79185000  0.97849900  0.23367500  1
  P  P26  1  0.20815000  0.02150100  0.23367500  1
  P  P27  1  0.47849900  0.70815000  0.73367500  1
  P  P28  1  0.97849900  0.20815000  0.76632500  1
  P  P29  1  0.70815000  0.52150100  0.26632500  1
  P  P30  1  0.29185000  0.47849900  0.26632500  1
  P  P31  1  0.02150100  0.79185000  0.76632500  1
