# generated using pymatgen
data_La2Ga10Ni
_symmetry_space_group_name_H-M   'P 1'
_cell_length_a   13.51326888
_cell_length_b   13.51326888
_cell_length_c   13.51326888
_cell_angle_alpha   161.28933979
_cell_angle_beta   161.28933979
_cell_angle_gamma   26.58118583
_symmetry_Int_Tables_number   1
_chemical_formula_structural   La2Ga10Ni
_chemical_formula_sum   'La2 Ga10 Ni1'
_cell_volume   253.84040674
_cell_formula_units_Z   1
loop_
 _symmetry_equiv_pos_site_id
 _symmetry_equiv_pos_as_xyz
  1  'x, y, z'
loop_
 _atom_site_type_symbol
 _atom_site_label
 _atom_site_symmetry_multiplicity
 _atom_site_fract_x
 _atom_site_fract_y
 _atom_site_fract_z
 _atom_site_occupancy
  La  La0  1  0.64535000  0.64535000  0.00000000  1
  La  La1  1  0.35465000  0.35465000  0.00000000  1
  Ga  Ga2  1  0.75000000  0.25000000  0.50000000  1
  Ga  Ga3  1  0.25000000  0.75000000  0.50000000  1
  Ga  Ga4  1  0.54953200  0.04953200  0.50000000  1
  Ga  Ga5  1  0.04953200  0.54953200  0.50000000  1
  Ga  Ga6  1  0.45046800  0.95046800  0.50000000  1
  Ga  Ga7  1  0.95046800  0.45046800  0.50000000  1
  Ga  Ga8  1  0.89564000  0.89564000  0.00000000  1
  Ga  Ga9  1  0.10436000  0.10436000  0.00000000  1
  Ga  Ga10  1  0.80264800  0.80264800  0.00000000  1
  Ga  Ga11  1  0.19735200  0.19735200  0.00000000  1
  Ni  Ni12  1  0.50000000  0.50000000  0.00000000  1
