# generated using pymatgen
data_Cs3Y2(H2N)9
_symmetry_space_group_name_H-M   'P 1'
_cell_length_a   9.71005986
_cell_length_b   9.71005986
_cell_length_c   9.71005996
_cell_angle_alpha   82.86421014
_cell_angle_beta   82.86421014
_cell_angle_gamma   82.86420878
_symmetry_Int_Tables_number   1
_chemical_formula_structural   Cs3Y2(H2N)9
_chemical_formula_sum   'Cs6 Y4 H36 N18'
_cell_volume   895.86875659
_cell_formula_units_Z   2
loop_
 _symmetry_equiv_pos_site_id
 _symmetry_equiv_pos_as_xyz
  1  'x, y, z'
loop_
 _atom_site_type_symbol
 _atom_site_label
 _atom_site_symmetry_multiplicity
 _atom_site_fract_x
 _atom_site_fract_y
 _atom_site_fract_z
 _atom_site_occupancy
  Cs  Cs0  1  0.63129500  0.86870500  0.25000000  1
  Cs  Cs1  1  0.86870500  0.25000000  0.63129500  1
  Cs  Cs2  1  0.25000000  0.63129500  0.86870500  1
  Cs  Cs3  1  0.13129500  0.75000000  0.36870500  1
  Cs  Cs4  1  0.75000000  0.36870500  0.13129500  1
  Cs  Cs5  1  0.36870500  0.13129500  0.75000000  1
  Y  Y6  1  0.34379300  0.34379300  0.34379300  1
  Y  Y7  1  0.84379300  0.84379300  0.84379300  1
  Y  Y8  1  0.65620700  0.65620700  0.65620700  1
  Y  Y9  1  0.15620700  0.15620700  0.15620700  1
  H  H10  1  0.03755800  0.40556500  0.32910500  1
  H  H11  1  0.40556500  0.32910500  0.03755800  1
  H  H12  1  0.32910500  0.03755800  0.40556500  1
  H  H13  1  0.53755800  0.82910500  0.90556500  1
  H  H14  1  0.82910500  0.90556500  0.53755800  1
  H  H15  1  0.90556500  0.53755800  0.82910500  1
  H  H16  1  0.96244200  0.59443500  0.67089500  1
  H  H17  1  0.59443500  0.67089500  0.96244200  1
  H  H18  1  0.67089500  0.96244200  0.59443500  1
  H  H19  1  0.46244200  0.17089500  0.09443500  1
  H  H20  1  0.17089500  0.09443500  0.46244200  1
  H  H21  1  0.09443500  0.46244200  0.17089500  1
  H  H22  1  0.91146600  0.65879700  0.12428500  1
  H  H23  1  0.65879700  0.12428500  0.91146600  1
  H  H24  1  0.12428500  0.91146600  0.65879700  1
  H  H25  1  0.41146600  0.62428500  0.15879700  1
  H  H26  1  0.62428500  0.15879700  0.41146600  1
  H  H27  1  0.15879700  0.41146600  0.62428500  1
  H  H28  1  0.08853400  0.34120300  0.87571500  1
  H  H29  1  0.34120300  0.87571500  0.08853400  1
  H  H30  1  0.87571500  0.08853400  0.34120300  1
  H  H31  1  0.58853400  0.37571500  0.84120300  1
  H  H32  1  0.37571500  0.84120300  0.58853400  1
  H  H33  1  0.84120300  0.58853400  0.37571500  1
  H  H34  1  0.92311800  0.98797400  0.21669000  1
  H  H35  1  0.98797400  0.21669000  0.92311800  1
  H  H36  1  0.21669000  0.92311800  0.98797400  1
  H  H37  1  0.42311800  0.71669000  0.48797400  1
  H  H38  1  0.71669000  0.48797400  0.42311800  1
  H  H39  1  0.48797400  0.42311800  0.71669000  1
  H  H40  1  0.07688200  0.01202600  0.78331000  1
  H  H41  1  0.01202600  0.78331000  0.07688200  1
  H  H42  1  0.78331000  0.07688200  0.01202600  1
  H  H43  1  0.57688200  0.28331000  0.51202600  1
  H  H44  1  0.28331000  0.51202600  0.57688200  1
  H  H45  1  0.51202600  0.57688200  0.28331000  1
  N  N46  1  0.11460900  0.38539100  0.25000000  1
  N  N47  1  0.38539100  0.25000000  0.11460900  1
  N  N48  1  0.25000000  0.11460900  0.38539100  1
  N  N49  1  0.61460900  0.75000000  0.88539100  1
  N  N50  1  0.75000000  0.88539100  0.61460900  1
  N  N51  1  0.88539100  0.61460900  0.75000000  1
  N  N52  1  0.92075900  0.74923900  0.05850900  1
  N  N53  1  0.74923900  0.05850900  0.92075900  1
  N  N54  1  0.05850900  0.92075900  0.74923900  1
  N  N55  1  0.42075900  0.55850900  0.24923900  1
  N  N56  1  0.55850900  0.24923900  0.42075900  1
  N  N57  1  0.24923900  0.42075900  0.55850900  1
  N  N58  1  0.07924100  0.25076100  0.94149100  1
  N  N59  1  0.25076100  0.94149100  0.07924100  1
  N  N60  1  0.94149100  0.07924100  0.25076100  1
  N  N61  1  0.57924100  0.44149100  0.75076100  1
  N  N62  1  0.44149100  0.75076100  0.57924100  1
  N  N63  1  0.75076100  0.57924100  0.44149100  1
