# generated using pymatgen
data_Ba3Si2(B3O8)2
_symmetry_space_group_name_H-M   'P 1'
_cell_length_a   5.08359000
_cell_length_b   7.68193822
_cell_length_c   8.63008001
_cell_angle_alpha   102.81904634
_cell_angle_beta   102.29817024
_cell_angle_gamma   87.29315177
_symmetry_Int_Tables_number   1
_chemical_formula_structural   Ba3Si2(B3O8)2
_chemical_formula_sum   'Ba3 Si2 B6 O16'
_cell_volume   321.07929964
_cell_formula_units_Z   1
loop_
 _symmetry_equiv_pos_site_id
 _symmetry_equiv_pos_as_xyz
  1  'x, y, z'
loop_
 _atom_site_type_symbol
 _atom_site_label
 _atom_site_symmetry_multiplicity
 _atom_site_fract_x
 _atom_site_fract_y
 _atom_site_fract_z
 _atom_site_occupancy
  Ba  Ba0  1  0.50000000  0.00000000  0.50000000  1
  Ba  Ba1  1  0.38136000  0.42025800  0.23491700  1
  Ba  Ba2  1  0.61864000  0.57974200  0.76508300  1
  Si  Si3  1  0.75957800  0.17385800  0.94001900  1
  Si  Si4  1  0.24042200  0.82614200  0.05998100  1
  B  B5  1  0.18356300  0.23907000  0.79608900  1
  B  B6  1  0.81643700  0.76093000  0.20391100  1
  B  B7  1  0.03106500  0.69705200  0.47577600  1
  B  B8  1  0.96893500  0.30294800  0.52422400  1
  B  B9  1  0.97806600  0.09050900  0.24629700  1
  B  B10  1  0.02193400  0.90949100  0.75370300  1
  O  O11  1  0.78541400  0.17812500  0.13308000  1
  O  O12  1  0.21458600  0.82187500  0.86692000  1
  O  O13  1  0.85487800  0.64196600  0.32211000  1
  O  O14  1  0.14512200  0.35803400  0.67789000  1
  O  O15  1  0.00207700  0.29408800  0.91476400  1
  O  O16  1  0.99792300  0.70591200  0.08523600  1
  O  O17  1  0.09464100  0.22640100  0.39498400  1
  O  O18  1  0.90535900  0.77359900  0.60501600  1
  O  O19  1  0.29874200  0.67559900  0.49409700  1
  O  O20  1  0.70125800  0.32440100  0.50590300  1
  O  O21  1  0.52818700  0.72661300  0.11113900  1
  O  O22  1  0.47181300  0.27338700  0.88886100  1
  O  O23  1  0.13627100  0.05470100  0.70634300  1
  O  O24  1  0.86372900  0.94529900  0.29365700  1
  O  O25  1  0.22098700  0.02713700  0.17301200  1
  O  O26  1  0.77901300  0.97286300  0.82698800  1
