# generated using pymatgen
data_SF4
_symmetry_space_group_name_H-M   'P 1'
_cell_length_a   7.07868500
_cell_length_b   7.13080500
_cell_length_c   13.67078000
_cell_angle_alpha   90.00000000
_cell_angle_beta   90.00000000
_cell_angle_gamma   90.00000000
_symmetry_Int_Tables_number   1
_chemical_formula_structural   SF4
_chemical_formula_sum   'S8 F32'
_cell_volume   690.05616693
_cell_formula_units_Z   8
loop_
 _symmetry_equiv_pos_site_id
 _symmetry_equiv_pos_as_xyz
  1  'x, y, z'
loop_
 _atom_site_type_symbol
 _atom_site_label
 _atom_site_symmetry_multiplicity
 _atom_site_fract_x
 _atom_site_fract_y
 _atom_site_fract_z
 _atom_site_occupancy
  S  S0  1  0.77012900  0.92449600  0.26403600  1
  S  S1  1  0.72987100  0.07550400  0.76403600  1
  S  S2  1  0.27012900  0.57550400  0.73596400  1
  S  S3  1  0.22987100  0.42449600  0.23596400  1
  S  S4  1  0.77960800  0.54174900  0.52491400  1
  S  S5  1  0.72039200  0.45825100  0.02491400  1
  S  S6  1  0.27960800  0.95825100  0.47508600  1
  S  S7  1  0.22039200  0.04174900  0.97508600  1
  F  F8  1  0.72547700  0.04648900  0.17033300  1
  F  F9  1  0.77452300  0.95351100  0.67033300  1
  F  F10  1  0.22547700  0.45351100  0.82966700  1
  F  F11  1  0.27452300  0.54648900  0.32966700  1
  F  F12  1  0.78759700  0.08349200  0.34414800  1
  F  F13  1  0.71240300  0.91650800  0.84414800  1
  F  F14  1  0.28759700  0.41650800  0.65585200  1
  F  F15  1  0.21240300  0.58349200  0.15585200  1
  F  F16  1  0.00322000  0.95476800  0.24048400  1
  F  F17  1  0.49678000  0.04523200  0.74048400  1
  F  F18  1  0.50322000  0.54523200  0.75951600  1
  F  F19  1  0.99678000  0.45476800  0.25951600  1
  F  F20  1  0.53175100  0.92132400  0.28700400  1
  F  F21  1  0.96824900  0.07867600  0.78700400  1
  F  F22  1  0.03175100  0.57867600  0.71299600  1
  F  F23  1  0.46824900  0.42132400  0.21299600  1
  F  F24  1  0.66554400  0.48668700  0.42995700  1
  F  F25  1  0.83445600  0.51331300  0.92995700  1
  F  F26  1  0.16554400  0.01331300  0.57004300  1
  F  F27  1  0.33445600  0.98668700  0.07004300  1
  F  F28  1  0.98172200  0.46260400  0.49860500  1
  F  F29  1  0.51827800  0.53739600  0.99860500  1
  F  F30  1  0.48172200  0.03739600  0.50139500  1
  F  F31  1  0.01827800  0.96260400  0.00139500  1
  F  F32  1  0.84558700  0.74575400  0.46647500  1
  F  F33  1  0.65441300  0.25424600  0.96647500  1
  F  F34  1  0.34558700  0.75424600  0.53352500  1
  F  F35  1  0.15441300  0.24575400  0.03352500  1
  F  F36  1  0.72743600  0.32845300  0.57173500  1
  F  F37  1  0.77256400  0.67154700  0.07173500  1
  F  F38  1  0.22743600  0.17154700  0.42826500  1
  F  F39  1  0.27256400  0.82845300  0.92826500  1
