# generated using pymatgen
data_RbLa(SeO4)2
_symmetry_space_group_name_H-M   'P 1'
_cell_length_a   7.62378700
_cell_length_b   9.10360600
_cell_length_c   11.36206478
_cell_angle_alpha   88.42587643
_cell_angle_beta   90.00000000
_cell_angle_gamma   90.00000000
_symmetry_Int_Tables_number   1
_chemical_formula_structural   RbLa(SeO4)2
_chemical_formula_sum   'Rb4 La4 Se8 O32'
_cell_volume   788.27462195
_cell_formula_units_Z   4
loop_
 _symmetry_equiv_pos_site_id
 _symmetry_equiv_pos_as_xyz
  1  'x, y, z'
loop_
 _atom_site_type_symbol
 _atom_site_label
 _atom_site_symmetry_multiplicity
 _atom_site_fract_x
 _atom_site_fract_y
 _atom_site_fract_z
 _atom_site_occupancy
  Rb  Rb0  1  0.34885100  0.43261900  0.83794200  1
  Rb  Rb1  1  0.65114900  0.56738100  0.16205800  1
  Rb  Rb2  1  0.84885100  0.56738100  0.66205800  1
  Rb  Rb3  1  0.15114900  0.43261900  0.33794100  1
  La  La4  1  0.16373700  0.94306700  0.84800900  1
  La  La5  1  0.83626300  0.05693300  0.15199100  1
  La  La6  1  0.66373700  0.05693300  0.65199100  1
  La  La7  1  0.33626300  0.94306700  0.34800900  1
  Se  Se8  1  0.16415300  0.18855500  0.60660700  1
  Se  Se9  1  0.83584700  0.81144500  0.39339300  1
  Se  Se10  1  0.66415300  0.81144500  0.89339300  1
  Se  Se11  1  0.33584700  0.18855500  0.10660700  1
  Se  Se12  1  0.33868000  0.72214600  0.58881000  1
  Se  Se13  1  0.66132000  0.27785400  0.41119000  1
  Se  Se14  1  0.83868000  0.27785400  0.91119000  1
  Se  Se15  1  0.16132000  0.72214600  0.08881000  1
  O  O16  1  0.81703800  0.86971600  0.53089900  1
  O  O17  1  0.18296200  0.13028400  0.46910100  1
  O  O18  1  0.31703800  0.13028400  0.96910100  1
  O  O19  1  0.68296200  0.86971600  0.03089900  1
  O  O20  1  0.50283500  0.90818700  0.82136500  1
  O  O21  1  0.49716500  0.09181300  0.17863500  1
  O  O22  1  0.00283500  0.09181300  0.67863500  1
  O  O23  1  0.99716500  0.90818700  0.32136500  1
  O  O24  1  0.13627900  0.36716900  0.60626000  1
  O  O25  1  0.86372100  0.63283100  0.39374000  1
  O  O26  1  0.63627900  0.63283100  0.89374000  1
  O  O27  1  0.36372100  0.36716900  0.10626000  1
  O  O28  1  0.25335100  0.70201100  0.95565700  1
  O  O29  1  0.74664900  0.29798900  0.04434300  1
  O  O30  1  0.75335100  0.29798900  0.54434300  1
  O  O31  1  0.24664900  0.70201100  0.45565700  1
  O  O32  1  0.43949100  0.88715900  0.56043000  1
  O  O33  1  0.56050900  0.11284100  0.43957000  1
  O  O34  1  0.93949100  0.11284100  0.93957000  1
  O  O35  1  0.06050900  0.88715900  0.06043000  1
  O  O36  1  0.47653600  0.59201900  0.62784300  1
  O  O37  1  0.52346400  0.40798100  0.37215700  1
  O  O38  1  0.97653600  0.40798100  0.87215700  1
  O  O39  1  0.02346400  0.59201900  0.12784300  1
  O  O40  1  0.83809700  0.86011000  0.80626800  1
  O  O41  1  0.16190300  0.13989000  0.19373200  1
  O  O42  1  0.33809700  0.13989000  0.69373200  1
  O  O43  1  0.66190300  0.86011000  0.30626800  1
  O  O44  1  0.18523300  0.74626200  0.69302500  1
  O  O45  1  0.81476700  0.25373800  0.30697500  1
  O  O46  1  0.68523300  0.25373800  0.80697500  1
  O  O47  1  0.31476700  0.74626200  0.19302500  1
