# generated using pymatgen
data_Sr4FeRuO8
_symmetry_space_group_name_H-M   'P 1'
_cell_length_a   6.92998551
_cell_length_b   6.92998551
_cell_length_c   5.59753500
_cell_angle_alpha   90.00000000
_cell_angle_beta   90.00000000
_cell_angle_gamma   132.35575573
_symmetry_Int_Tables_number   1
_chemical_formula_structural   Sr4FeRuO8
_chemical_formula_sum   'Sr4 Fe1 Ru1 O8'
_cell_volume   198.65143188
_cell_formula_units_Z   1
loop_
 _symmetry_equiv_pos_site_id
 _symmetry_equiv_pos_as_xyz
  1  'x, y, z'
loop_
 _atom_site_type_symbol
 _atom_site_label
 _atom_site_symmetry_multiplicity
 _atom_site_fract_x
 _atom_site_fract_y
 _atom_site_fract_z
 _atom_site_occupancy
  Sr  Sr0  1  0.64571900  0.35428100  0.00000000  1
  Sr  Sr1  1  0.14450500  0.85549500  0.50000000  1
  Sr  Sr2  1  0.85549500  0.14450500  0.50000000  1
  Sr  Sr3  1  0.35428100  0.64571900  0.00000000  1
  Fe  Fe4  1  0.00000000  0.00000000  0.00000000  1
  Ru  Ru5  1  0.50000000  0.50000000  0.50000000  1
  O  O6  1  0.74760400  0.74760400  0.25339700  1
  O  O7  1  0.25239600  0.25239600  0.74660300  1
  O  O8  1  0.25239600  0.25239600  0.25339700  1
  O  O9  1  0.74760400  0.74760400  0.74660300  1
  O  O10  1  0.83866600  0.16133400  0.00000000  1
  O  O11  1  0.33996000  0.66004000  0.50000000  1
  O  O12  1  0.66004000  0.33996000  0.50000000  1
  O  O13  1  0.16133400  0.83866600  0.00000000  1
