# generated using pymatgen
data_La2TiO5
_symmetry_space_group_name_H-M   'P 1'
_cell_length_a   3.93568600
_cell_length_b   11.07042900
_cell_length_c   11.53582200
_cell_angle_alpha   90.00000000
_cell_angle_beta   90.00000000
_cell_angle_gamma   90.00000000
_symmetry_Int_Tables_number   1
_chemical_formula_structural   La2TiO5
_chemical_formula_sum   'La8 Ti4 O20'
_cell_volume   502.61267789
_cell_formula_units_Z   4
loop_
 _symmetry_equiv_pos_site_id
 _symmetry_equiv_pos_as_xyz
  1  'x, y, z'
loop_
 _atom_site_type_symbol
 _atom_site_label
 _atom_site_symmetry_multiplicity
 _atom_site_fract_x
 _atom_site_fract_y
 _atom_site_fract_z
 _atom_site_occupancy
  La  La0  1  0.75000000  0.09788700  0.71708800  1
  La  La1  1  0.25000000  0.90211300  0.28291200  1
  La  La2  1  0.75000000  0.59788700  0.78291200  1
  La  La3  1  0.25000000  0.40211300  0.21708800  1
  La  La4  1  0.25000000  0.36328100  0.55926300  1
  La  La5  1  0.75000000  0.63671900  0.44073700  1
  La  La6  1  0.25000000  0.86328100  0.94073700  1
  La  La7  1  0.75000000  0.13671900  0.05926300  1
  Ti  Ti8  1  0.25000000  0.30815700  0.87277900  1
  Ti  Ti9  1  0.75000000  0.69184300  0.12722100  1
  Ti  Ti10  1  0.25000000  0.80815700  0.62722100  1
  Ti  Ti11  1  0.75000000  0.19184300  0.37277800  1
  O  O12  1  0.25000000  0.46448700  0.83267700  1
  O  O13  1  0.75000000  0.53551300  0.16732300  1
  O  O14  1  0.25000000  0.96448700  0.66732300  1
  O  O15  1  0.75000000  0.03551300  0.33267700  1
  O  O16  1  0.25000000  0.22105900  0.72927100  1
  O  O17  1  0.75000000  0.77894100  0.27072900  1
  O  O18  1  0.25000000  0.72105900  0.77072900  1
  O  O19  1  0.75000000  0.27894100  0.22927100  1
  O  O20  1  0.75000000  0.26100600  0.87629200  1
  O  O21  1  0.25000000  0.73899400  0.12370800  1
  O  O22  1  0.75000000  0.76100600  0.62370800  1
  O  O23  1  0.25000000  0.23899400  0.37629200  1
  O  O24  1  0.25000000  0.00831300  0.10220400  1
  O  O25  1  0.75000000  0.99168700  0.89779600  1
  O  O26  1  0.25000000  0.50831300  0.39779600  1
  O  O27  1  0.75000000  0.49168700  0.60220400  1
  O  O28  1  0.25000000  0.27375100  0.03411100  1
  O  O29  1  0.75000000  0.72624900  0.96588900  1
  O  O30  1  0.25000000  0.77375100  0.46588900  1
  O  O31  1  0.75000000  0.22624900  0.53411100  1
