# generated using pymatgen
data_Na3MoO4F
_symmetry_space_group_name_H-M   'P 1'
_cell_length_a   5.66470700
_cell_length_b   7.61201800
_cell_length_c   13.04212800
_cell_angle_alpha   90.00000000
_cell_angle_beta   90.00000000
_cell_angle_gamma   90.00000000
_symmetry_Int_Tables_number   1
_chemical_formula_structural   Na3MoO4F
_chemical_formula_sum   'Na12 Mo4 O16 F4'
_cell_volume   562.37462454
_cell_formula_units_Z   4
loop_
 _symmetry_equiv_pos_site_id
 _symmetry_equiv_pos_as_xyz
  1  'x, y, z'
loop_
 _atom_site_type_symbol
 _atom_site_label
 _atom_site_symmetry_multiplicity
 _atom_site_fract_x
 _atom_site_fract_y
 _atom_site_fract_z
 _atom_site_occupancy
  Na  Na0  1  0.22703400  0.25000000  0.60730600  1
  Na  Na1  1  0.72703400  0.25000000  0.89269400  1
  Na  Na2  1  0.77296600  0.75000000  0.39269400  1
  Na  Na3  1  0.27296600  0.75000000  0.10730600  1
  Na  Na4  1  0.22998300  0.53957400  0.32064800  1
  Na  Na5  1  0.72998300  0.96042600  0.17935200  1
  Na  Na6  1  0.77001700  0.03957400  0.67935200  1
  Na  Na7  1  0.27001700  0.46042600  0.82064800  1
  Na  Na8  1  0.77001700  0.46042600  0.67935200  1
  Na  Na9  1  0.27001700  0.03957400  0.82064800  1
  Na  Na10  1  0.22998300  0.96042600  0.32064800  1
  Na  Na11  1  0.72998300  0.53957400  0.17935200  1
  Mo  Mo12  1  0.70926200  0.25000000  0.41600800  1
  Mo  Mo13  1  0.20926200  0.25000000  0.08399200  1
  Mo  Mo14  1  0.29073800  0.75000000  0.58399200  1
  Mo  Mo15  1  0.79073800  0.75000000  0.91600800  1
  O  O16  1  0.82416900  0.25000000  0.54420100  1
  O  O17  1  0.32416900  0.25000000  0.95579900  1
  O  O18  1  0.17583100  0.75000000  0.45579900  1
  O  O19  1  0.67583100  0.75000000  0.04420100  1
  O  O20  1  0.81058900  0.44241600  0.34939300  1
  O  O21  1  0.31058900  0.05758400  0.15060700  1
  O  O22  1  0.18941100  0.94241600  0.65060700  1
  O  O23  1  0.68941100  0.55758400  0.84939300  1
  O  O24  1  0.18941100  0.55758400  0.65060700  1
  O  O25  1  0.68941100  0.94241600  0.84939300  1
  O  O26  1  0.81058900  0.05758400  0.34939300  1
  O  O27  1  0.31058900  0.44241600  0.15060700  1
  O  O28  1  0.39045200  0.25000000  0.42111800  1
  O  O29  1  0.89045200  0.25000000  0.07888200  1
  O  O30  1  0.60954800  0.75000000  0.57888200  1
  O  O31  1  0.10954800  0.75000000  0.92111800  1
  F  F32  1  0.50211600  0.25000000  0.73282000  1
  F  F33  1  0.00211600  0.25000000  0.76718000  1
  F  F34  1  0.49788400  0.75000000  0.26718000  1
  F  F35  1  0.99788400  0.75000000  0.23282000  1
