# generated using pymatgen
data_Sr3B6O11F2
_symmetry_space_group_name_H-M   'P 1'
_cell_length_a   8.33399700
_cell_length_b   6.46537700
_cell_length_c   9.49281127
_cell_angle_alpha   78.27032309
_cell_angle_beta   90.00000000
_cell_angle_gamma   90.00000000
_symmetry_Int_Tables_number   1
_chemical_formula_structural   Sr3B6O11F2
_chemical_formula_sum   'Sr6 B12 O22 F4'
_cell_volume   500.81452579
_cell_formula_units_Z   2
loop_
 _symmetry_equiv_pos_site_id
 _symmetry_equiv_pos_as_xyz
  1  'x, y, z'
loop_
 _atom_site_type_symbol
 _atom_site_label
 _atom_site_symmetry_multiplicity
 _atom_site_fract_x
 _atom_site_fract_y
 _atom_site_fract_z
 _atom_site_occupancy
  Sr  Sr0  1  0.26027700  0.98117800  0.23665200  1
  Sr  Sr1  1  0.76027700  0.01882200  0.76334800  1
  Sr  Sr2  1  0.61409200  0.56100100  0.46826400  1
  Sr  Sr3  1  0.11409200  0.43899900  0.53173600  1
  Sr  Sr4  1  0.10236300  0.54554100  0.95043300  1
  Sr  Sr5  1  0.60236300  0.45445900  0.04956700  1
  B  B6  1  0.61888300  0.93113800  0.14303800  1
  B  B7  1  0.11888300  0.06886200  0.85696200  1
  B  B8  1  0.39649300  0.89800000  0.93577100  1
  B  B9  1  0.89649300  0.10200000  0.06422900  1
  B  B10  1  0.15941900  0.89533600  0.62712300  1
  B  B11  1  0.65941900  0.10466400  0.37287700  1
  B  B12  1  0.90143800  0.32740200  0.26594600  1
  B  B13  1  0.40143800  0.67259800  0.73405400  1
  B  B14  1  0.94252200  0.99248000  0.44404800  1
  B  B15  1  0.44252200  0.00752000  0.55595200  1
  B  B16  1  0.87714100  0.72926800  0.20933900  1
  B  B17  1  0.37714100  0.27073200  0.79066100  1
  O  O18  1  0.95907900  0.54653000  0.27056700  1
  O  O19  1  0.45907900  0.45347000  0.72943300  1
  O  O20  1  0.04740000  0.84145000  0.51533500  1
  O  O21  1  0.54740000  0.15855000  0.48466500  1
  O  O22  1  0.00447800  0.18271400  0.37210100  1
  O  O23  1  0.50447800  0.81728600  0.62789900  1
  O  O24  1  0.73223100  0.30471800  0.30646200  1
  O  O25  1  0.23223100  0.69528200  0.69353800  1
  O  O26  1  0.78154600  0.94787300  0.44929200  1
  O  O27  1  0.28154600  0.05212700  0.55070900  1
  O  O28  1  0.96421100  0.90994200  0.16451200  1
  O  O29  1  0.46421100  0.09005800  0.83548800  1
  O  O30  1  0.06506900  0.99185600  0.72610900  1
  O  O31  1  0.56506900  0.00814400  0.27389100  1
  O  O32  1  0.22044600  0.92115300  0.95630300  1
  O  O33  1  0.72044600  0.07884700  0.04369700  1
  O  O34  1  0.47186300  0.87042900  0.07805200  1
  O  O35  1  0.97186300  0.12957100  0.92194800  1
  O  O36  1  0.71232600  0.72710700  0.19730400  1
  O  O37  1  0.21232600  0.27289300  0.80269600  1
  O  O38  1  0.93112200  0.29292600  0.12156400  1
  O  O39  1  0.43112200  0.70707400  0.87843600  1
  F  F40  1  0.31783600  0.33828600  0.10350700  1
  F  F41  1  0.81783600  0.66171400  0.89649300  1
  F  F42  1  0.33293600  0.62340100  0.38787200  1
  F  F43  1  0.83293600  0.37659900  0.61212800  1
