# generated using pymatgen
data_BaNaFeF6
_symmetry_space_group_name_H-M   'P 1'
_cell_length_a   5.66015800
_cell_length_b   10.05806800
_cell_length_c   19.49566100
_cell_angle_alpha   90.00000000
_cell_angle_beta   90.00000000
_cell_angle_gamma   90.00000000
_symmetry_Int_Tables_number   1
_chemical_formula_structural   BaNaFeF6
_chemical_formula_sum   'Ba8 Na8 Fe8 F48'
_cell_volume   1109.89293370
_cell_formula_units_Z   8
loop_
 _symmetry_equiv_pos_site_id
 _symmetry_equiv_pos_as_xyz
  1  'x, y, z'
loop_
 _atom_site_type_symbol
 _atom_site_label
 _atom_site_symmetry_multiplicity
 _atom_site_fract_x
 _atom_site_fract_y
 _atom_site_fract_z
 _atom_site_occupancy
  Ba  Ba0  1  0.75879700  0.36666500  0.11152600  1
  Ba  Ba1  1  0.24120300  0.86666500  0.88847400  1
  Ba  Ba2  1  0.74120300  0.36666500  0.61152600  1
  Ba  Ba3  1  0.25879700  0.86666500  0.38847400  1
  Ba  Ba4  1  0.25740000  0.00165300  0.13756200  1
  Ba  Ba5  1  0.74260000  0.50165300  0.86243800  1
  Ba  Ba6  1  0.24260000  0.00165300  0.63756200  1
  Ba  Ba7  1  0.75740000  0.50165300  0.36243800  1
  Na  Na8  1  0.25616800  0.64040200  0.06457500  1
  Na  Na9  1  0.74383200  0.14040200  0.93542500  1
  Na  Na10  1  0.24383200  0.64040200  0.56457500  1
  Na  Na11  1  0.75616800  0.14040200  0.43542500  1
  Na  Na12  1  0.26359400  0.22724600  0.31293900  1
  Na  Na13  1  0.73640600  0.72724600  0.68706100  1
  Na  Na14  1  0.23640600  0.22724600  0.81293900  1
  Na  Na15  1  0.76359400  0.72724600  0.18706100  1
  Fe  Fe16  1  0.26430700  0.26334000  0.49234000  1
  Fe  Fe17  1  0.73569300  0.76334000  0.50766000  1
  Fe  Fe18  1  0.23569300  0.26334000  0.99234000  1
  Fe  Fe19  1  0.76430700  0.76334000  0.00766000  1
  Fe  Fe20  1  0.25080200  0.60451500  0.24319000  1
  Fe  Fe21  1  0.74919800  0.10451500  0.75681000  1
  Fe  Fe22  1  0.24919800  0.60451500  0.74319000  1
  Fe  Fe23  1  0.75080200  0.10451500  0.25681000  1
  F  F24  1  0.02889400  0.17178100  0.05922300  1
  F  F25  1  0.97110600  0.67178100  0.94077700  1
  F  F26  1  0.47110600  0.17178100  0.55922300  1
  F  F27  1  0.52889400  0.67178100  0.44077700  1
  F  F28  1  0.34576900  0.11843000  0.42772400  1
  F  F29  1  0.65423100  0.61843000  0.57227600  1
  F  F30  1  0.15423100  0.11843000  0.92772400  1
  F  F31  1  0.84576900  0.61843000  0.07227600  1
  F  F32  1  0.49776600  0.16415900  0.03442600  1
  F  F33  1  0.50223400  0.66415900  0.96557400  1
  F  F34  1  0.00223400  0.16415900  0.53442600  1
  F  F35  1  0.99776600  0.66415900  0.46557400  1
  F  F36  1  0.47867200  0.54343600  0.17628100  1
  F  F37  1  0.52132800  0.04343600  0.82371900  1
  F  F38  1  0.02132800  0.54343600  0.67628100  1
  F  F39  1  0.97867200  0.04343600  0.32371900  1
  F  F40  1  0.53388200  0.19495300  0.19178700  1
  F  F41  1  0.46611800  0.69495300  0.80821300  1
  F  F42  1  0.96611800  0.19495300  0.69178700  1
  F  F43  1  0.03388200  0.69495300  0.30821300  1
  F  F44  1  0.30132500  0.45983700  0.30803000  1
  F  F45  1  0.69867500  0.95983700  0.69197000  1
  F  F46  1  0.19867500  0.45983700  0.80803000  1
  F  F47  1  0.80132500  0.95983700  0.19197000  1
  F  F48  1  0.04709500  0.32261900  0.42178000  1
  F  F49  1  0.95290500  0.82261900  0.57822000  1
  F  F50  1  0.45290500  0.32261900  0.92178000  1
  F  F51  1  0.54709500  0.82261900  0.07822000  1
  F  F52  1  0.00845400  0.20212900  0.21214000  1
  F  F53  1  0.99154600  0.70212900  0.78786000  1
  F  F54  1  0.49154600  0.20212900  0.71214000  1
  F  F55  1  0.50845400  0.70212900  0.28786000  1
  F  F56  1  0.55512500  0.35455500  0.46457500  1
  F  F57  1  0.44487500  0.85455500  0.53542500  1
  F  F58  1  0.94487500  0.35455500  0.96457500  1
  F  F59  1  0.05512500  0.85455500  0.03542500  1
  F  F60  1  0.18081400  0.74970500  0.17818900  1
  F  F61  1  0.81918600  0.24970500  0.82181100  1
  F  F62  1  0.31918600  0.74970500  0.67818900  1
  F  F63  1  0.68081400  0.24970500  0.32181100  1
  F  F64  1  0.29704400  0.40751400  0.05633900  1
  F  F65  1  0.70295600  0.90751400  0.94366100  1
  F  F66  1  0.20295600  0.40751400  0.55633900  1
  F  F67  1  0.79704400  0.90751400  0.44366100  1
  F  F68  1  0.46856600  0.01265900  0.28932700  1
  F  F69  1  0.53143400  0.51265900  0.71067300  1
  F  F70  1  0.03143400  0.01265900  0.78932700  1
  F  F71  1  0.96856600  0.51265900  0.21067300  1
