# generated using pymatgen
data_Mg3(PO4)2
_symmetry_space_group_name_H-M   'P 1'
_cell_length_a   8.34038600
_cell_length_b   5.12237300
_cell_length_c   8.95440657
_cell_angle_alpha   59.45144927
_cell_angle_beta   90.00000000
_cell_angle_gamma   90.00000000
_symmetry_Int_Tables_number   1
_chemical_formula_structural   Mg3(PO4)2
_chemical_formula_sum   'Mg6 P4 O16'
_cell_volume   329.45610891
_cell_formula_units_Z   2
loop_
 _symmetry_equiv_pos_site_id
 _symmetry_equiv_pos_as_xyz
  1  'x, y, z'
loop_
 _atom_site_type_symbol
 _atom_site_label
 _atom_site_symmetry_multiplicity
 _atom_site_fract_x
 _atom_site_fract_y
 _atom_site_fract_z
 _atom_site_occupancy
  Mg  Mg0  1  0.85587100  0.51602200  0.39176100  1
  Mg  Mg1  1  0.35587100  0.48397800  0.10823900  1
  Mg  Mg2  1  0.14412900  0.48397800  0.60823900  1
  Mg  Mg3  1  0.64412900  0.51602200  0.89176100  1
  Mg  Mg4  1  0.50000000  0.50000000  0.50000000  1
  Mg  Mg5  1  0.00000000  0.50000000  0.00000000  1
  P  P6  1  0.80542500  0.16880000  0.79837100  1
  P  P7  1  0.30542500  0.83120000  0.70162900  1
  P  P8  1  0.19457500  0.83120000  0.20162900  1
  P  P9  1  0.69457500  0.16880000  0.29837100  1
  O  O10  1  0.57545500  0.31091500  0.14335400  1
  O  O11  1  0.07545500  0.68908500  0.35664600  1
  O  O12  1  0.42454500  0.68908500  0.85664600  1
  O  O13  1  0.92454500  0.31091500  0.64335400  1
  O  O14  1  0.86263500  0.32233600  0.23720900  1
  O  O15  1  0.36263500  0.67766400  0.26279100  1
  O  O16  1  0.13736500  0.67766400  0.76279100  1
  O  O17  1  0.63736500  0.32233600  0.73720900  1
  O  O18  1  0.69820700  0.82287400  0.37392600  1
  O  O19  1  0.19820700  0.17712600  0.12607400  1
  O  O20  1  0.85524300  0.24673200  0.93803600  1
  O  O21  1  0.35524300  0.75326800  0.56196400  1
  O  O22  1  0.14475700  0.75326800  0.06196400  1
  O  O23  1  0.64475700  0.24673200  0.43803600  1
  O  O24  1  0.80179300  0.82287400  0.87392600  1
  O  O25  1  0.30179300  0.17712600  0.62607400  1
