# generated using pymatgen
data_Ba3NdIr2O9
_symmetry_space_group_name_H-M   'P 1'
_cell_length_a   5.99073963
_cell_length_b   5.99073963
_cell_length_c   15.05151623
_cell_angle_alpha   89.19672774
_cell_angle_beta   89.19672774
_cell_angle_gamma   119.85193400
_symmetry_Int_Tables_number   1
_chemical_formula_structural   Ba3NdIr2O9
_chemical_formula_sum   'Ba6 Nd2 Ir4 O18'
_cell_volume   468.32548829
_cell_formula_units_Z   2
loop_
 _symmetry_equiv_pos_site_id
 _symmetry_equiv_pos_as_xyz
  1  'x, y, z'
loop_
 _atom_site_type_symbol
 _atom_site_label
 _atom_site_symmetry_multiplicity
 _atom_site_fract_x
 _atom_site_fract_y
 _atom_site_fract_z
 _atom_site_occupancy
  Ba  Ba0  1  0.99671900  0.00328100  0.75000000  1
  Ba  Ba1  1  0.00328100  0.99671900  0.25000000  1
  Ba  Ba2  1  0.32778300  0.65905400  0.59950000  1
  Ba  Ba3  1  0.67221700  0.34094600  0.40050000  1
  Ba  Ba4  1  0.34094600  0.67221700  0.90050000  1
  Ba  Ba5  1  0.65905400  0.32778300  0.09950000  1
  Nd  Nd6  1  0.00000000  0.00000000  0.50000000  1
  Nd  Nd7  1  0.00000000  0.00000000  0.00000000  1
  Ir  Ir8  1  0.65260600  0.31943000  0.66626700  1
  Ir  Ir9  1  0.34739400  0.68057000  0.33373300  1
  Ir  Ir10  1  0.68057000  0.34739400  0.83373300  1
  Ir  Ir11  1  0.31943000  0.65260600  0.16626700  1
  O  O12  1  0.79591800  0.14782100  0.59270600  1
  O  O13  1  0.20408200  0.85217900  0.40729400  1
  O  O14  1  0.85217900  0.20408200  0.90729400  1
  O  O15  1  0.14782100  0.79591800  0.09270600  1
  O  O16  1  0.32909800  0.14821800  0.59982000  1
  O  O17  1  0.67090200  0.85178200  0.40018000  1
  O  O18  1  0.85178200  0.67090200  0.90018000  1
  O  O19  1  0.14821800  0.32909800  0.09982000  1
  O  O20  1  0.50832300  0.49167700  0.75000000  1
  O  O21  1  0.49167700  0.50832300  0.25000000  1
  O  O22  1  0.39003100  0.20580800  0.92105700  1
  O  O23  1  0.60996900  0.79419200  0.07894300  1
  O  O24  1  0.79419200  0.60996900  0.57894300  1
  O  O25  1  0.20580800  0.39003100  0.42105700  1
  O  O26  1  0.50772600  0.02070000  0.75926800  1
  O  O27  1  0.49227400  0.97930000  0.24073200  1
  O  O28  1  0.97930000  0.49227400  0.74073200  1
  O  O29  1  0.02070000  0.50772600  0.25926800  1
