# generated using pymatgen
data_KMn2O4
_symmetry_space_group_name_H-M   'P 1'
_cell_length_a   3.05228600
_cell_length_b   5.16178103
_cell_length_c   6.57268153
_cell_angle_alpha   105.17220684
_cell_angle_beta   91.27970440
_cell_angle_gamma   93.30093504
_symmetry_Int_Tables_number   1
_chemical_formula_structural   KMn2O4
_chemical_formula_sum   'K1 Mn2 O4'
_cell_volume   99.70356903
_cell_formula_units_Z   1
loop_
 _symmetry_equiv_pos_site_id
 _symmetry_equiv_pos_as_xyz
  1  'x, y, z'
loop_
 _atom_site_type_symbol
 _atom_site_label
 _atom_site_symmetry_multiplicity
 _atom_site_fract_x
 _atom_site_fract_y
 _atom_site_fract_z
 _atom_site_occupancy
  K  K0  1  0.50000000  0.00000000  0.50000000  1
  Mn  Mn1  1  0.00000000  0.00000000  0.00000000  1
  Mn  Mn2  1  0.50000000  0.50000000  0.00000000  1
  O  O3  1  0.47588500  0.79106600  0.84493100  1
  O  O4  1  0.03398200  0.26054600  0.83626300  1
  O  O5  1  0.96601800  0.73945400  0.16373700  1
  O  O6  1  0.52411500  0.20893400  0.15506900  1
