# generated using pymatgen
data_Tm4C7
_symmetry_space_group_name_H-M   'P 1'
_cell_length_a   3.64757818
_cell_length_b   6.35383532
_cell_length_c   13.60338900
_cell_angle_alpha   90.00000000
_cell_angle_beta   90.00000000
_cell_angle_gamma   105.06642200
_symmetry_Int_Tables_number   1
_chemical_formula_structural   Tm4C7
_chemical_formula_sum   'Tm8 C14'
_cell_volume   304.43616446
_cell_formula_units_Z   2
loop_
 _symmetry_equiv_pos_site_id
 _symmetry_equiv_pos_as_xyz
  1  'x, y, z'
loop_
 _atom_site_type_symbol
 _atom_site_label
 _atom_site_symmetry_multiplicity
 _atom_site_fract_x
 _atom_site_fract_y
 _atom_site_fract_z
 _atom_site_occupancy
  Tm  Tm0  1  0.94476500  0.83953800  0.83905600  1
  Tm  Tm1  1  0.05523500  0.16046200  0.16094400  1
  Tm  Tm2  1  0.05523500  0.66046200  0.33905600  1
  Tm  Tm3  1  0.94476500  0.33953800  0.66094400  1
  Tm  Tm4  1  0.63532600  0.76068600  0.55468500  1
  Tm  Tm5  1  0.36467400  0.23931400  0.44531500  1
  Tm  Tm6  1  0.36467400  0.73931400  0.05468500  1
  Tm  Tm7  1  0.63532600  0.26068600  0.94531500  1
  C  C8  1  0.73772900  0.95328400  0.39522700  1
  C  C9  1  0.26227100  0.04671600  0.60477300  1
  C  C10  1  0.26227100  0.54671600  0.89522700  1
  C  C11  1  0.73772900  0.45328400  0.10477300  1
  C  C12  1  0.53952000  0.57684600  0.71438800  1
  C  C13  1  0.46048000  0.42315400  0.28561200  1
  C  C14  1  0.46048000  0.92315400  0.21438800  1
  C  C15  1  0.53952000  0.07684600  0.78561200  1
  C  C16  1  0.62054800  0.95527500  0.30228300  1
  C  C17  1  0.37945200  0.04472500  0.69771700  1
  C  C18  1  0.37945200  0.54472500  0.80228300  1
  C  C19  1  0.62054800  0.45527500  0.19771700  1
  C  C20  1  0.00000000  0.00000000  0.00000000  1
  C  C21  1  0.00000000  0.50000000  0.50000000  1
