# generated using pymatgen
data_Dy2MoO6
_symmetry_space_group_name_H-M   'P 1'
_cell_length_a   9.95578354
_cell_length_b   9.95578354
_cell_length_c   5.40324615
_cell_angle_alpha   75.00937588
_cell_angle_beta   75.00937588
_cell_angle_gamma   68.03213664
_symmetry_Int_Tables_number   1
_chemical_formula_structural   Dy2MoO6
_chemical_formula_sum   'Dy8 Mo4 O24'
_cell_volume   471.86947918
_cell_formula_units_Z   4
loop_
 _symmetry_equiv_pos_site_id
 _symmetry_equiv_pos_as_xyz
  1  'x, y, z'
loop_
 _atom_site_type_symbol
 _atom_site_label
 _atom_site_symmetry_multiplicity
 _atom_site_fract_x
 _atom_site_fract_y
 _atom_site_fract_z
 _atom_site_occupancy
  Dy  Dy0  1  0.78372100  0.55186400  0.62140900  1
  Dy  Dy1  1  0.44813600  0.21627900  0.87859100  1
  Dy  Dy2  1  0.21627900  0.44813600  0.37859100  1
  Dy  Dy3  1  0.55186400  0.78372100  0.12140900  1
  Dy  Dy4  1  0.86395700  0.13604300  0.75000000  1
  Dy  Dy5  1  0.13604300  0.86395700  0.25000000  1
  Dy  Dy6  1  0.39309700  0.60690300  0.75000000  1
  Dy  Dy7  1  0.60690300  0.39309700  0.25000000  1
  Mo  Mo8  1  0.98813100  0.70413100  0.93970800  1
  Mo  Mo9  1  0.29586900  0.01186900  0.56029200  1
  Mo  Mo10  1  0.01186900  0.29586900  0.06029200  1
  Mo  Mo11  1  0.70413100  0.98813100  0.43970800  1
  O  O12  1  0.42655200  0.39103500  0.07826900  1
  O  O13  1  0.60896500  0.57344800  0.42173100  1
  O  O14  1  0.57344800  0.60896500  0.92173100  1
  O  O15  1  0.39103500  0.42655200  0.57826900  1
  O  O16  1  0.19212500  0.66308500  0.08265600  1
  O  O17  1  0.33691500  0.80787500  0.41734400  1
  O  O18  1  0.80787500  0.33691500  0.91734400  1
  O  O19  1  0.66308500  0.19212500  0.58265600  1
  O  O20  1  0.11605200  0.67333000  0.62900500  1
  O  O21  1  0.32667000  0.88394800  0.87099500  1
  O  O22  1  0.88394800  0.32667000  0.37099500  1
  O  O23  1  0.67333000  0.11605200  0.12900500  1
  O  O24  1  0.71015800  0.81689400  0.36341700  1
  O  O25  1  0.18310600  0.28984200  0.13658300  1
  O  O26  1  0.28984200  0.18310600  0.63658300  1
  O  O27  1  0.81689400  0.71015800  0.86341700  1
  O  O28  1  0.89004100  0.95103400  0.48536400  1
  O  O29  1  0.04896600  0.10995900  0.01463600  1
  O  O30  1  0.10995900  0.04896600  0.51463600  1
  O  O31  1  0.95103400  0.89004100  0.98536400  1
  O  O32  1  0.56898400  0.97481400  0.74583900  1
  O  O33  1  0.02518600  0.43101600  0.75416100  1
  O  O34  1  0.43101600  0.02518600  0.25416100  1
  O  O35  1  0.97481400  0.56898400  0.24583900  1
