# generated using pymatgen
data_HfSiW
_symmetry_space_group_name_H-M   'P 1'
_cell_length_a   3.52704500
_cell_length_b   6.94484200
_cell_length_c   8.19564300
_cell_angle_alpha   90.00000000
_cell_angle_beta   90.00000000
_cell_angle_gamma   90.00000000
_symmetry_Int_Tables_number   1
_chemical_formula_structural   HfSiW
_chemical_formula_sum   'Hf4 Si4 W4'
_cell_volume   200.75039235
_cell_formula_units_Z   4
loop_
 _symmetry_equiv_pos_site_id
 _symmetry_equiv_pos_as_xyz
  1  'x, y, z'
loop_
 _atom_site_type_symbol
 _atom_site_label
 _atom_site_symmetry_multiplicity
 _atom_site_fract_x
 _atom_site_fract_y
 _atom_site_fract_z
 _atom_site_occupancy
  Hf  Hf0  1  0.25000000  0.54179300  0.16745400  1
  Hf  Hf1  1  0.25000000  0.04179300  0.33254600  1
  Hf  Hf2  1  0.75000000  0.45820700  0.83254600  1
  Hf  Hf3  1  0.75000000  0.95820700  0.66745400  1
  Si  Si4  1  0.25000000  0.75613200  0.86166800  1
  Si  Si5  1  0.25000000  0.25613200  0.63833200  1
  Si  Si6  1  0.75000000  0.24386800  0.13833200  1
  Si  Si7  1  0.75000000  0.74386800  0.36166800  1
  W  W8  1  0.25000000  0.63392800  0.56204800  1
  W  W9  1  0.25000000  0.13392800  0.93795200  1
  W  W10  1  0.75000000  0.36607200  0.43795200  1
  W  W11  1  0.75000000  0.86607200  0.06204800  1
