# generated using pymatgen
data_Eu(MgAs)2
_symmetry_space_group_name_H-M   'P 1'
_cell_length_a   4.41900784
_cell_length_b   4.41900784
_cell_length_c   7.31846600
_cell_angle_alpha   90.00000000
_cell_angle_beta   90.00000000
_cell_angle_gamma   119.99999757
_symmetry_Int_Tables_number   1
_chemical_formula_structural   Eu(MgAs)2
_chemical_formula_sum   'Eu1 Mg2 As2'
_cell_volume   123.76568377
_cell_formula_units_Z   1
loop_
 _symmetry_equiv_pos_site_id
 _symmetry_equiv_pos_as_xyz
  1  'x, y, z'
loop_
 _atom_site_type_symbol
 _atom_site_label
 _atom_site_symmetry_multiplicity
 _atom_site_fract_x
 _atom_site_fract_y
 _atom_site_fract_z
 _atom_site_occupancy
  Eu  Eu0  1  0.00000000  0.00000000  0.00000000  1
  Mg  Mg1  1  0.33333300  0.66666700  0.63116500  1
  Mg  Mg2  1  0.66666700  0.33333300  0.36883500  1
  As  As3  1  0.33333300  0.66666700  0.25672100  1
  As  As4  1  0.66666700  0.33333300  0.74327900  1
