# generated using pymatgen
data_Y5(Ge5Ir2)2
_symmetry_space_group_name_H-M   'P 1'
_cell_length_a   13.03941600
_cell_length_b   13.03941600
_cell_length_c   4.35902500
_cell_angle_alpha   90.00000000
_cell_angle_beta   90.00000000
_cell_angle_gamma   90.00000000
_symmetry_Int_Tables_number   1
_chemical_formula_structural   Y5(Ge5Ir2)2
_chemical_formula_sum   'Y10 Ge20 Ir8'
_cell_volume   741.14919584
_cell_formula_units_Z   2
loop_
 _symmetry_equiv_pos_site_id
 _symmetry_equiv_pos_as_xyz
  1  'x, y, z'
loop_
 _atom_site_type_symbol
 _atom_site_label
 _atom_site_symmetry_multiplicity
 _atom_site_fract_x
 _atom_site_fract_y
 _atom_site_fract_z
 _atom_site_occupancy
  Y  Y0  1  0.50000000  0.50000000  0.00000000  1
  Y  Y1  1  0.00000000  0.00000000  0.00000000  1
  Y  Y2  1  0.67425100  0.17425100  0.50000000  1
  Y  Y3  1  0.32574900  0.82574900  0.50000000  1
  Y  Y4  1  0.17425100  0.32574900  0.50000000  1
  Y  Y5  1  0.82574900  0.67425100  0.50000000  1
  Y  Y6  1  0.88397800  0.38397800  0.50000000  1
  Y  Y7  1  0.11602200  0.61602200  0.50000000  1
  Y  Y8  1  0.38397800  0.11602200  0.50000000  1
  Y  Y9  1  0.61602200  0.88397800  0.50000000  1
  Ge  Ge10  1  0.56654600  0.06654600  0.00000000  1
  Ge  Ge11  1  0.43345400  0.93345400  0.00000000  1
  Ge  Ge12  1  0.06654600  0.43345400  0.00000000  1
  Ge  Ge13  1  0.93345400  0.56654600  0.00000000  1
  Ge  Ge14  1  0.66288700  0.70006400  0.00000000  1
  Ge  Ge15  1  0.33711300  0.29993600  0.00000000  1
  Ge  Ge16  1  0.16288700  0.79993600  0.00000000  1
  Ge  Ge17  1  0.83711300  0.20006400  0.00000000  1
  Ge  Ge18  1  0.29993600  0.66288700  0.00000000  1
  Ge  Ge19  1  0.70006400  0.33711300  0.00000000  1
  Ge  Ge20  1  0.20006400  0.16288700  0.00000000  1
  Ge  Ge21  1  0.79993600  0.83711300  0.00000000  1
  Ge  Ge22  1  0.65693800  0.50859800  0.50000000  1
  Ge  Ge23  1  0.34306200  0.49140200  0.50000000  1
  Ge  Ge24  1  0.15693800  0.99140200  0.50000000  1
  Ge  Ge25  1  0.84306200  0.00859800  0.50000000  1
  Ge  Ge26  1  0.49140200  0.65693800  0.50000000  1
  Ge  Ge27  1  0.50859800  0.34306200  0.50000000  1
  Ge  Ge28  1  0.00859800  0.15693800  0.50000000  1
  Ge  Ge29  1  0.99140200  0.84306200  0.50000000  1
  Ir  Ir30  1  0.74604600  0.52119100  0.00000000  1
  Ir  Ir31  1  0.25395400  0.47880900  0.00000000  1
  Ir  Ir32  1  0.24604600  0.97880900  0.00000000  1
  Ir  Ir33  1  0.75395400  0.02119100  0.00000000  1
  Ir  Ir34  1  0.47880900  0.74604600  0.00000000  1
  Ir  Ir35  1  0.52119100  0.25395400  0.00000000  1
  Ir  Ir36  1  0.02119100  0.24604600  0.00000000  1
  Ir  Ir37  1  0.97880900  0.75395400  0.00000000  1
