# generated using pymatgen
data_PrCrSb3
_symmetry_space_group_name_H-M   'P 1'
_cell_length_a   6.10808800
_cell_length_b   6.24277600
_cell_length_c   13.22318000
_cell_angle_alpha   90.00000000
_cell_angle_beta   90.00000000
_cell_angle_gamma   90.00000000
_symmetry_Int_Tables_number   1
_chemical_formula_structural   PrCrSb3
_chemical_formula_sum   'Pr4 Cr4 Sb12'
_cell_volume   504.21869871
_cell_formula_units_Z   4
loop_
 _symmetry_equiv_pos_site_id
 _symmetry_equiv_pos_as_xyz
  1  'x, y, z'
loop_
 _atom_site_type_symbol
 _atom_site_label
 _atom_site_symmetry_multiplicity
 _atom_site_fract_x
 _atom_site_fract_y
 _atom_site_fract_z
 _atom_site_occupancy
  Pr  Pr0  1  0.25000000  0.50440000  0.30776700  1
  Pr  Pr1  1  0.75000000  0.49560000  0.69223300  1
  Pr  Pr2  1  0.25000000  0.00440000  0.69223300  1
  Pr  Pr3  1  0.75000000  0.99560000  0.30776700  1
  Cr  Cr4  1  0.00000000  0.75000000  0.90757000  1
  Cr  Cr5  1  0.00000000  0.25000000  0.09243000  1
  Cr  Cr6  1  0.50000000  0.25000000  0.09243000  1
  Cr  Cr7  1  0.50000000  0.75000000  0.90757000  1
  Sb  Sb8  1  0.00000000  0.75000000  0.50126400  1
  Sb  Sb9  1  0.00000000  0.25000000  0.49873600  1
  Sb  Sb10  1  0.50000000  0.25000000  0.49873600  1
  Sb  Sb11  1  0.50000000  0.75000000  0.50126400  1
  Sb  Sb12  1  0.25000000  0.59915000  0.06130800  1
  Sb  Sb13  1  0.75000000  0.40085000  0.93869200  1
  Sb  Sb14  1  0.25000000  0.09915000  0.93869200  1
  Sb  Sb15  1  0.75000000  0.90085000  0.06130800  1
  Sb  Sb16  1  0.25000000  0.99983500  0.21733600  1
  Sb  Sb17  1  0.75000000  0.00016500  0.78266400  1
  Sb  Sb18  1  0.25000000  0.49983500  0.78266400  1
  Sb  Sb19  1  0.75000000  0.50016500  0.21733600  1
