# generated using pymatgen
data_Na3GaP8O23
_symmetry_space_group_name_H-M   'P 1'
_cell_length_a   12.12027400
_cell_length_b   12.12027400
_cell_length_c   12.12027400
_cell_angle_alpha   90.00000000
_cell_angle_beta   90.00000000
_cell_angle_gamma   90.00000000
_symmetry_Int_Tables_number   1
_chemical_formula_structural   Na3GaP8O23
_chemical_formula_sum   'Na12 Ga4 P32 O92'
_cell_volume   1780.48087793
_cell_formula_units_Z   4
loop_
 _symmetry_equiv_pos_site_id
 _symmetry_equiv_pos_as_xyz
  1  'x, y, z'
loop_
 _atom_site_type_symbol
 _atom_site_label
 _atom_site_symmetry_multiplicity
 _atom_site_fract_x
 _atom_site_fract_y
 _atom_site_fract_z
 _atom_site_occupancy
  Na  Na0  1  0.12500000  0.04405200  0.29405200  1
  Na  Na1  1  0.62500000  0.45594800  0.70594800  1
  Na  Na2  1  0.95594800  0.79405200  0.37500000  1
  Na  Na3  1  0.04405200  0.29405200  0.12500000  1
  Na  Na4  1  0.70594800  0.62500000  0.45594800  1
  Na  Na5  1  0.79405200  0.37500000  0.95594800  1
  Na  Na6  1  0.20594800  0.87500000  0.54405200  1
  Na  Na7  1  0.54405200  0.20594800  0.87500000  1
  Na  Na8  1  0.45594800  0.70594800  0.62500000  1
  Na  Na9  1  0.29405200  0.12500000  0.04405200  1
  Na  Na10  1  0.37500000  0.95594800  0.79405200  1
  Na  Na11  1  0.87500000  0.54405200  0.20594800  1
  Ga  Ga12  1  0.12500000  0.62500000  0.87500000  1
  Ga  Ga13  1  0.37500000  0.37500000  0.37500000  1
  Ga  Ga14  1  0.87500000  0.12500000  0.62500000  1
  Ga  Ga15  1  0.62500000  0.87500000  0.12500000  1
  P  P16  1  0.06894500  0.36156600  0.85440500  1
  P  P17  1  0.89559500  0.38843400  0.68105500  1
  P  P18  1  0.36156600  0.85440500  0.06894500  1
  P  P19  1  0.86156600  0.64559500  0.93105500  1
  P  P20  1  0.63843400  0.35440500  0.43105500  1
  P  P21  1  0.64559500  0.93105500  0.86156600  1
  P  P22  1  0.43105500  0.63843400  0.35440500  1
  P  P23  1  0.93105500  0.86156600  0.64559500  1
  P  P24  1  0.85440500  0.06894500  0.36156600  1
  P  P25  1  0.60440500  0.61156600  0.18105500  1
  P  P26  1  0.35440500  0.43105500  0.63843400  1
  P  P27  1  0.14559500  0.56894500  0.13843400  1
  P  P28  1  0.81894500  0.10440500  0.88843400  1
  P  P29  1  0.39559500  0.11156600  0.31894500  1
  P  P30  1  0.10440500  0.88843400  0.81894500  1
  P  P31  1  0.68105500  0.89559500  0.38843400  1
  P  P32  1  0.31894500  0.39559500  0.11156600  1
  P  P33  1  0.88843400  0.81894500  0.10440500  1
  P  P34  1  0.38843400  0.68105500  0.89559500  1
  P  P35  1  0.13843400  0.14559500  0.56894500  1
  P  P36  1  0.18105500  0.60440500  0.61156600  1
  P  P37  1  0.11156600  0.31894500  0.39559500  1
  P  P38  1  0.61156600  0.18105500  0.60440500  1
  P  P39  1  0.01771900  0.01771900  0.01771900  1
  P  P40  1  0.26771900  0.23228100  0.76771900  1
  P  P41  1  0.76771900  0.26771900  0.23228100  1
  P  P42  1  0.23228100  0.76771900  0.26771900  1
  P  P43  1  0.48228100  0.98228100  0.51771900  1
  P  P44  1  0.51771900  0.48228100  0.98228100  1
  P  P45  1  0.98228100  0.51771900  0.48228100  1
  P  P46  1  0.73228100  0.73228100  0.73228100  1
  P  P47  1  0.56894500  0.13843400  0.14559500  1
  O  O48  1  0.66165900  0.66165900  0.66165900  1
  O  O49  1  0.91165900  0.58834100  0.41165900  1
  O  O50  1  0.58834100  0.41165900  0.91165900  1
  O  O51  1  0.41165900  0.91165900  0.58834100  1
  O  O52  1  0.16165900  0.83834100  0.33834100  1
  O  O53  1  0.83834100  0.33834100  0.16165900  1
  O  O54  1  0.33834100  0.16165900  0.83834100  1
  O  O55  1  0.08834100  0.08834100  0.08834100  1
  O  O56  1  0.43728300  0.51142500  0.67950000  1
  O  O57  1  0.93728300  0.98857500  0.32050000  1
  O  O58  1  0.51142500  0.67950000  0.43728300  1
  O  O59  1  0.48857500  0.17950000  0.06271700  1
  O  O60  1  0.67950000  0.43728300  0.51142500  1
  O  O61  1  0.82050000  0.56271700  0.01142500  1
  O  O62  1  0.18728300  0.92950000  0.73857500  1
  O  O63  1  0.68728300  0.57050000  0.26142500  1
  O  O64  1  0.81271700  0.42950000  0.76142500  1
  O  O65  1  0.57050000  0.26142500  0.68728300  1
  O  O66  1  0.76142500  0.81271700  0.42950000  1
  O  O67  1  0.26142500  0.68728300  0.57050000  1
  O  O68  1  0.92950000  0.73857500  0.18728300  1
  O  O69  1  0.73857500  0.18728300  0.92950000  1
  O  O70  1  0.42950000  0.76142500  0.81271700  1
  O  O71  1  0.07050000  0.23857500  0.31271700  1
  O  O72  1  0.23857500  0.31271700  0.07050000  1
  O  O73  1  0.32050000  0.93728300  0.98857500  1
  O  O74  1  0.17950000  0.06271700  0.48857500  1
  O  O75  1  0.01142500  0.82050000  0.56271700  1
  O  O76  1  0.98857500  0.32050000  0.93728300  1
  O  O77  1  0.06271700  0.48857500  0.17950000  1
  O  O78  1  0.56271700  0.01142500  0.82050000  1
  O  O79  1  0.31271700  0.07050000  0.23857500  1
  O  O80  1  0.37500000  0.73323800  0.01676200  1
  O  O81  1  0.51676200  0.12500000  0.26676200  1
  O  O82  1  0.73830800  0.32750300  0.34411400  1
  O  O83  1  0.23323800  0.48323800  0.62500000  1
  O  O84  1  0.98323800  0.87500000  0.76676200  1
  O  O85  1  0.01676200  0.37500000  0.73323800  1
  O  O86  1  0.48323800  0.62500000  0.23323800  1
  O  O87  1  0.26676200  0.51676200  0.12500000  1
  O  O88  1  0.73323800  0.01676200  0.37500000  1
  O  O89  1  0.62500000  0.23323800  0.48323800  1
  O  O90  1  0.12500000  0.26676200  0.51676200  1
  O  O91  1  0.87500000  0.76676200  0.98323800  1
  O  O92  1  0.32750300  0.34411400  0.73830800  1
  O  O93  1  0.82750300  0.15588600  0.26169200  1
  O  O94  1  0.34411400  0.73830800  0.32750300  1
  O  O95  1  0.65588600  0.23830800  0.17249700  1
  O  O96  1  0.03736500  0.12127700  0.63654500  1
  O  O97  1  0.28736500  0.61345500  0.87127700  1
  O  O98  1  0.78736500  0.88654500  0.12872300  1
  O  O99  1  0.38654500  0.37127700  0.21263500  1
  O  O100  1  0.61345500  0.87127700  0.28736500  1
  O  O101  1  0.12872300  0.78736500  0.88654500  1
  O  O102  1  0.37127700  0.21263500  0.38654500  1
  O  O103  1  0.63654500  0.03736500  0.12127700  1
  O  O104  1  0.12127700  0.63654500  0.03736500  1
  O  O105  1  0.37872300  0.36345500  0.53736500  1
  O  O106  1  0.13654500  0.46263500  0.87872300  1
  O  O107  1  0.87872300  0.13654500  0.46263500  1
  O  O108  1  0.86345500  0.96263500  0.62127700  1
  O  O109  1  0.36345500  0.53736500  0.37872300  1
  O  O110  1  0.62127700  0.86345500  0.96263500  1
  O  O111  1  0.53736500  0.37872300  0.36345500  1
  O  O112  1  0.96263500  0.62127700  0.86345500  1
  O  O113  1  0.46263500  0.87872300  0.13654500  1
  O  O114  1  0.87127700  0.28736500  0.61345500  1
  O  O115  1  0.62872300  0.71263500  0.11345500  1
  O  O116  1  0.88654500  0.12872300  0.78736500  1
  O  O117  1  0.11345500  0.62872300  0.71263500  1
  O  O118  1  0.21263500  0.38654500  0.37127700  1
  O  O119  1  0.71263500  0.11345500  0.62872300  1
  O  O120  1  0.42249700  0.01169200  0.40588600  1
  O  O121  1  0.67249700  0.84411400  0.76169200  1
  O  O122  1  0.17249700  0.65588600  0.23830800  1
  O  O123  1  0.15588600  0.26169200  0.82750300  1
  O  O124  1  0.84411400  0.76169200  0.67249700  1
  O  O125  1  0.23830800  0.17249700  0.65588600  1
  O  O126  1  0.26169200  0.82750300  0.15588600  1
  O  O127  1  0.40588600  0.42249700  0.01169200  1
  O  O128  1  0.01169200  0.40588600  0.42249700  1
  O  O129  1  0.48830800  0.59411400  0.92249700  1
  O  O130  1  0.90588600  0.07750300  0.98830800  1
  O  O131  1  0.98830800  0.90588600  0.07750300  1
  O  O132  1  0.09411400  0.57750300  0.51169200  1
  O  O133  1  0.59411400  0.92249700  0.48830800  1
  O  O134  1  0.51169200  0.09411400  0.57750300  1
  O  O135  1  0.92249700  0.48830800  0.59411400  1
  O  O136  1  0.57750300  0.51169200  0.09411400  1
  O  O137  1  0.07750300  0.98830800  0.90588600  1
  O  O138  1  0.76169200  0.67249700  0.84411400  1
  O  O139  1  0.76676200  0.98323800  0.87500000  1
