# generated using pymatgen
data_Sr3TaAs3O
_symmetry_space_group_name_H-M   'P 1'
_cell_length_a   6.45376400
_cell_length_b   10.78407000
_cell_length_c   13.08003700
_cell_angle_alpha   90.00000000
_cell_angle_beta   90.00000000
_cell_angle_gamma   90.00000000
_symmetry_Int_Tables_number   1
_chemical_formula_structural   Sr3TaAs3O
_chemical_formula_sum   'Sr12 Ta4 As12 O4'
_cell_volume   910.34235815
_cell_formula_units_Z   4
loop_
 _symmetry_equiv_pos_site_id
 _symmetry_equiv_pos_as_xyz
  1  'x, y, z'
loop_
 _atom_site_type_symbol
 _atom_site_label
 _atom_site_symmetry_multiplicity
 _atom_site_fract_x
 _atom_site_fract_y
 _atom_site_fract_z
 _atom_site_occupancy
  Sr  Sr0  1  0.24565200  0.04294600  0.62809900  1
  Sr  Sr1  1  0.74565200  0.45705400  0.87190100  1
  Sr  Sr2  1  0.75434800  0.54294600  0.37190100  1
  Sr  Sr3  1  0.25434800  0.95705400  0.12809900  1
  Sr  Sr4  1  0.24565200  0.45705400  0.62809900  1
  Sr  Sr5  1  0.75434800  0.95705400  0.37190100  1
  Sr  Sr6  1  0.76778400  0.25000000  0.12870900  1
  Sr  Sr7  1  0.26778400  0.25000000  0.37129100  1
  Sr  Sr8  1  0.23221600  0.75000000  0.87129100  1
  Sr  Sr9  1  0.73221600  0.75000000  0.62870900  1
  Sr  Sr10  1  0.25434800  0.54294600  0.12809900  1
  Sr  Sr11  1  0.74565200  0.04294600  0.87190100  1
  Ta  Ta12  1  0.34187600  0.25000000  0.95164900  1
  Ta  Ta13  1  0.84187600  0.25000000  0.54835100  1
  Ta  Ta14  1  0.65812400  0.75000000  0.04835100  1
  Ta  Ta15  1  0.15812400  0.75000000  0.45164900  1
  As  As16  1  0.23633800  0.75000000  0.63626200  1
  As  As17  1  0.73633800  0.75000000  0.86373800  1
  As  As18  1  0.76366200  0.25000000  0.36373800  1
  As  As19  1  0.26366200  0.25000000  0.13626200  1
  As  As20  1  0.23683400  0.45153800  0.87626800  1
  As  As21  1  0.73683400  0.04846200  0.62373200  1
  As  As22  1  0.23683400  0.04846200  0.87626800  1
  As  As23  1  0.73683400  0.45153800  0.62373200  1
  As  As24  1  0.76316600  0.54846200  0.12373200  1
  As  As25  1  0.26316600  0.54846200  0.37626800  1
  As  As26  1  0.26316600  0.95153800  0.37626800  1
  As  As27  1  0.76316600  0.95153800  0.12373200  1
  O  O28  1  0.63461000  0.25000000  0.94546800  1
  O  O29  1  0.13461000  0.25000000  0.55453200  1
  O  O30  1  0.36539000  0.75000000  0.05453200  1
  O  O31  1  0.86539000  0.75000000  0.44546800  1
