# generated using pymatgen
data_La6Mg(GeS7)2
_symmetry_space_group_name_H-M   'P 1'
_cell_length_a   10.41816924
_cell_length_b   10.41816924
_cell_length_c   5.83830200
_cell_angle_alpha   90.00000000
_cell_angle_beta   90.00000000
_cell_angle_gamma   119.99999516
_symmetry_Int_Tables_number   1
_chemical_formula_structural   La6Mg(GeS7)2
_chemical_formula_sum   'La6 Mg1 Ge2 S14'
_cell_volume   548.78221097
_cell_formula_units_Z   1
loop_
 _symmetry_equiv_pos_site_id
 _symmetry_equiv_pos_as_xyz
  1  'x, y, z'
loop_
 _atom_site_type_symbol
 _atom_site_label
 _atom_site_symmetry_multiplicity
 _atom_site_fract_x
 _atom_site_fract_y
 _atom_site_fract_z
 _atom_site_occupancy
  La  La0  1  0.56481800  0.02332800  0.24852700  1
  La  La1  1  0.97667200  0.54149000  0.24852700  1
  La  La2  1  0.45851000  0.43518200  0.24852700  1
  La  La3  1  0.10215500  0.31038100  0.75104400  1
  La  La4  1  0.68961900  0.79177500  0.75104400  1
  La  La5  1  0.20822500  0.89784500  0.75104400  1
  Mg  Mg6  1  0.33333300  0.66666700  0.48609600  1
  Ge  Ge7  1  0.66666700  0.33333300  0.83204300  1
  Ge  Ge8  1  0.00000000  0.00000000  0.33407400  1
  S  S9  1  0.44100600  0.18672700  0.98313800  1
  S  S10  1  0.81327300  0.25427900  0.98313800  1
  S  S11  1  0.74572100  0.55899400  0.98313800  1
  S  S12  1  0.22561800  0.14612200  0.48456400  1
  S  S13  1  0.85387800  0.07949600  0.48456400  1
  S  S14  1  0.92050400  0.77438200  0.48456400  1
  S  S15  1  0.66666700  0.33333300  0.45601000  1
  S  S16  1  0.00000000  0.00000000  0.95726200  1
  S  S17  1  0.49150400  0.91128600  0.72494000  1
  S  S18  1  0.08871400  0.58021700  0.72494000  1
  S  S19  1  0.41978300  0.50849600  0.72494000  1
  S  S20  1  0.17374600  0.42250600  0.24525800  1
  S  S21  1  0.57749400  0.75123900  0.24525800  1
  S  S22  1  0.24876100  0.82625400  0.24525800  1
