# generated using pymatgen
data_KAs3(PbO3)4
_symmetry_space_group_name_H-M   'P 1'
_cell_length_a   10.33036703
_cell_length_b   10.33036703
_cell_length_c   7.52598200
_cell_angle_alpha   90.00000000
_cell_angle_beta   90.00000000
_cell_angle_gamma   119.99999380
_symmetry_Int_Tables_number   1
_chemical_formula_structural   KAs3(PbO3)4
_chemical_formula_sum   'K2 As6 Pb8 O24'
_cell_volume   695.54516838
_cell_formula_units_Z   2
loop_
 _symmetry_equiv_pos_site_id
 _symmetry_equiv_pos_as_xyz
  1  'x, y, z'
loop_
 _atom_site_type_symbol
 _atom_site_label
 _atom_site_symmetry_multiplicity
 _atom_site_fract_x
 _atom_site_fract_y
 _atom_site_fract_z
 _atom_site_occupancy
  K  K0  1  0.66666700  0.33333300  0.48445900  1
  K  K1  1  0.33333300  0.66666700  0.98445900  1
  As  As2  1  0.98368400  0.37429800  0.25375100  1
  As  As3  1  0.39061400  0.01631600  0.25375100  1
  As  As4  1  0.62570200  0.60938600  0.25375100  1
  As  As5  1  0.01631600  0.62570200  0.75375100  1
  As  As6  1  0.60938600  0.98368400  0.75375100  1
  As  As7  1  0.37429800  0.39061400  0.75375100  1
  Pb  Pb8  1  0.73975600  0.74000500  0.74986600  1
  Pb  Pb9  1  0.00024900  0.26024400  0.74986600  1
  Pb  Pb10  1  0.25999500  0.99975100  0.74986600  1
  Pb  Pb11  1  0.26024400  0.25999500  0.24986600  1
  Pb  Pb12  1  0.99975100  0.73975600  0.24986600  1
  Pb  Pb13  1  0.74000500  0.00024900  0.24986600  1
  Pb  Pb14  1  0.33333300  0.66666700  0.48293200  1
  Pb  Pb15  1  0.66666700  0.33333300  0.98293200  1
  O  O16  1  0.30404900  0.82480100  0.26041600  1
  O  O17  1  0.52075100  0.69595100  0.26041600  1
  O  O18  1  0.17519900  0.47924900  0.26041600  1
  O  O19  1  0.69595100  0.17519900  0.76041600  1
  O  O20  1  0.47924900  0.30404900  0.76041600  1
  O  O21  1  0.82480100  0.52075100  0.76041600  1
  O  O22  1  0.65931600  0.91187900  0.93062000  1
  O  O23  1  0.25256300  0.34068400  0.93062000  1
  O  O24  1  0.08812100  0.74743700  0.93062000  1
  O  O25  1  0.34068400  0.08812100  0.43062000  1
  O  O26  1  0.74743700  0.65931600  0.43062000  1
  O  O27  1  0.91187900  0.25256300  0.43062000  1
  O  O28  1  0.34478600  0.08505500  0.06968400  1
  O  O29  1  0.74026900  0.65521400  0.06968400  1
  O  O30  1  0.91494500  0.25973100  0.06968400  1
  O  O31  1  0.65521400  0.91494500  0.56968400  1
  O  O32  1  0.25973100  0.34478600  0.56968400  1
  O  O33  1  0.08505500  0.74026900  0.56968400  1
  O  O34  1  0.90360800  0.48755900  0.24653500  1
  O  O35  1  0.58395200  0.09639200  0.24653500  1
  O  O36  1  0.51244100  0.41604800  0.24653500  1
  O  O37  1  0.09639200  0.51244100  0.74653500  1
  O  O38  1  0.41604800  0.90360800  0.74653500  1
  O  O39  1  0.48755900  0.58395200  0.74653500  1
