# generated using pymatgen
data_KInBP2HO9
_symmetry_space_group_name_H-M   'P 1'
_cell_length_a   5.35194300
_cell_length_b   8.36161414
_cell_length_c   8.53586434
_cell_angle_alpha   88.22213575
_cell_angle_beta   79.63886252
_cell_angle_gamma   87.29829851
_symmetry_Int_Tables_number   1
_chemical_formula_structural   KInBP2HO9
_chemical_formula_sum   'K2 In2 B2 P4 H2 O18'
_cell_volume   375.24215987
_cell_formula_units_Z   2
loop_
 _symmetry_equiv_pos_site_id
 _symmetry_equiv_pos_as_xyz
  1  'x, y, z'
loop_
 _atom_site_type_symbol
 _atom_site_label
 _atom_site_symmetry_multiplicity
 _atom_site_fract_x
 _atom_site_fract_y
 _atom_site_fract_z
 _atom_site_occupancy
  K  K0  1  0.28081100  0.17291200  0.88300900  1
  K  K1  1  0.71918900  0.82708800  0.11699100  1
  In  In2  1  0.27512600  0.69267300  0.80068600  1
  In  In3  1  0.72487400  0.30732700  0.19931400  1
  B  B4  1  0.10353300  0.76698900  0.44273300  1
  B  B5  1  0.89646700  0.23301100  0.55726700  1
  P  P6  1  0.21753100  0.56739200  0.18857900  1
  P  P7  1  0.78246900  0.43260800  0.81142100  1
  P  P8  1  0.80559200  0.92322800  0.69658800  1
  P  P9  1  0.19440800  0.07677200  0.30341200  1
  H  H10  1  0.38379500  0.60670800  0.48262700  1
  H  H11  1  0.61620500  0.39329200  0.51737300  1
  O  O12  1  0.25909700  0.69605000  0.05319500  1
  O  O13  1  0.74090300  0.30395000  0.94680500  1
  O  O14  1  0.27411600  0.68733200  0.54396200  1
  O  O15  1  0.72588400  0.31266800  0.45603800  1
  O  O16  1  0.02820200  0.91044800  0.78892500  1
  O  O17  1  0.97179800  0.08955200  0.21107500  1
  O  O18  1  0.55750600  0.87015500  0.79833900  1
  O  O19  1  0.44249400  0.12984500  0.20166100  1
  O  O20  1  0.91396000  0.57828000  0.85567600  1
  O  O21  1  0.08604000  0.42172000  0.14432400  1
  O  O22  1  0.86519700  0.82467400  0.54019900  1
  O  O23  1  0.13480300  0.17532600  0.45980100  1
  O  O24  1  0.03557200  0.64974000  0.33375500  1
  O  O25  1  0.96442800  0.35026000  0.66624500  1
  O  O26  1  0.75082100  0.10279200  0.64993000  1
  O  O27  1  0.24917900  0.89720800  0.35007000  1
  O  O28  1  0.47560600  0.52146000  0.24193100  1
  O  O29  1  0.52439400  0.47854000  0.75806900  1
