# generated using pymatgen
data_LaGeIr
_symmetry_space_group_name_H-M   'P 1'
_cell_length_a   7.87528658
_cell_length_b   7.87528658
_cell_length_c   7.87528658
_cell_angle_alpha   148.03926643
_cell_angle_beta   148.03926643
_cell_angle_gamma   45.82740403
_symmetry_Int_Tables_number   1
_chemical_formula_structural   LaGeIr
_chemical_formula_sum   'La2 Ge2 Ir2'
_cell_volume   136.39541037
_cell_formula_units_Z   2
loop_
 _symmetry_equiv_pos_site_id
 _symmetry_equiv_pos_as_xyz
  1  'x, y, z'
loop_
 _atom_site_type_symbol
 _atom_site_label
 _atom_site_symmetry_multiplicity
 _atom_site_fract_x
 _atom_site_fract_y
 _atom_site_fract_z
 _atom_site_occupancy
  La  La0  1  0.74868900  0.24868900  0.50000000  1
  La  La1  1  0.99868900  0.99868900  0.00000000  1
  Ge  Ge2  1  0.16518200  0.66518200  0.50000000  1
  Ge  Ge3  1  0.41518200  0.41518200  0.00000000  1
  Ir  Ir4  1  0.33412900  0.83412900  0.50000000  1
  Ir  Ir5  1  0.58412900  0.58412900  0.00000000  1
