# generated using pymatgen
data_Mg(BrO3)2
_symmetry_space_group_name_H-M   'P 1'
_cell_length_a   5.03664528
_cell_length_b   5.03664528
_cell_length_c   6.36287380
_cell_angle_alpha   88.47590693
_cell_angle_beta   88.47590693
_cell_angle_gamma   67.64587458
_symmetry_Int_Tables_number   1
_chemical_formula_structural   Mg(BrO3)2
_chemical_formula_sum   'Mg1 Br2 O6'
_cell_volume   149.20557482
_cell_formula_units_Z   1
loop_
 _symmetry_equiv_pos_site_id
 _symmetry_equiv_pos_as_xyz
  1  'x, y, z'
loop_
 _atom_site_type_symbol
 _atom_site_label
 _atom_site_symmetry_multiplicity
 _atom_site_fract_x
 _atom_site_fract_y
 _atom_site_fract_z
 _atom_site_occupancy
  Mg  Mg0  1  0.00000000  0.00000000  0.00000000  1
  Br  Br1  1  0.34816900  0.34816900  0.26827800  1
  Br  Br2  1  0.65183100  0.65183100  0.73172200  1
  O  O3  1  0.24128200  0.24128200  0.05047700  1
  O  O4  1  0.75871800  0.75871800  0.94952300  1
  O  O5  1  0.76792900  0.29191900  0.75483200  1
  O  O6  1  0.29191900  0.76792900  0.75483200  1
  O  O7  1  0.23207100  0.70808100  0.24516800  1
  O  O8  1  0.70808100  0.23207100  0.24516800  1
