# generated using pymatgen
data_Er5Ni2Bi
_symmetry_space_group_name_H-M   'P 1'
_cell_length_a   8.64513130
_cell_length_b   8.64513130
_cell_length_c   8.64513130
_cell_angle_alpha   128.01404106
_cell_angle_beta   128.01404106
_cell_angle_gamma   76.60228326
_symmetry_Int_Tables_number   1
_chemical_formula_structural   Er5Ni2Bi
_chemical_formula_sum   'Er10 Ni4 Bi2'
_cell_volume   389.56464190
_cell_formula_units_Z   2
loop_
 _symmetry_equiv_pos_site_id
 _symmetry_equiv_pos_as_xyz
  1  'x, y, z'
loop_
 _atom_site_type_symbol
 _atom_site_label
 _atom_site_symmetry_multiplicity
 _atom_site_fract_x
 _atom_site_fract_y
 _atom_site_fract_z
 _atom_site_occupancy
  Er  Er0  1  0.00000000  0.00000000  0.00000000  1
  Er  Er1  1  0.50000000  0.50000000  0.00000000  1
  Er  Er2  1  0.79110300  0.29110300  0.81478800  1
  Er  Er3  1  0.20889700  0.70889700  0.18521200  1
  Er  Er4  1  0.47631400  0.97631400  0.18521200  1
  Er  Er5  1  0.29110300  0.47631400  0.50000000  1
  Er  Er6  1  0.02368600  0.20889700  0.50000000  1
  Er  Er7  1  0.52368600  0.02368600  0.81478800  1
  Er  Er8  1  0.70889700  0.52368600  0.50000000  1
  Er  Er9  1  0.97631400  0.79110300  0.50000000  1
  Ni  Ni10  1  0.12868900  0.62868900  0.75737900  1
  Ni  Ni11  1  0.87131100  0.37131100  0.24262100  1
  Ni  Ni12  1  0.62868900  0.87131100  0.50000000  1
  Ni  Ni13  1  0.37131100  0.12868900  0.50000000  1
  Bi  Bi14  1  0.25000000  0.25000000  0.00000000  1
  Bi  Bi15  1  0.75000000  0.75000000  0.00000000  1
