# generated using pymatgen
data_RbTm(WO4)2
_symmetry_space_group_name_H-M   'P 1'
_cell_length_a   7.59733138
_cell_length_b   7.59733138
_cell_length_c   7.46164350
_cell_angle_alpha   62.34421037
_cell_angle_beta   62.34421037
_cell_angle_gamma   88.04907875
_symmetry_Int_Tables_number   1
_chemical_formula_structural   RbTm(WO4)2
_chemical_formula_sum   'Rb2 Tm2 W4 O16'
_cell_volume   328.73848163
_cell_formula_units_Z   2
loop_
 _symmetry_equiv_pos_site_id
 _symmetry_equiv_pos_as_xyz
  1  'x, y, z'
loop_
 _atom_site_type_symbol
 _atom_site_label
 _atom_site_symmetry_multiplicity
 _atom_site_fract_x
 _atom_site_fract_y
 _atom_site_fract_z
 _atom_site_occupancy
  Rb  Rb0  1  0.19976700  0.80023300  0.75000000  1
  Rb  Rb1  1  0.80023300  0.19976700  0.25000000  1
  Tm  Tm2  1  0.77686400  0.22313600  0.75000000  1
  Tm  Tm3  1  0.22313600  0.77686400  0.25000000  1
  W  W4  1  0.70145600  0.68945300  0.78607000  1
  W  W5  1  0.29854400  0.31054700  0.21393000  1
  W  W6  1  0.31054700  0.29854400  0.71393000  1
  W  W7  1  0.68945300  0.70145600  0.28607000  1
  O  O8  1  0.62176400  0.75346900  0.56056100  1
  O  O9  1  0.37823600  0.24653100  0.43943900  1
  O  O10  1  0.24653100  0.37823600  0.93943900  1
  O  O11  1  0.75346900  0.62176400  0.06056100  1
  O  O12  1  0.36623800  0.05501100  0.88030200  1
  O  O13  1  0.63376200  0.94498900  0.11969800  1
  O  O14  1  0.94498900  0.63376200  0.61969800  1
  O  O15  1  0.05501100  0.36623800  0.38030200  1
  O  O16  1  0.59414800  0.37090300  0.96293200  1
  O  O17  1  0.40585200  0.62909700  0.03706800  1
  O  O18  1  0.62909700  0.40585200  0.53706800  1
  O  O19  1  0.37090300  0.59414800  0.46293200  1
  O  O20  1  0.77932200  0.95783600  0.69435700  1
  O  O21  1  0.22067800  0.04216400  0.30564300  1
  O  O22  1  0.04216400  0.22067800  0.80564300  1
  O  O23  1  0.95783600  0.77932200  0.19435700  1
