# generated using pymatgen
data_RbNa8(GaAs2)3
_symmetry_space_group_name_H-M   'P 1'
_cell_length_a   23.10214900
_cell_length_b   4.85919700
_cell_length_c   17.05933300
_cell_angle_alpha   90.00000000
_cell_angle_beta   90.00000000
_cell_angle_gamma   90.00000000
_symmetry_Int_Tables_number   1
_chemical_formula_structural   RbNa8(GaAs2)3
_chemical_formula_sum   'Rb4 Na32 Ga12 As24'
_cell_volume   1915.04478052
_cell_formula_units_Z   4
loop_
 _symmetry_equiv_pos_site_id
 _symmetry_equiv_pos_as_xyz
  1  'x, y, z'
loop_
 _atom_site_type_symbol
 _atom_site_label
 _atom_site_symmetry_multiplicity
 _atom_site_fract_x
 _atom_site_fract_y
 _atom_site_fract_z
 _atom_site_occupancy
  Rb  Rb0  1  0.50246500  0.25000000  0.80873400  1
  Rb  Rb1  1  0.00246500  0.25000000  0.69126600  1
  Rb  Rb2  1  0.49753500  0.75000000  0.19126600  1
  Rb  Rb3  1  0.99753500  0.75000000  0.30873400  1
  Na  Na4  1  0.55212100  0.25000000  0.03257000  1
  Na  Na5  1  0.05212100  0.25000000  0.46743000  1
  Na  Na6  1  0.44787900  0.75000000  0.96743000  1
  Na  Na7  1  0.94787900  0.75000000  0.53257000  1
  Na  Na8  1  0.55720900  0.25000000  0.35120000  1
  Na  Na9  1  0.05720900  0.25000000  0.14880000  1
  Na  Na10  1  0.44279100  0.75000000  0.64880000  1
  Na  Na11  1  0.94279100  0.75000000  0.85120000  1
  Na  Na12  1  0.67925200  0.25000000  0.92074900  1
  Na  Na13  1  0.17925200  0.25000000  0.57925100  1
  Na  Na14  1  0.32074800  0.75000000  0.07925100  1
  Na  Na15  1  0.82074800  0.75000000  0.42074900  1
  Na  Na16  1  0.68153400  0.25000000  0.69225700  1
  Na  Na17  1  0.18153400  0.25000000  0.80774300  1
  Na  Na18  1  0.31846600  0.75000000  0.30774300  1
  Na  Na19  1  0.81846600  0.75000000  0.19225700  1
  Na  Na20  1  0.69063000  0.25000000  0.45796000  1
  Na  Na21  1  0.19063000  0.25000000  0.04204000  1
  Na  Na22  1  0.30937000  0.75000000  0.54204000  1
  Na  Na23  1  0.80937000  0.75000000  0.95796000  1
  Na  Na24  1  0.83732200  0.25000000  0.79862200  1
  Na  Na25  1  0.33732200  0.25000000  0.70137800  1
  Na  Na26  1  0.16267800  0.75000000  0.20137800  1
  Na  Na27  1  0.66267800  0.75000000  0.29862200  1
  Na  Na28  1  0.84103500  0.25000000  0.58166600  1
  Na  Na29  1  0.34103500  0.25000000  0.91833400  1
  Na  Na30  1  0.15896500  0.75000000  0.41833400  1
  Na  Na31  1  0.65896500  0.75000000  0.08166600  1
  Na  Na32  1  0.04077500  0.25000000  0.94478900  1
  Na  Na33  1  0.54077500  0.25000000  0.55521100  1
  Na  Na34  1  0.95922500  0.75000000  0.05521100  1
  Na  Na35  1  0.45922500  0.75000000  0.44478900  1
  Ga  Ga36  1  0.71546200  0.25000000  0.19084300  1
  Ga  Ga37  1  0.21546200  0.25000000  0.30915700  1
  Ga  Ga38  1  0.28453800  0.75000000  0.80915700  1
  Ga  Ga39  1  0.78453800  0.75000000  0.69084300  1
  Ga  Ga40  1  0.86405400  0.25000000  0.06935400  1
  Ga  Ga41  1  0.36405400  0.25000000  0.43064600  1
  Ga  Ga42  1  0.13594600  0.75000000  0.93064600  1
  Ga  Ga43  1  0.63594600  0.75000000  0.56935400  1
  Ga  Ga44  1  0.87234500  0.25000000  0.30926500  1
  Ga  Ga45  1  0.37234500  0.25000000  0.19073500  1
  Ga  Ga46  1  0.12765500  0.75000000  0.69073500  1
  Ga  Ga47  1  0.62765500  0.75000000  0.80926500  1
  As  As48  1  0.61298300  0.25000000  0.19191100  1
  As  As49  1  0.11298300  0.25000000  0.30809000  1
  As  As50  1  0.38701700  0.75000000  0.80809000  1
  As  As51  1  0.88701700  0.75000000  0.69191000  1
  As  As52  1  0.75965800  0.25000000  0.06210200  1
  As  As53  1  0.25965800  0.25000000  0.43789800  1
  As  As54  1  0.24034200  0.75000000  0.93789800  1
  As  As55  1  0.74034200  0.75000000  0.56210200  1
  As  As56  1  0.76661800  0.25000000  0.31537600  1
  As  As57  1  0.26661800  0.25000000  0.18462400  1
  As  As58  1  0.23338200  0.75000000  0.68462400  1
  As  As59  1  0.73338200  0.75000000  0.81537600  1
  As  As60  1  0.91060600  0.25000000  0.94437500  1
  As  As61  1  0.41060600  0.25000000  0.55562500  1
  As  As62  1  0.08939400  0.75000000  0.05562500  1
  As  As63  1  0.58939400  0.75000000  0.44437500  1
  As  As64  1  0.91707700  0.25000000  0.43564400  1
  As  As65  1  0.41707700  0.25000000  0.06435600  1
  As  As66  1  0.08292300  0.75000000  0.56435600  1
  As  As67  1  0.58292300  0.75000000  0.93564400  1
  As  As68  1  0.92531300  0.25000000  0.18453900  1
  As  As69  1  0.42531300  0.25000000  0.31546100  1
  As  As70  1  0.07468700  0.75000000  0.81546100  1
  As  As71  1  0.57468700  0.75000000  0.68453900  1
