# generated using pymatgen
data_As2Se3
_symmetry_space_group_name_H-M   'P 1'
_cell_length_a   7.33039488
_cell_length_b   7.33039488
_cell_length_c   9.62513792
_cell_angle_alpha   85.48173876
_cell_angle_beta   85.48173876
_cell_angle_gamma   29.87627943
_symmetry_Int_Tables_number   1
_chemical_formula_structural   As2Se3
_chemical_formula_sum   'As4 Se6'
_cell_volume   256.77636555
_cell_formula_units_Z   2
loop_
 _symmetry_equiv_pos_site_id
 _symmetry_equiv_pos_as_xyz
  1  'x, y, z'
loop_
 _atom_site_type_symbol
 _atom_site_label
 _atom_site_symmetry_multiplicity
 _atom_site_fract_x
 _atom_site_fract_y
 _atom_site_fract_z
 _atom_site_occupancy
  As  As0  1  0.20493700  0.20493700  0.86119600  1
  As  As1  1  0.79506300  0.79506300  0.13880400  1
  As  As2  1  0.62025800  0.62025800  0.56526100  1
  As  As3  1  0.37974200  0.37974200  0.43473900  1
  Se  Se4  1  0.04025500  0.04025500  0.70942100  1
  Se  Se5  1  0.95974500  0.95974500  0.29057900  1
  Se  Se6  1  0.77372300  0.77372300  0.66507900  1
  Se  Se7  1  0.22627700  0.22627700  0.33492100  1
  Se  Se8  1  0.36560000  0.36560000  0.96933300  1
  Se  Se9  1  0.63440000  0.63440000  0.03066700  1
