# generated using pymatgen
data_UCoC2
_symmetry_space_group_name_H-M   'P 1'
_cell_length_a   3.47635000
_cell_length_b   3.47635000
_cell_length_c   7.26855600
_cell_angle_alpha   90.00000000
_cell_angle_beta   90.00000000
_cell_angle_gamma   90.00000000
_symmetry_Int_Tables_number   1
_chemical_formula_structural   UCoC2
_chemical_formula_sum   'U2 Co2 C4'
_cell_volume   87.84056702
_cell_formula_units_Z   2
loop_
 _symmetry_equiv_pos_site_id
 _symmetry_equiv_pos_as_xyz
  1  'x, y, z'
loop_
 _atom_site_type_symbol
 _atom_site_label
 _atom_site_symmetry_multiplicity
 _atom_site_fract_x
 _atom_site_fract_y
 _atom_site_fract_z
 _atom_site_occupancy
  U  U0  1  0.00000000  0.50000000  0.31936500  1
  U  U1  1  0.50000000  0.00000000  0.68063500  1
  Co  Co2  1  0.50000000  0.50000000  0.00000000  1
  Co  Co3  1  0.00000000  0.00000000  0.00000000  1
  C  C4  1  0.00000000  0.50000000  0.84280500  1
  C  C5  1  0.50000000  0.00000000  0.15719500  1
  C  C6  1  0.00000000  0.50000000  0.64095000  1
  C  C7  1  0.50000000  0.00000000  0.35905000  1
