# generated using pymatgen
data_YbZnPb
_symmetry_space_group_name_H-M   'P 1'
_cell_length_a   4.75571971
_cell_length_b   4.75571971
_cell_length_c   7.57824000
_cell_angle_alpha   90.00000000
_cell_angle_beta   90.00000000
_cell_angle_gamma   119.99999598
_symmetry_Int_Tables_number   1
_chemical_formula_structural   YbZnPb
_chemical_formula_sum   'Yb2 Zn2 Pb2'
_cell_volume   148.43335561
_cell_formula_units_Z   2
loop_
 _symmetry_equiv_pos_site_id
 _symmetry_equiv_pos_as_xyz
  1  'x, y, z'
loop_
 _atom_site_type_symbol
 _atom_site_label
 _atom_site_symmetry_multiplicity
 _atom_site_fract_x
 _atom_site_fract_y
 _atom_site_fract_z
 _atom_site_occupancy
  Yb  Yb0  1  0.00000000  0.00000000  0.25766200  1
  Yb  Yb1  1  0.00000000  0.00000000  0.75766200  1
  Zn  Zn2  1  0.33333300  0.66666700  0.44147400  1
  Zn  Zn3  1  0.66666700  0.33333300  0.94147400  1
  Pb  Pb4  1  0.33333300  0.66666700  0.04186400  1
  Pb  Pb5  1  0.66666700  0.33333300  0.54186400  1
