# generated using pymatgen
data_ZnSe2
_symmetry_space_group_name_H-M   'P 1'
_cell_length_a   6.37412900
_cell_length_b   6.37412900
_cell_length_c   6.37412900
_cell_angle_alpha   90.00000000
_cell_angle_beta   90.00000000
_cell_angle_gamma   90.00000000
_symmetry_Int_Tables_number   1
_chemical_formula_structural   ZnSe2
_chemical_formula_sum   'Zn4 Se8'
_cell_volume   258.97780493
_cell_formula_units_Z   4
loop_
 _symmetry_equiv_pos_site_id
 _symmetry_equiv_pos_as_xyz
  1  'x, y, z'
loop_
 _atom_site_type_symbol
 _atom_site_label
 _atom_site_symmetry_multiplicity
 _atom_site_fract_x
 _atom_site_fract_y
 _atom_site_fract_z
 _atom_site_occupancy
  Zn  Zn0  1  0.50000000  0.50000000  0.00000000  1
  Zn  Zn1  1  0.50000000  0.00000000  0.50000000  1
  Zn  Zn2  1  0.00000000  0.50000000  0.50000000  1
  Zn  Zn3  1  0.00000000  0.00000000  0.00000000  1
  Se  Se4  1  0.10852300  0.89147700  0.39147700  1
  Se  Se5  1  0.89147700  0.39147700  0.10852300  1
  Se  Se6  1  0.39147700  0.10852300  0.89147700  1
  Se  Se7  1  0.60852300  0.60852300  0.60852300  1
  Se  Se8  1  0.89147700  0.10852300  0.60852300  1
  Se  Se9  1  0.10852300  0.60852300  0.89147700  1
  Se  Se10  1  0.60852300  0.89147700  0.10852300  1
  Se  Se11  1  0.39147700  0.39147700  0.39147700  1
