# generated using pymatgen
data_TmCo5P3
_symmetry_space_group_name_H-M   'P 1'
_cell_length_a   3.62933500
_cell_length_b   10.26026200
_cell_length_c   11.69013900
_cell_angle_alpha   90.00000000
_cell_angle_beta   90.00000000
_cell_angle_gamma   90.00000000
_symmetry_Int_Tables_number   1
_chemical_formula_structural   TmCo5P3
_chemical_formula_sum   'Tm4 Co20 P12'
_cell_volume   435.31655423
_cell_formula_units_Z   4
loop_
 _symmetry_equiv_pos_site_id
 _symmetry_equiv_pos_as_xyz
  1  'x, y, z'
loop_
 _atom_site_type_symbol
 _atom_site_label
 _atom_site_symmetry_multiplicity
 _atom_site_fract_x
 _atom_site_fract_y
 _atom_site_fract_z
 _atom_site_occupancy
  Tm  Tm0  1  0.25000000  0.58287200  0.70300600  1
  Tm  Tm1  1  0.25000000  0.91712800  0.20300600  1
  Tm  Tm2  1  0.75000000  0.41712800  0.29699400  1
  Tm  Tm3  1  0.75000000  0.08287200  0.79699400  1
  Co  Co4  1  0.25000000  0.71668700  0.99038800  1
  Co  Co5  1  0.25000000  0.78331300  0.49038800  1
  Co  Co6  1  0.75000000  0.28331300  0.00961200  1
  Co  Co7  1  0.75000000  0.21668700  0.50961200  1
  Co  Co8  1  0.25000000  0.40699000  0.48696400  1
  Co  Co9  1  0.25000000  0.09301000  0.98696400  1
  Co  Co10  1  0.75000000  0.59301000  0.51303600  1
  Co  Co11  1  0.75000000  0.90699000  0.01303600  1
  Co  Co12  1  0.25000000  0.22092400  0.17647600  1
  Co  Co13  1  0.25000000  0.27907600  0.67647600  1
  Co  Co14  1  0.75000000  0.77907600  0.82352400  1
  Co  Co15  1  0.75000000  0.72092400  0.32352400  1
  Co  Co16  1  0.25000000  0.88279900  0.69850700  1
  Co  Co17  1  0.25000000  0.61720100  0.19850700  1
  Co  Co18  1  0.75000000  0.11720100  0.30149300  1
  Co  Co19  1  0.75000000  0.38279900  0.80149300  1
  Co  Co20  1  0.25000000  0.46738500  0.93134300  1
  Co  Co21  1  0.25000000  0.03261500  0.43134300  1
  Co  Co22  1  0.75000000  0.53261500  0.06865700  1
  Co  Co23  1  0.75000000  0.96738500  0.56865700  1
  P  P24  1  0.25000000  0.41815800  0.11252700  1
  P  P25  1  0.25000000  0.08184200  0.61252700  1
  P  P26  1  0.75000000  0.58184200  0.88747300  1
  P  P27  1  0.75000000  0.91815800  0.38747300  1
  P  P28  1  0.25000000  0.26930300  0.87001200  1
  P  P29  1  0.25000000  0.23069700  0.37001200  1
  P  P30  1  0.75000000  0.73069700  0.12998800  1
  P  P31  1  0.75000000  0.76930300  0.62998800  1
  P  P32  1  0.25000000  0.60082900  0.39044900  1
  P  P33  1  0.25000000  0.89917100  0.89044900  1
  P  P34  1  0.75000000  0.39917100  0.60955100  1
  P  P35  1  0.75000000  0.10082900  0.10955100  1
