# generated using pymatgen
data_BaMn9V6(HO13)2
_symmetry_space_group_name_H-M   'P 1'
_cell_length_a   13.02619170
_cell_length_b   13.02619170
_cell_length_c   13.02619170
_cell_angle_alpha   90.00000000
_cell_angle_beta   90.00000000
_cell_angle_gamma   90.00000000
_symmetry_Int_Tables_number   1
_chemical_formula_structural   BaMn9V6(HO13)2
_chemical_formula_sum   'Ba4 Mn36 V24 H8 O104'
_cell_volume   2210.30596407
_cell_formula_units_Z   4
loop_
 _symmetry_equiv_pos_site_id
 _symmetry_equiv_pos_as_xyz
  1  'x, y, z'
loop_
 _atom_site_type_symbol
 _atom_site_label
 _atom_site_symmetry_multiplicity
 _atom_site_fract_x
 _atom_site_fract_y
 _atom_site_fract_z
 _atom_site_occupancy
  Ba  Ba0  1  0.50000000  0.00000000  0.00000000  1
  Ba  Ba1  1  0.50000000  0.50000000  0.50000000  1
  Ba  Ba2  1  0.00000000  0.00000000  0.50000000  1
  Ba  Ba3  1  0.00000000  0.50000000  0.00000000  1
  Mn  Mn4  1  0.17531423  0.82468577  0.32468577  1
  Mn  Mn5  1  0.82468577  0.32468577  0.17531423  1
  Mn  Mn6  1  0.32468577  0.17531423  0.82468577  1
  Mn  Mn7  1  0.67531423  0.67531423  0.67531423  1
  Mn  Mn8  1  0.82468577  0.17531423  0.67531423  1
  Mn  Mn9  1  0.17531423  0.67531423  0.82468577  1
  Mn  Mn10  1  0.67531423  0.82468577  0.17531423  1
  Mn  Mn11  1  0.32468577  0.32468577  0.32468577  1
  Mn  Mn12  1  0.00000000  0.00000000  0.00000000  1
  Mn  Mn13  1  0.00000000  0.50000000  0.50000000  1
  Mn  Mn14  1  0.50000000  0.00000000  0.50000000  1
  Mn  Mn15  1  0.50000000  0.50000000  0.00000000  1
  Mn  Mn16  1  0.19451901  0.99410806  0.15970410  1
  Mn  Mn17  1  0.80548099  0.49410806  0.34029590  1
  Mn  Mn18  1  0.30548099  0.00589194  0.65970410  1
  Mn  Mn19  1  0.69451901  0.50589194  0.84029590  1
  Mn  Mn20  1  0.15970410  0.19451901  0.99410806  1
  Mn  Mn21  1  0.34029590  0.80548099  0.49410806  1
  Mn  Mn22  1  0.65970410  0.30548099  0.00589194  1
  Mn  Mn23  1  0.84029590  0.69451901  0.50589194  1
  Mn  Mn24  1  0.99410806  0.15970410  0.19451901  1
  Mn  Mn25  1  0.49410806  0.34029590  0.80548099  1
  Mn  Mn26  1  0.00589194  0.65970410  0.30548099  1
  Mn  Mn27  1  0.50589194  0.84029590  0.69451901  1
  Mn  Mn28  1  0.80548099  0.00589194  0.84029590  1
  Mn  Mn29  1  0.19451901  0.50589194  0.65970410  1
  Mn  Mn30  1  0.69451901  0.99410806  0.34029590  1
  Mn  Mn31  1  0.30548099  0.49410806  0.15970410  1
  Mn  Mn32  1  0.84029590  0.80548099  0.00589194  1
  Mn  Mn33  1  0.65970410  0.19451901  0.50589194  1
  Mn  Mn34  1  0.34029590  0.69451901  0.99410806  1
  Mn  Mn35  1  0.15970410  0.30548099  0.49410806  1
  Mn  Mn36  1  0.00589194  0.84029590  0.80548099  1
  Mn  Mn37  1  0.50589194  0.65970410  0.19451901  1
  Mn  Mn38  1  0.99410806  0.34029590  0.69451901  1
  Mn  Mn39  1  0.49410806  0.15970410  0.30548099  1
  V  V40  1  0.42734027  0.90755906  0.25455569  1
  V  V41  1  0.57265973  0.40755906  0.24544431  1
  V  V42  1  0.07265973  0.09244094  0.75455569  1
  V  V43  1  0.92734027  0.59244094  0.74544431  1
  V  V44  1  0.25455569  0.42734027  0.90755906  1
  V  V45  1  0.24544431  0.57265973  0.40755906  1
  V  V46  1  0.75455569  0.07265973  0.09244094  1
  V  V47  1  0.74544431  0.92734027  0.59244094  1
  V  V48  1  0.90755906  0.25455569  0.42734027  1
  V  V49  1  0.40755906  0.24544431  0.57265973  1
  V  V50  1  0.09244094  0.75455569  0.07265973  1
  V  V51  1  0.59244094  0.74544431  0.92734027  1
  V  V52  1  0.57265973  0.09244094  0.74544431  1
  V  V53  1  0.42734027  0.59244094  0.75455569  1
  V  V54  1  0.92734027  0.90755906  0.24544431  1
  V  V55  1  0.07265973  0.40755906  0.25455569  1
  V  V56  1  0.74544431  0.57265973  0.09244094  1
  V  V57  1  0.75455569  0.42734027  0.59244094  1
  V  V58  1  0.24544431  0.92734027  0.90755906  1
  V  V59  1  0.25455569  0.07265973  0.40755906  1
  V  V60  1  0.09244094  0.74544431  0.57265973  1
  V  V61  1  0.59244094  0.75455569  0.42734027  1
  V  V62  1  0.90755906  0.24544431  0.92734027  1
  V  V63  1  0.40755906  0.25455569  0.07265973  1
  H  H64  1  0.19763920  0.19763920  0.19763920  1
  H  H65  1  0.80236080  0.69763920  0.30236080  1
  H  H66  1  0.30236080  0.80236080  0.69763920  1
  H  H67  1  0.69763920  0.30236080  0.80236080  1
  H  H68  1  0.80236080  0.80236080  0.80236080  1
  H  H69  1  0.19763920  0.30236080  0.69763920  1
  H  H70  1  0.69763920  0.19763920  0.30236080  1
  H  H71  1  0.30236080  0.69763920  0.19763920  1
  O  O72  1  0.35697689  0.97946613  0.16992441  1
  O  O73  1  0.64302311  0.47946613  0.33007559  1
  O  O74  1  0.14302311  0.02053387  0.66992441  1
  O  O75  1  0.85697689  0.52053387  0.83007559  1
  O  O76  1  0.16992441  0.35697689  0.97946613  1
  O  O77  1  0.33007559  0.64302311  0.47946613  1
  O  O78  1  0.66992441  0.14302311  0.02053387  1
  O  O79  1  0.83007559  0.85697689  0.52053387  1
  O  O80  1  0.97946613  0.16992441  0.35697689  1
  O  O81  1  0.47946613  0.33007559  0.64302311  1
  O  O82  1  0.02053387  0.66992441  0.14302311  1
  O  O83  1  0.52053387  0.83007559  0.85697689  1
  O  O84  1  0.64302311  0.02053387  0.83007559  1
  O  O85  1  0.35697689  0.52053387  0.66992441  1
  O  O86  1  0.85697689  0.97946613  0.33007559  1
  O  O87  1  0.14302311  0.47946613  0.16992441  1
  O  O88  1  0.83007559  0.64302311  0.02053387  1
  O  O89  1  0.66992441  0.35697689  0.52053387  1
  O  O90  1  0.33007559  0.85697689  0.97946613  1
  O  O91  1  0.16992441  0.14302311  0.47946613  1
  O  O92  1  0.02053387  0.83007559  0.64302311  1
  O  O93  1  0.52053387  0.66992441  0.35697689  1
  O  O94  1  0.97946613  0.33007559  0.85697689  1
  O  O95  1  0.47946613  0.16992441  0.14302311  1
  O  O96  1  0.17975244  0.99081557  0.32972924  1
  O  O97  1  0.82024756  0.49081557  0.17027076  1
  O  O98  1  0.32024756  0.00918443  0.82972924  1
  O  O99  1  0.67975244  0.50918443  0.67027076  1
  O  O100  1  0.32972924  0.17975244  0.99081557  1
  O  O101  1  0.17027076  0.82024756  0.49081557  1
  O  O102  1  0.82972924  0.32024756  0.00918443  1
  O  O103  1  0.67027076  0.67975244  0.50918443  1
  O  O104  1  0.99081557  0.32972924  0.17975244  1
  O  O105  1  0.49081557  0.17027076  0.82024756  1
  O  O106  1  0.00918443  0.82972924  0.32024756  1
  O  O107  1  0.50918443  0.67027076  0.67975244  1
  O  O108  1  0.82024756  0.00918443  0.67027076  1
  O  O109  1  0.17975244  0.50918443  0.82972924  1
  O  O110  1  0.67975244  0.99081557  0.17027076  1
  O  O111  1  0.32024756  0.49081557  0.32972924  1
  O  O112  1  0.67027076  0.82024756  0.00918443  1
  O  O113  1  0.82972924  0.17975244  0.50918443  1
  O  O114  1  0.17027076  0.67975244  0.99081557  1
  O  O115  1  0.32972924  0.32024756  0.49081557  1
  O  O116  1  0.00918443  0.67027076  0.82024756  1
  O  O117  1  0.50918443  0.82972924  0.17975244  1
  O  O118  1  0.99081557  0.17027076  0.67975244  1
  O  O119  1  0.49081557  0.32972924  0.32024756  1
  O  O120  1  0.16834504  0.00263126  0.99385446  1
  O  O121  1  0.83165496  0.50263126  0.50614554  1
  O  O122  1  0.33165496  0.99736874  0.49385446  1
  O  O123  1  0.66834504  0.49736874  0.00614554  1
  O  O124  1  0.99385446  0.16834504  0.00263126  1
  O  O125  1  0.50614554  0.83165496  0.50263126  1
  O  O126  1  0.49385446  0.33165496  0.99736874  1
  O  O127  1  0.00614554  0.66834504  0.49736874  1
  O  O128  1  0.00263126  0.99385446  0.16834504  1
  O  O129  1  0.50263126  0.50614554  0.83165496  1
  O  O130  1  0.99736874  0.49385446  0.33165496  1
  O  O131  1  0.49736874  0.00614554  0.66834504  1
  O  O132  1  0.83165496  0.99736874  0.00614554  1
  O  O133  1  0.16834504  0.49736874  0.49385446  1
  O  O134  1  0.66834504  0.00263126  0.50614554  1
  O  O135  1  0.33165496  0.50263126  0.99385446  1
  O  O136  1  0.00614554  0.83165496  0.99736874  1
  O  O137  1  0.49385446  0.16834504  0.49736874  1
  O  O138  1  0.50614554  0.66834504  0.00263126  1
  O  O139  1  0.99385446  0.33165496  0.50263126  1
  O  O140  1  0.99736874  0.00614554  0.83165496  1
  O  O141  1  0.49736874  0.49385446  0.16834504  1
  O  O142  1  0.00263126  0.50614554  0.66834504  1
  O  O143  1  0.50263126  0.99385446  0.33165496  1
  O  O144  1  0.16673288  0.82852906  0.15734301  1
  O  O145  1  0.83326712  0.32852906  0.34265699  1
  O  O146  1  0.33326712  0.17147094  0.65734301  1
  O  O147  1  0.66673288  0.67147094  0.84265699  1
  O  O148  1  0.15734301  0.16673288  0.82852906  1
  O  O149  1  0.34265699  0.83326712  0.32852906  1
  O  O150  1  0.65734301  0.33326712  0.17147094  1
  O  O151  1  0.84265699  0.66673288  0.67147094  1
  O  O152  1  0.82852906  0.15734301  0.16673288  1
  O  O153  1  0.32852906  0.34265699  0.83326712  1
  O  O154  1  0.17147094  0.65734301  0.33326712  1
  O  O155  1  0.67147094  0.84265699  0.66673288  1
  O  O156  1  0.83326712  0.17147094  0.84265699  1
  O  O157  1  0.16673288  0.67147094  0.65734301  1
  O  O158  1  0.66673288  0.82852906  0.34265699  1
  O  O159  1  0.33326712  0.32852906  0.15734301  1
  O  O160  1  0.84265699  0.83326712  0.17147094  1
  O  O161  1  0.65734301  0.16673288  0.67147094  1
  O  O162  1  0.34265699  0.66673288  0.82852906  1
  O  O163  1  0.15734301  0.33326712  0.32852906  1
  O  O164  1  0.17147094  0.84265699  0.83326712  1
  O  O165  1  0.67147094  0.65734301  0.16673288  1
  O  O166  1  0.82852906  0.34265699  0.66673288  1
  O  O167  1  0.32852906  0.15734301  0.33326712  1
  O  O168  1  0.15433746  0.15433746  0.15433746  1
  O  O169  1  0.84566254  0.65433746  0.34566254  1
  O  O170  1  0.34566254  0.84566254  0.65433746  1
  O  O171  1  0.65433746  0.34566254  0.84566254  1
  O  O172  1  0.84566254  0.84566254  0.84566254  1
  O  O173  1  0.15433746  0.34566254  0.65433746  1
  O  O174  1  0.65433746  0.15433746  0.34566254  1
  O  O175  1  0.34566254  0.65433746  0.15433746  1
