# generated using pymatgen
data_CaAu
_symmetry_space_group_name_H-M   'P 1'
_cell_length_a   5.89448390
_cell_length_b   5.89448390
_cell_length_c   4.66705600
_cell_angle_alpha   90.00000000
_cell_angle_beta   90.00000000
_cell_angle_gamma   140.10967402
_symmetry_Int_Tables_number   1
_chemical_formula_structural   CaAu
_chemical_formula_sum   'Ca2 Au2'
_cell_volume   103.99427437
_cell_formula_units_Z   2
loop_
 _symmetry_equiv_pos_site_id
 _symmetry_equiv_pos_as_xyz
  1  'x, y, z'
loop_
 _atom_site_type_symbol
 _atom_site_label
 _atom_site_symmetry_multiplicity
 _atom_site_fract_x
 _atom_site_fract_y
 _atom_site_fract_z
 _atom_site_occupancy
  Ca  Ca0  1  0.13937800  0.86062200  0.75000000  1
  Ca  Ca1  1  0.86062200  0.13937800  0.25000000  1
  Au  Au2  1  0.41905900  0.58094100  0.75000000  1
  Au  Au3  1  0.58094100  0.41905900  0.25000000  1
