# generated using pymatgen
data_Cs2Mo3O10
_symmetry_space_group_name_H-M   'P 1'
_cell_length_a   8.58922957
_cell_length_b   8.58922957
_cell_length_c   9.71100612
_cell_angle_alpha   83.46252179
_cell_angle_beta   83.46252179
_cell_angle_gamma   60.43194361
_symmetry_Int_Tables_number   1
_chemical_formula_structural   Cs2Mo3O10
_chemical_formula_sum   'Cs4 Mo6 O20'
_cell_volume   617.69570550
_cell_formula_units_Z   2
loop_
 _symmetry_equiv_pos_site_id
 _symmetry_equiv_pos_as_xyz
  1  'x, y, z'
loop_
 _atom_site_type_symbol
 _atom_site_label
 _atom_site_symmetry_multiplicity
 _atom_site_fract_x
 _atom_site_fract_y
 _atom_site_fract_z
 _atom_site_occupancy
  Cs  Cs0  1  0.24337300  0.40054900  0.66030000  1
  Cs  Cs1  1  0.59945100  0.75662700  0.83970000  1
  Cs  Cs2  1  0.75662700  0.59945100  0.33970000  1
  Cs  Cs3  1  0.40054900  0.24337300  0.16030000  1
  Mo  Mo4  1  0.73143300  0.26856700  0.75000000  1
  Mo  Mo5  1  0.26856700  0.73143300  0.25000000  1
  Mo  Mo6  1  0.03479300  0.17304400  0.97447600  1
  Mo  Mo7  1  0.82695600  0.96520700  0.52552400  1
  Mo  Mo8  1  0.96520700  0.82695600  0.02552400  1
  Mo  Mo9  1  0.17304400  0.03479300  0.47447600  1
  O  O10  1  0.65023300  0.44369400  0.62172800  1
  O  O11  1  0.55630600  0.34976700  0.87827200  1
  O  O12  1  0.34976700  0.55630600  0.37827200  1
  O  O13  1  0.44369400  0.65023300  0.12172800  1
  O  O14  1  0.90623300  0.32686200  0.81570600  1
  O  O15  1  0.67313800  0.09376700  0.68429400  1
  O  O16  1  0.09376700  0.67313800  0.18429400  1
  O  O17  1  0.32686200  0.90623300  0.31570600  1
  O  O18  1  0.90595500  0.04741600  0.90502400  1
  O  O19  1  0.95258400  0.09404500  0.59497600  1
  O  O20  1  0.09404500  0.95258400  0.09497600  1
  O  O21  1  0.04741600  0.90595500  0.40502400  1
  O  O22  1  0.95073800  0.32730700  0.10162300  1
  O  O23  1  0.67269300  0.04926200  0.39837700  1
  O  O24  1  0.04926200  0.67269300  0.89837700  1
  O  O25  1  0.32730700  0.95073800  0.60162300  1
  O  O26  1  0.25296500  0.13242500  0.92152800  1
  O  O27  1  0.86757500  0.74703500  0.57847200  1
  O  O28  1  0.74703500  0.86757500  0.07847200  1
  O  O29  1  0.13242500  0.25296500  0.42152800  1
