# generated using pymatgen
data_SmMnSi2
_symmetry_space_group_name_H-M   'P 1'
_cell_length_a   8.94214387
_cell_length_b   8.94214387
_cell_length_c   3.97851300
_cell_angle_alpha   90.00000000
_cell_angle_beta   90.00000000
_cell_angle_gamma   154.14060887
_symmetry_Int_Tables_number   1
_chemical_formula_structural   SmMnSi2
_chemical_formula_sum   'Sm2 Mn2 Si4'
_cell_volume   138.75671636
_cell_formula_units_Z   2
loop_
 _symmetry_equiv_pos_site_id
 _symmetry_equiv_pos_as_xyz
  1  'x, y, z'
loop_
 _atom_site_type_symbol
 _atom_site_label
 _atom_site_symmetry_multiplicity
 _atom_site_fract_x
 _atom_site_fract_y
 _atom_site_fract_z
 _atom_site_occupancy
  Sm  Sm0  1  0.89886700  0.10113300  0.75000000  1
  Sm  Sm1  1  0.10113300  0.89886700  0.25000000  1
  Mn  Mn2  1  0.25039900  0.74960100  0.75000000  1
  Mn  Mn3  1  0.74960100  0.25039900  0.25000000  1
  Si  Si4  1  0.67640200  0.32359800  0.75000000  1
  Si  Si5  1  0.32359800  0.67640200  0.25000000  1
  Si  Si6  1  0.53592000  0.46408000  0.75000000  1
  Si  Si7  1  0.46408000  0.53592000  0.25000000  1
