# generated using pymatgen
data_K3Ca(PO4)2
_symmetry_space_group_name_H-M   'P 1'
_cell_length_a   5.81768332
_cell_length_b   5.81768332
_cell_length_c   7.53952053
_cell_angle_alpha   86.74225951
_cell_angle_beta   86.74225951
_cell_angle_gamma   59.39674300
_symmetry_Int_Tables_number   1
_chemical_formula_structural   K3Ca(PO4)2
_chemical_formula_sum   'K3 Ca1 P2 O8'
_cell_volume   219.16486157
_cell_formula_units_Z   1
loop_
 _symmetry_equiv_pos_site_id
 _symmetry_equiv_pos_as_xyz
  1  'x, y, z'
loop_
 _atom_site_type_symbol
 _atom_site_label
 _atom_site_symmetry_multiplicity
 _atom_site_fract_x
 _atom_site_fract_y
 _atom_site_fract_z
 _atom_site_occupancy
  K  K0  1  0.00000000  0.00000000  0.00000000  1
  K  K1  1  0.33209800  0.33209800  0.70018100  1
  K  K2  1  0.66790200  0.66790200  0.29981900  1
  Ca  Ca3  1  0.00000000  0.00000000  0.50000000  1
  P  P4  1  0.34146500  0.34146500  0.24989900  1
  P  P5  1  0.65853500  0.65853500  0.75010100  1
  O  O6  1  0.36188700  0.36188700  0.04347900  1
  O  O7  1  0.63811300  0.63811300  0.95652100  1
  O  O8  1  0.18872000  0.18872000  0.29489900  1
  O  O9  1  0.81128000  0.81128000  0.70510200  1
  O  O10  1  0.18389700  0.62440900  0.32767100  1
  O  O11  1  0.62440900  0.18389700  0.32767100  1
  O  O12  1  0.81610300  0.37559100  0.67232900  1
  O  O13  1  0.37559100  0.81610300  0.67232900  1
