# generated using pymatgen
data_Tb3Ni7B2
_symmetry_space_group_name_H-M   'P 1'
_cell_length_a   5.07866434
_cell_length_b   5.07866434
_cell_length_c   14.31274200
_cell_angle_alpha   90.00000000
_cell_angle_beta   90.00000000
_cell_angle_gamma   120.03040704
_symmetry_Int_Tables_number   1
_chemical_formula_structural   Tb3Ni7B2
_chemical_formula_sum   'Tb6 Ni14 B4'
_cell_volume   319.60925427
_cell_formula_units_Z   2
loop_
 _symmetry_equiv_pos_site_id
 _symmetry_equiv_pos_as_xyz
  1  'x, y, z'
loop_
 _atom_site_type_symbol
 _atom_site_label
 _atom_site_symmetry_multiplicity
 _atom_site_fract_x
 _atom_site_fract_y
 _atom_site_fract_z
 _atom_site_occupancy
  Tb  Tb0  1  0.66658600  0.33341400  0.03090500  1
  Tb  Tb1  1  0.33341400  0.66658600  0.96909500  1
  Tb  Tb2  1  0.33341400  0.66658600  0.53090500  1
  Tb  Tb3  1  0.66658600  0.33341400  0.46909500  1
  Tb  Tb4  1  0.66671900  0.33328100  0.25000000  1
  Tb  Tb5  1  0.33328100  0.66671900  0.75000000  1
  Ni  Ni6  1  0.83424800  0.66841000  0.64957000  1
  Ni  Ni7  1  0.83421400  0.16578600  0.64962100  1
  Ni  Ni8  1  0.33159000  0.16575200  0.64957000  1
  Ni  Ni9  1  0.16575200  0.33159000  0.35043000  1
  Ni  Ni10  1  0.16578600  0.83421400  0.35037900  1
  Ni  Ni11  1  0.66841000  0.83424800  0.35043000  1
  Ni  Ni12  1  0.16575200  0.33159000  0.14957000  1
  Ni  Ni13  1  0.16578600  0.83421400  0.14962100  1
  Ni  Ni14  1  0.66841000  0.83424800  0.14957000  1
  Ni  Ni15  1  0.83424800  0.66841000  0.85043000  1
  Ni  Ni16  1  0.83421400  0.16578600  0.85037900  1
  Ni  Ni17  1  0.33159000  0.16575200  0.85043000  1
  Ni  Ni18  1  0.00000000  0.00000000  0.50000000  1
  Ni  Ni19  1  0.00000000  0.00000000  0.00000000  1
  B  B20  1  0.66651800  0.33348200  0.75000000  1
  B  B21  1  0.33348200  0.66651800  0.25000000  1
  B  B22  1  0.00005700  0.99994300  0.75000000  1
  B  B23  1  0.99994300  0.00005700  0.25000000  1
