# generated using pymatgen
data_Sc3B5O12
_symmetry_space_group_name_H-M   'P 1'
_cell_length_a   4.46486300
_cell_length_b   12.30880900
_cell_length_c   12.52665500
_cell_angle_alpha   90.00000000
_cell_angle_beta   90.00000000
_cell_angle_gamma   90.00000000
_symmetry_Int_Tables_number   1
_chemical_formula_structural   Sc3B5O12
_chemical_formula_sum   'Sc12 B20 O48'
_cell_volume   688.42920620
_cell_formula_units_Z   4
loop_
 _symmetry_equiv_pos_site_id
 _symmetry_equiv_pos_as_xyz
  1  'x, y, z'
loop_
 _atom_site_type_symbol
 _atom_site_label
 _atom_site_symmetry_multiplicity
 _atom_site_fract_x
 _atom_site_fract_y
 _atom_site_fract_z
 _atom_site_occupancy
  Sc  Sc0  1  0.00000000  0.00000000  0.62951700  1
  Sc  Sc1  1  0.00000000  0.50000000  0.87048300  1
  Sc  Sc2  1  0.00000000  0.00000000  0.37048300  1
  Sc  Sc3  1  0.00000000  0.50000000  0.12951700  1
  Sc  Sc4  1  0.98769100  0.80465300  0.86433200  1
  Sc  Sc5  1  0.01230900  0.19534700  0.86433200  1
  Sc  Sc6  1  0.98769100  0.69534700  0.63566800  1
  Sc  Sc7  1  0.01230900  0.30465300  0.63566800  1
  Sc  Sc8  1  0.01230900  0.19534700  0.13566800  1
  Sc  Sc9  1  0.98769100  0.80465300  0.13566800  1
  Sc  Sc10  1  0.01230900  0.30465300  0.36433200  1
  Sc  Sc11  1  0.98769100  0.69534700  0.36433200  1
  B  B12  1  0.50000000  0.00000000  0.83760500  1
  B  B13  1  0.50000000  0.50000000  0.66239500  1
  B  B14  1  0.50000000  0.00000000  0.16239500  1
  B  B15  1  0.50000000  0.50000000  0.33760500  1
  B  B16  1  0.45825000  0.64985100  0.79776600  1
  B  B17  1  0.54175000  0.35014900  0.79776600  1
  B  B18  1  0.45825000  0.85014900  0.70223400  1
  B  B19  1  0.54175000  0.14985100  0.70223400  1
  B  B20  1  0.54175000  0.35014900  0.20223400  1
  B  B21  1  0.45825000  0.64985100  0.20223400  1
  B  B22  1  0.54175000  0.14985100  0.29776600  1
  B  B23  1  0.45825000  0.85014900  0.29776600  1
  B  B24  1  0.46777500  0.14551800  0.50000000  1
  B  B25  1  0.53222500  0.85448200  0.50000000  1
  B  B26  1  0.46777500  0.35448200  0.00000000  1
  B  B27  1  0.53222500  0.64551800  0.00000000  1
  B  B28  1  0.53964500  0.63086500  0.50000000  1
  B  B29  1  0.46035500  0.36913500  0.50000000  1
  B  B30  1  0.53964500  0.86913500  0.00000000  1
  B  B31  1  0.46035500  0.13086500  0.00000000  1
  O  O32  1  0.23931200  0.06368000  0.50000000  1
  O  O33  1  0.76068800  0.93632000  0.50000000  1
  O  O34  1  0.23931200  0.43632000  0.00000000  1
  O  O35  1  0.76068800  0.56368000  0.00000000  1
  O  O36  1  0.22577900  0.64480200  0.50000000  1
  O  O37  1  0.77422100  0.35519800  0.50000000  1
  O  O38  1  0.22577900  0.85519800  0.00000000  1
  O  O39  1  0.77422100  0.14480200  0.00000000  1
  O  O40  1  0.77941100  0.65301000  0.79648600  1
  O  O41  1  0.22058900  0.34699000  0.79648600  1
  O  O42  1  0.77941100  0.84699000  0.70351400  1
  O  O43  1  0.22058900  0.15301000  0.70351400  1
  O  O44  1  0.22058900  0.34699000  0.20351400  1
  O  O45  1  0.77941100  0.65301000  0.20351400  1
  O  O46  1  0.22058900  0.15301000  0.29648600  1
  O  O47  1  0.77941100  0.84699000  0.29648600  1
  O  O48  1  0.32854200  0.64215800  0.90556500  1
  O  O49  1  0.67145800  0.35784200  0.90556500  1
  O  O50  1  0.32854200  0.85784200  0.59443500  1
  O  O51  1  0.67145800  0.14215800  0.59443500  1
  O  O52  1  0.67145800  0.35784200  0.09443500  1
  O  O53  1  0.32854200  0.64215800  0.09443500  1
  O  O54  1  0.67145800  0.14215800  0.40556500  1
  O  O55  1  0.32854200  0.85784200  0.40556500  1
  O  O56  1  0.33375400  0.07800700  0.90336000  1
  O  O57  1  0.66624600  0.92199300  0.90336000  1
  O  O58  1  0.33375400  0.42199300  0.59664000  1
  O  O59  1  0.66624600  0.57800700  0.59664000  1
  O  O60  1  0.66624600  0.92199300  0.09664000  1
  O  O61  1  0.33375400  0.07800700  0.09664000  1
  O  O62  1  0.66624600  0.57800700  0.40336000  1
  O  O63  1  0.33375400  0.42199300  0.40336000  1
  O  O64  1  0.32149600  0.75000000  0.75000000  1
  O  O65  1  0.67850400  0.25000000  0.75000000  1
  O  O66  1  0.67850400  0.25000000  0.25000000  1
  O  O67  1  0.32149600  0.75000000  0.25000000  1
  O  O68  1  0.70072800  0.75724800  0.00000000  1
  O  O69  1  0.29927200  0.24275200  0.00000000  1
  O  O70  1  0.70072800  0.74275200  0.50000000  1
  O  O71  1  0.29927200  0.25724800  0.50000000  1
  O  O72  1  0.29678000  0.93731000  0.76687700  1
  O  O73  1  0.70322000  0.06269000  0.76687700  1
  O  O74  1  0.29678000  0.56269000  0.73312300  1
  O  O75  1  0.70322000  0.43731000  0.73312300  1
  O  O76  1  0.70322000  0.06269000  0.23312300  1
  O  O77  1  0.29678000  0.93731000  0.23312300  1
  O  O78  1  0.70322000  0.43731000  0.26687700  1
  O  O79  1  0.29678000  0.56269000  0.26687700  1
