# generated using pymatgen
data_LuCoB4
_symmetry_space_group_name_H-M   'P 1'
_cell_length_a   3.32389800
_cell_length_b   5.83553000
_cell_length_c   11.29157300
_cell_angle_alpha   90.00000000
_cell_angle_beta   90.00000000
_cell_angle_gamma   90.00000000
_symmetry_Int_Tables_number   1
_chemical_formula_structural   LuCoB4
_chemical_formula_sum   'Lu4 Co4 B16'
_cell_volume   219.01932736
_cell_formula_units_Z   4
loop_
 _symmetry_equiv_pos_site_id
 _symmetry_equiv_pos_as_xyz
  1  'x, y, z'
loop_
 _atom_site_type_symbol
 _atom_site_label
 _atom_site_symmetry_multiplicity
 _atom_site_fract_x
 _atom_site_fract_y
 _atom_site_fract_z
 _atom_site_occupancy
  Lu  Lu0  1  0.50000000  0.37217000  0.14981100  1
  Lu  Lu1  1  0.50000000  0.62783000  0.85018900  1
  Lu  Lu2  1  0.50000000  0.12783000  0.64981100  1
  Lu  Lu3  1  0.50000000  0.87217000  0.35018900  1
  Co  Co4  1  0.50000000  0.36443400  0.40997600  1
  Co  Co5  1  0.50000000  0.63556600  0.59002400  1
  Co  Co6  1  0.50000000  0.13556600  0.90997600  1
  Co  Co7  1  0.50000000  0.86443400  0.09002400  1
  B  B8  1  0.00000000  0.11208700  0.04658700  1
  B  B9  1  0.00000000  0.88791300  0.95341300  1
  B  B10  1  0.00000000  0.38791300  0.54658700  1
  B  B11  1  0.00000000  0.61208700  0.45341300  1
  B  B12  1  0.00000000  0.13738900  0.46805000  1
  B  B13  1  0.00000000  0.86261100  0.53195000  1
  B  B14  1  0.00000000  0.36261100  0.96805000  1
  B  B15  1  0.00000000  0.63738900  0.03195000  1
  B  B16  1  0.00000000  0.02350300  0.19200900  1
  B  B17  1  0.00000000  0.97649700  0.80799100  1
  B  B18  1  0.00000000  0.47649700  0.69200900  1
  B  B19  1  0.00000000  0.52350300  0.30799100  1
  B  B20  1  0.00000000  0.21618000  0.31450300  1
  B  B21  1  0.00000000  0.78382000  0.68549700  1
  B  B22  1  0.00000000  0.28382000  0.81450300  1
  B  B23  1  0.00000000  0.71618000  0.18549700  1
