# generated using pymatgen
data_Tb2Si5Ru3
_symmetry_space_group_name_H-M   'P 1'
_cell_length_a   8.26098971
_cell_length_b   8.26098971
_cell_length_c   8.26098971
_cell_angle_alpha   140.14976388
_cell_angle_beta   108.40790696
_cell_angle_gamma   85.21011216
_symmetry_Int_Tables_number   1
_chemical_formula_structural   Tb2Si5Ru3
_chemical_formula_sum   'Tb4 Si10 Ru6'
_cell_volume   330.84763250
_cell_formula_units_Z   2
loop_
 _symmetry_equiv_pos_site_id
 _symmetry_equiv_pos_as_xyz
  1  'x, y, z'
loop_
 _atom_site_type_symbol
 _atom_site_label
 _atom_site_symmetry_multiplicity
 _atom_site_fract_x
 _atom_site_fract_y
 _atom_site_fract_z
 _atom_site_occupancy
  Tb  Tb0  1  0.09752700  0.86502200  0.23250400  1
  Tb  Tb1  1  0.90247300  0.13497800  0.76749600  1
  Tb  Tb2  1  0.36748200  0.63497800  0.73250400  1
  Tb  Tb3  1  0.63251800  0.36502200  0.26749600  1
  Si  Si4  1  0.00000000  0.75000000  0.75000000  1
  Si  Si5  1  0.00000000  0.25000000  0.25000000  1
  Si  Si6  1  0.29193200  0.04193200  0.75000000  1
  Si  Si7  1  0.70806800  0.45806800  0.75000000  1
  Si  Si8  1  0.70806800  0.95806800  0.25000000  1
  Si  Si9  1  0.29193200  0.54193200  0.25000000  1
  Si  Si10  1  0.76436300  0.59582800  0.16853400  1
  Si  Si11  1  0.42729400  0.09582800  0.33146600  1
  Si  Si12  1  0.57270600  0.90417200  0.66853400  1
  Si  Si13  1  0.23563700  0.40417200  0.83146600  1
  Ru  Ru14  1  0.23885500  0.14600200  0.09285300  1
  Ru  Ru15  1  0.50000000  0.25000000  0.75000000  1
  Ru  Ru16  1  0.05314900  0.64600200  0.40714700  1
  Ru  Ru17  1  0.94685100  0.35399800  0.59285300  1
  Ru  Ru18  1  0.76114500  0.85399800  0.90714700  1
  Ru  Ru19  1  0.50000000  0.75000000  0.25000000  1
