# generated using pymatgen
data_SrSbF5
_symmetry_space_group_name_H-M   'P 1'
_cell_length_a   4.47101700
_cell_length_b   8.98069300
_cell_length_c   11.40553900
_cell_angle_alpha   90.00000000
_cell_angle_beta   90.00000000
_cell_angle_gamma   90.00000000
_symmetry_Int_Tables_number   1
_chemical_formula_structural   SrSbF5
_chemical_formula_sum   'Sr4 Sb4 F20'
_cell_volume   457.96468078
_cell_formula_units_Z   4
loop_
 _symmetry_equiv_pos_site_id
 _symmetry_equiv_pos_as_xyz
  1  'x, y, z'
loop_
 _atom_site_type_symbol
 _atom_site_label
 _atom_site_symmetry_multiplicity
 _atom_site_fract_x
 _atom_site_fract_y
 _atom_site_fract_z
 _atom_site_occupancy
  Sr  Sr0  1  0.99996200  0.25000000  0.00000000  1
  Sr  Sr1  1  0.00003800  0.75000000  0.50000000  1
  Sr  Sr2  1  0.00003800  0.75000000  0.00000000  1
  Sr  Sr3  1  0.99996200  0.25000000  0.50000000  1
  Sb  Sb4  1  0.38015100  0.05695700  0.25000000  1
  Sb  Sb5  1  0.38015100  0.44304300  0.75000000  1
  Sb  Sb6  1  0.61984900  0.55695700  0.25000000  1
  Sb  Sb7  1  0.61984900  0.94304300  0.75000000  1
  F  F8  1  0.08391600  0.98676100  0.38646000  1
  F  F9  1  0.08391600  0.51323900  0.61354000  1
  F  F10  1  0.91608400  0.48676100  0.11354000  1
  F  F11  1  0.91608400  0.01323900  0.88646000  1
  F  F12  1  0.91608400  0.01323900  0.61354000  1
  F  F13  1  0.91608400  0.48676100  0.38646000  1
  F  F14  1  0.08391600  0.51323900  0.88646000  1
  F  F15  1  0.08391600  0.98676100  0.11354000  1
  F  F16  1  0.06431200  0.21426900  0.25000000  1
  F  F17  1  0.06431200  0.28573100  0.75000000  1
  F  F18  1  0.93568800  0.71426900  0.25000000  1
  F  F19  1  0.93568800  0.78573100  0.75000000  1
  F  F20  1  0.48564700  0.70285400  0.11126100  1
  F  F21  1  0.48564700  0.79714600  0.88873900  1
  F  F22  1  0.51435300  0.20285400  0.38873900  1
  F  F23  1  0.51435300  0.29714600  0.61126100  1
  F  F24  1  0.51435300  0.29714600  0.88873900  1
  F  F25  1  0.51435300  0.20285400  0.11126100  1
  F  F26  1  0.48564700  0.79714600  0.61126100  1
  F  F27  1  0.48564700  0.70285400  0.38873900  1
