# generated using pymatgen
data_NdTa7O19
_symmetry_space_group_name_H-M   'P 1'
_cell_length_a   6.29076722
_cell_length_b   6.29076722
_cell_length_c   20.15391900
_cell_angle_alpha   90.00000000
_cell_angle_beta   90.00000000
_cell_angle_gamma   119.99999183
_symmetry_Int_Tables_number   1
_chemical_formula_structural   NdTa7O19
_chemical_formula_sum   'Nd2 Ta14 O38'
_cell_volume   690.71264505
_cell_formula_units_Z   2
loop_
 _symmetry_equiv_pos_site_id
 _symmetry_equiv_pos_as_xyz
  1  'x, y, z'
loop_
 _atom_site_type_symbol
 _atom_site_label
 _atom_site_symmetry_multiplicity
 _atom_site_fract_x
 _atom_site_fract_y
 _atom_site_fract_z
 _atom_site_occupancy
  Nd  Nd0  1  0.00000000  0.00000000  0.00000000  1
  Nd  Nd1  1  0.00000000  0.00000000  0.50000000  1
  Ta  Ta2  1  0.02588500  0.33465300  0.65589800  1
  Ta  Ta3  1  0.66534700  0.69123200  0.65589800  1
  Ta  Ta4  1  0.02588500  0.33465300  0.84410200  1
  Ta  Ta5  1  0.66534700  0.69123200  0.84410200  1
  Ta  Ta6  1  0.30876800  0.97411500  0.84410200  1
  Ta  Ta7  1  0.66534700  0.97411500  0.15589800  1
  Ta  Ta8  1  0.30876800  0.33465300  0.15589800  1
  Ta  Ta9  1  0.30876800  0.33465300  0.34410200  1
  Ta  Ta10  1  0.66534700  0.97411500  0.34410200  1
  Ta  Ta11  1  0.02588500  0.69123200  0.15589800  1
  Ta  Ta12  1  0.33333300  0.66666700  0.50000000  1
  Ta  Ta13  1  0.33333300  0.66666700  0.00000000  1
  Ta  Ta14  1  0.02588500  0.69123200  0.34410200  1
  Ta  Ta15  1  0.30876800  0.97411500  0.65589800  1
  O  O16  1  0.00000000  0.00000000  0.63204900  1
  O  O17  1  0.00000000  0.00000000  0.86795100  1
  O  O18  1  0.00000000  0.00000000  0.36795100  1
  O  O19  1  0.00000000  0.00000000  0.13204900  1
  O  O20  1  0.33333300  0.66666700  0.66714400  1
  O  O21  1  0.33333300  0.66666700  0.83285600  1
  O  O22  1  0.33333300  0.66666700  0.33285600  1
  O  O23  1  0.33333300  0.66666700  0.16714400  1
  O  O24  1  0.04161100  0.29185400  0.75000000  1
  O  O25  1  0.70814600  0.74975700  0.75000000  1
  O  O26  1  0.25024300  0.95838900  0.75000000  1
  O  O27  1  0.25024300  0.29185400  0.25000000  1
  O  O28  1  0.70814600  0.95838900  0.25000000  1
  O  O29  1  0.04161100  0.74975700  0.25000000  1
  O  O30  1  0.61548400  0.90228400  0.44322100  1
  O  O31  1  0.09771600  0.38451600  0.55677900  1
  O  O32  1  0.91157500  0.33319500  0.15327100  1
  O  O33  1  0.42162000  0.08842500  0.34672900  1
  O  O34  1  0.66680500  0.57838000  0.34672900  1
  O  O35  1  0.66680500  0.57838000  0.15327100  1
  O  O36  1  0.42162000  0.08842500  0.15327100  1
  O  O37  1  0.66680500  0.08842500  0.84672900  1
  O  O38  1  0.42162000  0.33319500  0.84672900  1
  O  O39  1  0.91157500  0.57838000  0.84672900  1
  O  O40  1  0.42162000  0.33319500  0.65327100  1
  O  O41  1  0.91157500  0.57838000  0.65327100  1
  O  O42  1  0.91157500  0.33319500  0.34672900  1
  O  O43  1  0.66680500  0.08842500  0.65327100  1
  O  O44  1  0.09771600  0.38451600  0.94322100  1
  O  O45  1  0.28680000  0.90228400  0.55677900  1
  O  O46  1  0.61548400  0.71320000  0.55677900  1
  O  O47  1  0.61548400  0.71320000  0.94322100  1
  O  O48  1  0.28680000  0.90228400  0.94322100  1
  O  O49  1  0.61548400  0.90228400  0.05677900  1
  O  O50  1  0.28680000  0.38451600  0.05677900  1
  O  O51  1  0.09771600  0.71320000  0.05677900  1
  O  O52  1  0.28680000  0.38451600  0.44322100  1
  O  O53  1  0.09771600  0.71320000  0.44322100  1
