# generated using pymatgen
data_Ba2CrO4
_symmetry_space_group_name_H-M   'P 1'
_cell_length_a   6.00512900
_cell_length_b   7.73476800
_cell_length_c   10.71257600
_cell_angle_alpha   90.00000000
_cell_angle_beta   90.00000000
_cell_angle_gamma   90.00000000
_symmetry_Int_Tables_number   1
_chemical_formula_structural   Ba2CrO4
_chemical_formula_sum   'Ba8 Cr4 O16'
_cell_volume   497.58072555
_cell_formula_units_Z   4
loop_
 _symmetry_equiv_pos_site_id
 _symmetry_equiv_pos_as_xyz
  1  'x, y, z'
loop_
 _atom_site_type_symbol
 _atom_site_label
 _atom_site_symmetry_multiplicity
 _atom_site_fract_x
 _atom_site_fract_y
 _atom_site_fract_z
 _atom_site_occupancy
  Ba  Ba0  1  0.25000100  0.99530200  0.69615300  1
  Ba  Ba1  1  0.75000100  0.50469800  0.19615300  1
  Ba  Ba2  1  0.25000100  0.49530200  0.80384600  1
  Ba  Ba3  1  0.75000100  0.00469800  0.30384600  1
  Ba  Ba4  1  0.25000100  0.65081600  0.42931300  1
  Ba  Ba5  1  0.75000100  0.34918400  0.57068800  1
  Ba  Ba6  1  0.25000100  0.15081600  0.07068700  1
  Ba  Ba7  1  0.75000100  0.84918400  0.92931300  1
  Cr  Cr8  1  0.25000100  0.71843100  0.07851500  1
  Cr  Cr9  1  0.75000100  0.28156900  0.92148500  1
  Cr  Cr10  1  0.25000100  0.21843100  0.42148500  1
  Cr  Cr11  1  0.75000100  0.78156900  0.57851500  1
  O  O12  1  0.99645800  0.19119100  0.85222600  1
  O  O13  1  0.49645900  0.80880900  0.14777400  1
  O  O14  1  0.50354100  0.69119100  0.64777400  1
  O  O15  1  0.00354100  0.30880900  0.35222600  1
  O  O16  1  0.00354100  0.80880900  0.14777400  1
  O  O17  1  0.50354100  0.19119100  0.85222600  1
  O  O18  1  0.49645900  0.30880900  0.35222600  1
  O  O19  1  0.99645800  0.69119100  0.64777400  1
  O  O20  1  0.25000100  0.81163000  0.92159100  1
  O  O21  1  0.75000100  0.18837000  0.07840900  1
  O  O22  1  0.25000100  0.31163000  0.57840900  1
  O  O23  1  0.75000100  0.68837000  0.42159100  1
  O  O24  1  0.75000100  0.01148900  0.57870000  1
  O  O25  1  0.25000100  0.98851100  0.42130000  1
  O  O26  1  0.25000100  0.48851100  0.07870000  1
  O  O27  1  0.75000100  0.51148900  0.92130000  1
