# generated using pymatgen
data_Na2BeSiO4
_symmetry_space_group_name_H-M   'P 1'
_cell_length_a   5.01443500
_cell_length_b   7.08418500
_cell_length_c   10.03288811
_cell_angle_alpha   89.91471494
_cell_angle_beta   90.00000000
_cell_angle_gamma   90.00000000
_symmetry_Int_Tables_number   1
_chemical_formula_structural   Na2BeSiO4
_chemical_formula_sum   'Na8 Be4 Si4 O16'
_cell_volume   356.39974786
_cell_formula_units_Z   4
loop_
 _symmetry_equiv_pos_site_id
 _symmetry_equiv_pos_as_xyz
  1  'x, y, z'
loop_
 _atom_site_type_symbol
 _atom_site_label
 _atom_site_symmetry_multiplicity
 _atom_site_fract_x
 _atom_site_fract_y
 _atom_site_fract_z
 _atom_site_occupancy
  Na  Na0  1  0.29193400  0.00166500  0.60970600  1
  Na  Na1  1  0.81846700  0.26527100  0.64096800  1
  Na  Na2  1  0.31846700  0.73472900  0.85903200  1
  Na  Na3  1  0.18153300  0.73472900  0.35903200  1
  Na  Na4  1  0.68153300  0.26527100  0.14096800  1
  Na  Na5  1  0.79193400  0.99833500  0.89029400  1
  Na  Na6  1  0.20806600  0.00166500  0.10970600  1
  Na  Na7  1  0.70806600  0.99833500  0.39029400  1
  Be  Be8  1  0.65830400  0.49885300  0.41203700  1
  Be  Be9  1  0.15830400  0.50114700  0.08796300  1
  Be  Be10  1  0.34169600  0.50114700  0.58796300  1
  Be  Be11  1  0.84169600  0.49885300  0.91203700  1
  Si  Si12  1  0.65614900  0.72124500  0.15734700  1
  Si  Si13  1  0.84385100  0.72124500  0.65734700  1
  Si  Si14  1  0.34385100  0.27875500  0.84265300  1
  Si  Si15  1  0.15614900  0.27875500  0.34265300  1
  O  O16  1  0.66518400  0.56293000  0.57372200  1
  O  O17  1  0.66073100  0.31579300  0.88056100  1
  O  O18  1  0.16073100  0.68420700  0.61943900  1
  O  O19  1  0.33926900  0.68420700  0.11943900  1
  O  O20  1  0.83926900  0.31579300  0.38056100  1
  O  O21  1  0.73488200  0.93928100  0.12453000  1
  O  O22  1  0.16518400  0.43707000  0.92627800  1
  O  O23  1  0.33481600  0.43707000  0.42627800  1
  O  O24  1  0.83481600  0.56293000  0.07372200  1
  O  O25  1  0.79445900  0.68069800  0.81800100  1
  O  O26  1  0.29445900  0.31930200  0.68199900  1
  O  O27  1  0.20554100  0.31930200  0.18199900  1
  O  O28  1  0.26511800  0.06071900  0.87547000  1
  O  O29  1  0.23488200  0.06071900  0.37547000  1
  O  O30  1  0.76511800  0.93928100  0.62453000  1
  O  O31  1  0.70554100  0.68069800  0.31800100  1
