# generated using pymatgen
data_CaMg149
_symmetry_space_group_name_H-M   'P 1'
_cell_length_a   15.98461191
_cell_length_b   15.98461742
_cell_length_c   15.65687627
_cell_angle_alpha   90.00000000
_cell_angle_beta   90.00000000
_cell_angle_gamma   120.00001141
_symmetry_Int_Tables_number   1
_chemical_formula_structural   CaMg149
_chemical_formula_sum   'Ca1 Mg149'
_cell_volume   3464.49583814
_cell_formula_units_Z   1
loop_
 _symmetry_equiv_pos_site_id
 _symmetry_equiv_pos_as_xyz
  1  'x, y, z'
loop_
 _atom_site_type_symbol
 _atom_site_label
 _atom_site_symmetry_multiplicity
 _atom_site_fract_x
 _atom_site_fract_y
 _atom_site_fract_z
 _atom_site_occupancy
  Ca  Ca0  1  0.00000000  0.00000000  0.00000000  1
  Mg  Mg1  1  0.60014652  0.20029304  0.00000000  1
  Mg  Mg2  1  0.40094112  0.20047056  0.00000000  1
  Mg  Mg3  1  0.79952944  0.20047056  0.00000000  1
  Mg  Mg4  1  0.00249284  0.20635494  0.00000000  1
  Mg  Mg5  1  0.20386209  0.20635494  0.00000000  1
  Mg  Mg6  1  0.60014652  0.39985348  0.00000000  1
  Mg  Mg7  1  0.79970696  0.39985348  0.00000000  1
  Mg  Mg8  1  0.00024523  0.40105527  0.00000000  1
  Mg  Mg9  1  0.40081104  0.40105627  0.00000000  1
  Mg  Mg10  1  0.20156740  0.40313480  0.00000000  1
  Mg  Mg11  1  0.79952944  0.59905888  0.00000000  1
  Mg  Mg12  1  0.00024523  0.59918896  0.00000000  1
  Mg  Mg13  1  0.59894473  0.59918996  0.00000000  1
  Mg  Mg14  1  0.20058491  0.60029196  0.00000000  1
  Mg  Mg15  1  0.39970804  0.60029296  0.00000000  1
  Mg  Mg16  1  0.79364506  0.79613791  0.00000000  1
  Mg  Mg17  1  0.00249284  0.79613791  0.00000000  1
  Mg  Mg18  1  0.59686520  0.79843260  0.00000000  1
  Mg  Mg19  1  0.20156740  0.79843260  0.00000000  1
  Mg  Mg20  1  0.39970804  0.79941509  0.00000000  1
  Mg  Mg21  1  0.79364506  0.99750616  0.00000000  1
  Mg  Mg22  1  0.20386209  0.99750716  0.00000000  1
  Mg  Mg23  1  0.40081104  0.99975477  0.00000000  1
  Mg  Mg24  1  0.59894473  0.99975477  0.00000000  1
  Mg  Mg25  1  0.26425232  0.13212616  0.16520973  1
  Mg  Mg26  1  0.86787384  0.13212616  0.16520973  1
  Mg  Mg27  1  0.86787384  0.73574768  0.16520973  1
  Mg  Mg28  1  0.66666600  0.33333300  0.16629006  1
  Mg  Mg29  1  0.46589648  0.13305803  0.16657288  1
  Mg  Mg30  1  0.66716155  0.13305803  0.16657288  1
  Mg  Mg31  1  0.46589648  0.33283845  0.16657288  1
  Mg  Mg32  1  0.86694197  0.33283845  0.16657288  1
  Mg  Mg33  1  0.66716155  0.53410352  0.16657288  1
  Mg  Mg34  1  0.86694197  0.53410352  0.16657288  1
  Mg  Mg35  1  0.06671124  0.53335562  0.16735219  1
  Mg  Mg36  1  0.46664438  0.53335562  0.16735219  1
  Mg  Mg37  1  0.46664438  0.93328876  0.16735219  1
  Mg  Mg38  1  0.26704647  0.53409293  0.16736809  1
  Mg  Mg39  1  0.46590807  0.73295353  0.16736809  1
  Mg  Mg40  1  0.26704647  0.73295353  0.16736809  1
  Mg  Mg41  1  0.26774538  0.33544078  0.16773370  1
  Mg  Mg42  1  0.06769640  0.33544178  0.16773370  1
  Mg  Mg43  1  0.66455922  0.73225462  0.16773370  1
  Mg  Mg44  1  0.06769640  0.73225462  0.16773370  1
  Mg  Mg45  1  0.26774538  0.93230460  0.16773370  1
  Mg  Mg46  1  0.66455922  0.93230460  0.16773370  1
  Mg  Mg47  1  0.06837292  0.13674583  0.17077108  1
  Mg  Mg48  1  0.86325417  0.93162708  0.17077108  1
  Mg  Mg49  1  0.06837292  0.93162708  0.17077108  1
  Mg  Mg50  1  0.39995535  0.19997768  0.33290192  1
  Mg  Mg51  1  0.80002232  0.19997868  0.33290192  1
  Mg  Mg52  1  0.80002232  0.60004365  0.33290192  1
  Mg  Mg53  1  0.60006624  0.20013147  0.33303830  1
  Mg  Mg54  1  0.79986853  0.39993376  0.33303830  1
  Mg  Mg55  1  0.60006624  0.39993376  0.33303830  1
  Mg  Mg56  1  0.40050198  0.00022271  0.33379733  1
  Mg  Mg57  1  0.59971973  0.00022271  0.33379733  1
  Mg  Mg58  1  0.40050198  0.40028027  0.33379733  1
  Mg  Mg59  1  0.99977729  0.40028027  0.33379733  1
  Mg  Mg60  1  0.99977729  0.59949702  0.33379733  1
  Mg  Mg61  1  0.59971973  0.59949702  0.33379733  1
  Mg  Mg62  1  0.19988260  0.59994080  0.33381328  1
  Mg  Mg63  1  0.40005820  0.59994080  0.33381328  1
  Mg  Mg64  1  0.40005820  0.80011740  0.33381328  1
  Mg  Mg65  1  0.20021526  0.40043052  0.33401834  1
  Mg  Mg66  1  0.59957048  0.79978474  0.33401834  1
  Mg  Mg67  1  0.20021526  0.79978474  0.33401834  1
  Mg  Mg68  1  0.79933962  0.00015743  0.33400771  1
  Mg  Mg69  1  0.20081881  0.00015843  0.33400771  1
  Mg  Mg70  1  0.99984157  0.20066038  0.33400771  1
  Mg  Mg71  1  0.20081881  0.20066138  0.33400771  1
  Mg  Mg72  1  0.99984157  0.79918119  0.33400771  1
  Mg  Mg73  1  0.79933962  0.79918119  0.33400771  1
  Mg  Mg74  1  0.00000000  0.00000000  0.33424937  1
  Mg  Mg75  1  0.06678364  0.13356827  0.50000000  1
  Mg  Mg76  1  0.86640975  0.13358925  0.50000000  1
  Mg  Mg77  1  0.26717951  0.13358925  0.50000000  1
  Mg  Mg78  1  0.46696468  0.13396171  0.50000000  1
  Mg  Mg79  1  0.66699703  0.13396171  0.50000000  1
  Mg  Mg80  1  0.46696468  0.33300297  0.50000000  1
  Mg  Mg81  1  0.86603829  0.33300297  0.50000000  1
  Mg  Mg82  1  0.66666600  0.33333300  0.50000000  1
  Mg  Mg83  1  0.26682470  0.33373119  0.50000000  1
  Mg  Mg84  1  0.06690649  0.33373119  0.50000000  1
  Mg  Mg85  1  0.86603829  0.53303532  0.50000000  1
  Mg  Mg86  1  0.66699703  0.53303532  0.50000000  1
  Mg  Mg87  1  0.06651865  0.53325883  0.50000000  1
  Mg  Mg88  1  0.46674017  0.53325883  0.50000000  1
  Mg  Mg89  1  0.26682322  0.53364744  0.50000000  1
  Mg  Mg90  1  0.86640975  0.73282049  0.50000000  1
  Mg  Mg91  1  0.66626981  0.73317430  0.50000000  1
  Mg  Mg92  1  0.06690649  0.73317530  0.50000000  1
  Mg  Mg93  1  0.46635256  0.73317578  0.50000000  1
  Mg  Mg94  1  0.26682322  0.73317678  0.50000000  1
  Mg  Mg95  1  0.26682470  0.93309451  0.50000000  1
  Mg  Mg96  1  0.66626981  0.93309451  0.50000000  1
  Mg  Mg97  1  0.86643173  0.93321536  0.50000000  1
  Mg  Mg98  1  0.06678364  0.93321636  0.50000000  1
  Mg  Mg99  1  0.46674017  0.93348135  0.50000000  1
  Mg  Mg100  1  0.00000000  0.00000000  0.66575063  1
  Mg  Mg101  1  0.79933962  0.00015743  0.66599229  1
  Mg  Mg102  1  0.20081881  0.00015843  0.66599229  1
  Mg  Mg103  1  0.99984157  0.20066038  0.66599229  1
  Mg  Mg104  1  0.20081881  0.20066138  0.66599229  1
  Mg  Mg105  1  0.99984157  0.79918119  0.66599229  1
  Mg  Mg106  1  0.79933962  0.79918119  0.66599229  1
  Mg  Mg107  1  0.20021526  0.40043052  0.66598166  1
  Mg  Mg108  1  0.59957048  0.79978474  0.66598166  1
  Mg  Mg109  1  0.20021526  0.79978474  0.66598166  1
  Mg  Mg110  1  0.19988260  0.59994080  0.66618672  1
  Mg  Mg111  1  0.40005820  0.59994080  0.66618672  1
  Mg  Mg112  1  0.40005820  0.80011740  0.66618672  1
  Mg  Mg113  1  0.40050198  0.00022271  0.66620267  1
  Mg  Mg114  1  0.59971973  0.00022271  0.66620267  1
  Mg  Mg115  1  0.40050198  0.40028027  0.66620267  1
  Mg  Mg116  1  0.99977729  0.40028027  0.66620267  1
  Mg  Mg117  1  0.99977729  0.59949702  0.66620267  1
  Mg  Mg118  1  0.59971973  0.59949702  0.66620267  1
  Mg  Mg119  1  0.60006624  0.20013147  0.66696170  1
  Mg  Mg120  1  0.79986853  0.39993376  0.66696170  1
  Mg  Mg121  1  0.60006624  0.39993376  0.66696170  1
  Mg  Mg122  1  0.39995535  0.19997768  0.66709708  1
  Mg  Mg123  1  0.80002232  0.19997868  0.66709708  1
  Mg  Mg124  1  0.80002232  0.60004365  0.66709708  1
  Mg  Mg125  1  0.06837292  0.13674583  0.82922892  1
  Mg  Mg126  1  0.86325417  0.93162708  0.82922892  1
  Mg  Mg127  1  0.06837292  0.93162708  0.82922892  1
  Mg  Mg128  1  0.26774538  0.33544078  0.83226630  1
  Mg  Mg129  1  0.06769640  0.33544178  0.83226630  1
  Mg  Mg130  1  0.66455922  0.73225462  0.83226630  1
  Mg  Mg131  1  0.06769640  0.73225462  0.83226630  1
  Mg  Mg132  1  0.26774538  0.93230460  0.83226630  1
  Mg  Mg133  1  0.66455922  0.93230460  0.83226630  1
  Mg  Mg134  1  0.26704647  0.53409293  0.83263191  1
  Mg  Mg135  1  0.46590807  0.73295353  0.83263191  1
  Mg  Mg136  1  0.26704647  0.73295353  0.83263191  1
  Mg  Mg137  1  0.06671124  0.53335562  0.83264781  1
  Mg  Mg138  1  0.46664438  0.53335562  0.83264781  1
  Mg  Mg139  1  0.46664438  0.93328876  0.83264781  1
  Mg  Mg140  1  0.46589648  0.13305803  0.83342812  1
  Mg  Mg141  1  0.66716155  0.13305803  0.83342812  1
  Mg  Mg142  1  0.46589648  0.33283845  0.83342812  1
  Mg  Mg143  1  0.86694197  0.33283845  0.83342812  1
  Mg  Mg144  1  0.66716155  0.53410352  0.83342812  1
  Mg  Mg145  1  0.86694197  0.53410352  0.83342812  1
  Mg  Mg146  1  0.66666600  0.33333300  0.83370994  1
  Mg  Mg147  1  0.26425232  0.13212616  0.83479027  1
  Mg  Mg148  1  0.86787384  0.13212616  0.83479027  1
  Mg  Mg149  1  0.86787384  0.73574768  0.83479027  1
