# generated using pymatgen
data_Nd11Sn10
_symmetry_space_group_name_H-M   'P 1'
_cell_length_a   12.30086384
_cell_length_b   12.30086384
_cell_length_c   12.30086384
_cell_angle_alpha   121.67009426
_cell_angle_beta   121.67009426
_cell_angle_gamma   87.13086131
_symmetry_Int_Tables_number   1
_chemical_formula_structural   Nd11Sn10
_chemical_formula_sum   'Nd22 Sn20'
_cell_volume   1281.13920902
_cell_formula_units_Z   2
loop_
 _symmetry_equiv_pos_site_id
 _symmetry_equiv_pos_as_xyz
  1  'x, y, z'
loop_
 _atom_site_type_symbol
 _atom_site_label
 _atom_site_symmetry_multiplicity
 _atom_site_fract_x
 _atom_site_fract_y
 _atom_site_fract_z
 _atom_site_occupancy
  Nd  Nd0  1  0.80982800  0.06167800  0.25185100  1
  Nd  Nd1  1  0.80982800  0.55797700  0.74814900  1
  Nd  Nd2  1  0.06167800  0.80982800  0.25185100  1
  Nd  Nd3  1  0.55797700  0.80982800  0.74814900  1
  Nd  Nd4  1  0.19017200  0.93832200  0.74814900  1
  Nd  Nd5  1  0.19017200  0.44202300  0.25185100  1
  Nd  Nd6  1  0.93832200  0.19017200  0.74814900  1
  Nd  Nd7  1  0.44202300  0.19017200  0.25185100  1
  Nd  Nd8  1  0.17723600  0.17723600  0.35447200  1
  Nd  Nd9  1  0.82276400  0.82276400  0.64552800  1
  Nd  Nd10  1  0.17723600  0.82276400  0.00000000  1
  Nd  Nd11  1  0.82276400  0.17723600  0.00000000  1
  Nd  Nd12  1  0.66126900  0.66126900  0.00000000  1
  Nd  Nd13  1  0.33873100  0.33873100  0.00000000  1
  Nd  Nd14  1  0.60253800  0.92753700  0.32499900  1
  Nd  Nd15  1  0.60253800  0.27754000  0.67500100  1
  Nd  Nd16  1  0.92753700  0.60253800  0.32499900  1
  Nd  Nd17  1  0.27754000  0.60253800  0.67500100  1
  Nd  Nd18  1  0.39746200  0.07246300  0.67500100  1
  Nd  Nd19  1  0.39746200  0.72246000  0.32499900  1
  Nd  Nd20  1  0.07246300  0.39746200  0.67500100  1
  Nd  Nd21  1  0.72246000  0.39746200  0.32499900  1
  Sn  Sn22  1  0.36165000  0.00000000  0.36165000  1
  Sn  Sn23  1  0.63835000  0.00000000  0.63835000  1
  Sn  Sn24  1  0.00000000  0.63835000  0.63835000  1
  Sn  Sn25  1  0.00000000  0.36165000  0.36165000  1
  Sn  Sn26  1  0.88859000  0.88859000  0.00000000  1
  Sn  Sn27  1  0.11141000  0.11141000  0.00000000  1
  Sn  Sn28  1  0.37512500  0.37512500  0.75025000  1
  Sn  Sn29  1  0.62487500  0.62487500  0.24975000  1
  Sn  Sn30  1  0.37512500  0.62487500  0.00000000  1
  Sn  Sn31  1  0.62487500  0.37512500  0.00000000  1
  Sn  Sn32  1  0.75000000  0.25000000  0.50000000  1
  Sn  Sn33  1  0.25000000  0.75000000  0.50000000  1
  Sn  Sn34  1  0.88685100  0.88685100  0.41699900  1
  Sn  Sn35  1  0.46985200  0.46985200  0.58300100  1
  Sn  Sn36  1  0.88685100  0.46985200  0.00000000  1
  Sn  Sn37  1  0.46985200  0.88685100  0.00000000  1
  Sn  Sn38  1  0.11314900  0.11314900  0.58300100  1
  Sn  Sn39  1  0.53014800  0.53014800  0.41699900  1
  Sn  Sn40  1  0.11314900  0.53014800  0.00000000  1
  Sn  Sn41  1  0.53014800  0.11314900  0.00000000  1
