# generated using pymatgen
data_NaMnFe(PO4)2
_symmetry_space_group_name_H-M   'P 1'
_cell_length_a   13.07120696
_cell_length_b   9.36352970
_cell_length_c   9.35754727
_cell_angle_alpha   85.45283715
_cell_angle_beta   64.43168874
_cell_angle_gamma   64.10543765
_symmetry_Int_Tables_number   1
_chemical_formula_structural   NaMnFe(PO4)2
_chemical_formula_sum   'Na6 Mn6 Fe6 P12 O48'
_cell_volume   920.95643966
_cell_formula_units_Z   6
loop_
 _symmetry_equiv_pos_site_id
 _symmetry_equiv_pos_as_xyz
  1  'x, y, z'
loop_
 _atom_site_type_symbol
 _atom_site_label
 _atom_site_symmetry_multiplicity
 _atom_site_fract_x
 _atom_site_fract_y
 _atom_site_fract_z
 _atom_site_occupancy
  Na  Na0  1  0.11895100  0.98680600  0.01368000  1
  Na  Na1  1  0.25000000  0.50000000  0.50000000  1
  Na  Na2  1  0.38104900  0.01319400  0.98632000  1
  Na  Na3  1  0.49949300  0.49801300  0.50212100  1
  Na  Na4  1  0.75000000  0.50000000  0.50000000  1
  Na  Na5  1  0.00050700  0.50198700  0.49787900  1
  Mn  Mn6  1  0.09659700  0.06933200  0.37846600  1
  Mn  Mn7  1  0.12449800  0.26521000  0.72877900  1
  Mn  Mn8  1  0.37550200  0.73479000  0.27122100  1
  Mn  Mn9  1  0.40340300  0.93066800  0.62153400  1
  Mn  Mn10  1  0.62586600  0.26283800  0.73679600  1
  Mn  Mn11  1  0.87413400  0.73716200  0.26320400  1
  Fe  Fe12  1  0.34712600  0.38019100  0.06365500  1
  Fe  Fe13  1  0.15287400  0.61980900  0.93634500  1
  Fe  Fe14  1  0.59518400  0.06438100  0.37232700  1
  Fe  Fe15  1  0.84567900  0.36903100  0.06423000  1
  Fe  Fe16  1  0.65432100  0.63096900  0.93577000  1
  Fe  Fe17  1  0.90481600  0.93561900  0.62767300  1
  P  P18  1  0.07584300  0.34730800  0.12568200  1
  P  P19  1  0.12663700  0.71294000  0.28305900  1
  P  P20  1  0.32925900  0.13128700  0.33958000  1
  P  P21  1  0.17074100  0.86871300  0.66042000  1
  P  P22  1  0.37336300  0.28706000  0.71694100  1
  P  P23  1  0.57200700  0.35057600  0.13584000  1
  P  P24  1  0.42415700  0.65269200  0.87431800  1
  P  P25  1  0.62966400  0.70945800  0.28071000  1
  P  P26  1  0.81995000  0.13300300  0.35195000  1
  P  P27  1  0.68005000  0.86699700  0.64805000  1
  P  P28  1  0.87033600  0.29054200  0.71929000  1
  P  P29  1  0.92799300  0.64942400  0.86416000  1
  O  O30  1  0.02769700  0.33374500  0.00142600  1
  O  O31  1  0.13935000  0.17589400  0.16215800  1
  O  O32  1  0.18116700  0.40877400  0.04344200  1
  O  O33  1  0.06348300  0.73951500  0.16647900  1
  O  O34  1  0.29556300  0.99660300  0.31866100  1
  O  O35  1  0.02422300  0.74074500  0.45736700  1
  O  O36  1  0.21671500  0.26925400  0.47033100  1
  O  O37  1  0.03972700  0.52065600  0.72335500  1
  O  O38  1  0.37212500  0.19149300  0.17322100  1
  O  O39  1  0.22482000  0.53442700  0.26070500  1
  O  O40  1  0.19302700  0.82219800  0.25142700  1
  O  O41  1  0.44018800  0.05595500  0.38839300  1
  O  O42  1  0.05981200  0.94404500  0.61160700  1
  O  O43  1  0.30697300  0.17780200  0.74857300  1
  O  O44  1  0.52809700  0.33587700  0.00748500  1
  O  O45  1  0.27518000  0.46557300  0.73929500  1
  O  O46  1  0.12787500  0.80850700  0.82677900  1
  O  O47  1  0.46027300  0.47934400  0.27664500  1
  O  O48  1  0.28328500  0.73074600  0.52966900  1
  O  O49  1  0.62265500  0.18714900  0.19301600  1
  O  O50  1  0.47577700  0.25925500  0.54263300  1
  O  O51  1  0.20443700  0.00339700  0.68133900  1
  O  O52  1  0.43651700  0.26048500  0.83352100  1
  O  O53  1  0.68096000  0.40372900  0.05315900  1
  O  O54  1  0.31883300  0.59122600  0.95655800  1
  O  O55  1  0.56800200  0.73537500  0.16372300  1
  O  O56  1  0.77507800  0.00835500  0.33184700  1
  O  O57  1  0.52855400  0.72772700  0.45070300  1
  O  O58  1  0.36065000  0.82410600  0.83784200  1
  O  O59  1  0.70879700  0.27748800  0.47649400  1
  O  O60  1  0.53309700  0.52963900  0.72851700  1
  O  O61  1  0.87882500  0.18516000  0.18506400  1
  O  O62  1  0.73646800  0.53520400  0.25031800  1
  O  O63  1  0.47230300  0.66625500  0.99857400  1
  O  O64  1  0.68931300  0.82683400  0.26168100  1
  O  O65  1  0.92607100  0.04671100  0.40786200  1
  O  O66  1  0.57392900  0.95328900  0.59213800  1
  O  O67  1  0.81068700  0.17316600  0.73831900  1
  O  O68  1  0.76353200  0.46479600  0.74968200  1
  O  O69  1  0.62117500  0.81484000  0.81493600  1
  O  O70  1  0.96690300  0.47036100  0.27148300  1
  O  O71  1  0.79120300  0.72251200  0.52350600  1
  O  O72  1  0.97144600  0.27227300  0.54929700  1
  O  O73  1  0.72492200  0.99164500  0.66815300  1
  O  O74  1  0.93199800  0.26462500  0.83627700  1
  O  O75  1  0.81904000  0.59627100  0.94684100  1
  O  O76  1  0.87734500  0.81285100  0.80698400  1
  O  O77  1  0.97190300  0.66412300  0.99251500  1
