# generated using pymatgen
data_SrMgV2O7
_symmetry_space_group_name_H-M   'P 1'
_cell_length_a   15.04380000
_cell_length_b   6.92407800
_cell_length_c   11.49948665
_cell_angle_alpha   80.87461574
_cell_angle_beta   90.00000000
_cell_angle_gamma   90.00000000
_symmetry_Int_Tables_number   1
_chemical_formula_structural   SrMgV2O7
_chemical_formula_sum   'Sr8 Mg8 V16 O56'
_cell_volume   1182.67737513
_cell_formula_units_Z   8
loop_
 _symmetry_equiv_pos_site_id
 _symmetry_equiv_pos_as_xyz
  1  'x, y, z'
loop_
 _atom_site_type_symbol
 _atom_site_label
 _atom_site_symmetry_multiplicity
 _atom_site_fract_x
 _atom_site_fract_y
 _atom_site_fract_z
 _atom_site_occupancy
  Sr  Sr0  1  0.00481700  0.91738100  0.74537300  1
  Sr  Sr1  1  0.99518300  0.08261900  0.25462700  1
  Sr  Sr2  1  0.50481700  0.08261900  0.75462700  1
  Sr  Sr3  1  0.49518300  0.91738100  0.24537300  1
  Sr  Sr4  1  0.37573300  0.65842500  0.97918900  1
  Sr  Sr5  1  0.62426700  0.34157500  0.02081100  1
  Sr  Sr6  1  0.87573300  0.34157500  0.52081100  1
  Sr  Sr7  1  0.12426700  0.65842500  0.47918900  1
  Mg  Mg8  1  0.32447000  0.36135200  0.57707600  1
  Mg  Mg9  1  0.67553000  0.63864800  0.42292400  1
  Mg  Mg10  1  0.82447000  0.63864800  0.92292400  1
  Mg  Mg11  1  0.17553000  0.36135200  0.07707600  1
  Mg  Mg12  1  0.24601200  0.99595300  0.75010100  1
  Mg  Mg13  1  0.75398800  0.00404700  0.24989900  1
  Mg  Mg14  1  0.74601200  0.00404700  0.74989900  1
  Mg  Mg15  1  0.25398800  0.99595300  0.25010100  1
  V  V16  1  0.36291000  0.87349900  0.52097400  1
  V  V17  1  0.63709000  0.12650100  0.47902600  1
  V  V18  1  0.86291000  0.12650100  0.97902600  1
  V  V19  1  0.13709000  0.87349900  0.02097400  1
  V  V20  1  0.01240100  0.40890100  0.82284300  1
  V  V21  1  0.98759900  0.59109900  0.17715700  1
  V  V22  1  0.51240100  0.59109900  0.67715700  1
  V  V23  1  0.48759900  0.40890100  0.32284300  1
  V  V24  1  0.86413200  0.84433100  0.51824400  1
  V  V25  1  0.13586800  0.15566900  0.48175600  1
  V  V26  1  0.36413200  0.15566900  0.98175600  1
  V  V27  1  0.63586800  0.84433100  0.01824400  1
  V  V28  1  0.19999800  0.48617700  0.79862900  1
  V  V29  1  0.80000200  0.51382300  0.20137100  1
  V  V30  1  0.69999800  0.51382300  0.70137100  1
  V  V31  1  0.30000200  0.48617700  0.29862900  1
  O  O32  1  0.29162800  0.68023600  0.54968600  1
  O  O33  1  0.70837200  0.31976400  0.45031400  1
  O  O34  1  0.79162800  0.31976400  0.95031400  1
  O  O35  1  0.20837200  0.68023600  0.04968600  1
  O  O36  1  0.48234700  0.71641100  0.78621200  1
  O  O37  1  0.51765300  0.28358900  0.21378800  1
  O  O38  1  0.98234700  0.28358900  0.71378800  1
  O  O39  1  0.01765300  0.71641100  0.28621200  1
  O  O40  1  0.14242700  0.96887200  0.87295200  1
  O  O41  1  0.85757300  0.03112800  0.12704800  1
  O  O42  1  0.64242700  0.03112800  0.62704800  1
  O  O43  1  0.35757300  0.96887200  0.37295200  1
  O  O44  1  0.10191400  0.57182700  0.71565100  1
  O  O45  1  0.89808600  0.42817300  0.28434900  1
  O  O46  1  0.60191400  0.42817300  0.78434900  1
  O  O47  1  0.39808600  0.57182700  0.21565100  1
  O  O48  1  0.78549200  0.65207500  0.53373000  1
  O  O49  1  0.21450800  0.34792500  0.46627000  1
  O  O50  1  0.28549200  0.34792500  0.96627000  1
  O  O51  1  0.71450800  0.65207500  0.03373000  1
  O  O52  1  0.85362100  0.99043300  0.62880700  1
  O  O53  1  0.14637900  0.00956700  0.37119300  1
  O  O54  1  0.35362100  0.00956700  0.87119300  1
  O  O55  1  0.64637900  0.99043300  0.12880700  1
  O  O56  1  0.24542400  0.31186800  0.72378000  1
  O  O57  1  0.75457600  0.68813200  0.27622000  1
  O  O58  1  0.74542400  0.68813200  0.77622000  1
  O  O59  1  0.25457600  0.31186800  0.22378000  1
  O  O60  1  0.43989500  0.40577400  0.66728900  1
  O  O61  1  0.56010500  0.59422600  0.33271100  1
  O  O62  1  0.93989500  0.59422600  0.83271100  1
  O  O63  1  0.06010500  0.40577400  0.16728900  1
  O  O64  1  0.47216500  0.77906100  0.55038600  1
  O  O65  1  0.52783500  0.22093900  0.44961400  1
  O  O66  1  0.97216500  0.22093900  0.94961400  1
  O  O67  1  0.02783500  0.77906100  0.05038600  1
  O  O68  1  0.96710100  0.73873600  0.53736400  1
  O  O69  1  0.03289900  0.26126400  0.46263600  1
  O  O70  1  0.46710100  0.26126400  0.96263600  1
  O  O71  1  0.53289900  0.73873600  0.03736400  1
  O  O72  1  0.11908500  0.39874000  0.91504700  1
  O  O73  1  0.88091500  0.60126000  0.08495300  1
  O  O74  1  0.61908500  0.60126000  0.58495300  1
  O  O75  1  0.38091500  0.39874000  0.41504700  1
  O  O76  1  0.14308500  0.00008500  0.61625500  1
  O  O77  1  0.85691500  0.99991500  0.38374500  1
  O  O78  1  0.64308500  0.99991500  0.88374500  1
  O  O79  1  0.35691500  0.00008500  0.11625500  1
  O  O80  1  0.26374300  0.68888000  0.79808300  1
  O  O81  1  0.73625700  0.31112000  0.20191700  1
  O  O82  1  0.76374300  0.31112000  0.70191700  1
  O  O83  1  0.23625700  0.68888000  0.29808300  1
  O  O84  1  0.84215300  0.95039600  0.88569700  1
  O  O85  1  0.15784700  0.04960400  0.11430300  1
  O  O86  1  0.34215300  0.04960400  0.61430300  1
  O  O87  1  0.65784700  0.95039600  0.38569700  1
