# generated using pymatgen
data_Pt(SO4)2
_symmetry_space_group_name_H-M   'P 1'
_cell_length_a   9.02203700
_cell_length_b   8.38918000
_cell_length_c   9.54767575
_cell_angle_alpha   90.00000000
_cell_angle_beta   117.24447393
_cell_angle_gamma   90.00000000
_symmetry_Int_Tables_number   1
_chemical_formula_structural   Pt(SO4)2
_chemical_formula_sum   'Pt4 S8 O32'
_cell_volume   642.47093258
_cell_formula_units_Z   4
loop_
 _symmetry_equiv_pos_site_id
 _symmetry_equiv_pos_as_xyz
  1  'x, y, z'
loop_
 _atom_site_type_symbol
 _atom_site_label
 _atom_site_symmetry_multiplicity
 _atom_site_fract_x
 _atom_site_fract_y
 _atom_site_fract_z
 _atom_site_occupancy
  Pt  Pt0  1  0.03800500  0.55676400  0.13410500  1
  Pt  Pt1  1  0.96199500  0.05676400  0.36589500  1
  Pt  Pt2  1  0.96199500  0.44323600  0.86589500  1
  Pt  Pt3  1  0.03800500  0.94323600  0.63410500  1
  S  S4  1  0.78802900  0.27451400  0.04706000  1
  S  S5  1  0.21197100  0.77451400  0.45294000  1
  S  S6  1  0.21197100  0.72548600  0.95294000  1
  S  S7  1  0.78802900  0.22548600  0.54706000  1
  S  S8  1  0.27783800  0.28747100  0.13126300  1
  S  S9  1  0.72216200  0.78747100  0.36873700  1
  S  S10  1  0.72216200  0.71252900  0.86873700  1
  S  S11  1  0.27783800  0.21252900  0.63126300  1
  O  O12  1  0.14169300  0.92723000  0.35031200  1
  O  O13  1  0.85830700  0.42723000  0.14968800  1
  O  O14  1  0.85830700  0.07277000  0.64968800  1
  O  O15  1  0.14169300  0.57277000  0.85031200  1
  O  O16  1  0.08574800  0.64615600  0.37005800  1
  O  O17  1  0.91425200  0.14615600  0.12994200  1
  O  O18  1  0.91425200  0.35384400  0.62994200  1
  O  O19  1  0.08574800  0.85384400  0.87005800  1
  O  O20  1  0.21084500  0.69659300  0.11246500  1
  O  O21  1  0.78915500  0.19659300  0.38753500  1
  O  O22  1  0.78915500  0.30340700  0.88753500  1
  O  O23  1  0.21084500  0.80340700  0.61246500  1
  O  O24  1  0.62328400  0.24295300  0.02294500  1
  O  O25  1  0.37671600  0.74295300  0.47705500  1
  O  O26  1  0.37671600  0.75704700  0.97705500  1
  O  O27  1  0.62328400  0.25704700  0.52294500  1
  O  O28  1  0.20598000  0.38277900  0.23075800  1
  O  O29  1  0.79402000  0.88277900  0.26924200  1
  O  O30  1  0.79402000  0.61722100  0.76924200  1
  O  O31  1  0.20598000  0.11722100  0.73075800  1
  O  O32  1  0.12574400  0.26762000  0.96136200  1
  O  O33  1  0.87425600  0.76762000  0.53863800  1
  O  O34  1  0.87425600  0.73238000  0.03863800  1
  O  O35  1  0.12574400  0.23238000  0.46136200  1
  O  O36  1  0.39825300  0.39170000  0.11819900  1
  O  O37  1  0.60174700  0.89170000  0.38180100  1
  O  O38  1  0.60174700  0.60830000  0.88180100  1
  O  O39  1  0.39825300  0.10830000  0.61819900  1
  O  O40  1  0.32209300  0.13109400  0.19589300  1
  O  O41  1  0.67790700  0.63109400  0.30410700  1
  O  O42  1  0.67790700  0.86890600  0.80410700  1
  O  O43  1  0.32209300  0.36890600  0.69589300  1
