# generated using pymatgen
data_ThCoSi
_symmetry_space_group_name_H-M   'P 1'
_cell_length_a   7.46212398
_cell_length_b   7.46212398
_cell_length_c   7.46212398
_cell_angle_alpha   148.02969890
_cell_angle_beta   148.02969890
_cell_angle_gamma   45.84152622
_symmetry_Int_Tables_number   1
_chemical_formula_structural   ThCoSi
_chemical_formula_sum   'Th2 Co2 Si2'
_cell_volume   116.09636119
_cell_formula_units_Z   2
loop_
 _symmetry_equiv_pos_site_id
 _symmetry_equiv_pos_as_xyz
  1  'x, y, z'
loop_
 _atom_site_type_symbol
 _atom_site_label
 _atom_site_symmetry_multiplicity
 _atom_site_fract_x
 _atom_site_fract_y
 _atom_site_fract_z
 _atom_site_occupancy
  Th  Th0  1  0.57720400  0.57720400  0.00000000  1
  Th  Th1  1  0.32720400  0.82720400  0.50000000  1
  Co  Co2  1  0.17022500  0.17022500  0.00000000  1
  Co  Co3  1  0.92022500  0.42022500  0.50000000  1
  Si  Si4  1  0.99957100  0.99957100  0.00000000  1
  Si  Si5  1  0.74957100  0.24957100  0.50000000  1
