# generated using pymatgen
data_PrPb2
_symmetry_space_group_name_H-M   'P 1'
_cell_length_a   16.18562218
_cell_length_b   16.18562218
_cell_length_c   16.18562218
_cell_angle_alpha   162.91463256
_cell_angle_beta   162.91463256
_cell_angle_gamma   24.25361123
_symmetry_Int_Tables_number   1
_chemical_formula_structural   PrPb2
_chemical_formula_sum   'Pr4 Pb8'
_cell_volume   365.90640936
_cell_formula_units_Z   4
loop_
 _symmetry_equiv_pos_site_id
 _symmetry_equiv_pos_as_xyz
  1  'x, y, z'
loop_
 _atom_site_type_symbol
 _atom_site_label
 _atom_site_symmetry_multiplicity
 _atom_site_fract_x
 _atom_site_fract_y
 _atom_site_fract_z
 _atom_site_occupancy
  Pr  Pr0  1  0.82400600  0.32400600  0.50000000  1
  Pr  Pr1  1  0.92599400  0.92599400  0.00000000  1
  Pr  Pr2  1  0.67599400  0.17599400  0.50000000  1
  Pr  Pr3  1  0.07400600  0.07400600  0.00000000  1
  Pb  Pb4  1  0.00004900  0.50004900  0.50000000  1
  Pb  Pb5  1  0.74995100  0.74995100  0.00000000  1
  Pb  Pb6  1  0.49995100  0.99995100  0.50000000  1
  Pb  Pb7  1  0.25004900  0.25004900  0.00000000  1
  Pb  Pb8  1  0.16279900  0.66279900  0.50000000  1
  Pb  Pb9  1  0.58720100  0.58720100  0.00000000  1
  Pb  Pb10  1  0.33720100  0.83720100  0.50000000  1
  Pb  Pb11  1  0.41279900  0.41279900  0.00000000  1
