# generated using pymatgen
data_Ba(AgTe)2
_symmetry_space_group_name_H-M   'P 1'
_cell_length_a   4.68002300
_cell_length_b   11.10845400
_cell_length_c   11.93287400
_cell_angle_alpha   90.00000000
_cell_angle_beta   90.00000000
_cell_angle_gamma   90.00000000
_symmetry_Int_Tables_number   1
_chemical_formula_structural   Ba(AgTe)2
_chemical_formula_sum   'Ba4 Ag8 Te8'
_cell_volume   620.36410815
_cell_formula_units_Z   4
loop_
 _symmetry_equiv_pos_site_id
 _symmetry_equiv_pos_as_xyz
  1  'x, y, z'
loop_
 _atom_site_type_symbol
 _atom_site_label
 _atom_site_symmetry_multiplicity
 _atom_site_fract_x
 _atom_site_fract_y
 _atom_site_fract_z
 _atom_site_occupancy
  Ba  Ba0  1  0.75000000  0.74305700  0.80639500  1
  Ba  Ba1  1  0.25000000  0.25694300  0.19360500  1
  Ba  Ba2  1  0.75000000  0.24305700  0.69360500  1
  Ba  Ba3  1  0.25000000  0.75694300  0.30639500  1
  Ag  Ag4  1  0.25000000  0.06156300  0.45230100  1
  Ag  Ag5  1  0.75000000  0.93843700  0.54769900  1
  Ag  Ag6  1  0.75000000  0.43843700  0.95230100  1
  Ag  Ag7  1  0.25000000  0.56156300  0.04769900  1
  Ag  Ag8  1  0.75000000  0.94016300  0.08514100  1
  Ag  Ag9  1  0.25000000  0.05983700  0.91485900  1
  Ag  Ag10  1  0.75000000  0.44016300  0.41485900  1
  Ag  Ag11  1  0.25000000  0.55983700  0.58514100  1
  Te  Te12  1  0.25000000  0.81756400  0.01828800  1
  Te  Te13  1  0.75000000  0.18243600  0.98171200  1
  Te  Te14  1  0.75000000  0.68243600  0.51828800  1
  Te  Te15  1  0.25000000  0.31756400  0.48171200  1
  Te  Te16  1  0.75000000  0.52216600  0.18699400  1
  Te  Te17  1  0.25000000  0.47783400  0.81300600  1
  Te  Te18  1  0.75000000  0.02216600  0.31300600  1
  Te  Te19  1  0.25000000  0.97783400  0.68699400  1
