# generated using pymatgen
data_V3O5
_symmetry_space_group_name_H-M   'P 1'
_cell_length_a   5.18906077
_cell_length_b   5.74591077
_cell_length_c   7.09586869
_cell_angle_alpha   109.80228134
_cell_angle_beta   90.57332721
_cell_angle_gamma   62.62106441
_symmetry_Int_Tables_number   1
_chemical_formula_structural   V3O5
_chemical_formula_sum   'V6 O10'
_cell_volume   174.04930479
_cell_formula_units_Z   2
loop_
 _symmetry_equiv_pos_site_id
 _symmetry_equiv_pos_as_xyz
  1  'x, y, z'
loop_
 _atom_site_type_symbol
 _atom_site_label
 _atom_site_symmetry_multiplicity
 _atom_site_fract_x
 _atom_site_fract_y
 _atom_site_fract_z
 _atom_site_occupancy
  V  V0  1  0.86986200  0.76238700  0.22299000  1
  V  V1  1  0.86969800  0.75875400  0.72051800  1
  V  V2  1  0.13013800  0.23761600  0.77701000  1
  V  V3  1  0.13030300  0.24124300  0.27948200  1
  V  V4  1  0.49999400  0.50000700  0.49999900  1
  V  V5  1  0.50000200  0.49999800  0.00000000  1
  O  O6  1  0.70303200  0.49093000  0.74705400  1
  O  O7  1  0.29696800  0.50906900  0.25294600  1
  O  O8  1  0.15632300  0.89713600  0.66672700  1
  O  O9  1  0.47493800  0.87206000  0.16150700  1
  O  O10  1  0.84367500  0.10286500  0.33327300  1
  O  O11  1  0.52506300  0.12793800  0.83849300  1
  O  O12  1  0.06636900  0.66233000  0.94787500  1
  O  O13  1  0.76496800  0.65418900  0.43763000  1
  O  O14  1  0.93363400  0.33766800  0.05212500  1
  O  O15  1  0.23503300  0.34581100  0.56237000  1
