# generated using pymatgen
data_LiGe2N3
_symmetry_space_group_name_H-M   'P 1'
_cell_length_a   5.56329956
_cell_length_b   5.56329956
_cell_length_c   5.10168200
_cell_angle_alpha   90.00000000
_cell_angle_beta   90.00000000
_cell_angle_gamma   119.84624130
_symmetry_Int_Tables_number   1
_chemical_formula_structural   LiGe2N3
_chemical_formula_sum   'Li2 Ge4 N6'
_cell_volume   136.95557291
_cell_formula_units_Z   2
loop_
 _symmetry_equiv_pos_site_id
 _symmetry_equiv_pos_as_xyz
  1  'x, y, z'
loop_
 _atom_site_type_symbol
 _atom_site_label
 _atom_site_symmetry_multiplicity
 _atom_site_fract_x
 _atom_site_fract_y
 _atom_site_fract_z
 _atom_site_occupancy
  Li  Li0  1  0.65850600  0.65850600  0.48832100  1
  Li  Li1  1  0.34149400  0.34149400  0.98832100  1
  Ge  Ge2  1  0.32993200  0.00328600  0.49265500  1
  Ge  Ge3  1  0.00328600  0.32993200  0.49265500  1
  Ge  Ge4  1  0.67006800  0.99671400  0.99265500  1
  Ge  Ge5  1  0.99671400  0.67006800  0.99265500  1
  N  N6  1  0.33558200  0.96144100  0.86136300  1
  N  N7  1  0.96144100  0.33558200  0.86136300  1
  N  N8  1  0.66441800  0.03855900  0.36136300  1
  N  N9  1  0.03855900  0.66441800  0.36136300  1
  N  N10  1  0.70150900  0.70150900  0.89164600  1
  N  N11  1  0.29849100  0.29849100  0.39164600  1
