# generated using pymatgen
data_Hf2Co4P3
_symmetry_space_group_name_H-M   'P 1'
_cell_length_a   12.05125700
_cell_length_b   12.05125700
_cell_length_c   3.64053500
_cell_angle_alpha   90.00000000
_cell_angle_beta   90.00000000
_cell_angle_gamma   120.00000550
_symmetry_Int_Tables_number   1
_chemical_formula_structural   Hf2Co4P3
_chemical_formula_sum   'Hf8 Co16 P12'
_cell_volume   457.88932077
_cell_formula_units_Z   4
loop_
 _symmetry_equiv_pos_site_id
 _symmetry_equiv_pos_as_xyz
  1  'x, y, z'
loop_
 _atom_site_type_symbol
 _atom_site_label
 _atom_site_symmetry_multiplicity
 _atom_site_fract_x
 _atom_site_fract_y
 _atom_site_fract_z
 _atom_site_occupancy
  Hf  Hf0  1  0.82444500  0.82444500  0.50000000  1
  Hf  Hf1  1  0.44422400  0.44422400  0.00000000  1
  Hf  Hf2  1  0.00000000  0.17555500  0.50000000  1
  Hf  Hf3  1  0.55577600  0.00000000  0.00000000  1
  Hf  Hf4  1  0.33333300  0.66666700  0.00000000  1
  Hf  Hf5  1  0.66666700  0.33333300  0.00000000  1
  Hf  Hf6  1  0.00000000  0.55577600  0.00000000  1
  Hf  Hf7  1  0.17555500  0.00000000  0.50000000  1
  Co  Co8  1  0.62704300  0.82072200  0.00000000  1
  Co  Co9  1  0.37295700  0.19367900  0.00000000  1
  Co  Co10  1  0.00000000  0.72118900  0.50000000  1
  Co  Co11  1  0.27881100  0.27881100  0.50000000  1
  Co  Co12  1  0.87324500  0.35537300  0.50000000  1
  Co  Co13  1  0.72118900  0.00000000  0.50000000  1
  Co  Co14  1  0.82072200  0.62704300  0.00000000  1
  Co  Co15  1  0.17927800  0.80632100  0.00000000  1
  Co  Co16  1  0.35537300  0.87324500  0.50000000  1
  Co  Co17  1  0.12675500  0.48212800  0.50000000  1
  Co  Co18  1  0.64462700  0.51787200  0.50000000  1
  Co  Co19  1  0.00000000  0.00000000  0.00000000  1
  Co  Co20  1  0.51787200  0.64462700  0.50000000  1
  Co  Co21  1  0.48212800  0.12675500  0.50000000  1
  Co  Co22  1  0.19367900  0.37295700  0.00000000  1
  Co  Co23  1  0.80632100  0.17927800  0.00000000  1
  P  P24  1  0.00000000  0.34484300  0.00000000  1
  P  P25  1  0.82641600  0.51673700  0.50000000  1
  P  P26  1  0.69032000  0.17358400  0.50000000  1
  P  P27  1  0.17561300  0.17561300  0.00000000  1
  P  P28  1  0.65515700  0.65515700  0.00000000  1
  P  P29  1  0.82438700  0.00000000  0.00000000  1
  P  P30  1  0.51673700  0.82641600  0.50000000  1
  P  P31  1  0.17358400  0.69032000  0.50000000  1
  P  P32  1  0.34484300  0.00000000  0.00000000  1
  P  P33  1  0.48326300  0.30968000  0.50000000  1
  P  P34  1  0.00000000  0.82438700  0.00000000  1
  P  P35  1  0.30968000  0.48326300  0.50000000  1
