# generated using pymatgen
data_Ba3GeO
_symmetry_space_group_name_H-M   'P 1'
_cell_length_a   7.61088500
_cell_length_b   7.76563200
_cell_length_c   10.89107700
_cell_angle_alpha   90.00000000
_cell_angle_beta   90.00000000
_cell_angle_gamma   90.00000000
_symmetry_Int_Tables_number   1
_chemical_formula_structural   Ba3GeO
_chemical_formula_sum   'Ba12 Ge4 O4'
_cell_volume   643.69894090
_cell_formula_units_Z   4
loop_
 _symmetry_equiv_pos_site_id
 _symmetry_equiv_pos_as_xyz
  1  'x, y, z'
loop_
 _atom_site_type_symbol
 _atom_site_label
 _atom_site_symmetry_multiplicity
 _atom_site_fract_x
 _atom_site_fract_y
 _atom_site_fract_z
 _atom_site_occupancy
  Ba  Ba0  1  0.57866700  0.51958900  0.25000000  1
  Ba  Ba1  1  0.07866700  0.98041100  0.75000000  1
  Ba  Ba2  1  0.92133300  0.01958900  0.25000000  1
  Ba  Ba3  1  0.42133300  0.48041100  0.75000000  1
  Ba  Ba4  1  0.29003200  0.21052300  0.45890100  1
  Ba  Ba5  1  0.79003200  0.28947700  0.54109900  1
  Ba  Ba6  1  0.20996800  0.71052300  0.04109900  1
  Ba  Ba7  1  0.70996800  0.78947700  0.95890100  1
  Ba  Ba8  1  0.70996800  0.78947700  0.54109900  1
  Ba  Ba9  1  0.20996800  0.71052300  0.45890100  1
  Ba  Ba10  1  0.79003200  0.28947700  0.95890100  1
  Ba  Ba11  1  0.29003200  0.21052300  0.04109900  1
  Ge  Ge12  1  0.98679900  0.53978100  0.75000000  1
  Ge  Ge13  1  0.48679900  0.96021900  0.25000000  1
  Ge  Ge14  1  0.51320100  0.03978100  0.75000000  1
  Ge  Ge15  1  0.01320100  0.46021900  0.25000000  1
  O  O16  1  0.00000000  0.00000000  0.50000000  1
  O  O17  1  0.50000000  0.50000000  0.50000000  1
  O  O18  1  0.50000000  0.50000000  0.00000000  1
  O  O19  1  0.00000000  0.00000000  0.00000000  1
