# generated using pymatgen
data_Rb2WSe4
_symmetry_space_group_name_H-M   'P 1'
_cell_length_a   7.46334700
_cell_length_b   10.30113100
_cell_length_c   13.17895000
_cell_angle_alpha   90.00000000
_cell_angle_beta   90.00000000
_cell_angle_gamma   90.00000000
_symmetry_Int_Tables_number   1
_chemical_formula_structural   Rb2WSe4
_chemical_formula_sum   'Rb8 W4 Se16'
_cell_volume   1013.20973666
_cell_formula_units_Z   4
loop_
 _symmetry_equiv_pos_site_id
 _symmetry_equiv_pos_as_xyz
  1  'x, y, z'
loop_
 _atom_site_type_symbol
 _atom_site_label
 _atom_site_symmetry_multiplicity
 _atom_site_fract_x
 _atom_site_fract_y
 _atom_site_fract_z
 _atom_site_occupancy
  Rb  Rb0  1  0.25000000  0.45313600  0.84206000  1
  Rb  Rb1  1  0.25000000  0.95313600  0.65794000  1
  Rb  Rb2  1  0.75000000  0.54686400  0.15794000  1
  Rb  Rb3  1  0.75000000  0.04686400  0.34206000  1
  Rb  Rb4  1  0.25000000  0.15709600  0.11492100  1
  Rb  Rb5  1  0.25000000  0.65709600  0.38507900  1
  Rb  Rb6  1  0.75000000  0.84290400  0.88507900  1
  Rb  Rb7  1  0.75000000  0.34290400  0.61492100  1
  W  W8  1  0.25000000  0.24912700  0.43022400  1
  W  W9  1  0.25000000  0.74912700  0.06977600  1
  W  W10  1  0.75000000  0.75087300  0.56977600  1
  W  W11  1  0.75000000  0.25087300  0.93022400  1
  Se  Se12  1  0.00272100  0.15095300  0.86198500  1
  Se  Se13  1  0.49727900  0.65095300  0.63801500  1
  Se  Se14  1  0.50272100  0.84904700  0.13801500  1
  Se  Se15  1  0.99727900  0.34904700  0.36198500  1
  Se  Se16  1  0.99727900  0.84904700  0.13801500  1
  Se  Se17  1  0.50272100  0.34904700  0.36198500  1
  Se  Se18  1  0.49727900  0.15095300  0.86198500  1
  Se  Se19  1  0.00272100  0.65095300  0.63801500  1
  Se  Se20  1  0.25000000  0.02701300  0.38716200  1
  Se  Se21  1  0.25000000  0.52701300  0.11283800  1
  Se  Se22  1  0.75000000  0.97298700  0.61283800  1
  Se  Se23  1  0.75000000  0.47298700  0.88716200  1
  Se  Se24  1  0.25000000  0.27977500  0.60587700  1
  Se  Se25  1  0.25000000  0.77977500  0.89412300  1
  Se  Se26  1  0.75000000  0.72022500  0.39412300  1
  Se  Se27  1  0.75000000  0.22022500  0.10587700  1
