# generated using pymatgen
data_KEu2Cl7
_symmetry_space_group_name_H-M   'P 1'
_cell_length_a   13.21605000
_cell_length_b   7.17979800
_cell_length_c   13.32537495
_cell_angle_alpha   89.61301097
_cell_angle_beta   90.00000000
_cell_angle_gamma   90.00000000
_symmetry_Int_Tables_number   1
_chemical_formula_structural   KEu2Cl7
_chemical_formula_sum   'K4 Eu8 Cl28'
_cell_volume   1264.39692378
_cell_formula_units_Z   4
loop_
 _symmetry_equiv_pos_site_id
 _symmetry_equiv_pos_as_xyz
  1  'x, y, z'
loop_
 _atom_site_type_symbol
 _atom_site_label
 _atom_site_symmetry_multiplicity
 _atom_site_fract_x
 _atom_site_fract_y
 _atom_site_fract_z
 _atom_site_occupancy
  K  K0  1  0.20293800  0.71442300  0.03767000  1
  K  K1  1  0.79706200  0.28557700  0.96233000  1
  K  K2  1  0.70293800  0.28557700  0.46233000  1
  K  K3  1  0.29706200  0.71442300  0.53767000  1
  Eu  Eu4  1  0.53804900  0.78088700  0.23845500  1
  Eu  Eu5  1  0.46195100  0.21911300  0.76154500  1
  Eu  Eu6  1  0.03804900  0.21911300  0.26154500  1
  Eu  Eu7  1  0.96195100  0.78088700  0.73845500  1
  Eu  Eu8  1  0.83735600  0.72398500  0.24968300  1
  Eu  Eu9  1  0.16264400  0.27601500  0.75031700  1
  Eu  Eu10  1  0.33735600  0.27601500  0.25031700  1
  Eu  Eu11  1  0.66264400  0.72398500  0.74968300  1
  Cl  Cl12  1  0.97253800  0.94233400  0.13078100  1
  Cl  Cl13  1  0.02746200  0.05766600  0.86921900  1
  Cl  Cl14  1  0.47253800  0.05766600  0.36921900  1
  Cl  Cl15  1  0.52746200  0.94233400  0.63078100  1
  Cl  Cl16  1  0.68407400  0.73742600  0.39675100  1
  Cl  Cl17  1  0.31592600  0.26257400  0.60324900  1
  Cl  Cl18  1  0.18407400  0.26257400  0.10324900  1
  Cl  Cl19  1  0.81592600  0.73742600  0.89675100  1
  Cl  Cl20  1  0.67604400  0.51253100  0.17046600  1
  Cl  Cl21  1  0.32395600  0.48746900  0.82953400  1
  Cl  Cl22  1  0.17604400  0.48746900  0.32953400  1
  Cl  Cl23  1  0.82395600  0.51253100  0.67046600  1
  Cl  Cl24  1  0.92569200  0.97025200  0.38258000  1
  Cl  Cl25  1  0.07430800  0.02974800  0.61742000  1
  Cl  Cl26  1  0.42569200  0.02974800  0.11742000  1
  Cl  Cl27  1  0.57430800  0.97025200  0.88258000  1
  Cl  Cl28  1  0.93999400  0.45793600  0.12701000  1
  Cl  Cl29  1  0.06000600  0.54206400  0.87299000  1
  Cl  Cl30  1  0.43999400  0.54206400  0.37299000  1
  Cl  Cl31  1  0.56000600  0.45793600  0.62701000  1
  Cl  Cl32  1  0.70308200  0.99707800  0.17554900  1
  Cl  Cl33  1  0.29691800  0.00292200  0.82445100  1
  Cl  Cl34  1  0.20308200  0.00292200  0.32445100  1
  Cl  Cl35  1  0.79691800  0.99707800  0.67554900  1
  Cl  Cl36  1  0.91156500  0.45263500  0.38221700  1
  Cl  Cl37  1  0.08843500  0.54736500  0.61778300  1
  Cl  Cl38  1  0.41156500  0.54736500  0.11778300  1
  Cl  Cl39  1  0.58843500  0.45263500  0.88221700  1
