# generated using pymatgen
data_Li2B3O4F3
_symmetry_space_group_name_H-M   'P 1'
_cell_length_a   4.96263600
_cell_length_b   8.82851700
_cell_length_c   12.44566400
_cell_angle_alpha   90.00000000
_cell_angle_beta   90.00000000
_cell_angle_gamma   90.00000000
_symmetry_Int_Tables_number   1
_chemical_formula_structural   Li2B3O4F3
_chemical_formula_sum   'Li8 B12 O16 F12'
_cell_volume   545.27834588
_cell_formula_units_Z   4
loop_
 _symmetry_equiv_pos_site_id
 _symmetry_equiv_pos_as_xyz
  1  'x, y, z'
loop_
 _atom_site_type_symbol
 _atom_site_label
 _atom_site_symmetry_multiplicity
 _atom_site_fract_x
 _atom_site_fract_y
 _atom_site_fract_z
 _atom_site_occupancy
  Li  Li0  1  0.58561300  0.14529200  0.10340700  1
  Li  Li1  1  0.91438700  0.85470800  0.60340700  1
  Li  Li2  1  0.08561300  0.35470800  0.89659300  1
  Li  Li3  1  0.41438700  0.64529200  0.39659300  1
  Li  Li4  1  0.34000000  0.70631000  0.92831100  1
  Li  Li5  1  0.16000000  0.29369000  0.42831100  1
  Li  Li6  1  0.84000000  0.79369000  0.07168900  1
  Li  Li7  1  0.66000000  0.20631000  0.57168900  1
  B  B8  1  0.91956600  0.81849100  0.83977600  1
  B  B9  1  0.58043400  0.18150900  0.33977600  1
  B  B10  1  0.41956600  0.68150900  0.16022400  1
  B  B11  1  0.08043400  0.31849100  0.66022400  1
  B  B12  1  0.09108900  0.03132500  0.96105500  1
  B  B13  1  0.40891100  0.96867500  0.46105500  1
  B  B14  1  0.59108900  0.46867500  0.03894500  1
  B  B15  1  0.90891100  0.53132500  0.53894500  1
  B  B16  1  0.97837100  0.07933100  0.76977000  1
  B  B17  1  0.52162900  0.92066900  0.26977000  1
  B  B18  1  0.47837100  0.42066900  0.23023000  1
  B  B19  1  0.02162900  0.57933100  0.73023000  1
  O  O20  1  0.03568000  0.87336900  0.94048600  1
  O  O21  1  0.46432000  0.12663100  0.44048600  1
  O  O22  1  0.53568000  0.62663100  0.05951400  1
  O  O23  1  0.96432000  0.37336900  0.55951400  1
  O  O24  1  0.04178700  0.13350900  0.87080600  1
  O  O25  1  0.45821300  0.86649100  0.37080600  1
  O  O26  1  0.54178700  0.36649100  0.12919400  1
  O  O27  1  0.95821300  0.63350900  0.62919400  1
  O  O28  1  0.94056700  0.92700600  0.75179500  1
  O  O29  1  0.55943300  0.07299400  0.25179500  1
  O  O30  1  0.44056700  0.57299400  0.24820500  1
  O  O31  1  0.05943300  0.42700600  0.74820500  1
  O  O32  1  0.94765200  0.17390100  0.68286600  1
  O  O33  1  0.55234800  0.82609900  0.18286600  1
  O  O34  1  0.44765200  0.32609900  0.31713400  1
  O  O35  1  0.05234800  0.67390100  0.81713400  1
  F  F36  1  0.92855900  0.07986500  0.05255400  1
  F  F37  1  0.57144100  0.92013500  0.55255400  1
  F  F38  1  0.42855900  0.42013500  0.94744600  1
  F  F39  1  0.07144100  0.57986500  0.44744600  1
  F  F40  1  0.36605600  0.05055000  0.99675700  1
  F  F41  1  0.13394400  0.94945000  0.49675700  1
  F  F42  1  0.86605600  0.44945000  0.00324300  1
  F  F43  1  0.63394400  0.55055000  0.50324300  1
  F  F44  1  0.63202800  0.78795100  0.85506000  1
  F  F45  1  0.86797200  0.21204900  0.35506000  1
  F  F46  1  0.13202800  0.71204900  0.14494000  1
  F  F47  1  0.36797200  0.28795100  0.64494000  1
