# generated using pymatgen
data_Cs3V2O2F7
_symmetry_space_group_name_H-M   'P 1'
_cell_length_a   6.44821555
_cell_length_b   6.44821555
_cell_length_c   15.24242556
_cell_angle_alpha   89.50160879
_cell_angle_beta   89.50160879
_cell_angle_gamma   119.88219476
_symmetry_Int_Tables_number   1
_chemical_formula_structural   Cs3V2O2F7
_chemical_formula_sum   'Cs6 V4 O4 F14'
_cell_volume   549.43033274
_cell_formula_units_Z   2
loop_
 _symmetry_equiv_pos_site_id
 _symmetry_equiv_pos_as_xyz
  1  'x, y, z'
loop_
 _atom_site_type_symbol
 _atom_site_label
 _atom_site_symmetry_multiplicity
 _atom_site_fract_x
 _atom_site_fract_y
 _atom_site_fract_z
 _atom_site_occupancy
  Cs  Cs0  1  0.66800500  0.33199500  0.25000000  1
  Cs  Cs1  1  0.33199500  0.66800500  0.75000000  1
  Cs  Cs2  1  0.66756100  0.33523800  0.93291500  1
  Cs  Cs3  1  0.33243900  0.66476200  0.06708500  1
  Cs  Cs4  1  0.33523800  0.66756100  0.43291500  1
  Cs  Cs5  1  0.66476200  0.33243900  0.56708500  1
  V  V6  1  0.98205700  0.96984700  0.15036000  1
  V  V7  1  0.01794300  0.03015300  0.84964000  1
  V  V8  1  0.96984700  0.98205700  0.65036000  1
  V  V9  1  0.03015300  0.01794300  0.34964000  1
  O  O10  1  0.28458400  0.14296900  0.40341900  1
  O  O11  1  0.71541600  0.85703100  0.59658100  1
  O  O12  1  0.14296900  0.28458400  0.90341900  1
  O  O13  1  0.85703100  0.71541600  0.09658100  1
  F  F14  1  0.26217600  0.12795800  0.75223500  1
  F  F15  1  0.87204200  0.73782400  0.74776500  1
  F  F16  1  0.86717100  0.13282900  0.75000000  1
  F  F17  1  0.73782400  0.87204200  0.24776500  1
  F  F18  1  0.12795800  0.26217600  0.25223500  1
  F  F19  1  0.13282900  0.86717100  0.25000000  1
  F  F20  1  0.84672100  0.70752800  0.40329900  1
  F  F21  1  0.84668600  0.14084900  0.40447100  1
  F  F22  1  0.15327900  0.29247200  0.59670100  1
  F  F23  1  0.15331400  0.85915100  0.59552900  1
  F  F24  1  0.70752800  0.84672100  0.90329900  1
  F  F25  1  0.14084900  0.84668600  0.90447100  1
  F  F26  1  0.29247200  0.15327900  0.09670100  1
  F  F27  1  0.85915100  0.15331400  0.09552900  1
