# generated using pymatgen
data_KPd2O3
_symmetry_space_group_name_H-M   'P 1'
_cell_length_a   7.14968258
_cell_length_b   7.14968258
_cell_length_c   7.14968245
_cell_angle_alpha   51.79796957
_cell_angle_beta   51.79796957
_cell_angle_gamma   51.79796643
_symmetry_Int_Tables_number   1
_chemical_formula_structural   KPd2O3
_chemical_formula_sum   'K2 Pd4 O6'
_cell_volume   208.56815087
_cell_formula_units_Z   2
loop_
 _symmetry_equiv_pos_site_id
 _symmetry_equiv_pos_as_xyz
  1  'x, y, z'
loop_
 _atom_site_type_symbol
 _atom_site_label
 _atom_site_symmetry_multiplicity
 _atom_site_fract_x
 _atom_site_fract_y
 _atom_site_fract_z
 _atom_site_occupancy
  K  K0  1  0.82971100  0.82971100  0.82971100  1
  K  K1  1  0.17028900  0.17028900  0.17028900  1
  Pd  Pd2  1  0.00000000  0.50000000  0.50000000  1
  Pd  Pd3  1  0.50000000  0.00000000  0.50000000  1
  Pd  Pd4  1  0.50000000  0.50000000  0.00000000  1
  Pd  Pd5  1  0.00000000  0.00000000  0.00000000  1
  O  O6  1  0.88618800  0.38984100  0.88618800  1
  O  O7  1  0.88618800  0.88618800  0.38984100  1
  O  O8  1  0.38984100  0.88618800  0.88618800  1
  O  O9  1  0.11381200  0.61015900  0.11381200  1
  O  O10  1  0.11381200  0.11381200  0.61015900  1
  O  O11  1  0.61015900  0.11381200  0.11381200  1
