# generated using pymatgen
data_Sr2Bi2Se3O2
_symmetry_space_group_name_H-M   'P 1'
_cell_length_a   4.13642900
_cell_length_b   9.72265742
_cell_length_c   11.62119645
_cell_angle_alpha   100.23200214
_cell_angle_beta   90.00000000
_cell_angle_gamma   90.00000000
_symmetry_Int_Tables_number   1
_chemical_formula_structural   Sr2Bi2Se3O2
_chemical_formula_sum   'Sr4 Bi4 Se6 O4'
_cell_volume   459.93780428
_cell_formula_units_Z   2
loop_
 _symmetry_equiv_pos_site_id
 _symmetry_equiv_pos_as_xyz
  1  'x, y, z'
loop_
 _atom_site_type_symbol
 _atom_site_label
 _atom_site_symmetry_multiplicity
 _atom_site_fract_x
 _atom_site_fract_y
 _atom_site_fract_z
 _atom_site_occupancy
  Sr  Sr0  1  0.50839600  0.71111000  0.60724200  1
  Sr  Sr1  1  0.00839600  0.78889000  0.89275800  1
  Sr  Sr2  1  0.49160400  0.28889000  0.39275800  1
  Sr  Sr3  1  0.99160400  0.21111000  0.10724200  1
  Bi  Bi4  1  0.50203200  0.44647100  0.80934900  1
  Bi  Bi5  1  0.00203200  0.05352900  0.69065100  1
  Bi  Bi6  1  0.49796800  0.55352900  0.19065100  1
  Bi  Bi7  1  0.99796800  0.94647100  0.30934900  1
  Se  Se8  1  0.50000000  0.00000000  0.50000000  1
  Se  Se9  1  0.00000000  0.50000000  0.00000000  1
  Se  Se10  1  0.49959800  0.08730700  0.87043700  1
  Se  Se11  1  0.99959800  0.41269300  0.62956300  1
  Se  Se12  1  0.50040200  0.91269300  0.12956300  1
  Se  Se13  1  0.00040200  0.58730700  0.37043700  1
  O  O14  1  0.49632700  0.33363500  0.18727200  1
  O  O15  1  0.99632700  0.16636500  0.31272800  1
  O  O16  1  0.50367300  0.66636500  0.81272800  1
  O  O17  1  0.00367300  0.83363500  0.68727200  1
