# generated using pymatgen
data_Cr2WO6
_symmetry_space_group_name_H-M   'P 1'
_cell_length_a   4.66648400
_cell_length_b   4.66649000
_cell_length_c   9.08681400
_cell_angle_alpha   89.99997511
_cell_angle_beta   90.00000631
_cell_angle_gamma   89.99997544
_symmetry_Int_Tables_number   1
_chemical_formula_structural   Cr2WO6
_chemical_formula_sum   'Cr4 W2 O12'
_cell_volume   197.87537872
_cell_formula_units_Z   2
loop_
 _symmetry_equiv_pos_site_id
 _symmetry_equiv_pos_as_xyz
  1  'x, y, z'
loop_
 _atom_site_type_symbol
 _atom_site_label
 _atom_site_symmetry_multiplicity
 _atom_site_fract_x
 _atom_site_fract_y
 _atom_site_fract_z
 _atom_site_occupancy
  Cr  Cr0  1  0.50000000  0.50000000  0.83509000  1
  Cr  Cr1  1  0.00000000  0.00000000  0.66490800  1
  Cr  Cr2  1  0.00000000  0.00000000  0.33508300  1
  Cr  Cr3  1  0.50000000  0.50000000  0.16491800  1
  W  W4  1  0.99999900  0.99999900  0.00002000  1
  W  W5  1  0.50000000  0.50000100  0.49998200  1
  O  O6  1  0.29910500  0.29910500  0.99999800  1
  O  O7  1  0.20089400  0.79910600  0.50000200  1
  O  O8  1  0.79910500  0.20089400  0.50000200  1
  O  O9  1  0.70089500  0.70089400  0.99999800  1
  O  O10  1  0.30557100  0.30557200  0.33958700  1
  O  O11  1  0.19442800  0.80557300  0.16041200  1
  O  O12  1  0.19443800  0.80556300  0.83958300  1
  O  O13  1  0.30556300  0.30556400  0.66041700  1
  O  O14  1  0.80557200  0.19442700  0.16041200  1
  O  O15  1  0.69442900  0.69442800  0.33958700  1
  O  O16  1  0.69443700  0.69443600  0.66041700  1
  O  O17  1  0.80556300  0.19443700  0.83958300  1
