# generated using pymatgen
data_Dy2CdPd2
_symmetry_space_group_name_H-M   'P 1'
_cell_length_a   7.70890400
_cell_length_b   7.70890400
_cell_length_c   3.75454800
_cell_angle_alpha   90.00000000
_cell_angle_beta   90.00000000
_cell_angle_gamma   90.00000000
_symmetry_Int_Tables_number   1
_chemical_formula_structural   Dy2CdPd2
_chemical_formula_sum   'Dy4 Cd2 Pd4'
_cell_volume   223.12227821
_cell_formula_units_Z   2
loop_
 _symmetry_equiv_pos_site_id
 _symmetry_equiv_pos_as_xyz
  1  'x, y, z'
loop_
 _atom_site_type_symbol
 _atom_site_label
 _atom_site_symmetry_multiplicity
 _atom_site_fract_x
 _atom_site_fract_y
 _atom_site_fract_z
 _atom_site_occupancy
  Dy  Dy0  1  0.32829600  0.82829600  0.50000000  1
  Dy  Dy1  1  0.82829600  0.67170400  0.50000000  1
  Dy  Dy2  1  0.17170400  0.32829600  0.50000000  1
  Dy  Dy3  1  0.67170400  0.17170400  0.50000000  1
  Cd  Cd4  1  0.00000000  0.00000000  0.00000000  1
  Cd  Cd5  1  0.50000000  0.50000000  0.00000000  1
  Pd  Pd6  1  0.37077000  0.12923000  0.00000000  1
  Pd  Pd7  1  0.87077000  0.37077000  0.00000000  1
  Pd  Pd8  1  0.12923000  0.62923000  0.00000000  1
  Pd  Pd9  1  0.62923000  0.87077000  0.00000000  1
