# generated using pymatgen
data_Li3AlSiO5
_symmetry_space_group_name_H-M   'P 1'
_cell_length_a   4.84202800
_cell_length_b   5.37440700
_cell_length_c   15.68112500
_cell_angle_alpha   90.00000000
_cell_angle_beta   90.00000000
_cell_angle_gamma   90.00000000
_symmetry_Int_Tables_number   1
_chemical_formula_structural   Li3AlSiO5
_chemical_formula_sum   'Li12 Al4 Si4 O20'
_cell_volume   408.07037341
_cell_formula_units_Z   4
loop_
 _symmetry_equiv_pos_site_id
 _symmetry_equiv_pos_as_xyz
  1  'x, y, z'
loop_
 _atom_site_type_symbol
 _atom_site_label
 _atom_site_symmetry_multiplicity
 _atom_site_fract_x
 _atom_site_fract_y
 _atom_site_fract_z
 _atom_site_occupancy
  Li  Li0  1  0.89662900  0.17216400  0.69684100  1
  Li  Li1  1  0.39662900  0.82783500  0.30315900  1
  Li  Li2  1  0.39662900  0.32783600  0.19684100  1
  Li  Li3  1  0.89662900  0.67216500  0.80315900  1
  Li  Li4  1  0.89457200  0.16478700  0.50420100  1
  Li  Li5  1  0.39457200  0.83521300  0.49579900  1
  Li  Li6  1  0.39457200  0.33521300  0.00420100  1
  Li  Li7  1  0.89457200  0.66478700  0.99579900  1
  Li  Li8  1  0.89669600  0.66993700  0.40457800  1
  Li  Li9  1  0.39669600  0.33006300  0.59542200  1
  Li  Li10  1  0.39669600  0.83006300  0.90457800  1
  Li  Li11  1  0.89669600  0.16993700  0.09542200  1
  Al  Al12  1  0.39818500  0.82797300  0.70024100  1
  Al  Al13  1  0.89818500  0.17202700  0.29975900  1
  Al  Al14  1  0.89818500  0.67202700  0.20024100  1
  Al  Al15  1  0.39818500  0.32797300  0.79975900  1
  Si  Si16  1  0.89439400  0.66647300  0.59830600  1
  Si  Si17  1  0.39439400  0.33352700  0.40169400  1
  Si  Si18  1  0.39439400  0.83352700  0.09830600  1
  Si  Si19  1  0.89439400  0.16647300  0.90169400  1
  O  O20  1  0.79857800  0.81287200  0.51308800  1
  O  O21  1  0.29857800  0.18712800  0.48691200  1
  O  O22  1  0.29857800  0.68712800  0.01308800  1
  O  O23  1  0.79857800  0.31287200  0.98691200  1
  O  O24  1  0.80233400  0.37629000  0.60250500  1
  O  O25  1  0.30233400  0.62371000  0.39749500  1
  O  O26  1  0.30233400  0.12371000  0.10250500  1
  O  O27  1  0.80233400  0.87629000  0.89749500  1
  O  O28  1  0.76642500  0.81234900  0.68598500  1
  O  O29  1  0.26642500  0.18765100  0.31401500  1
  O  O30  1  0.26642500  0.68765100  0.18598500  1
  O  O31  1  0.76642500  0.31234900  0.81401500  1
  O  O32  1  0.23902000  0.69125400  0.60923200  1
  O  O33  1  0.73902000  0.30874600  0.39076800  1
  O  O34  1  0.73902000  0.80874600  0.10923200  1
  O  O35  1  0.23902000  0.19125400  0.89076800  1
  O  O36  1  0.30866700  0.64571200  0.79036300  1
  O  O37  1  0.80866700  0.35428800  0.20963700  1
  O  O38  1  0.80866700  0.85428800  0.29036300  1
  O  O39  1  0.30866700  0.14571200  0.70963700  1
