# generated using pymatgen
data_RbCaBr3
_symmetry_space_group_name_H-M   'P 1'
_cell_length_a   7.84970100
_cell_length_b   8.16408300
_cell_length_c   11.28376400
_cell_angle_alpha   90.00000000
_cell_angle_beta   90.00000000
_cell_angle_gamma   90.00000000
_symmetry_Int_Tables_number   1
_chemical_formula_structural   RbCaBr3
_chemical_formula_sum   'Rb4 Ca4 Br12'
_cell_volume   723.12690456
_cell_formula_units_Z   4
loop_
 _symmetry_equiv_pos_site_id
 _symmetry_equiv_pos_as_xyz
  1  'x, y, z'
loop_
 _atom_site_type_symbol
 _atom_site_label
 _atom_site_symmetry_multiplicity
 _atom_site_fract_x
 _atom_site_fract_y
 _atom_site_fract_z
 _atom_site_occupancy
  Rb  Rb0  1  0.01996400  0.43515700  0.25000000  1
  Rb  Rb1  1  0.98003600  0.56484300  0.75000000  1
  Rb  Rb2  1  0.51996400  0.06484300  0.75000000  1
  Rb  Rb3  1  0.48003600  0.93515700  0.25000000  1
  Ca  Ca4  1  0.00000000  0.00000000  0.00000000  1
  Ca  Ca5  1  0.50000000  0.50000000  0.00000000  1
  Ca  Ca6  1  0.00000000  0.00000000  0.50000000  1
  Ca  Ca7  1  0.50000000  0.50000000  0.50000000  1
  Br  Br8  1  0.29900800  0.20449600  0.04493000  1
  Br  Br9  1  0.70099200  0.79550400  0.95507000  1
  Br  Br10  1  0.79900800  0.29550400  0.95507000  1
  Br  Br11  1  0.70099200  0.79550400  0.54493000  1
  Br  Br12  1  0.20099200  0.70449600  0.04493000  1
  Br  Br13  1  0.29900800  0.20449600  0.45507000  1
  Br  Br14  1  0.20099200  0.70449600  0.45507000  1
  Br  Br15  1  0.79900800  0.29550400  0.54493000  1
  Br  Br16  1  0.58896100  0.52306100  0.25000000  1
  Br  Br17  1  0.41103900  0.47693900  0.75000000  1
  Br  Br18  1  0.08896100  0.97693900  0.75000000  1
  Br  Br19  1  0.91103900  0.02306100  0.25000000  1
