# generated using pymatgen
data_YMg149
_symmetry_space_group_name_H-M   'P 1'
_cell_length_a   15.97203740
_cell_length_b   15.97204294
_cell_length_c   15.60667032
_cell_angle_alpha   90.00000000
_cell_angle_beta   90.00000000
_cell_angle_gamma   120.00001582
_symmetry_Int_Tables_number   1
_chemical_formula_structural   YMg149
_chemical_formula_sum   'Y1 Mg149'
_cell_volume   3447.95513578
_cell_formula_units_Z   1
loop_
 _symmetry_equiv_pos_site_id
 _symmetry_equiv_pos_as_xyz
  1  'x, y, z'
loop_
 _atom_site_type_symbol
 _atom_site_label
 _atom_site_symmetry_multiplicity
 _atom_site_fract_x
 _atom_site_fract_y
 _atom_site_fract_z
 _atom_site_occupancy
  Y  Y0  1  0.00000000  -0.00000000  0.00000000  1
  Mg  Mg1  1  0.60003455  0.20006910  0.00000000  1
  Mg  Mg2  1  0.79943114  0.20056886  0.00000000  1
  Mg  Mg3  1  0.40113772  0.20056886  0.00000000  1
  Mg  Mg4  1  0.00287453  0.20479992  0.00000000  1
  Mg  Mg5  1  0.20192539  0.20479992  0.00000000  1
  Mg  Mg6  1  0.00013237  0.40013288  0.00000000  1
  Mg  Mg7  1  0.40000151  0.40013288  0.00000000  1
  Mg  Mg8  1  0.79993090  0.39996545  0.00000000  1
  Mg  Mg9  1  0.60003455  0.39996545  0.00000000  1
  Mg  Mg10  1  0.20154333  0.40308667  0.00000000  1
  Mg  Mg11  1  0.79943114  0.59886128  0.00000000  1
  Mg  Mg12  1  0.00013237  0.59999849  0.00000000  1
  Mg  Mg13  1  0.59986712  0.59999849  0.00000000  1
  Mg  Mg14  1  0.20046297  0.60023148  0.00000000  1
  Mg  Mg15  1  0.39976852  0.60023148  0.00000000  1
  Mg  Mg16  1  0.20154333  0.79845667  0.00000000  1
  Mg  Mg17  1  0.59691333  0.79845667  0.00000000  1
  Mg  Mg18  1  0.79520008  0.79807461  0.00000000  1
  Mg  Mg19  1  0.00287453  0.79807461  0.00000000  1
  Mg  Mg20  1  0.39976852  0.79953703  0.00000000  1
  Mg  Mg21  1  0.20192539  0.99712547  0.00000000  1
  Mg  Mg22  1  0.79520008  0.99712647  0.00000000  1
  Mg  Mg23  1  0.59986712  0.99986863  0.00000000  1
  Mg  Mg24  1  0.40000151  0.99986863  0.00000000  1
  Mg  Mg25  1  0.86802966  0.13197034  0.16472015  1
  Mg  Mg26  1  0.26394067  0.13197034  0.16472015  1
  Mg  Mg27  1  0.86802966  0.73605933  0.16472015  1
  Mg  Mg28  1  0.66666700  0.33333300  0.16615396  1
  Mg  Mg29  1  0.66733468  0.13296958  0.16652579  1
  Mg  Mg30  1  0.46563490  0.13297058  0.16652579  1
  Mg  Mg31  1  0.46563490  0.33266432  0.16652579  1
  Mg  Mg32  1  0.86703042  0.33266532  0.16652579  1
  Mg  Mg33  1  0.86703042  0.53436510  0.16652579  1
  Mg  Mg34  1  0.66733468  0.53436510  0.16652579  1
  Mg  Mg35  1  0.46665318  0.53334682  0.16723634  1
  Mg  Mg36  1  0.06669364  0.53334682  0.16723634  1
  Mg  Mg37  1  0.46665318  0.93330636  0.16723634  1
  Mg  Mg38  1  0.26713892  0.53427783  0.16736622  1
  Mg  Mg39  1  0.26713892  0.73286108  0.16736622  1
  Mg  Mg40  1  0.46572217  0.73286108  0.16736622  1
  Mg  Mg41  1  0.06797130  0.33558262  0.16767661  1
  Mg  Mg42  1  0.26761131  0.33558262  0.16767661  1
  Mg  Mg43  1  0.06797130  0.73238869  0.16767661  1
  Mg  Mg44  1  0.66441738  0.73238869  0.16767661  1
  Mg  Mg45  1  0.66441738  0.93202870  0.16767661  1
  Mg  Mg46  1  0.26761131  0.93202870  0.16767661  1
  Mg  Mg47  1  0.06787976  0.13575853  0.16950437  1
  Mg  Mg48  1  0.86424147  0.93212124  0.16950437  1
  Mg  Mg49  1  0.06787976  0.93212124  0.16950437  1
  Mg  Mg50  1  0.39976598  0.19988299  0.33284279  1
  Mg  Mg51  1  0.80011701  0.19988299  0.33284279  1
  Mg  Mg52  1  0.80011701  0.60023402  0.33284279  1
  Mg  Mg53  1  0.60000005  0.19999910  0.33280314  1
  Mg  Mg54  1  0.79999990  0.39999995  0.33280314  1
  Mg  Mg55  1  0.60000005  0.39999995  0.33280314  1
  Mg  Mg56  1  0.20055605  0.00001869  0.33345758  1
  Mg  Mg57  1  0.79946264  0.00001869  0.33345758  1
  Mg  Mg58  1  0.99998131  0.20053736  0.33345758  1
  Mg  Mg59  1  0.20055605  0.20053836  0.33345758  1
  Mg  Mg60  1  0.79946264  0.79944295  0.33345758  1
  Mg  Mg61  1  0.99998131  0.79944395  0.33345758  1
  Mg  Mg62  1  0.40045478  0.00019038  0.33374696  1
  Mg  Mg63  1  0.59973659  0.00019138  0.33374696  1
  Mg  Mg64  1  0.99980862  0.40026341  0.33374696  1
  Mg  Mg65  1  0.40045478  0.40026341  0.33374696  1
  Mg  Mg66  1  0.59973659  0.59954522  0.33374696  1
  Mg  Mg67  1  0.99980862  0.59954622  0.33374696  1
  Mg  Mg68  1  0.40006433  0.59993567  0.33370755  1
  Mg  Mg69  1  0.19987134  0.59993567  0.33370755  1
  Mg  Mg70  1  0.40006433  0.80012866  0.33370755  1
  Mg  Mg71  1  0.20023445  0.40046690  0.33413969  1
  Mg  Mg72  1  0.59953310  0.79976655  0.33413969  1
  Mg  Mg73  1  0.20023445  0.79976655  0.33413969  1
  Mg  Mg74  1  0.00000000  -0.00000000  0.33469154  1
  Mg  Mg75  1  0.86644184  0.13355816  0.50000000  1
  Mg  Mg76  1  0.26711631  0.13355816  0.50000000  1
  Mg  Mg77  1  0.06680339  0.13360677  0.50000000  1
  Mg  Mg78  1  0.46701759  0.13411989  0.50000000  1
  Mg  Mg79  1  0.66710130  0.13411989  0.50000000  1
  Mg  Mg80  1  0.46701759  0.33289870  0.50000000  1
  Mg  Mg81  1  0.86588011  0.33289870  0.50000000  1
  Mg  Mg82  1  0.66666700  0.33333300  0.50000000  1
  Mg  Mg83  1  0.06681282  0.33359383  0.50000000  1
  Mg  Mg84  1  0.26678101  0.33359383  0.50000000  1
  Mg  Mg85  1  0.66710130  0.53298141  0.50000000  1
  Mg  Mg86  1  0.86588011  0.53298241  0.50000000  1
  Mg  Mg87  1  0.46693715  0.53306285  0.50000000  1
  Mg  Mg88  1  0.06612570  0.53306285  0.50000000  1
  Mg  Mg89  1  0.26676949  0.53353798  0.50000000  1
  Mg  Mg90  1  0.86644184  0.73288469  0.50000000  1
  Mg  Mg91  1  0.66640617  0.73321899  0.50000000  1
  Mg  Mg92  1  0.06681282  0.73321899  0.50000000  1
  Mg  Mg93  1  0.46646102  0.73323051  0.50000000  1
  Mg  Mg94  1  0.26676949  0.73323051  0.50000000  1
  Mg  Mg95  1  0.06680339  0.93319661  0.50000000  1
  Mg  Mg96  1  0.86639323  0.93319661  0.50000000  1
  Mg  Mg97  1  0.66640617  0.93318718  0.50000000  1
  Mg  Mg98  1  0.26678101  0.93318718  0.50000000  1
  Mg  Mg99  1  0.46693715  0.93387430  0.50000000  1
  Mg  Mg100  1  0.00000000  -0.00000000  0.66530846  1
  Mg  Mg101  1  0.20023445  0.40046690  0.66586031  1
  Mg  Mg102  1  0.59953310  0.79976655  0.66586031  1
  Mg  Mg103  1  0.20023445  0.79976655  0.66586031  1
  Mg  Mg104  1  0.40006433  0.59993567  0.66629145  1
  Mg  Mg105  1  0.19987134  0.59993567  0.66629145  1
  Mg  Mg106  1  0.40006433  0.80012866  0.66629145  1
  Mg  Mg107  1  0.40045478  0.00019038  0.66625304  1
  Mg  Mg108  1  0.59973659  0.00019138  0.66625304  1
  Mg  Mg109  1  0.99980862  0.40026341  0.66625304  1
  Mg  Mg110  1  0.40045478  0.40026341  0.66625304  1
  Mg  Mg111  1  0.59973659  0.59954522  0.66625304  1
  Mg  Mg112  1  0.99980862  0.59954622  0.66625304  1
  Mg  Mg113  1  0.20055605  0.00001869  0.66654242  1
  Mg  Mg114  1  0.79946264  0.00001869  0.66654242  1
  Mg  Mg115  1  0.99998131  0.20053736  0.66654242  1
  Mg  Mg116  1  0.20055605  0.20053836  0.66654242  1
  Mg  Mg117  1  0.79946264  0.79944295  0.66654242  1
  Mg  Mg118  1  0.99998131  0.79944395  0.66654242  1
  Mg  Mg119  1  0.60000005  0.19999910  0.66719586  1
  Mg  Mg120  1  0.79999990  0.39999995  0.66719586  1
  Mg  Mg121  1  0.60000005  0.39999995  0.66719586  1
  Mg  Mg122  1  0.39976598  0.19988299  0.66715721  1
  Mg  Mg123  1  0.80011701  0.19988299  0.66715721  1
  Mg  Mg124  1  0.80011701  0.60023402  0.66715721  1
  Mg  Mg125  1  0.06787976  0.13575853  0.83049563  1
  Mg  Mg126  1  0.86424147  0.93212124  0.83049563  1
  Mg  Mg127  1  0.06787976  0.93212124  0.83049563  1
  Mg  Mg128  1  0.06797130  0.33558262  0.83232339  1
  Mg  Mg129  1  0.26761131  0.33558262  0.83232339  1
  Mg  Mg130  1  0.06797130  0.73238869  0.83232339  1
  Mg  Mg131  1  0.66441738  0.73238869  0.83232339  1
  Mg  Mg132  1  0.66441738  0.93202870  0.83232339  1
  Mg  Mg133  1  0.26761131  0.93202870  0.83232339  1
  Mg  Mg134  1  0.26713892  0.53427783  0.83263378  1
  Mg  Mg135  1  0.26713892  0.73286108  0.83263378  1
  Mg  Mg136  1  0.46572217  0.73286108  0.83263378  1
  Mg  Mg137  1  0.46665318  0.53334682  0.83276366  1
  Mg  Mg138  1  0.06669364  0.53334682  0.83276366  1
  Mg  Mg139  1  0.46665318  0.93330636  0.83276366  1
  Mg  Mg140  1  0.66733468  0.13296958  0.83347421  1
  Mg  Mg141  1  0.46563490  0.13297058  0.83347421  1
  Mg  Mg142  1  0.46563490  0.33266432  0.83347421  1
  Mg  Mg143  1  0.86703042  0.33266532  0.83347421  1
  Mg  Mg144  1  0.86703042  0.53436510  0.83347421  1
  Mg  Mg145  1  0.66733468  0.53436510  0.83347421  1
  Mg  Mg146  1  0.66666700  0.33333300  0.83384604  1
  Mg  Mg147  1  0.86802966  0.13197034  0.83527885  1
  Mg  Mg148  1  0.26394067  0.13197034  0.83527885  1
  Mg  Mg149  1  0.86802966  0.73605933  0.83527885  1
