# generated using pymatgen
data_ZnSb3XeF23
_symmetry_space_group_name_H-M   'P 1'
_cell_length_a   10.85955800
_cell_length_b   11.07151700
_cell_length_c   19.18810973
_cell_angle_alpha   54.90829123
_cell_angle_beta   90.00000000
_cell_angle_gamma   90.00000000
_symmetry_Int_Tables_number   1
_chemical_formula_structural   ZnSb3XeF23
_chemical_formula_sum   'Zn4 Sb12 Xe4 F92'
_cell_volume   1887.68020135
_cell_formula_units_Z   4
loop_
 _symmetry_equiv_pos_site_id
 _symmetry_equiv_pos_as_xyz
  1  'x, y, z'
loop_
 _atom_site_type_symbol
 _atom_site_label
 _atom_site_symmetry_multiplicity
 _atom_site_fract_x
 _atom_site_fract_y
 _atom_site_fract_z
 _atom_site_occupancy
  Zn  Zn0  1  0.00000000  0.50000000  0.00000000  1
  Zn  Zn1  1  0.50000000  0.50000000  0.50000000  1
  Zn  Zn2  1  0.50000000  0.00000000  0.00000000  1
  Zn  Zn3  1  0.00000000  0.00000000  0.50000000  1
  Sb  Sb4  1  0.79501400  0.80695800  0.98846600  1
  Sb  Sb5  1  0.70498600  0.80695800  0.48846600  1
  Sb  Sb6  1  0.20498600  0.19304200  0.01153400  1
  Sb  Sb7  1  0.29501400  0.19304200  0.51153400  1
  Sb  Sb8  1  0.70840800  0.28709800  0.00563400  1
  Sb  Sb9  1  0.79159200  0.28709800  0.50563400  1
  Sb  Sb10  1  0.29159200  0.71290200  0.99436600  1
  Sb  Sb11  1  0.20840800  0.71290200  0.49436600  1
  Sb  Sb12  1  0.50485500  0.27251400  0.75345400  1
  Sb  Sb13  1  0.99514500  0.27251400  0.25345400  1
  Sb  Sb14  1  0.49514500  0.72748600  0.24654600  1
  Sb  Sb15  1  0.00485500  0.72748600  0.74654600  1
  Xe  Xe16  1  0.55283600  0.70279300  0.75373400  1
  Xe  Xe17  1  0.94716400  0.70279300  0.25373400  1
  Xe  Xe18  1  0.44716400  0.29720700  0.24626600  1
  Xe  Xe19  1  0.05283600  0.29720700  0.74626600  1
  F  F20  1  0.43645300  0.83375200  0.75714200  1
  F  F21  1  0.06354700  0.83375200  0.25714200  1
  F  F22  1  0.56354700  0.16624800  0.24285800  1
  F  F23  1  0.93645300  0.16624800  0.74285800  1
  F  F24  1  0.43000700  0.55490700  0.83024600  1
  F  F25  1  0.06999300  0.55490700  0.33024600  1
  F  F26  1  0.56999300  0.44509300  0.16975400  1
  F  F27  1  0.93000700  0.44509300  0.66975400  1
  F  F28  1  0.63962000  0.89086500  0.67782700  1
  F  F29  1  0.86038000  0.89086500  0.17782700  1
  F  F30  1  0.36038000  0.10913500  0.32217300  1
  F  F31  1  0.13962000  0.10913500  0.82217300  1
  F  F32  1  0.44805200  0.74875000  0.65846200  1
  F  F33  1  0.05194800  0.74875000  0.15846200  1
  F  F34  1  0.55194800  0.25125000  0.34153800  1
  F  F35  1  0.94805200  0.25125000  0.84153800  1
  F  F36  1  0.62308400  0.69610000  0.85007100  1
  F  F37  1  0.87691600  0.69610000  0.35007100  1
  F  F38  1  0.37691600  0.30390000  0.14992900  1
  F  F39  1  0.12308400  0.30390000  0.64992900  1
  F  F40  1  0.91983400  0.66048200  0.00735100  1
  F  F41  1  0.58016600  0.66048200  0.50735100  1
  F  F42  1  0.08016600  0.33951800  0.99264900  1
  F  F43  1  0.41983400  0.33951800  0.49264900  1
  F  F44  1  0.80799700  0.73347900  0.10669700  1
  F  F45  1  0.69200300  0.73347900  0.60669700  1
  F  F46  1  0.19200300  0.26652100  0.89330300  1
  F  F47  1  0.30799700  0.26652100  0.39330300  1
  F  F48  1  0.92041400  0.94453800  0.96210200  1
  F  F49  1  0.57958600  0.94453800  0.46210200  1
  F  F50  1  0.07958600  0.05546200  0.03789800  1
  F  F51  1  0.42041400  0.05546200  0.53789800  1
  F  F52  1  0.66801600  0.94937500  0.97235600  1
  F  F53  1  0.83198400  0.94937500  0.47235600  1
  F  F54  1  0.33198400  0.05062500  0.02764400  1
  F  F55  1  0.16801600  0.05062500  0.52764400  1
  F  F56  1  0.78384700  0.87646200  0.87251400  1
  F  F57  1  0.71615300  0.87646200  0.37251400  1
  F  F58  1  0.21615300  0.12353800  0.12748600  1
  F  F59  1  0.28384700  0.12353800  0.62748600  1
  F  F60  1  0.66915400  0.66675700  0.01860900  1
  F  F61  1  0.83084600  0.66675700  0.51860900  1
  F  F62  1  0.33084600  0.33324300  0.98139100  1
  F  F63  1  0.16915400  0.33324300  0.48139100  1
  F  F64  1  0.82944200  0.44155300  0.98038300  1
  F  F65  1  0.67055800  0.44155300  0.48038300  1
  F  F66  1  0.17055800  0.55844700  0.01961700  1
  F  F67  1  0.32944200  0.55844700  0.51961700  1
  F  F68  1  0.58753200  0.37754500  0.03192800  1
  F  F69  1  0.91246800  0.37754500  0.53192800  1
  F  F70  1  0.41246800  0.62245500  0.96807200  1
  F  F71  1  0.08753200  0.62245500  0.46807200  1
  F  F72  1  0.65792700  0.41024500  0.88787800  1
  F  F73  1  0.84207300  0.41024500  0.38787800  1
  F  F74  1  0.34207300  0.58975500  0.11212200  1
  F  F75  1  0.15792700  0.58975500  0.61212200  1
  F  F76  1  0.58885600  0.13430300  0.02750800  1
  F  F77  1  0.91114400  0.13430300  0.52750800  1
  F  F78  1  0.41114400  0.86569700  0.97249200  1
  F  F79  1  0.08885600  0.86569700  0.47249200  1
  F  F80  1  0.82654300  0.19878900  0.97616600  1
  F  F81  1  0.67345700  0.19878900  0.47616600  1
  F  F82  1  0.17345700  0.80121100  0.02383400  1
  F  F83  1  0.32654300  0.80121100  0.52383400  1
  F  F84  1  0.76140800  0.17085600  0.12061100  1
  F  F85  1  0.73859200  0.17085600  0.62061100  1
  F  F86  1  0.23859200  0.82914400  0.87938900  1
  F  F87  1  0.26140800  0.82914400  0.37938900  1
  F  F88  1  0.48206500  0.18690100  0.87548200  1
  F  F89  1  0.01793500  0.18690100  0.37548200  1
  F  F90  1  0.51793500  0.81309900  0.12451800  1
  F  F91  1  0.98206500  0.81309900  0.62451800  1
  F  F92  1  0.53521000  0.46309400  0.73075100  1
  F  F93  1  0.96479000  0.46309400  0.23075100  1
  F  F94  1  0.46479000  0.53690600  0.26924900  1
  F  F95  1  0.03521000  0.53690600  0.76924900  1
  F  F96  1  0.33361800  0.32380700  0.73517600  1
  F  F97  1  0.16638200  0.32380700  0.23517600  1
  F  F98  1  0.66638200  0.67619300  0.26482400  1
  F  F99  1  0.83361800  0.67619300  0.76482400  1
  F  F100  1  0.52237300  0.35747100  0.63173500  1
  F  F101  1  0.97762700  0.35747100  0.13173500  1
  F  F102  1  0.47762700  0.64252900  0.36826500  1
  F  F103  1  0.02237300  0.64252900  0.86826500  1
  F  F104  1  0.47074100  0.08567800  0.77632800  1
  F  F105  1  0.02925900  0.08567800  0.27632800  1
  F  F106  1  0.52925900  0.91432200  0.22367200  1
  F  F107  1  0.97074100  0.91432200  0.72367200  1
  F  F108  1  0.67556700  0.23424000  0.77084400  1
  F  F109  1  0.82443300  0.23424000  0.27084400  1
  F  F110  1  0.32443300  0.76576000  0.22915600  1
  F  F111  1  0.17556700  0.76576000  0.72915600  1
