# generated using pymatgen
data_Ta2Ni3Te5
_symmetry_space_group_name_H-M   'P 1'
_cell_length_a   3.72687800
_cell_length_b   14.29490000
_cell_length_c   17.80159000
_cell_angle_alpha   90.00000000
_cell_angle_beta   90.00000000
_cell_angle_gamma   90.00000000
_symmetry_Int_Tables_number   1
_chemical_formula_structural   Ta2Ni3Te5
_chemical_formula_sum   'Ta8 Ni12 Te20'
_cell_volume   948.38590794
_cell_formula_units_Z   4
loop_
 _symmetry_equiv_pos_site_id
 _symmetry_equiv_pos_as_xyz
  1  'x, y, z'
loop_
 _atom_site_type_symbol
 _atom_site_label
 _atom_site_symmetry_multiplicity
 _atom_site_fract_x
 _atom_site_fract_y
 _atom_site_fract_z
 _atom_site_occupancy
  Ta  Ta0  1  0.25000000  0.74397800  0.91113200  1
  Ta  Ta1  1  0.75000000  0.25602200  0.08886800  1
  Ta  Ta2  1  0.75000000  0.75602200  0.41113200  1
  Ta  Ta3  1  0.25000000  0.24397800  0.58886800  1
  Ta  Ta4  1  0.25000000  0.74203200  0.16720700  1
  Ta  Ta5  1  0.75000000  0.25796800  0.83279300  1
  Ta  Ta6  1  0.75000000  0.75796800  0.66720700  1
  Ta  Ta7  1  0.25000000  0.24203200  0.33279300  1
  Ni  Ni8  1  0.25000000  0.70050900  0.76760300  1
  Ni  Ni9  1  0.75000000  0.29949100  0.23239700  1
  Ni  Ni10  1  0.75000000  0.79949100  0.26760300  1
  Ni  Ni11  1  0.25000000  0.20050900  0.73239700  1
  Ni  Ni12  1  0.25000000  0.74356900  0.53893100  1
  Ni  Ni13  1  0.75000000  0.25643100  0.46106900  1
  Ni  Ni14  1  0.75000000  0.75643100  0.03893100  1
  Ni  Ni15  1  0.25000000  0.24356900  0.96106900  1
  Ni  Ni16  1  0.25000000  0.69585400  0.31084500  1
  Ni  Ni17  1  0.75000000  0.30414600  0.68915500  1
  Ni  Ni18  1  0.75000000  0.80414600  0.81084500  1
  Ni  Ni19  1  0.25000000  0.19585400  0.18915500  1
  Te  Te20  1  0.25000000  0.11363600  0.05913600  1
  Te  Te21  1  0.75000000  0.88636400  0.94086400  1
  Te  Te22  1  0.75000000  0.38636400  0.55913600  1
  Te  Te23  1  0.25000000  0.61363600  0.44086400  1
  Te  Te24  1  0.25000000  0.63196000  0.03860400  1
  Te  Te25  1  0.75000000  0.36804000  0.96139600  1
  Te  Te26  1  0.75000000  0.86804000  0.53860400  1
  Te  Te27  1  0.25000000  0.13196000  0.46139600  1
  Te  Te28  1  0.25000000  0.88554700  0.34163400  1
  Te  Te29  1  0.75000000  0.11445300  0.65836600  1
  Te  Te30  1  0.75000000  0.61445300  0.84163400  1
  Te  Te31  1  0.25000000  0.38554700  0.15836600  1
  Te  Te32  1  0.25000000  0.88845700  0.73592600  1
  Te  Te33  1  0.75000000  0.11154300  0.26407400  1
  Te  Te34  1  0.75000000  0.61154300  0.23592600  1
  Te  Te35  1  0.25000000  0.38845700  0.76407400  1
  Te  Te36  1  0.25000000  0.61576900  0.63855700  1
  Te  Te37  1  0.75000000  0.38423100  0.36144300  1
  Te  Te38  1  0.75000000  0.88423100  0.13855700  1
  Te  Te39  1  0.25000000  0.11576900  0.86144300  1
