# generated using pymatgen
data_CsLi4(BO2)5
_symmetry_space_group_name_H-M   'P 1'
_cell_length_a   9.49722000
_cell_length_b   7.02004000
_cell_length_c   16.29024086
_cell_angle_alpha   81.94900197
_cell_angle_beta   90.00000000
_cell_angle_gamma   90.00000000
_symmetry_Int_Tables_number   1
_chemical_formula_structural   CsLi4(BO2)5
_chemical_formula_sum   'Cs4 Li16 B20 O40'
_cell_volume   1075.37977297
_cell_formula_units_Z   4
loop_
 _symmetry_equiv_pos_site_id
 _symmetry_equiv_pos_as_xyz
  1  'x, y, z'
loop_
 _atom_site_type_symbol
 _atom_site_label
 _atom_site_symmetry_multiplicity
 _atom_site_fract_x
 _atom_site_fract_y
 _atom_site_fract_z
 _atom_site_occupancy
  Cs  Cs0  1  0.20249800  0.59475800  0.86802200  1
  Cs  Cs1  1  0.70249800  0.40524200  0.63197800  1
  Cs  Cs2  1  0.79750200  0.40524200  0.13197800  1
  Cs  Cs3  1  0.29750200  0.59475800  0.36802200  1
  Li  Li4  1  0.72252700  0.96116300  0.81982400  1
  Li  Li5  1  0.22252700  0.03883700  0.68017600  1
  Li  Li6  1  0.27747300  0.03883700  0.18017600  1
  Li  Li7  1  0.77747300  0.96116300  0.31982400  1
  Li  Li8  1  0.14455900  0.04879100  0.03167000  1
  Li  Li9  1  0.64455900  0.95120900  0.46833000  1
  Li  Li10  1  0.85544100  0.95120900  0.96833000  1
  Li  Li11  1  0.35544100  0.04879100  0.53167000  1
  Li  Li12  1  0.41989600  0.00241200  0.92739400  1
  Li  Li13  1  0.91989600  0.99758800  0.57260600  1
  Li  Li14  1  0.58010400  0.99758800  0.07260600  1
  Li  Li15  1  0.08010400  0.00241200  0.42739400  1
  Li  Li16  1  0.59257700  0.72305300  0.94389900  1
  Li  Li17  1  0.09257700  0.27694700  0.55610100  1
  Li  Li18  1  0.40742300  0.27694700  0.05610100  1
  Li  Li19  1  0.90742300  0.72305300  0.44389900  1
  B  B20  1  0.80112500  0.57038800  0.89466100  1
  B  B21  1  0.30112500  0.42961200  0.60533900  1
  B  B22  1  0.19887500  0.42961200  0.10533900  1
  B  B23  1  0.69887500  0.57038800  0.39466100  1
  B  B24  1  0.37419700  0.74784900  0.64412800  1
  B  B25  1  0.87419700  0.25215100  0.85587200  1
  B  B26  1  0.62580300  0.25215100  0.35587200  1
  B  B27  1  0.12580300  0.74784900  0.14412800  1
  B  B28  1  0.11459400  0.09156100  0.87378600  1
  B  B29  1  0.61459400  0.90843900  0.62621400  1
  B  B30  1  0.88540600  0.90843900  0.12621400  1
  B  B31  1  0.38540600  0.09156100  0.37378600  1
  B  B32  1  0.35563600  0.71891700  0.06528600  1
  B  B33  1  0.85563600  0.28108300  0.43471400  1
  B  B34  1  0.64436400  0.28108300  0.93471400  1
  B  B35  1  0.14436400  0.71891700  0.56528600  1
  B  B36  1  0.49910500  0.85685800  0.76541400  1
  B  B37  1  0.99910500  0.14314200  0.73458600  1
  B  B38  1  0.50089500  0.14314200  0.23458600  1
  B  B39  1  0.00089500  0.85685800  0.26541400  1
  O  O40  1  0.81420000  0.75836100  0.89947000  1
  O  O41  1  0.31420000  0.24163900  0.60053000  1
  O  O42  1  0.18580000  0.24163900  0.10053000  1
  O  O43  1  0.68580000  0.75836100  0.39947000  1
  O  O44  1  0.22113200  0.02770600  0.92290800  1
  O  O45  1  0.72113200  0.97229400  0.57709200  1
  O  O46  1  0.77886800  0.97229400  0.07709200  1
  O  O47  1  0.27886800  0.02770600  0.42290800  1
  O  O48  1  0.37558100  0.80660000  0.72798400  1
  O  O49  1  0.87558100  0.19340000  0.77201600  1
  O  O50  1  0.62441900  0.19340000  0.27201600  1
  O  O51  1  0.12441900  0.80660000  0.22798400  1
  O  O52  1  0.31636700  0.52506300  0.06129900  1
  O  O53  1  0.81636700  0.47493700  0.43870100  1
  O  O54  1  0.68363300  0.47493700  0.93870100  1
  O  O55  1  0.18363300  0.52506300  0.56129900  1
  O  O56  1  0.47372200  0.79213600  0.02971200  1
  O  O57  1  0.97372200  0.20786400  0.47028800  1
  O  O58  1  0.52627800  0.20786400  0.97028800  1
  O  O59  1  0.02627800  0.79213600  0.52971200  1
  O  O60  1  0.26065600  0.82476000  0.10653900  1
  O  O61  1  0.76065600  0.17524000  0.39346100  1
  O  O62  1  0.73934400  0.17524000  0.89346100  1
  O  O63  1  0.23934400  0.82476000  0.60653900  1
  O  O64  1  0.88743600  0.46166800  0.85127800  1
  O  O65  1  0.38743600  0.53833200  0.64872200  1
  O  O66  1  0.11256400  0.53833200  0.14872200  1
  O  O67  1  0.61256400  0.46166800  0.35127800  1
  O  O68  1  0.98966300  0.15445000  0.90783600  1
  O  O69  1  0.48966300  0.84555000  0.59216400  1
  O  O70  1  0.01033700  0.84555000  0.09216400  1
  O  O71  1  0.51033700  0.15445000  0.40783600  1
  O  O72  1  0.61980600  0.90074900  0.71377700  1
  O  O73  1  0.11980600  0.09925100  0.78622300  1
  O  O74  1  0.38019400  0.09925100  0.28622300  1
  O  O75  1  0.88019400  0.90074900  0.21377700  1
  O  O76  1  0.51345600  0.86818700  0.84596200  1
  O  O77  1  0.01345600  0.13181300  0.65403800  1
  O  O78  1  0.48654400  0.13181300  0.15403800  1
  O  O79  1  0.98654400  0.86818700  0.34596200  1
