# generated using pymatgen
data_Rb4Te8O23
_symmetry_space_group_name_H-M   'P 1'
_cell_length_a   7.43106100
_cell_length_b   14.94265100
_cell_length_c   20.19134600
_cell_angle_alpha   90.00000000
_cell_angle_beta   90.00000000
_cell_angle_gamma   90.00000000
_symmetry_Int_Tables_number   1
_chemical_formula_structural   Rb4Te8O23
_chemical_formula_sum   'Rb16 Te32 O92'
_cell_volume   2242.04203386
_cell_formula_units_Z   4
loop_
 _symmetry_equiv_pos_site_id
 _symmetry_equiv_pos_as_xyz
  1  'x, y, z'
loop_
 _atom_site_type_symbol
 _atom_site_label
 _atom_site_symmetry_multiplicity
 _atom_site_fract_x
 _atom_site_fract_y
 _atom_site_fract_z
 _atom_site_occupancy
  Rb  Rb0  1  0.12310800  0.75541700  0.93739700  1
  Rb  Rb1  1  0.62310800  0.24458300  0.06260300  1
  Rb  Rb2  1  0.62310800  0.25541700  0.56260300  1
  Rb  Rb3  1  0.12310800  0.74458300  0.43739700  1
  Rb  Rb4  1  0.62230400  0.50580800  0.68654800  1
  Rb  Rb5  1  0.12230400  0.49419200  0.31345200  1
  Rb  Rb6  1  0.12230400  0.00580800  0.81345200  1
  Rb  Rb7  1  0.62230400  0.99419200  0.18654800  1
  Rb  Rb8  1  0.12152600  0.50390000  0.82385200  1
  Rb  Rb9  1  0.62152600  0.49610000  0.17614800  1
  Rb  Rb10  1  0.62152600  0.00390000  0.67614800  1
  Rb  Rb11  1  0.12152600  0.99610000  0.32385200  1
  Rb  Rb12  1  0.62240800  0.75103000  0.57113800  1
  Rb  Rb13  1  0.12240800  0.24897000  0.42886200  1
  Rb  Rb14  1  0.12240800  0.25103000  0.92886200  1
  Rb  Rb15  1  0.62240800  0.74897000  0.07113800  1
  Te  Te16  1  0.12287000  0.62394100  0.63525400  1
  Te  Te17  1  0.62287000  0.37605900  0.36474600  1
  Te  Te18  1  0.62287000  0.12394100  0.86474600  1
  Te  Te19  1  0.12287000  0.87605900  0.13525400  1
  Te  Te20  1  0.62360200  0.87206500  0.89142500  1
  Te  Te21  1  0.12360200  0.12793500  0.10857500  1
  Te  Te22  1  0.12360200  0.37206500  0.60857500  1
  Te  Te23  1  0.62360200  0.62793500  0.39142500  1
  Te  Te24  1  0.12056500  0.88277500  0.62892200  1
  Te  Te25  1  0.62056500  0.11722500  0.37107800  1
  Te  Te26  1  0.62056500  0.38277500  0.87107800  1
  Te  Te27  1  0.12056500  0.61722500  0.12892200  1
  Te  Te28  1  0.37143800  0.49967300  0.49943300  1
  Te  Te29  1  0.87143800  0.50032700  0.50056700  1
  Te  Te30  1  0.87143800  0.99967300  0.00056700  1
  Te  Te31  1  0.37143800  0.00032700  0.99943300  1
  Te  Te32  1  0.36824600  0.00047100  0.49981600  1
  Te  Te33  1  0.86824600  0.99952900  0.50018400  1
  Te  Te34  1  0.86824600  0.50047100  0.00018400  1
  Te  Te35  1  0.36824600  0.49952900  0.99981600  1
  Te  Te36  1  0.61805300  0.62842500  0.87743100  1
  Te  Te37  1  0.11805300  0.37157500  0.12256900  1
  Te  Te38  1  0.11805300  0.12842500  0.62256900  1
  Te  Te39  1  0.61805300  0.87157500  0.37743100  1
  Te  Te40  1  0.37109400  0.76256900  0.75629300  1
  Te  Te41  1  0.87109400  0.23743100  0.24370700  1
  Te  Te42  1  0.87109400  0.26256900  0.74370700  1
  Te  Te43  1  0.37109400  0.73743100  0.25629300  1
  Te  Te44  1  0.87172500  0.75966400  0.75640700  1
  Te  Te45  1  0.37172500  0.24033600  0.24359300  1
  Te  Te46  1  0.37172500  0.25966400  0.74359300  1
  Te  Te47  1  0.87172500  0.74033600  0.25640700  1
  O  O48  1  0.80787100  0.88021400  0.96819200  1
  O  O49  1  0.30787100  0.11978600  0.03180800  1
  O  O50  1  0.30787100  0.38021400  0.53180800  1
  O  O51  1  0.80787100  0.61978600  0.46819200  1
  O  O52  1  0.12136100  0.97381300  0.96821000  1
  O  O53  1  0.62136100  0.02618700  0.03179000  1
  O  O54  1  0.62136100  0.47381300  0.53179000  1
  O  O55  1  0.12136100  0.52618700  0.46821000  1
  O  O56  1  0.32242000  0.54801700  0.58721100  1
  O  O57  1  0.82242000  0.45198300  0.41278900  1
  O  O58  1  0.82242000  0.04801700  0.91278900  1
  O  O59  1  0.32242000  0.95198300  0.08721100  1
  O  O60  1  0.43538800  0.88146200  0.96657200  1
  O  O61  1  0.93538800  0.11853800  0.03342800  1
  O  O62  1  0.93538800  0.38146200  0.53342800  1
  O  O63  1  0.43538800  0.61853800  0.46657200  1
  O  O64  1  0.92090500  0.54877800  0.58824300  1
  O  O65  1  0.42090500  0.45122200  0.41175700  1
  O  O66  1  0.42090500  0.04877800  0.91175700  1
  O  O67  1  0.92090500  0.95122200  0.08824300  1
  O  O68  1  0.80720400  0.60518800  0.94208100  1
  O  O69  1  0.30720400  0.39481200  0.05791900  1
  O  O70  1  0.30720400  0.10518800  0.55791900  1
  O  O71  1  0.80720400  0.89481200  0.44208100  1
  O  O72  1  0.85093800  0.92288100  0.57484400  1
  O  O73  1  0.35093800  0.07711900  0.42515600  1
  O  O74  1  0.35093800  0.42288100  0.92515600  1
  O  O75  1  0.85093800  0.57711900  0.07484400  1
  O  O76  1  0.11866900  0.54376600  0.98940900  1
  O  O77  1  0.61866900  0.45623400  0.01059100  1
  O  O78  1  0.61866900  0.04376600  0.51059100  1
  O  O79  1  0.11866900  0.95623400  0.48940900  1
  O  O80  1  0.42656500  0.60430400  0.94109400  1
  O  O81  1  0.92656500  0.39569600  0.05890600  1
  O  O82  1  0.92656500  0.10430400  0.55890600  1
  O  O83  1  0.42656500  0.89569600  0.44109400  1
  O  O84  1  0.38874700  0.92464200  0.57443300  1
  O  O85  1  0.88874700  0.07535800  0.42556700  1
  O  O86  1  0.88874700  0.42464200  0.92556700  1
  O  O87  1  0.38874700  0.57535800  0.07443300  1
  O  O88  1  0.61725900  0.50837000  0.83855500  1
  O  O89  1  0.11725900  0.49163000  0.16144500  1
  O  O90  1  0.11725900  0.00837000  0.66144500  1
  O  O91  1  0.61725900  0.99163000  0.33855500  1
  O  O92  1  0.80650300  0.65251600  0.81237200  1
  O  O93  1  0.30650300  0.34748400  0.18762800  1
  O  O94  1  0.30650300  0.15251600  0.68762800  1
  O  O95  1  0.80650300  0.84748400  0.31237200  1
  O  O96  1  0.42964400  0.65529900  0.81331700  1
  O  O97  1  0.92964400  0.34470100  0.18668300  1
  O  O98  1  0.92964400  0.15529900  0.68668300  1
  O  O99  1  0.42964400  0.84470100  0.31331700  1
  O  O100  1  0.61838500  0.74774700  0.91909900  1
  O  O101  1  0.11838500  0.25225300  0.08090100  1
  O  O102  1  0.11838500  0.24774700  0.58090100  1
  O  O103  1  0.61838500  0.75225300  0.41909900  1
  O  O104  1  0.36926700  0.68448700  0.68202500  1
  O  O105  1  0.86926700  0.31551300  0.31797500  1
  O  O106  1  0.86926700  0.18448700  0.81797500  1
  O  O107  1  0.36926700  0.81551300  0.18202500  1
  O  O108  1  0.62226200  0.79480600  0.73450900  1
  O  O109  1  0.12226200  0.20519400  0.26549100  1
  O  O110  1  0.12226200  0.29480600  0.76549100  1
  O  O111  1  0.62226200  0.70519400  0.23450900  1
  O  O112  1  0.38171300  0.83958600  0.83206200  1
  O  O113  1  0.88171300  0.16041400  0.16793800  1
  O  O114  1  0.88171300  0.33958600  0.66793800  1
  O  O115  1  0.38171300  0.66041400  0.33206200  1
  O  O116  1  0.12205900  0.72533300  0.78032100  1
  O  O117  1  0.62205900  0.27466700  0.21967900  1
  O  O118  1  0.62205900  0.22533300  0.71967900  1
  O  O119  1  0.12205900  0.77466700  0.28032100  1
  O  O120  1  0.30290400  0.86792400  0.70363900  1
  O  O121  1  0.80290400  0.13207600  0.29636100  1
  O  O122  1  0.80290400  0.36792400  0.79636100  1
  O  O123  1  0.30290400  0.63207600  0.20363900  1
  O  O124  1  0.87506900  0.67900100  0.68339900  1
  O  O125  1  0.37506900  0.32099900  0.31660100  1
  O  O126  1  0.37506900  0.17900100  0.81660100  1
  O  O127  1  0.87506900  0.82099900  0.18339900  1
  O  O128  1  0.86527700  0.83508000  0.83315100  1
  O  O129  1  0.36527700  0.16492000  0.16684900  1
  O  O130  1  0.36527700  0.33508000  0.66684900  1
  O  O131  1  0.86527700  0.66492000  0.33315100  1
  O  O132  1  0.93394400  0.86341500  0.70113400  1
  O  O133  1  0.43394400  0.13658500  0.29886600  1
  O  O134  1  0.43394400  0.36341500  0.79886600  1
  O  O135  1  0.93394400  0.63658500  0.20113400  1
  O  O136  1  0.12030000  0.72133700  0.57839100  1
  O  O137  1  0.62030000  0.27866300  0.42160900  1
  O  O138  1  0.62030000  0.22133700  0.92160900  1
  O  O139  1  0.12030000  0.77866300  0.07839100  1
