# generated using pymatgen
data_Li14MgSi4
_symmetry_space_group_name_H-M   'P 1'
_cell_length_a   9.22014180
_cell_length_b   9.22014180
_cell_length_c   9.22014180
_cell_angle_alpha   109.41370852
_cell_angle_beta   109.41370852
_cell_angle_gamma   109.58630619
_symmetry_Int_Tables_number   1
_chemical_formula_structural   Li14MgSi4
_chemical_formula_sum   'Li28 Mg2 Si8'
_cell_volume   603.37817333
_cell_formula_units_Z   2
loop_
 _symmetry_equiv_pos_site_id
 _symmetry_equiv_pos_as_xyz
  1  'x, y, z'
loop_
 _atom_site_type_symbol
 _atom_site_label
 _atom_site_symmetry_multiplicity
 _atom_site_fract_x
 _atom_site_fract_y
 _atom_site_fract_z
 _atom_site_occupancy
  Li  Li0  1  0.06411000  0.53800600  0.27504300  1
  Li  Li1  1  0.26296300  0.78906800  0.72495700  1
  Li  Li2  1  0.18589000  0.96093200  0.97389500  1
  Li  Li3  1  0.98703700  0.21199400  0.02610500  1
  Li  Li4  1  0.03906800  0.01296300  0.22495700  1
  Li  Li5  1  0.78800600  0.81411000  0.77504300  1
  Li  Li6  1  0.46199400  0.73703700  0.52610500  1
  Li  Li7  1  0.21093200  0.93589000  0.47389500  1
  Li  Li8  1  0.71663100  0.34642300  0.06228800  1
  Li  Li9  1  0.96586500  0.40357700  0.87020800  1
  Li  Li10  1  0.28413500  0.65434300  0.93771200  1
  Li  Li11  1  0.53336900  0.09565700  0.12979200  1
  Li  Li12  1  0.69029300  0.85708600  0.08869900  1
  Li  Li13  1  0.48161400  0.89291400  0.33320700  1
  Li  Li14  1  0.55970700  0.14840700  0.66679300  1
  Li  Li15  1  0.76838600  0.60159300  0.91130100  1
  Li  Li16  1  0.85159300  0.51838600  0.41130100  1
  Li  Li17  1  0.39840700  0.30970700  0.16679300  1
  Li  Li18  1  0.14291400  0.23161400  0.83320700  1
  Li  Li19  1  0.10708600  0.44029300  0.58869900  1
  Li  Li20  1  0.90434300  0.03413500  0.43771200  1
  Li  Li21  1  0.34565700  0.28336900  0.62979200  1
  Li  Li22  1  0.59642300  0.46663100  0.56228800  1
  Li  Li23  1  0.65357700  0.71586500  0.37020800  1
  Li  Li24  1  0.99968600  0.87500000  0.62468600  1
  Li  Li25  1  0.25031400  0.37500000  0.37531400  1
  Li  Li26  1  0.12500000  0.74968600  0.12468600  1
  Li  Li27  1  0.62500000  0.00031400  0.87531400  1
  Mg  Mg28  1  0.50000000  0.50000000  0.00000000  1
  Mg  Mg29  1  0.75000000  0.25000000  0.50000000  1
  Si  Si30  1  0.28890000  0.53511300  0.16087900  1
  Si  Si31  1  0.37423400  0.12802100  0.83912100  1
  Si  Si32  1  0.96110000  0.62197900  0.74621300  1
  Si  Si33  1  0.87576600  0.21488700  0.25378700  1
  Si  Si34  1  0.37802100  0.12423400  0.33912100  1
  Si  Si35  1  0.78511300  0.03890000  0.66087900  1
  Si  Si36  1  0.46488700  0.62576600  0.75378700  1
  Si  Si37  1  0.87197900  0.71110000  0.24621300  1
