# generated using pymatgen
data_SmCuO2
_symmetry_space_group_name_H-M   'P 1'
_cell_length_a   6.10347761
_cell_length_b   6.10347761
_cell_length_c   6.10347746
_cell_angle_alpha   35.12721222
_cell_angle_beta   35.12721222
_cell_angle_gamma   35.12721079
_symmetry_Int_Tables_number   1
_chemical_formula_structural   SmCuO2
_chemical_formula_sum   'Sm1 Cu1 O2'
_cell_volume   67.22802000
_cell_formula_units_Z   1
loop_
 _symmetry_equiv_pos_site_id
 _symmetry_equiv_pos_as_xyz
  1  'x, y, z'
loop_
 _atom_site_type_symbol
 _atom_site_label
 _atom_site_symmetry_multiplicity
 _atom_site_fract_x
 _atom_site_fract_y
 _atom_site_fract_z
 _atom_site_occupancy
  Sm  Sm0  1  0.50000000  0.50000000  0.50000000  1
  Cu  Cu1  1  0.00000000  0.00000000  0.00000000  1
  O  O2  1  0.89374900  0.89374900  0.89374900  1
  O  O3  1  0.10625100  0.10625100  0.10625100  1
