# generated using pymatgen
data_NpF3
_symmetry_space_group_name_H-M   'P 1'
_cell_length_a   4.15148571
_cell_length_b   4.15148571
_cell_length_c   7.28234900
_cell_angle_alpha   90.00000000
_cell_angle_beta   90.00000000
_cell_angle_gamma   119.99999532
_symmetry_Int_Tables_number   1
_chemical_formula_structural   NpF3
_chemical_formula_sum   'Np2 F6'
_cell_volume   108.69491678
_cell_formula_units_Z   2
loop_
 _symmetry_equiv_pos_site_id
 _symmetry_equiv_pos_as_xyz
  1  'x, y, z'
loop_
 _atom_site_type_symbol
 _atom_site_label
 _atom_site_symmetry_multiplicity
 _atom_site_fract_x
 _atom_site_fract_y
 _atom_site_fract_z
 _atom_site_occupancy
  Np  Np0  1  0.66666700  0.33333300  0.75000000  1
  Np  Np1  1  0.33333300  0.66666700  0.25000000  1
  F  F2  1  0.66666700  0.33333300  0.42101000  1
  F  F3  1  0.66666700  0.33333300  0.07899000  1
  F  F4  1  0.00000000  0.00000000  0.25000000  1
  F  F5  1  0.00000000  0.00000000  0.75000000  1
  F  F6  1  0.33333300  0.66666700  0.92101000  1
  F  F7  1  0.33333300  0.66666700  0.57899000  1
