# generated using pymatgen
data_UFe2SiC
_symmetry_space_group_name_H-M   'P 1'
_cell_length_a   5.66428580
_cell_length_b   5.66428580
_cell_length_c   6.52821800
_cell_angle_alpha   90.00000000
_cell_angle_beta   90.00000000
_cell_angle_gamma   141.78802565
_symmetry_Int_Tables_number   1
_chemical_formula_structural   UFe2SiC
_chemical_formula_sum   'U2 Fe4 Si2 C2'
_cell_volume   129.56140770
_cell_formula_units_Z   2
loop_
 _symmetry_equiv_pos_site_id
 _symmetry_equiv_pos_as_xyz
  1  'x, y, z'
loop_
 _atom_site_type_symbol
 _atom_site_label
 _atom_site_symmetry_multiplicity
 _atom_site_fract_x
 _atom_site_fract_y
 _atom_site_fract_z
 _atom_site_occupancy
  U  U0  1  0.56341400  0.43658600  0.25000000  1
  U  U1  1  0.43658600  0.56341400  0.75000000  1
  Fe  Fe2  1  0.83670700  0.16329300  0.05085400  1
  Fe  Fe3  1  0.16329300  0.83670700  0.94914600  1
  Fe  Fe4  1  0.16329300  0.83670700  0.55085400  1
  Fe  Fe5  1  0.83670700  0.16329300  0.44914600  1
  Si  Si6  1  0.28129800  0.71870200  0.25000000  1
  Si  Si7  1  0.71870200  0.28129800  0.75000000  1
  C  C8  1  0.00000000  0.00000000  0.00000000  1
  C  C9  1  0.00000000  0.00000000  0.50000000  1
