# generated using pymatgen
data_KNaNbOF5
_symmetry_space_group_name_H-M   'P 1'
_cell_length_a   5.99062000
_cell_length_b   8.29056100
_cell_length_c   12.10158500
_cell_angle_alpha   90.00000000
_cell_angle_beta   90.00000000
_cell_angle_gamma   90.00000000
_symmetry_Int_Tables_number   1
_chemical_formula_structural   KNaNbOF5
_chemical_formula_sum   'K4 Na4 Nb4 O4 F20'
_cell_volume   601.03248648
_cell_formula_units_Z   4
loop_
 _symmetry_equiv_pos_site_id
 _symmetry_equiv_pos_as_xyz
  1  'x, y, z'
loop_
 _atom_site_type_symbol
 _atom_site_label
 _atom_site_symmetry_multiplicity
 _atom_site_fract_x
 _atom_site_fract_y
 _atom_site_fract_z
 _atom_site_occupancy
  K  K0  1  0.03190100  0.29922600  0.03876700  1
  K  K1  1  0.96809900  0.79922600  0.96123300  1
  K  K2  1  0.46809900  0.29922600  0.53876700  1
  K  K3  1  0.53190100  0.79922600  0.46123300  1
  Na  Na4  1  0.04834600  0.04640200  0.36176400  1
  Na  Na5  1  0.95165400  0.54640200  0.63823600  1
  Na  Na6  1  0.45165400  0.04640200  0.86176400  1
  Na  Na7  1  0.54834600  0.54640200  0.13823600  1
  Nb  Nb8  1  0.54077400  0.03905500  0.15172700  1
  Nb  Nb9  1  0.45922600  0.53905500  0.84827300  1
  Nb  Nb10  1  0.95922600  0.03905500  0.65172700  1
  Nb  Nb11  1  0.04077400  0.53905500  0.34827300  1
  O  O12  1  0.40105900  0.99952300  0.27822800  1
  O  O13  1  0.59894100  0.49952300  0.72177200  1
  O  O14  1  0.09894100  0.99952300  0.77822800  1
  O  O15  1  0.90105900  0.49952300  0.22177200  1
  F  F16  1  0.28505500  0.00361700  0.04723800  1
  F  F17  1  0.71494500  0.50361700  0.95276200  1
  F  F18  1  0.21494500  0.00361700  0.54723800  1
  F  F19  1  0.78505500  0.50361700  0.45276200  1
  F  F20  1  0.46435300  0.27186800  0.13937800  1
  F  F21  1  0.53564700  0.77186800  0.86062200  1
  F  F22  1  0.03564700  0.27186800  0.63937800  1
  F  F23  1  0.96435300  0.77186800  0.36062200  1
  F  F24  1  0.33551100  0.60199400  0.28838300  1
  F  F25  1  0.66448900  0.10199400  0.71161700  1
  F  F26  1  0.16448900  0.60199400  0.78838300  1
  F  F27  1  0.83551100  0.10199400  0.21161700  1
  F  F28  1  0.14814100  0.31523300  0.37266200  1
  F  F29  1  0.85185900  0.81523300  0.62733800  1
  F  F30  1  0.35185900  0.31523300  0.87266200  1
  F  F31  1  0.64814100  0.81523300  0.12733800  1
  F  F32  1  0.28271600  0.57573100  0.00314700  1
  F  F33  1  0.71728400  0.07573100  0.99685300  1
  F  F34  1  0.21728400  0.57573100  0.50314700  1
  F  F35  1  0.78271600  0.07573100  0.49685300  1
