# generated using pymatgen
data_Er7FeI12
_symmetry_space_group_name_H-M   'P 1'
_cell_length_a   9.67321821
_cell_length_b   9.67321821
_cell_length_c   9.67321828
_cell_angle_alpha   106.88721579
_cell_angle_beta   106.88721579
_cell_angle_gamma   106.88721672
_symmetry_Int_Tables_number   1
_chemical_formula_structural   Er7FeI12
_chemical_formula_sum   'Er7 Fe1 I12'
_cell_volume   756.11157422
_cell_formula_units_Z   1
loop_
 _symmetry_equiv_pos_site_id
 _symmetry_equiv_pos_as_xyz
  1  'x, y, z'
loop_
 _atom_site_type_symbol
 _atom_site_label
 _atom_site_symmetry_multiplicity
 _atom_site_fract_x
 _atom_site_fract_y
 _atom_site_fract_z
 _atom_site_occupancy
  Er  Er0  1  0.90880300  0.97762000  0.71250900  1
  Er  Er1  1  0.71250900  0.90880300  0.97762000  1
  Er  Er2  1  0.97762000  0.71250900  0.90880300  1
  Er  Er3  1  0.09119700  0.02238000  0.28749100  1
  Er  Er4  1  0.28749100  0.09119700  0.02238000  1
  Er  Er5  1  0.02238000  0.28749100  0.09119700  1
  Er  Er6  1  0.50000000  0.50000000  0.50000000  1
  Fe  Fe7  1  0.00000000  0.00000000  0.00000000  1
  I  I8  1  0.83988300  0.61200500  0.53477200  1
  I  I9  1  0.53477200  0.83988300  0.61200500  1
  I  I10  1  0.61200500  0.53477200  0.83988300  1
  I  I11  1  0.16011700  0.38799500  0.46522800  1
  I  I12  1  0.46522800  0.16011700  0.38799500  1
  I  I13  1  0.38799500  0.46522800  0.16011700  1
  I  I14  1  0.92863900  0.32228200  0.77406300  1
  I  I15  1  0.77406300  0.92863900  0.32228200  1
  I  I16  1  0.32228200  0.77406300  0.92863900  1
  I  I17  1  0.07136100  0.67771800  0.22593700  1
  I  I18  1  0.22593700  0.07136100  0.67771800  1
  I  I19  1  0.67771800  0.22593700  0.07136100  1
