# generated using pymatgen
data_LiCeF5
_symmetry_space_group_name_H-M   'P 1'
_cell_length_a   11.05723151
_cell_length_b   11.05723151
_cell_length_c   11.05723151
_cell_angle_alpha   95.21203506
_cell_angle_beta   95.21203506
_cell_angle_gamma   144.91661930
_symmetry_Int_Tables_number   1
_chemical_formula_structural   LiCeF5
_chemical_formula_sum   'Li8 Ce8 F40'
_cell_volume   740.88612582
_cell_formula_units_Z   8
loop_
 _symmetry_equiv_pos_site_id
 _symmetry_equiv_pos_as_xyz
  1  'x, y, z'
loop_
 _atom_site_type_symbol
 _atom_site_label
 _atom_site_symmetry_multiplicity
 _atom_site_fract_x
 _atom_site_fract_y
 _atom_site_fract_z
 _atom_site_occupancy
  Li  Li0  1  0.96577400  0.47645800  0.65890000  1
  Li  Li1  1  0.81755700  0.30687400  0.34110000  1
  Li  Li2  1  0.43244300  0.44312600  0.15890000  1
  Li  Li3  1  0.28422600  0.27354200  0.84110000  1
  Li  Li4  1  0.52354200  0.18244300  0.48931600  1
  Li  Li5  1  0.69312600  0.03422600  0.51068400  1
  Li  Li6  1  0.55687400  0.71577400  0.98931600  1
  Li  Li7  1  0.72645800  0.56755700  0.01068400  1
  Ce  Ce8  1  0.81945900  0.68946200  0.74217000  1
  Ce  Ce9  1  0.94729200  0.07728900  0.25783000  1
  Ce  Ce10  1  0.30270800  0.67271100  0.24217000  1
  Ce  Ce11  1  0.43054100  0.06053800  0.75783000  1
  Ce  Ce12  1  0.31053800  0.05270800  0.12999700  1
  Ce  Ce13  1  0.92271100  0.18054100  0.87000300  1
  Ce  Ce14  1  0.32728900  0.56945900  0.62999700  1
  Ce  Ce15  1  0.93946200  0.69729200  0.37000300  1
  F  F16  1  0.55665100  0.34757100  0.63322000  1
  F  F17  1  0.71435200  0.92343100  0.36678000  1
  F  F18  1  0.53564800  0.82656900  0.13322000  1
  F  F19  1  0.69334900  0.40242900  0.86678000  1
  F  F20  1  0.65242900  0.28564800  0.20907900  1
  F  F21  1  0.07656900  0.44334900  0.79092100  1
  F  F22  1  0.17343100  0.30665100  0.70907900  1
  F  F23  1  0.59757100  0.46435200  0.29092100  1
  F  F24  1  0.86278500  0.72835100  0.54991100  1
  F  F25  1  0.17844000  0.31287400  0.45008900  1
  F  F26  1  0.07156000  0.43712600  0.04991100  1
  F  F27  1  0.38721500  0.02164900  0.95008900  1
  F  F28  1  0.27164900  0.82156000  0.13443400  1
  F  F29  1  0.68712600  0.13721500  0.86556600  1
  F  F30  1  0.56287400  0.61278500  0.63443400  1
  F  F31  1  0.97835100  0.92844000  0.36556600  1
  F  F32  1  0.59772900  0.55806100  0.86413800  1
  F  F33  1  0.69392300  0.73359000  0.13586200  1
  F  F34  1  0.55607700  0.01641000  0.36413800  1
  F  F35  1  0.65227100  0.19193900  0.63586200  1
  F  F36  1  0.44193900  0.30607700  0.03966800  1
  F  F37  1  0.26641000  0.40227100  0.96033200  1
  F  F38  1  0.98359000  0.34772900  0.53966800  1
  F  F39  1  0.80806100  0.44392300  0.46033200  1
  F  F40  1  0.02595200  0.69145000  0.73384500  1
  F  F41  1  0.95760500  0.29210700  0.26615500  1
  F  F42  1  0.29239500  0.45789300  0.23384500  1
  F  F43  1  0.22404800  0.05855000  0.76615500  1
  F  F44  1  0.30855000  0.04239500  0.33450200  1
  F  F45  1  0.70789300  0.97404800  0.66549800  1
  F  F46  1  0.54210700  0.77595200  0.83450200  1
  F  F47  1  0.94145000  0.70760500  0.16549800  1
  F  F48  1  0.94560900  0.98706200  0.82111600  1
  F  F49  1  0.16594600  0.12449300  0.17888400  1
  F  F50  1  0.08405400  0.62550700  0.32111600  1
  F  F51  1  0.30439100  0.76293800  0.67888400  1
  F  F52  1  0.01293800  0.83405400  0.95854700  1
  F  F53  1  0.87550700  0.05439100  0.04145300  1
  F  F54  1  0.37449300  0.69560900  0.45854700  1
  F  F55  1  0.23706200  0.91594600  0.54145300  1
