# generated using pymatgen
data_RbSbCl6
_symmetry_space_group_name_H-M   'P 1'
_cell_length_a   7.08021526
_cell_length_b   7.08021526
_cell_length_c   12.67804509
_cell_angle_alpha   79.49769557
_cell_angle_beta   79.49769557
_cell_angle_gamma   55.91306329
_symmetry_Int_Tables_number   1
_chemical_formula_structural   RbSbCl6
_chemical_formula_sum   'Rb2 Sb2 Cl12'
_cell_volume   515.02086606
_cell_formula_units_Z   2
loop_
 _symmetry_equiv_pos_site_id
 _symmetry_equiv_pos_as_xyz
  1  'x, y, z'
loop_
 _atom_site_type_symbol
 _atom_site_label
 _atom_site_symmetry_multiplicity
 _atom_site_fract_x
 _atom_site_fract_y
 _atom_site_fract_z
 _atom_site_occupancy
  Rb  Rb0  1  0.88387100  0.11612900  0.75000000  1
  Rb  Rb1  1  0.11612900  0.88387100  0.25000000  1
  Sb  Sb2  1  0.50000000  0.00000000  0.50000000  1
  Sb  Sb3  1  0.00000000  0.50000000  0.00000000  1
  Cl  Cl4  1  0.45833800  0.70163100  0.60554200  1
  Cl  Cl5  1  0.54166200  0.29836900  0.39445800  1
  Cl  Cl6  1  0.29836900  0.54166200  0.89445800  1
  Cl  Cl7  1  0.70163100  0.45833800  0.10554200  1
  Cl  Cl8  1  0.37150300  0.19916700  0.65962700  1
  Cl  Cl9  1  0.62849700  0.80083300  0.34037300  1
  Cl  Cl10  1  0.80083300  0.62849700  0.84037300  1
  Cl  Cl11  1  0.19916700  0.37150300  0.15962700  1
  Cl  Cl12  1  0.79955300  0.89289400  0.03966300  1
  Cl  Cl13  1  0.20044700  0.10710600  0.96033700  1
  Cl  Cl14  1  0.10710600  0.20044700  0.46033700  1
  Cl  Cl15  1  0.89289400  0.79955300  0.53966300  1
