# generated using pymatgen
data_Cs2Th2P2Se13
_symmetry_space_group_name_H-M   'P 1'
_cell_length_a   12.24185287
_cell_length_b   14.82961772
_cell_length_c   27.56722315
_cell_angle_alpha   90.00000000
_cell_angle_beta   90.00000000
_cell_angle_gamma   90.00000000
_symmetry_Int_Tables_number   1
_chemical_formula_structural   Cs2Th2P2Se13
_chemical_formula_sum   'Cs16 Th16 P16 Se104'
_cell_volume   5004.60877676
_cell_formula_units_Z   8
loop_
 _symmetry_equiv_pos_site_id
 _symmetry_equiv_pos_as_xyz
  1  'x, y, z'
loop_
 _atom_site_type_symbol
 _atom_site_label
 _atom_site_symmetry_multiplicity
 _atom_site_fract_x
 _atom_site_fract_y
 _atom_site_fract_z
 _atom_site_occupancy
  Cs  Cs0  1  0.28798208  0.02262009  0.55792329  1
  Cs  Cs1  1  0.78798208  0.47737991  0.44207671  1
  Cs  Cs2  1  0.71201792  0.52262009  0.94207671  1
  Cs  Cs3  1  0.21201792  0.97737991  0.05792329  1
  Cs  Cs4  1  0.71201792  0.97737991  0.44207671  1
  Cs  Cs5  1  0.21201792  0.52262009  0.55792329  1
  Cs  Cs6  1  0.28798208  0.47737991  0.05792329  1
  Cs  Cs7  1  0.78798208  0.02262009  0.94207671  1
  Cs  Cs8  1  0.69855001  0.28984091  0.81225148  1
  Cs  Cs9  1  0.19855001  0.21015909  0.18774852  1
  Cs  Cs10  1  0.30144999  0.78984091  0.68774852  1
  Cs  Cs11  1  0.80144999  0.71015909  0.31225148  1
  Cs  Cs12  1  0.30144999  0.71015909  0.18774852  1
  Cs  Cs13  1  0.80144999  0.78984091  0.81225148  1
  Cs  Cs14  1  0.69855001  0.21015909  0.31225148  1
  Cs  Cs15  1  0.19855001  0.28984091  0.68774852  1
  Th  Th16  1  0.28618928  0.01929425  0.82922076  1
  Th  Th17  1  0.78618928  0.48070575  0.17077924  1
  Th  Th18  1  0.71381072  0.51929425  0.67077924  1
  Th  Th19  1  0.21381072  0.98070575  0.32922076  1
  Th  Th20  1  0.71381072  0.98070575  0.17077924  1
  Th  Th21  1  0.21381072  0.51929425  0.82922076  1
  Th  Th22  1  0.28618928  0.48070575  0.32922076  1
  Th  Th23  1  0.78618928  0.01929425  0.67077924  1
  Th  Th24  1  0.28458453  0.24816267  0.91967715  1
  Th  Th25  1  0.78458453  0.25183733  0.08032285  1
  Th  Th26  1  0.71541547  0.74816267  0.58032285  1
  Th  Th27  1  0.21541547  0.75183733  0.41967715  1
  Th  Th28  1  0.71541547  0.75183733  0.08032285  1
  Th  Th29  1  0.21541547  0.74816267  0.91967715  1
  Th  Th30  1  0.28458453  0.25183733  0.41967715  1
  Th  Th31  1  0.78458453  0.24816267  0.58032285  1
  P  P32  1  0.04428467  0.01850214  0.74247192  1
  P  P33  1  0.54428467  0.48149786  0.25752808  1
  P  P34  1  0.95571533  0.51850214  0.75752808  1
  P  P35  1  0.45571533  0.98149786  0.24247192  1
  P  P36  1  0.95571533  0.98149786  0.25752808  1
  P  P37  1  0.45571533  0.51850214  0.74247192  1
  P  P38  1  0.04428467  0.48149786  0.24247192  1
  P  P39  1  0.54428467  0.01850214  0.75752808  1
  P  P40  1  0.55022984  0.25935917  0.98878916  1
  P  P41  1  0.05022984  0.24064083  0.01121084  1
  P  P42  1  0.44977016  0.75935917  0.51121084  1
  P  P43  1  0.94977016  0.74064083  0.48878916  1
  P  P44  1  0.44977016  0.74064083  0.01121084  1
  P  P45  1  0.94977016  0.75935917  0.98878916  1
  P  P46  1  0.55022984  0.24064083  0.48878916  1
  P  P47  1  0.05022984  0.25935917  0.51121084  1
  Se  Se48  1  0.46161249  0.12934544  0.96931031  1
  Se  Se49  1  0.96161249  0.37065456  0.03068969  1
  Se  Se50  1  0.53838751  0.62934544  0.53068969  1
  Se  Se51  1  0.03838751  0.87065456  0.46931031  1
  Se  Se52  1  0.53838751  0.87065456  0.03068969  1
  Se  Se53  1  0.03838751  0.62934544  0.96931031  1
  Se  Se54  1  0.46161249  0.37065456  0.46931031  1
  Se  Se55  1  0.96161249  0.12934544  0.53068969  1
  Se  Se56  1  0.45038149  0.14476745  0.77800203  1
  Se  Se57  1  0.95038149  0.35523255  0.22199797  1
  Se  Se58  1  0.54961851  0.64476745  0.72199797  1
  Se  Se59  1  0.04961851  0.85523255  0.27800203  1
  Se  Se60  1  0.54961851  0.85523255  0.22199797  1
  Se  Se61  1  0.04961851  0.64476745  0.77800203  1
  Se  Se62  1  0.45038149  0.35523255  0.27800203  1
  Se  Se63  1  0.95038149  0.14476745  0.72199797  1
  Se  Se64  1  0.18545669  0.21427718  0.82357436  1
  Se  Se65  1  0.68545669  0.28572282  0.17642564  1
  Se  Se66  1  0.81454331  0.71427718  0.67642564  1
  Se  Se67  1  0.31454331  0.78572282  0.32357436  1
  Se  Se68  1  0.81454331  0.78572282  0.17642564  1
  Se  Se69  1  0.31454331  0.71427718  0.82357436  1
  Se  Se70  1  0.18545669  0.28572282  0.32357436  1
  Se  Se71  1  0.68545669  0.21427718  0.67642564  1
  Se  Se72  1  0.17553714  0.83283750  0.82127035  1
  Se  Se73  1  0.67553714  0.66716250  0.17872965  1
  Se  Se74  1  0.82446286  0.33283750  0.67872965  1
  Se  Se75  1  0.32446286  0.16716250  0.32127035  1
  Se  Se76  1  0.82446286  0.16716250  0.17872965  1
  Se  Se77  1  0.32446286  0.33283750  0.82127035  1
  Se  Se78  1  0.17553714  0.66716250  0.32127035  1
  Se  Se79  1  0.67553714  0.83283750  0.67872965  1
  Se  Se80  1  0.19527442  0.05038696  0.92795920  1
  Se  Se81  1  0.69527442  0.44961304  0.07204080  1
  Se  Se82  1  0.80472558  0.55038696  0.57204080  1
  Se  Se83  1  0.30472558  0.94961304  0.42795920  1
  Se  Se84  1  0.80472558  0.94961304  0.07204080  1
  Se  Se85  1  0.30472558  0.55038696  0.92795920  1
  Se  Se86  1  0.19527442  0.44961304  0.42795920  1
  Se  Se87  1  0.69527442  0.05038696  0.57204080  1
  Se  Se88  1  0.33452430  0.93233732  0.92618926  1
  Se  Se89  1  0.83452430  0.56766268  0.07381074  1
  Se  Se90  1  0.66547570  0.43233732  0.57381074  1
  Se  Se91  1  0.16547570  0.06766268  0.42618926  1
  Se  Se92  1  0.66547570  0.06766268  0.07381074  1
  Se  Se93  1  0.16547570  0.43233732  0.92618926  1
  Se  Se94  1  0.33452430  0.56766268  0.42618926  1
  Se  Se95  1  0.83452430  0.93233732  0.57381074  1
  Se  Se96  1  0.46984857  0.13628903  0.87380290  1
  Se  Se97  1  0.96984857  0.36371097  0.12619710  1
  Se  Se98  1  0.53015143  0.63628903  0.62619710  1
  Se  Se99  1  0.03015143  0.86371097  0.37380290  1
  Se  Se100  1  0.53015143  0.86371097  0.12619710  1
  Se  Se101  1  0.03015143  0.63628903  0.87380290  1
  Se  Se102  1  0.46984857  0.36371097  0.37380290  1
  Se  Se103  1  0.96984857  0.13628903  0.62619710  1
  Se  Se104  1  0.21845392  0.03075160  0.72073580  1
  Se  Se105  1  0.71845392  0.46924840  0.27926420  1
  Se  Se106  1  0.78154608  0.53075160  0.77926420  1
  Se  Se107  1  0.28154608  0.96924840  0.22073580  1
  Se  Se108  1  0.78154608  0.96924840  0.27926420  1
  Se  Se109  1  0.28154608  0.53075160  0.72073580  1
  Se  Se110  1  0.21845392  0.46924840  0.22073580  1
  Se  Se111  1  0.71845392  0.03075160  0.77926420  1
  Se  Se112  1  0.46551607  0.89895142  0.79121929  1
  Se  Se113  1  0.96551607  0.60104858  0.20878071  1
  Se  Se114  1  0.53448393  0.39895142  0.70878071  1
  Se  Se115  1  0.03448393  0.10104858  0.29121929  1
  Se  Se116  1  0.53448393  0.10104858  0.20878071  1
  Se  Se117  1  0.03448393  0.39895142  0.79121929  1
  Se  Se118  1  0.46551607  0.60104858  0.29121929  1
  Se  Se119  1  0.96551607  0.89895142  0.70878071  1
  Se  Se120  1  0.03816344  0.23015938  0.93019558  1
  Se  Se121  1  0.53816344  0.26984062  0.06980442  1
  Se  Se122  1  0.96183656  0.73015938  0.56980442  1
  Se  Se123  1  0.46183656  0.76984062  0.43019558  1
  Se  Se124  1  0.96183656  0.76984062  0.06980442  1
  Se  Se125  1  0.46183656  0.73015938  0.93019558  1
  Se  Se126  1  0.03816344  0.26984062  0.43019558  1
  Se  Se127  1  0.53816344  0.23015938  0.56980442  1
  Se  Se128  1  0.22680790  0.24116241  0.03034633  1
  Se  Se129  1  0.72680790  0.25883759  0.96965367  1
  Se  Se130  1  0.77319210  0.74116241  0.46965367  1
  Se  Se131  1  0.27319210  0.75883759  0.53034633  1
  Se  Se132  1  0.77319210  0.75883759  0.96965367  1
  Se  Se133  1  0.27319210  0.74116241  0.03034633  1
  Se  Se134  1  0.22680790  0.25883759  0.53034633  1
  Se  Se135  1  0.72680790  0.24116241  0.46965367  1
  Se  Se136  1  0.03854951  0.01731401  0.82377250  1
  Se  Se137  1  0.53854951  0.48268599  0.17622750  1
  Se  Se138  1  0.96145049  0.51731401  0.67622750  1
  Se  Se139  1  0.46145049  0.98268599  0.32377250  1
  Se  Se140  1  0.96145049  0.98268599  0.17622750  1
  Se  Se141  1  0.46145049  0.51731401  0.82377250  1
  Se  Se142  1  0.03854951  0.48268599  0.32377250  1
  Se  Se143  1  0.53854951  0.01731401  0.67622750  1
  Se  Se144  1  0.46630740  0.37226082  0.95129545  1
  Se  Se145  1  0.96630740  0.12773918  0.04870455  1
  Se  Se146  1  0.53369260  0.87226082  0.54870455  1
  Se  Se147  1  0.03369260  0.62773918  0.45129545  1
  Se  Se148  1  0.53369260  0.62773918  0.04870455  1
  Se  Se149  1  0.03369260  0.87226082  0.95129545  1
  Se  Se150  1  0.46630740  0.12773918  0.45129545  1
  Se  Se151  1  0.96630740  0.37226082  0.54870455  1
