# generated using pymatgen
data_K14Fe4O13
_symmetry_space_group_name_H-M   'P 1'
_cell_length_a   30.20297900
_cell_length_b   6.77433100
_cell_length_c   6.77758062
_cell_angle_alpha   60.80175450
_cell_angle_beta   90.00000000
_cell_angle_gamma   90.00000000
_symmetry_Int_Tables_number   1
_chemical_formula_structural   K14Fe4O13
_chemical_formula_sum   'K28 Fe8 O26'
_cell_volume   1210.52509013
_cell_formula_units_Z   2
loop_
 _symmetry_equiv_pos_site_id
 _symmetry_equiv_pos_as_xyz
  1  'x, y, z'
loop_
 _atom_site_type_symbol
 _atom_site_label
 _atom_site_symmetry_multiplicity
 _atom_site_fract_x
 _atom_site_fract_y
 _atom_site_fract_z
 _atom_site_occupancy
  K  K0  1  0.44911900  0.14925900  0.00188900  1
  K  K1  1  0.38868300  0.74136000  0.54381300  1
  K  K2  1  0.00111300  0.27073200  0.95875900  1
  K  K3  1  0.50111300  0.72926800  0.54124100  1
  K  K4  1  0.99888700  0.72926800  0.04124100  1
  K  K5  1  0.49888700  0.27073200  0.45875900  1
  K  K6  1  0.11398700  0.28333000  0.95661900  1
  K  K7  1  0.61398700  0.71667000  0.54338100  1
  K  K8  1  0.88601300  0.71667000  0.04338100  1
  K  K9  1  0.38601300  0.28333000  0.45661900  1
  K  K10  1  0.61131700  0.25864000  0.45618700  1
  K  K11  1  0.11131700  0.74136000  0.04381300  1
  K  K12  1  0.27167000  0.27538400  0.44216800  1
  K  K13  1  0.77167000  0.72461600  0.05783200  1
  K  K14  1  0.72833000  0.72461600  0.55783200  1
  K  K15  1  0.22833000  0.27538400  0.94216800  1
  K  K16  1  0.34720600  0.86969200  0.99763900  1
  K  K17  1  0.84720600  0.13030800  0.50236100  1
  K  K18  1  0.21915300  0.71954900  0.05306600  1
  K  K19  1  0.15279400  0.86969200  0.49763900  1
  K  K20  1  0.65279400  0.13030800  0.00236100  1
  K  K21  1  0.94911900  0.85074100  0.49811100  1
  K  K22  1  0.55088100  0.85074100  0.99811100  1
  K  K23  1  0.05088100  0.14925900  0.50188900  1
  K  K24  1  0.28084700  0.71954900  0.55306600  1
  K  K25  1  0.78084700  0.28045100  0.94693400  1
  K  K26  1  0.71915300  0.28045100  0.44693400  1
  K  K27  1  0.88868300  0.25864000  0.95618700  1
  Fe  Fe28  1  0.33583700  0.35044800  0.00106600  1
  Fe  Fe29  1  0.83583700  0.64955200  0.49893400  1
  Fe  Fe30  1  0.66416300  0.64955200  0.99893400  1
  Fe  Fe31  1  0.16416300  0.35044800  0.50106600  1
  Fe  Fe32  1  0.44535700  0.65664400  0.00071400  1
  Fe  Fe33  1  0.94535700  0.34335600  0.49928600  1
  Fe  Fe34  1  0.55464300  0.34335600  0.99928600  1
  Fe  Fe35  1  0.05464300  0.65664400  0.50071400  1
  O  O36  1  0.50000000  0.50000000  0.00000000  1
  O  O37  1  0.00000000  0.50000000  0.50000000  1
  O  O38  1  0.20669000  0.55989100  0.49975200  1
  O  O39  1  0.70669000  0.44010900  0.00024800  1
  O  O40  1  0.79331000  0.44010900  0.50024800  1
  O  O41  1  0.29331000  0.55989100  0.99975200  1
  O  O42  1  0.55698500  0.05794200  0.26537000  1
  O  O43  1  0.05698500  0.94205800  0.23463000  1
  O  O44  1  0.44301500  0.94205800  0.73463000  1
  O  O45  1  0.94301500  0.05794200  0.76537000  1
  O  O46  1  0.32988700  0.06742800  0.27161000  1
  O  O47  1  0.82988700  0.93257200  0.22839000  1
  O  O48  1  0.67011300  0.93257200  0.72839000  1
  O  O49  1  0.17011300  0.06742800  0.77161000  1
  O  O50  1  0.17192700  0.32819700  0.23272400  1
  O  O51  1  0.67192700  0.67180300  0.26727600  1
  O  O52  1  0.82807300  0.67180300  0.76727600  1
  O  O53  1  0.32807300  0.32819700  0.73272400  1
  O  O54  1  0.55674200  0.32330700  0.73076100  1
  O  O55  1  0.05674200  0.67669300  0.76923900  1
  O  O56  1  0.44325800  0.67669300  0.26923900  1
  O  O57  1  0.94325800  0.32330700  0.23076100  1
  O  O58  1  0.39612500  0.47279900  0.99812700  1
  O  O59  1  0.89612500  0.52720100  0.50187300  1
  O  O60  1  0.60387500  0.52720100  0.00187300  1
  O  O61  1  0.10387500  0.47279900  0.49812700  1
