# generated using pymatgen
data_NaCaBO3
_symmetry_space_group_name_H-M   'P 1'
_cell_length_a   3.53596700
_cell_length_b   10.28442276
_cell_length_c   16.25734782
_cell_angle_alpha   90.06729277
_cell_angle_beta   90.00000000
_cell_angle_gamma   90.00000000
_symmetry_Int_Tables_number   1
_chemical_formula_structural   NaCaBO3
_chemical_formula_sum   'Na8 Ca8 B8 O24'
_cell_volume   591.20421543
_cell_formula_units_Z   8
loop_
 _symmetry_equiv_pos_site_id
 _symmetry_equiv_pos_as_xyz
  1  'x, y, z'
loop_
 _atom_site_type_symbol
 _atom_site_label
 _atom_site_symmetry_multiplicity
 _atom_site_fract_x
 _atom_site_fract_y
 _atom_site_fract_z
 _atom_site_occupancy
  Na  Na0  1  0.21332300  0.24749200  0.08130000  1
  Na  Na1  1  0.20391000  0.25988900  0.41680800  1
  Na  Na2  1  0.79609000  0.75988900  0.91680800  1
  Na  Na3  1  0.78667700  0.74749200  0.58130000  1
  Na  Na4  1  0.37795000  0.75513500  0.75142800  1
  Na  Na5  1  0.62205000  0.25513500  0.25142800  1
  Na  Na6  1  0.23668600  0.03195100  0.90048100  1
  Na  Na7  1  0.76331400  0.53195100  0.40048100  1
  Ca  Ca8  1  0.53024500  0.24386400  0.75270500  1
  Ca  Ca9  1  0.46975500  0.74386400  0.25270500  1
  Ca  Ca10  1  0.23431600  0.03252300  0.60024600  1
  Ca  Ca11  1  0.23454600  0.46550700  0.90137000  1
  Ca  Ca12  1  0.24093800  0.46762000  0.59480400  1
  Ca  Ca13  1  0.75906200  0.96762000  0.09480400  1
  Ca  Ca14  1  0.76545400  0.96550700  0.40137000  1
  Ca  Ca15  1  0.76568400  0.53252300  0.10024600  1
  B  B16  1  0.31922300  0.74843900  0.04255100  1
  B  B17  1  0.32001100  0.75243300  0.46164100  1
  B  B18  1  0.67998900  0.25243300  0.96164100  1
  B  B19  1  0.68077700  0.24843900  0.54255100  1
  B  B20  1  0.83946400  0.97305500  0.74688300  1
  B  B21  1  0.83544400  0.52236800  0.75022000  1
  B  B22  1  0.16455600  0.02236800  0.25022000  1
  B  B23  1  0.16053600  0.47305500  0.24688300  1
  O  O24  1  0.03390100  0.09167200  0.74316600  1
  O  O25  1  0.04460300  0.40722500  0.75054800  1
  O  O26  1  0.95539700  0.90722500  0.25054800  1
  O  O27  1  0.96609900  0.59167200  0.24316600  1
  O  O28  1  0.48145600  0.25408500  0.88912700  1
  O  O29  1  0.46377200  0.24686800  0.61323600  1
  O  O30  1  0.53622800  0.74686800  0.11323600  1
  O  O31  1  0.51854400  0.75408500  0.38912700  1
  O  O32  1  0.76248800  0.91046400  0.81907800  1
  O  O33  1  0.73477400  0.91870500  0.66989900  1
  O  O34  1  0.73850200  0.57900100  0.82585000  1
  O  O35  1  0.73872800  0.57916400  0.67529500  1
  O  O36  1  0.26127200  0.07916400  0.17529500  1
  O  O37  1  0.26149800  0.07900100  0.32585000  1
  O  O38  1  0.26522600  0.41870500  0.16989900  1
  O  O39  1  0.23751200  0.41046400  0.31907800  1
  O  O40  1  0.22574200  0.86722100  0.00813900  1
  O  O41  1  0.22628000  0.87502300  0.49576900  1
  O  O42  1  0.23332200  0.63033500  0.00413900  1
  O  O43  1  0.24987200  0.63996100  0.50531700  1
  O  O44  1  0.75012800  0.13996100  0.00531700  1
  O  O45  1  0.76667800  0.13033500  0.50413900  1
  O  O46  1  0.77372000  0.37502300  0.99576900  1
  O  O47  1  0.77425800  0.36722100  0.50813900  1
