# generated using pymatgen
data_TbTaTiO6
_symmetry_space_group_name_H-M   'P 1'
_cell_length_a   5.25056500
_cell_length_b   7.45333000
_cell_length_c   11.09021600
_cell_angle_alpha   90.00000000
_cell_angle_beta   90.00000000
_cell_angle_gamma   90.00000000
_symmetry_Int_Tables_number   1
_chemical_formula_structural   TbTaTiO6
_chemical_formula_sum   'Tb4 Ta4 Ti4 O24'
_cell_volume   434.00666036
_cell_formula_units_Z   4
loop_
 _symmetry_equiv_pos_site_id
 _symmetry_equiv_pos_as_xyz
  1  'x, y, z'
loop_
 _atom_site_type_symbol
 _atom_site_label
 _atom_site_symmetry_multiplicity
 _atom_site_fract_x
 _atom_site_fract_y
 _atom_site_fract_z
 _atom_site_occupancy
  Tb  Tb0  1  0.45492400  0.74849500  0.95552300  1
  Tb  Tb1  1  0.04507600  0.74849500  0.45552300  1
  Tb  Tb2  1  0.54507600  0.24849500  0.04447700  1
  Tb  Tb3  1  0.95492400  0.24849500  0.54447700  1
  Ta  Ta4  1  0.46048800  0.50709700  0.64364400  1
  Ta  Ta5  1  0.53951200  0.00709700  0.35635600  1
  Ta  Ta6  1  0.96048800  0.00709700  0.85635600  1
  Ta  Ta7  1  0.03951200  0.50709700  0.14364400  1
  Ti  Ti8  1  0.03708600  0.99192300  0.14228700  1
  Ti  Ti9  1  0.96291400  0.49192300  0.85771300  1
  Ti  Ti10  1  0.53708600  0.49192300  0.35771300  1
  Ti  Ti11  1  0.46291400  0.99192300  0.64228700  1
  O  O12  1  0.24055400  0.04224700  0.97252400  1
  O  O13  1  0.26342400  0.45829600  0.47443500  1
  O  O14  1  0.75944600  0.54224700  0.02747600  1
  O  O15  1  0.73657600  0.95829600  0.52556500  1
  O  O16  1  0.76342400  0.95829600  0.02556500  1
  O  O17  1  0.74055400  0.54224700  0.52747600  1
  O  O18  1  0.23657600  0.45829600  0.97443500  1
  O  O19  1  0.25944600  0.04224700  0.47252400  1
  O  O20  1  0.17491600  0.75234600  0.11776800  1
  O  O21  1  0.32508400  0.75234600  0.61776800  1
  O  O22  1  0.82508400  0.25234600  0.88223200  1
  O  O23  1  0.67491600  0.25234600  0.38223200  1
  O  O24  1  0.62096100  0.56651800  0.79233400  1
  O  O25  1  0.88373700  0.93445700  0.28960900  1
  O  O26  1  0.37903900  0.06651800  0.20766600  1
  O  O27  1  0.11626300  0.43445700  0.71039100  1
  O  O28  1  0.38373700  0.43445700  0.21039100  1
  O  O29  1  0.12096100  0.06651800  0.70766600  1
  O  O30  1  0.61626300  0.93445700  0.78960900  1
  O  O31  1  0.87903900  0.56651800  0.29233400  1
  O  O32  1  0.06059600  0.74862200  0.85597200  1
  O  O33  1  0.43940400  0.74862200  0.35597200  1
  O  O34  1  0.93940400  0.24862200  0.14402800  1
  O  O35  1  0.56059600  0.24862200  0.64402800  1
