# generated using pymatgen
data_K2RbNdV2O8
_symmetry_space_group_name_H-M   'P 1'
_cell_length_a   6.15227437
_cell_length_b   6.15227437
_cell_length_c   7.96911800
_cell_angle_alpha   90.00000000
_cell_angle_beta   90.00000000
_cell_angle_gamma   120.00000396
_symmetry_Int_Tables_number   1
_chemical_formula_structural   K2RbNdV2O8
_chemical_formula_sum   'K2 Rb1 Nd1 V2 O8'
_cell_volume   261.22351088
_cell_formula_units_Z   1
loop_
 _symmetry_equiv_pos_site_id
 _symmetry_equiv_pos_as_xyz
  1  'x, y, z'
loop_
 _atom_site_type_symbol
 _atom_site_label
 _atom_site_symmetry_multiplicity
 _atom_site_fract_x
 _atom_site_fract_y
 _atom_site_fract_z
 _atom_site_occupancy
  K  K0  1  0.33333300  0.66666700  0.70360700  1
  K  K1  1  0.66666700  0.33333300  0.29639300  1
  Rb  Rb2  1  0.00000000  0.00000000  0.00000000  1
  Nd  Nd3  1  0.00000000  0.00000000  0.50000000  1
  V  V4  1  0.33333300  0.66666700  0.24869400  1
  V  V5  1  0.66666700  0.33333300  0.75130600  1
  O  O6  1  0.33333300  0.66666700  0.03767100  1
  O  O7  1  0.66666700  0.33333300  0.96232900  1
  O  O8  1  0.17762500  0.82237500  0.32518600  1
  O  O9  1  0.82237500  0.17762500  0.67481400  1
  O  O10  1  0.17762500  0.35525000  0.32518600  1
  O  O11  1  0.82237500  0.64475000  0.67481400  1
  O  O12  1  0.64475000  0.82237500  0.32518600  1
  O  O13  1  0.35525000  0.17762500  0.67481400  1
