# generated using pymatgen
data_Sc2FeB2RuRh4
_symmetry_space_group_name_H-M   'P 1'
_cell_length_a   9.36918700
_cell_length_b   9.36918700
_cell_length_c   3.03287600
_cell_angle_alpha   90.00000000
_cell_angle_beta   90.00000000
_cell_angle_gamma   90.00000000
_symmetry_Int_Tables_number   1
_chemical_formula_structural   Sc2FeB2RuRh4
_chemical_formula_sum   'Sc4 Fe2 B4 Ru2 Rh8'
_cell_volume   266.23090514
_cell_formula_units_Z   2
loop_
 _symmetry_equiv_pos_site_id
 _symmetry_equiv_pos_as_xyz
  1  'x, y, z'
loop_
 _atom_site_type_symbol
 _atom_site_label
 _atom_site_symmetry_multiplicity
 _atom_site_fract_x
 _atom_site_fract_y
 _atom_site_fract_z
 _atom_site_occupancy
  Sc  Sc0  1  0.67406100  0.17406100  0.00000000  1
  Sc  Sc1  1  0.32593900  0.82593900  0.00000000  1
  Sc  Sc2  1  0.17406100  0.32593900  0.00000000  1
  Sc  Sc3  1  0.82593900  0.67406100  0.00000000  1
  Fe  Fe4  1  0.50000000  0.50000000  0.00000000  1
  Fe  Fe5  1  0.00000000  0.00000000  0.00000000  1
  B  B6  1  0.12280100  0.62280100  0.00000000  1
  B  B7  1  0.87719900  0.37719900  0.00000000  1
  B  B8  1  0.62280100  0.87719900  0.00000000  1
  B  B9  1  0.37719900  0.12280100  0.00000000  1
  Ru  Ru10  1  0.50000000  0.00000000  0.50000000  1
  Ru  Ru11  1  0.00000000  0.50000000  0.50000000  1
  Rh  Rh12  1  0.57144900  0.71481400  0.50000000  1
  Rh  Rh13  1  0.42855100  0.28518600  0.50000000  1
  Rh  Rh14  1  0.07144900  0.78518600  0.50000000  1
  Rh  Rh15  1  0.92855100  0.21481400  0.50000000  1
  Rh  Rh16  1  0.28518600  0.57144900  0.50000000  1
  Rh  Rh17  1  0.71481400  0.42855100  0.50000000  1
  Rh  Rh18  1  0.21481400  0.07144900  0.50000000  1
  Rh  Rh19  1  0.78518600  0.92855100  0.50000000  1
