# generated using pymatgen
data_Na3Gd(PO4)2
_symmetry_space_group_name_H-M   'P 1'
_cell_length_a   5.37207900
_cell_length_b   14.05604319
_cell_length_c   14.19608498
_cell_angle_alpha   91.24731022
_cell_angle_beta   100.79401326
_cell_angle_gamma   90.03858160
_symmetry_Int_Tables_number   1
_chemical_formula_structural   Na3Gd(PO4)2
_chemical_formula_sum   'Na18 Gd6 P12 O48'
_cell_volume   1052.72085606
_cell_formula_units_Z   6
loop_
 _symmetry_equiv_pos_site_id
 _symmetry_equiv_pos_as_xyz
  1  'x, y, z'
loop_
 _atom_site_type_symbol
 _atom_site_label
 _atom_site_symmetry_multiplicity
 _atom_site_fract_x
 _atom_site_fract_y
 _atom_site_fract_z
 _atom_site_occupancy
  Na  Na0  1  0.15713100  0.76579700  0.30391000  1
  Na  Na1  1  0.90829300  0.57923100  0.89094200  1
  Na  Na2  1  0.28252100  0.67790600  0.55639600  1
  Na  Na3  1  0.28188700  0.17689800  0.55739400  1
  Na  Na4  1  0.01115400  0.92070200  0.10907200  1
  Na  Na5  1  0.71811300  0.82310200  0.44260600  1
  Na  Na6  1  0.98884600  0.07929800  0.89092800  1
  Na  Na7  1  0.37177500  0.86326100  0.76447500  1
  Na  Na8  1  0.84586300  0.73403200  0.69791500  1
  Na  Na9  1  0.62822500  0.13673900  0.23552500  1
  Na  Na10  1  0.71747900  0.32209400  0.44360400  1
  Na  Na11  1  0.84286900  0.23420300  0.69609000  1
  Na  Na12  1  0.60513800  0.63702300  0.23788200  1
  Na  Na13  1  0.50000000  0.50000000  0.00000000  1
  Na  Na14  1  0.15413700  0.26596800  0.30208500  1
  Na  Na15  1  0.09170700  0.42076900  0.10905800  1
  Na  Na16  1  0.39486200  0.36297700  0.76211800  1
  Na  Na17  1  0.50000000  0.00000000  0.00000000  1
  Gd  Gd18  1  0.19050000  0.51448300  0.35652000  1
  Gd  Gd19  1  0.16031000  0.01459000  0.35578400  1
  Gd  Gd20  1  0.80950000  0.48551700  0.64348000  1
  Gd  Gd21  1  0.40356900  0.75014700  0.00030700  1
  Gd  Gd22  1  0.59643100  0.24985300  0.99969300  1
  Gd  Gd23  1  0.83969000  0.98541000  0.64421600  1
  P  P24  1  0.37618000  0.61093800  0.77686500  1
  P  P25  1  0.62382000  0.38906200  0.22313500  1
  P  P26  1  0.98090200  0.34868400  0.88434000  1
  P  P27  1  0.90669800  0.84781900  0.88431600  1
  P  P28  1  0.26826400  0.39646800  0.54267600  1
  P  P29  1  0.59631300  0.89001500  0.22391400  1
  P  P30  1  0.40368700  0.10998500  0.77608600  1
  P  P31  1  0.09330200  0.15218100  0.11568400  1
  P  P32  1  0.73173600  0.60353200  0.45732400  1
  P  P33  1  0.27447000  0.89701900  0.54277100  1
  P  P34  1  0.72553000  0.10298100  0.45722900  1
  P  P35  1  0.01909800  0.65131600  0.11566000  1
  O  O36  1  0.72641000  0.65011400  0.08154300  1
  O  O37  1  0.92761800  0.38072400  0.77828300  1
  O  O38  1  0.64850600  0.85035300  0.92019900  1
  O  O39  1  0.09507300  0.57625400  0.75078800  1
  O  O40  1  0.78442000  0.13772800  0.56503900  1
  O  O41  1  0.77412700  0.63638400  0.56615700  1
  O  O42  1  0.27703800  0.50696600  0.54460700  1
  O  O43  1  0.90492700  0.42374600  0.24921200  1
  O  O44  1  0.45101800  0.47127100  0.25169500  1
  O  O45  1  0.15618900  0.58962900  0.04995000  1
  O  O46  1  0.94884700  0.63987300  0.41115200  1
  O  O47  1  0.22587300  0.36361600  0.43384300  1
  O  O48  1  0.73764700  0.99339500  0.45682200  1
  O  O49  1  0.12931600  0.75520500  0.11322000  1
  O  O50  1  0.35149400  0.14964700  0.07980100  1
  O  O51  1  0.68436700  0.79886200  0.27831100  1
  O  O52  1  0.07238200  0.61927600  0.22171700  1
  O  O53  1  0.05115300  0.36012700  0.58884800  1
  O  O54  1  0.33845500  0.92339200  0.24878800  1
  O  O55  1  0.92621500  0.14563900  0.40379100  1
  O  O56  1  0.54693900  0.37440900  0.11327500  1
  O  O57  1  0.47642300  0.64581000  0.40447800  1
  O  O58  1  0.89195000  0.08920500  0.05060400  1
  O  O59  1  0.72296200  0.49303400  0.45539300  1
  O  O60  1  0.54898200  0.52872900  0.74830500  1
  O  O61  1  0.52357700  0.35419000  0.59552200  1
  O  O62  1  0.54037800  0.86214800  0.59102500  1
  O  O63  1  0.58758200  0.29827800  0.27823400  1
  O  O64  1  0.07378500  0.85436100  0.59620900  1
  O  O65  1  0.43873500  0.12481600  0.88847600  1
  O  O66  1  0.45962200  0.13785200  0.40897500  1
  O  O67  1  0.85751400  0.88071000  0.77874400  1
  O  O68  1  0.20220900  0.02929800  0.74999900  1
  O  O69  1  0.26235300  0.00660500  0.54317800  1
  O  O70  1  0.21558000  0.86227200  0.43496100  1
  O  O71  1  0.87068400  0.24479500  0.88678000  1
  O  O72  1  0.14248600  0.11929000  0.22125600  1
  O  O73  1  0.10805000  0.91079500  0.94939600  1
  O  O74  1  0.84381100  0.41037100  0.95005000  1
  O  O75  1  0.31563300  0.20113800  0.72168900  1
  O  O76  1  0.66154500  0.07660800  0.75121200  1
  O  O77  1  0.56126500  0.87518400  0.11152400  1
  O  O78  1  0.98496000  0.25486600  0.11365500  1
  O  O79  1  0.41241800  0.70172200  0.72176600  1
  O  O80  1  0.45306100  0.62559100  0.88672500  1
  O  O81  1  0.01504000  0.74513400  0.88634500  1
  O  O82  1  0.79779100  0.97070200  0.25000100  1
  O  O83  1  0.27359000  0.34988600  0.91845700  1
