# generated using pymatgen
data_CsK2Mn3P4ClO14
_symmetry_space_group_name_H-M   'P 1'
_cell_length_a   5.46009200
_cell_length_b   7.74808500
_cell_length_c   19.32708868
_cell_angle_alpha   79.12430918
_cell_angle_beta   90.00000000
_cell_angle_gamma   90.00000000
_symmetry_Int_Tables_number   1
_chemical_formula_structural   CsK2Mn3P4ClO14
_chemical_formula_sum   'Cs2 K4 Mn6 P8 Cl2 O28'
_cell_volume   802.95174576
_cell_formula_units_Z   2
loop_
 _symmetry_equiv_pos_site_id
 _symmetry_equiv_pos_as_xyz
  1  'x, y, z'
loop_
 _atom_site_type_symbol
 _atom_site_label
 _atom_site_symmetry_multiplicity
 _atom_site_fract_x
 _atom_site_fract_y
 _atom_site_fract_z
 _atom_site_occupancy
  Cs  Cs0  1  0.20465600  0.50000000  0.25000000  1
  Cs  Cs1  1  0.79534400  0.50000000  0.75000000  1
  K  K2  1  0.22097000  0.91452400  0.41435700  1
  K  K3  1  0.22097000  0.08547600  0.08564300  1
  K  K4  1  0.77903000  0.08547600  0.58564300  1
  K  K5  1  0.77903000  0.91452400  0.91435700  1
  Mn  Mn6  1  0.21484900  0.39058300  0.46050900  1
  Mn  Mn7  1  0.21484900  0.60941700  0.03949100  1
  Mn  Mn8  1  0.78515100  0.60941700  0.53949100  1
  Mn  Mn9  1  0.78515100  0.39058300  0.96050900  1
  Mn  Mn10  1  0.71817400  0.00000000  0.25000000  1
  Mn  Mn11  1  0.28182600  0.00000000  0.75000000  1
  P  P12  1  0.71956900  0.21279400  0.40046100  1
  P  P13  1  0.71956900  0.78720600  0.09953900  1
  P  P14  1  0.28043100  0.78720600  0.59953900  1
  P  P15  1  0.28043100  0.21279400  0.90046100  1
  P  P16  1  0.69014500  0.59544400  0.37426500  1
  P  P17  1  0.69014500  0.40455600  0.12573500  1
  P  P18  1  0.30985500  0.40455600  0.62573500  1
  P  P19  1  0.30985500  0.59544400  0.87426500  1
  Cl  Cl20  1  0.21954800  0.00000000  0.25000000  1
  Cl  Cl21  1  0.78045200  0.00000000  0.75000000  1
  O  O22  1  0.49994900  0.21116900  0.44980700  1
  O  O23  1  0.49994900  0.78883100  0.05019300  1
  O  O24  1  0.50005100  0.78883100  0.55019300  1
  O  O25  1  0.50005100  0.21116900  0.94980700  1
  O  O26  1  0.96360800  0.20224200  0.44065400  1
  O  O27  1  0.96360800  0.79775800  0.05934600  1
  O  O28  1  0.03639200  0.79775800  0.55934600  1
  O  O29  1  0.03639200  0.20224200  0.94065400  1
  O  O30  1  0.70175200  0.07926900  0.35255600  1
  O  O31  1  0.70175200  0.92073100  0.14744400  1
  O  O32  1  0.29824800  0.92073100  0.64744400  1
  O  O33  1  0.29824800  0.07926900  0.85255600  1
  O  O34  1  0.88258800  0.59178800  0.43407600  1
  O  O35  1  0.88258800  0.40821200  0.06592400  1
  O  O36  1  0.11741200  0.40821200  0.56592400  1
  O  O37  1  0.11741200  0.59178800  0.93407600  1
  O  O38  1  0.74114800  0.73047900  0.30863200  1
  O  O39  1  0.74114800  0.26952100  0.19136800  1
  O  O40  1  0.25885200  0.26952100  0.69136800  1
  O  O41  1  0.25885200  0.73047900  0.80863200  1
  O  O42  1  0.42886300  0.59742800  0.40328800  1
  O  O43  1  0.42886300  0.40257200  0.09671200  1
  O  O44  1  0.57113700  0.40257200  0.59671200  1
  O  O45  1  0.57113700  0.59742800  0.90328800  1
  O  O46  1  0.72145000  0.40755700  0.34742200  1
  O  O47  1  0.72145000  0.59244300  0.15257800  1
  O  O48  1  0.27855000  0.59244300  0.65257800  1
  O  O49  1  0.27855000  0.40755700  0.84742200  1
