# generated using pymatgen
data_GdFe4B
_symmetry_space_group_name_H-M   'P 1'
_cell_length_a   5.18395647
_cell_length_b   5.18395647
_cell_length_c   6.97212900
_cell_angle_alpha   90.00000000
_cell_angle_beta   90.00000000
_cell_angle_gamma   119.86710544
_symmetry_Int_Tables_number   1
_chemical_formula_structural   GdFe4B
_chemical_formula_sum   'Gd2 Fe8 B2'
_cell_volume   162.47956973
_cell_formula_units_Z   2
loop_
 _symmetry_equiv_pos_site_id
 _symmetry_equiv_pos_as_xyz
  1  'x, y, z'
loop_
 _atom_site_type_symbol
 _atom_site_label
 _atom_site_symmetry_multiplicity
 _atom_site_fract_x
 _atom_site_fract_y
 _atom_site_fract_z
 _atom_site_occupancy
  Gd  Gd0  1  0.50000000  0.50000000  0.00000000  1
  Gd  Gd1  1  0.50000000  0.50000000  0.50000000  1
  Fe  Fe2  1  0.16668400  0.83331600  0.00000000  1
  Fe  Fe3  1  0.83331600  0.16668400  0.00000000  1
  Fe  Fe4  1  0.00000000  0.00000000  0.28775600  1
  Fe  Fe5  1  0.50000000  0.00000000  0.28771300  1
  Fe  Fe6  1  0.00000000  0.50000000  0.28771300  1
  Fe  Fe7  1  0.00000000  0.00000000  0.71224400  1
  Fe  Fe8  1  0.50000000  0.00000000  0.71228700  1
  Fe  Fe9  1  0.00000000  0.50000000  0.71228700  1
  B  B10  1  0.16677400  0.83322600  0.50000000  1
  B  B11  1  0.83322600  0.16677400  0.50000000  1
