# generated using pymatgen
data_Ba(ZnGe)2
_symmetry_space_group_name_H-M   'P 1'
_cell_length_a   6.25322890
_cell_length_b   6.25322890
_cell_length_c   6.25322890
_cell_angle_alpha   137.03950805
_cell_angle_beta   137.03950805
_cell_angle_gamma   62.37726833
_symmetry_Int_Tables_number   1
_chemical_formula_structural   Ba(ZnGe)2
_chemical_formula_sum   'Ba1 Zn2 Ge2'
_cell_volume   112.19318490
_cell_formula_units_Z   1
loop_
 _symmetry_equiv_pos_site_id
 _symmetry_equiv_pos_as_xyz
  1  'x, y, z'
loop_
 _atom_site_type_symbol
 _atom_site_label
 _atom_site_symmetry_multiplicity
 _atom_site_fract_x
 _atom_site_fract_y
 _atom_site_fract_z
 _atom_site_occupancy
  Ba  Ba0  1  0.00000000  0.00000000  0.00000000  1
  Zn  Zn1  1  0.75000000  0.25000000  0.50000000  1
  Zn  Zn2  1  0.25000000  0.75000000  0.50000000  1
  Ge  Ge3  1  0.37613200  0.37613200  0.00000000  1
  Ge  Ge4  1  0.62386800  0.62386800  0.00000000  1
