# generated using pymatgen
data_Sm2Nb2S7O30
_symmetry_space_group_name_H-M   'P 1'
_cell_length_a   12.95506000
_cell_length_b   12.95506000
_cell_length_c   7.22545000
_cell_angle_alpha   90.00000000
_cell_angle_beta   90.00000000
_cell_angle_gamma   90.00000000
_symmetry_Int_Tables_number   1
_chemical_formula_structural   Sm2Nb2S7O30
_chemical_formula_sum   'Sm4 Nb4 S14 O60'
_cell_volume   1212.67313775
_cell_formula_units_Z   2
loop_
 _symmetry_equiv_pos_site_id
 _symmetry_equiv_pos_as_xyz
  1  'x, y, z'
loop_
 _atom_site_type_symbol
 _atom_site_label
 _atom_site_symmetry_multiplicity
 _atom_site_fract_x
 _atom_site_fract_y
 _atom_site_fract_z
 _atom_site_occupancy
  Sm  Sm0  1  0.80099900  0.69900100  0.59248900  1
  Sm  Sm1  1  0.69900100  0.19900100  0.40751100  1
  Sm  Sm2  1  0.19900100  0.30099900  0.59248900  1
  Sm  Sm3  1  0.30099900  0.80099900  0.40751100  1
  Nb  Nb4  1  0.63785400  0.86214600  0.98290100  1
  Nb  Nb5  1  0.86214600  0.36214600  0.01709900  1
  Nb  Nb6  1  0.36214600  0.13785400  0.98290100  1
  Nb  Nb7  1  0.13785400  0.63785400  0.01709900  1
  S  S8  1  0.50000000  0.00000000  0.34534800  1
  S  S9  1  0.00000000  0.50000000  0.65465200  1
  S  S10  1  0.37683900  0.87683900  0.89644300  1
  S  S11  1  0.12316100  0.37683900  0.10355700  1
  S  S12  1  0.62316100  0.12316100  0.89644300  1
  S  S13  1  0.87683900  0.62316100  0.10355700  1
  S  S14  1  0.56456000  0.67601800  0.29447900  1
  S  S15  1  0.93544000  0.17601800  0.70552100  1
  S  S16  1  0.43544000  0.32398200  0.29447900  1
  S  S17  1  0.06456000  0.82398200  0.70552100  1
  S  S18  1  0.67601800  0.43544000  0.70552100  1
  S  S19  1  0.82398200  0.93544000  0.29447900  1
  S  S20  1  0.32398200  0.56456000  0.70552100  1
  S  S21  1  0.17601800  0.06456000  0.29447900  1
  O  O22  1  0.69944000  0.80056000  0.79274800  1
  O  O23  1  0.80056000  0.30056000  0.20725200  1
  O  O24  1  0.30056000  0.19944000  0.79274800  1
  O  O25  1  0.19944000  0.69944000  0.20725200  1
  O  O26  1  0.56687600  0.06687600  0.45860800  1
  O  O27  1  0.93312400  0.56687600  0.54139200  1
  O  O28  1  0.43312400  0.93312400  0.45860800  1
  O  O29  1  0.06687600  0.43312400  0.54139200  1
  O  O30  1  0.56595300  0.93404700  0.22474800  1
  O  O31  1  0.93404700  0.43404700  0.77525200  1
  O  O32  1  0.43404700  0.06595300  0.22474800  1
  O  O33  1  0.06595300  0.56595300  0.77525200  1
  O  O34  1  0.34339800  0.84339800  0.07883100  1
  O  O35  1  0.15660200  0.34339800  0.92116900  1
  O  O36  1  0.65660200  0.15660200  0.07883100  1
  O  O37  1  0.84339800  0.65660200  0.92116900  1
  O  O38  1  0.32506900  0.82506900  0.74343700  1
  O  O39  1  0.17493100  0.32506900  0.25656300  1
  O  O40  1  0.67493100  0.17493100  0.74343700  1
  O  O41  1  0.82506900  0.67493100  0.25656300  1
  O  O42  1  0.49121500  0.85874300  0.87418300  1
  O  O43  1  0.00878500  0.35874300  0.12581700  1
  O  O44  1  0.50878500  0.14125700  0.87418300  1
  O  O45  1  0.99121500  0.64125700  0.12581700  1
  O  O46  1  0.85874300  0.50878500  0.12581700  1
  O  O47  1  0.64125700  0.00878500  0.87418300  1
  O  O48  1  0.14125700  0.49121500  0.12581700  1
  O  O49  1  0.35874300  0.99121500  0.87418300  1
  O  O50  1  0.63029300  0.70903000  0.45000200  1
  O  O51  1  0.86970700  0.20903000  0.54999800  1
  O  O52  1  0.36970700  0.29097000  0.45000200  1
  O  O53  1  0.13029300  0.79097000  0.54999800  1
  O  O54  1  0.70903000  0.36970700  0.54999800  1
  O  O55  1  0.79097000  0.86970700  0.45000200  1
  O  O56  1  0.29097000  0.63029300  0.54999800  1
  O  O57  1  0.20903000  0.13029300  0.45000200  1
  O  O58  1  0.45695600  0.70795100  0.32105400  1
  O  O59  1  0.04304400  0.20795100  0.67894600  1
  O  O60  1  0.54304400  0.29204900  0.32105400  1
  O  O61  1  0.95695600  0.79204900  0.67894600  1
  O  O62  1  0.70795100  0.54304400  0.67894600  1
  O  O63  1  0.79204900  0.04304400  0.32105400  1
  O  O64  1  0.29204900  0.45695600  0.67894600  1
  O  O65  1  0.20795100  0.95695600  0.32105400  1
  O  O66  1  0.57527300  0.56502000  0.26208700  1
  O  O67  1  0.92472700  0.06502000  0.73791300  1
  O  O68  1  0.42472700  0.43498000  0.26208700  1
  O  O69  1  0.07527300  0.93498000  0.73791300  1
  O  O70  1  0.56502000  0.42472700  0.73791300  1
  O  O71  1  0.93498000  0.92472700  0.26208700  1
  O  O72  1  0.43498000  0.57527300  0.73791300  1
  O  O73  1  0.06502000  0.07527300  0.26208700  1
  O  O74  1  0.60566500  0.73125800  0.12014000  1
  O  O75  1  0.89433500  0.23125800  0.87986000  1
  O  O76  1  0.39433500  0.26874200  0.12014000  1
  O  O77  1  0.10566500  0.76874200  0.87986000  1
  O  O78  1  0.73125800  0.39433500  0.87986000  1
  O  O79  1  0.76874200  0.89433500  0.12014000  1
  O  O80  1  0.26874200  0.60566500  0.87986000  1
  O  O81  1  0.23125800  0.10566500  0.12014000  1
