# generated using pymatgen
data_Li5OsO6
_symmetry_space_group_name_H-M   'P 1'
_cell_length_a   5.10236414
_cell_length_b   5.10236414
_cell_length_c   14.30922900
_cell_angle_alpha   90.00000000
_cell_angle_beta   90.00000000
_cell_angle_gamma   120.00000176
_symmetry_Int_Tables_number   1
_chemical_formula_structural   Li5OsO6
_chemical_formula_sum   'Li15 Os3 O18'
_cell_volume   322.61886321
_cell_formula_units_Z   3
loop_
 _symmetry_equiv_pos_site_id
 _symmetry_equiv_pos_as_xyz
  1  'x, y, z'
loop_
 _atom_site_type_symbol
 _atom_site_label
 _atom_site_symmetry_multiplicity
 _atom_site_fract_x
 _atom_site_fract_y
 _atom_site_fract_z
 _atom_site_occupancy
  Li  Li0  1  0.55524100  0.77762100  0.00000000  1
  Li  Li1  1  0.22237900  0.77762100  0.33333300  1
  Li  Li2  1  0.22237900  0.44475900  0.66666700  1
  Li  Li3  1  0.88887500  0.44443700  0.50000000  1
  Li  Li4  1  0.55556300  0.44443700  0.83333300  1
  Li  Li5  1  0.55556300  0.11112500  0.16666700  1
  Li  Li6  1  0.53131400  0.76565700  0.50000000  1
  Li  Li7  1  0.23434300  0.76565700  0.83333300  1
  Li  Li8  1  0.23434300  0.46868600  0.16666700  1
  Li  Li9  1  0.88909200  0.44454600  0.00000000  1
  Li  Li10  1  0.55545400  0.44454600  0.33333300  1
  Li  Li11  1  0.55545400  0.11090800  0.66666700  1
  Li  Li12  1  0.24703800  0.12351900  0.50000000  1
  Li  Li13  1  0.87648100  0.12351900  0.83333300  1
  Li  Li14  1  0.87648100  0.75296200  0.16666700  1
  Os  Os15  1  0.21981400  0.10990700  0.00000000  1
  Os  Os16  1  0.89009300  0.10990700  0.33333300  1
  Os  Os17  1  0.89009300  0.78018600  0.66666700  1
  O  O18  1  0.22325800  0.41880500  0.92205000  1
  O  O19  1  0.58119500  0.80445300  0.25538400  1
  O  O20  1  0.22325800  0.80445300  0.07795000  1
  O  O21  1  0.19554700  0.77674200  0.58871700  1
  O  O22  1  0.58119500  0.77674200  0.74461600  1
  O  O23  1  0.19554700  0.41880500  0.41128300  1
  O  O24  1  0.91806200  0.11182500  0.07675600  1
  O  O25  1  0.88817500  0.80623700  0.41008900  1
  O  O26  1  0.91806200  0.80623700  0.92324400  1
  O  O27  1  0.19376300  0.08193800  0.74342200  1
  O  O28  1  0.88817500  0.08193800  0.58991100  1
  O  O29  1  0.19376300  0.11182500  0.25657800  1
  O  O30  1  0.52882400  0.11142700  0.92235000  1
  O  O31  1  0.88857300  0.41739600  0.25568300  1
  O  O32  1  0.52882400  0.41739600  0.07765000  1
  O  O33  1  0.58260400  0.47117600  0.58901700  1
  O  O34  1  0.88857300  0.47117600  0.74431700  1
  O  O35  1  0.58260400  0.11142700  0.41098300  1
