# generated using pymatgen
data_EuAu
_symmetry_space_group_name_H-M   'P 1'
_cell_length_a   4.76182300
_cell_length_b   6.04305200
_cell_length_c   7.74309100
_cell_angle_alpha   90.00000000
_cell_angle_beta   90.00000000
_cell_angle_gamma   90.00000000
_symmetry_Int_Tables_number   1
_chemical_formula_structural   EuAu
_chemical_formula_sum   'Eu4 Au4'
_cell_volume   222.81475303
_cell_formula_units_Z   4
loop_
 _symmetry_equiv_pos_site_id
 _symmetry_equiv_pos_as_xyz
  1  'x, y, z'
loop_
 _atom_site_type_symbol
 _atom_site_label
 _atom_site_symmetry_multiplicity
 _atom_site_fract_x
 _atom_site_fract_y
 _atom_site_fract_z
 _atom_site_occupancy
  Eu  Eu0  1  0.25000000  0.35718300  0.68397300  1
  Eu  Eu1  1  0.25000000  0.14281700  0.18397300  1
  Eu  Eu2  1  0.75000000  0.64281700  0.31602700  1
  Eu  Eu3  1  0.75000000  0.85718300  0.81602700  1
  Au  Au4  1  0.25000000  0.85234200  0.53993100  1
  Au  Au5  1  0.25000000  0.64765800  0.03993100  1
  Au  Au6  1  0.75000000  0.14765800  0.46006900  1
  Au  Au7  1  0.75000000  0.35234200  0.96006900  1
