# generated using pymatgen
data_K(NaIn3)3
_symmetry_space_group_name_H-M   'P 1'
_cell_length_a   9.90093006
_cell_length_b   9.90093006
_cell_length_c   17.79099000
_cell_angle_alpha   90.00000000
_cell_angle_beta   90.00000000
_cell_angle_gamma   117.70560855
_symmetry_Int_Tables_number   1
_chemical_formula_structural   K(NaIn3)3
_chemical_formula_sum   'K4 Na12 In36'
_cell_volume   1544.06710156
_cell_formula_units_Z   4
loop_
 _symmetry_equiv_pos_site_id
 _symmetry_equiv_pos_as_xyz
  1  'x, y, z'
loop_
 _atom_site_type_symbol
 _atom_site_label
 _atom_site_symmetry_multiplicity
 _atom_site_fract_x
 _atom_site_fract_y
 _atom_site_fract_z
 _atom_site_occupancy
  K  K0  1  0.96605700  0.03394300  0.15851700  1
  K  K1  1  0.03394300  0.96605700  0.84148300  1
  K  K2  1  0.53394300  0.46605700  0.65851700  1
  K  K3  1  0.46605700  0.53394300  0.34148300  1
  Na  Na4  1  0.07596700  0.54008300  0.41053000  1
  Na  Na5  1  0.54008300  0.07596700  0.58947000  1
  Na  Na6  1  0.04008300  0.57596700  0.91053000  1
  Na  Na7  1  0.57596700  0.04008300  0.08947000  1
  Na  Na8  1  0.92403300  0.45991700  0.58947000  1
  Na  Na9  1  0.45991700  0.92403300  0.41053000  1
  Na  Na10  1  0.95991700  0.42403300  0.08947000  1
  Na  Na11  1  0.42403300  0.95991700  0.91053000  1
  Na  Na12  1  0.86470400  0.63529600  0.25000000  1
  Na  Na13  1  0.63529600  0.86470400  0.75000000  1
  Na  Na14  1  0.13529600  0.36470400  0.75000000  1
  Na  Na15  1  0.36470400  0.13529600  0.25000000  1
  In  In16  1  0.10400000  0.89600000  0.36065700  1
  In  In17  1  0.89600000  0.10400000  0.63934300  1
  In  In18  1  0.39600000  0.60400000  0.86065700  1
  In  In19  1  0.60400000  0.39600000  0.13934300  1
  In  In20  1  0.16266400  0.83733600  0.52290800  1
  In  In21  1  0.83733600  0.16266400  0.47709200  1
  In  In22  1  0.33733600  0.66266400  0.02290800  1
  In  In23  1  0.66266400  0.33733600  0.97709200  1
  In  In24  1  0.82318800  0.66044600  0.46198600  1
  In  In25  1  0.66044600  0.82318800  0.53801400  1
  In  In26  1  0.16044600  0.32318800  0.96198600  1
  In  In27  1  0.32318800  0.16044600  0.03801400  1
  In  In28  1  0.17681200  0.33955400  0.53801400  1
  In  In29  1  0.33955400  0.17681200  0.46198600  1
  In  In30  1  0.83955400  0.67681200  0.03801400  1
  In  In31  1  0.67681200  0.83955400  0.96198600  1
  In  In32  1  0.09332300  0.20723300  0.36978400  1
  In  In33  1  0.20723300  0.09332300  0.63021600  1
  In  In34  1  0.70723300  0.59332300  0.86978400  1
  In  In35  1  0.59332300  0.70723300  0.13021600  1
  In  In36  1  0.90667700  0.79276700  0.63021600  1
  In  In37  1  0.79276700  0.90667700  0.36978400  1
  In  In38  1  0.29276700  0.40667700  0.13021600  1
  In  In39  1  0.40667700  0.29276700  0.86978400  1
  In  In40  1  0.32643600  0.67356400  0.58636100  1
  In  In41  1  0.67356400  0.32643600  0.41363900  1
  In  In42  1  0.17356400  0.82643600  0.08636100  1
  In  In43  1  0.82643600  0.17356400  0.91363900  1
  In  In44  1  0.58704900  0.91295100  0.25000000  1
  In  In45  1  0.91295100  0.58704900  0.75000000  1
  In  In46  1  0.41295100  0.08704900  0.75000000  1
  In  In47  1  0.08704900  0.41295100  0.25000000  1
  In  In48  1  0.24238300  0.75761700  0.24456200  1
  In  In49  1  0.75761700  0.24238300  0.75543800  1
  In  In50  1  0.25761700  0.74238300  0.74456200  1
  In  In51  1  0.74238300  0.25761700  0.25543800  1
