# generated using pymatgen
data_Ho2MgS4
_symmetry_space_group_name_H-M   'P 1'
_cell_length_a   7.87432556
_cell_length_b   7.87432556
_cell_length_c   7.87432556
_cell_angle_alpha   60.00000000
_cell_angle_beta   60.00000000
_cell_angle_gamma   60.00000000
_symmetry_Int_Tables_number   1
_chemical_formula_structural   Ho2MgS4
_chemical_formula_sum   'Ho4 Mg2 S8'
_cell_volume   345.24317469
_cell_formula_units_Z   2
loop_
 _symmetry_equiv_pos_site_id
 _symmetry_equiv_pos_as_xyz
  1  'x, y, z'
loop_
 _atom_site_type_symbol
 _atom_site_label
 _atom_site_symmetry_multiplicity
 _atom_site_fract_x
 _atom_site_fract_y
 _atom_site_fract_z
 _atom_site_occupancy
  Ho  Ho0  1  0.62500000  0.12500000  0.62500000  1
  Ho  Ho1  1  0.62500000  0.62500000  0.12500000  1
  Ho  Ho2  1  0.12500000  0.62500000  0.62500000  1
  Ho  Ho3  1  0.62500000  0.62500000  0.62500000  1
  Mg  Mg4  1  0.00000000  0.00000000  0.00000000  1
  Mg  Mg5  1  0.25000000  0.25000000  0.25000000  1
  S  S6  1  0.37985300  0.37985300  0.37985300  1
  S  S7  1  0.86044100  0.37985300  0.37985300  1
  S  S8  1  0.37985300  0.86044100  0.37985300  1
  S  S9  1  0.37985300  0.37985300  0.86044100  1
  S  S10  1  0.87014700  0.87014700  0.38955900  1
  S  S11  1  0.87014700  0.38955900  0.87014700  1
  S  S12  1  0.38955900  0.87014700  0.87014700  1
  S  S13  1  0.87014700  0.87014700  0.87014700  1
