# generated using pymatgen
data_LuCd3
_symmetry_space_group_name_H-M   'P 1'
_cell_length_a   6.44052851
_cell_length_b   6.44052851
_cell_length_c   4.84039000
_cell_angle_alpha   90.00000000
_cell_angle_beta   90.00000000
_cell_angle_gamma   111.81852971
_symmetry_Int_Tables_number   1
_chemical_formula_structural   LuCd3
_chemical_formula_sum   'Lu2 Cd6'
_cell_volume   186.39851345
_cell_formula_units_Z   2
loop_
 _symmetry_equiv_pos_site_id
 _symmetry_equiv_pos_as_xyz
  1  'x, y, z'
loop_
 _atom_site_type_symbol
 _atom_site_label
 _atom_site_symmetry_multiplicity
 _atom_site_fract_x
 _atom_site_fract_y
 _atom_site_fract_z
 _atom_site_occupancy
  Lu  Lu0  1  0.62885200  0.37114800  0.25000000  1
  Lu  Lu1  1  0.37114800  0.62885200  0.75000000  1
  Cd  Cd2  1  0.17889000  0.82111000  0.25000000  1
  Cd  Cd3  1  0.82111000  0.17889000  0.75000000  1
  Cd  Cd4  1  0.11762500  0.31301800  0.25000000  1
  Cd  Cd5  1  0.88237500  0.68698200  0.75000000  1
  Cd  Cd6  1  0.31301800  0.11762500  0.75000000  1
  Cd  Cd7  1  0.68698200  0.88237500  0.25000000  1
