# generated using pymatgen
data_Cs2ZrCu3F12
_symmetry_space_group_name_H-M   'P 1'
_cell_length_a   7.25504100
_cell_length_b   7.90723900
_cell_length_c   10.42854725
_cell_angle_alpha   85.84987069
_cell_angle_beta   90.00000000
_cell_angle_gamma   90.00000000
_symmetry_Int_Tables_number   1
_chemical_formula_structural   Cs2ZrCu3F12
_chemical_formula_sum   'Cs4 Zr2 Cu6 F24'
_cell_volume   596.68932422
_cell_formula_units_Z   2
loop_
 _symmetry_equiv_pos_site_id
 _symmetry_equiv_pos_as_xyz
  1  'x, y, z'
loop_
 _atom_site_type_symbol
 _atom_site_label
 _atom_site_symmetry_multiplicity
 _atom_site_fract_x
 _atom_site_fract_y
 _atom_site_fract_z
 _atom_site_occupancy
  Cs  Cs0  1  0.75000000  0.98776900  0.14941800  1
  Cs  Cs1  1  0.25000000  0.01223100  0.85058200  1
  Cs  Cs2  1  0.75000000  0.44758700  0.37568000  1
  Cs  Cs3  1  0.25000000  0.55241300  0.62432000  1
  Zr  Zr4  1  0.25000000  0.70249400  0.23977000  1
  Zr  Zr5  1  0.75000000  0.29750600  0.76023000  1
  Cu  Cu6  1  0.25000000  0.21859500  0.22893400  1
  Cu  Cu7  1  0.75000000  0.78140500  0.77106600  1
  Cu  Cu8  1  0.00000000  0.50000000  0.00000000  1
  Cu  Cu9  1  0.50000000  0.50000000  0.00000000  1
  Cu  Cu10  1  0.00000000  0.00000000  0.50000000  1
  Cu  Cu11  1  0.50000000  0.00000000  0.50000000  1
  F  F12  1  0.05712600  0.29514700  0.10534700  1
  F  F13  1  0.55712600  0.70485300  0.89465300  1
  F  F14  1  0.94287400  0.70485300  0.89465300  1
  F  F15  1  0.44287400  0.29514700  0.10534700  1
  F  F16  1  0.04967500  0.14126800  0.34206900  1
  F  F17  1  0.54967500  0.85873200  0.65793100  1
  F  F18  1  0.95032500  0.85873200  0.65793100  1
  F  F19  1  0.45032500  0.14126800  0.34206900  1
  F  F20  1  0.25000000  0.46237400  0.32566600  1
  F  F21  1  0.75000000  0.53762600  0.67433400  1
  F  F22  1  0.25000000  0.93841400  0.14671700  1
  F  F23  1  0.75000000  0.06158600  0.85328300  1
  F  F24  1  0.25000000  0.59909000  0.03571500  1
  F  F25  1  0.75000000  0.40091000  0.96428500  1
  F  F26  1  0.98269800  0.64956500  0.17268800  1
  F  F27  1  0.48269800  0.35043500  0.82731200  1
  F  F28  1  0.01730200  0.35043500  0.82731200  1
  F  F29  1  0.51730200  0.64956500  0.17268800  1
  F  F30  1  0.25000000  0.01444200  0.56137100  1
  F  F31  1  0.75000000  0.98555800  0.43862900  1
  F  F32  1  0.92626100  0.23142400  0.61675400  1
  F  F33  1  0.42626100  0.76857600  0.38324600  1
  F  F34  1  0.07373900  0.76857600  0.38324600  1
  F  F35  1  0.57373900  0.23142400  0.61675400  1
