# generated using pymatgen
data_SmAlGe2O7
_symmetry_space_group_name_H-M   'P 1'
_cell_length_a   6.57224000
_cell_length_b   7.28089100
_cell_length_c   12.82101036
_cell_angle_alpha   62.44527079
_cell_angle_beta   90.00000000
_cell_angle_gamma   90.00000000
_symmetry_Int_Tables_number   1
_chemical_formula_structural   SmAlGe2O7
_chemical_formula_sum   'Sm4 Al4 Ge8 O28'
_cell_volume   543.91735302
_cell_formula_units_Z   4
loop_
 _symmetry_equiv_pos_site_id
 _symmetry_equiv_pos_as_xyz
  1  'x, y, z'
loop_
 _atom_site_type_symbol
 _atom_site_label
 _atom_site_symmetry_multiplicity
 _atom_site_fract_x
 _atom_site_fract_y
 _atom_site_fract_z
 _atom_site_occupancy
  Sm  Sm0  1  0.35315800  0.73961700  0.52694300  1
  Sm  Sm1  1  0.64684200  0.26038300  0.47305700  1
  Sm  Sm2  1  0.85315800  0.26038300  0.97305700  1
  Sm  Sm3  1  0.14684200  0.73961700  0.02694300  1
  Al  Al4  1  0.39782700  0.71231800  0.27038800  1
  Al  Al5  1  0.60217300  0.28768200  0.72961200  1
  Al  Al6  1  0.89782700  0.28768200  0.22961200  1
  Al  Al7  1  0.10217300  0.71231800  0.77038800  1
  Ge  Ge8  1  0.65789800  0.71061700  0.04856800  1
  Ge  Ge9  1  0.34210200  0.28938300  0.95143200  1
  Ge  Ge10  1  0.15789800  0.28938300  0.45143200  1
  Ge  Ge11  1  0.84210200  0.71061700  0.54856800  1
  Ge  Ge12  1  0.90998100  0.80278500  0.27982600  1
  Ge  Ge13  1  0.09001900  0.19721500  0.72017400  1
  Ge  Ge14  1  0.40998100  0.19721500  0.22017400  1
  Ge  Ge15  1  0.59001900  0.80278500  0.77982600  1
  O  O16  1  0.37575700  0.92658700  0.30386500  1
  O  O17  1  0.62424300  0.07341300  0.69613500  1
  O  O18  1  0.87575700  0.07341300  0.19613500  1
  O  O19  1  0.12424300  0.92658700  0.80386500  1
  O  O20  1  0.82641700  0.90868800  0.02299000  1
  O  O21  1  0.17358300  0.09131200  0.97701000  1
  O  O22  1  0.32641700  0.09131200  0.47701000  1
  O  O23  1  0.67358300  0.90868800  0.52299000  1
  O  O24  1  0.61555000  0.27638900  0.27859100  1
  O  O25  1  0.38445000  0.72361100  0.72140900  1
  O  O26  1  0.11555000  0.72361100  0.22140900  1
  O  O27  1  0.88445000  0.27638900  0.77859100  1
  O  O28  1  0.00075300  0.74769200  0.42657500  1
  O  O29  1  0.99924700  0.25230800  0.57342500  1
  O  O30  1  0.50075300  0.25230800  0.07342500  1
  O  O31  1  0.49924700  0.74769200  0.92657500  1
  O  O32  1  0.44610000  0.70450800  0.13437900  1
  O  O33  1  0.55390000  0.29549200  0.86562100  1
  O  O34  1  0.94610000  0.29549200  0.36562100  1
  O  O35  1  0.05390000  0.70450800  0.63437900  1
  O  O36  1  0.84187400  0.50733300  0.08436300  1
  O  O37  1  0.15812600  0.49266700  0.91563700  1
  O  O38  1  0.34187400  0.49266700  0.41563700  1
  O  O39  1  0.65812600  0.50733300  0.58436300  1
  O  O40  1  0.68145900  0.65870700  0.31304500  1
  O  O41  1  0.31854100  0.34129300  0.68695500  1
  O  O42  1  0.18145900  0.34129300  0.18695500  1
  O  O43  1  0.81854100  0.65870700  0.81304500  1
