# generated using pymatgen
data_Mn2Te3O8
_symmetry_space_group_name_H-M   'P 1'
_cell_length_a   7.10789894
_cell_length_b   7.10789894
_cell_length_c   12.05514197
_cell_angle_alpha   82.79507217
_cell_angle_beta   82.79507217
_cell_angle_gamma   45.59101777
_symmetry_Int_Tables_number   1
_chemical_formula_structural   Mn2Te3O8
_chemical_formula_sum   'Mn4 Te6 O16'
_cell_volume   431.03954801
_cell_formula_units_Z   2
loop_
 _symmetry_equiv_pos_site_id
 _symmetry_equiv_pos_as_xyz
  1  'x, y, z'
loop_
 _atom_site_type_symbol
 _atom_site_label
 _atom_site_symmetry_multiplicity
 _atom_site_fract_x
 _atom_site_fract_y
 _atom_site_fract_z
 _atom_site_occupancy
  Mn  Mn0  1  0.96594900  0.57445000  0.85115800  1
  Mn  Mn1  1  0.42555000  0.03405100  0.64884200  1
  Mn  Mn2  1  0.03405100  0.42555000  0.14884200  1
  Mn  Mn3  1  0.57445000  0.96594900  0.35115800  1
  Te  Te4  1  0.04521900  0.67655000  0.55785100  1
  Te  Te5  1  0.32345000  0.95478100  0.94214900  1
  Te  Te6  1  0.95478100  0.32345000  0.44214900  1
  Te  Te7  1  0.67655000  0.04521900  0.05785100  1
  Te  Te8  1  0.86466500  0.13533500  0.75000000  1
  Te  Te9  1  0.13533500  0.86466500  0.25000000  1
  O  O10  1  0.16211100  0.44537700  0.68779200  1
  O  O11  1  0.55462300  0.83788900  0.81220800  1
  O  O12  1  0.83788900  0.55462300  0.31220800  1
  O  O13  1  0.44537700  0.16211100  0.18779200  1
  O  O14  1  0.75141000  0.72343800  0.52815500  1
  O  O15  1  0.27656200  0.24859000  0.97184500  1
  O  O16  1  0.24859000  0.27656200  0.47184500  1
  O  O17  1  0.72343800  0.75141000  0.02815500  1
  O  O18  1  0.00201000  0.23166100  0.85772800  1
  O  O19  1  0.76833900  0.99799000  0.64227200  1
  O  O20  1  0.84827100  0.00019100  0.35444200  1
  O  O21  1  0.99980900  0.15172900  0.14555800  1
  O  O22  1  0.15172900  0.99980900  0.64555800  1
  O  O23  1  0.00019100  0.84827100  0.85444200  1
  O  O24  1  0.23166100  0.00201000  0.35772800  1
  O  O25  1  0.99799000  0.76833900  0.14227200  1
