# generated using pymatgen
data_K2TeMo2(PO7)2
_symmetry_space_group_name_H-M   'P 1'
_cell_length_a   8.86617200
_cell_length_b   11.37962300
_cell_length_c   12.72333500
_cell_angle_alpha   90.00000000
_cell_angle_beta   90.00000000
_cell_angle_gamma   90.00000000
_symmetry_Int_Tables_number   1
_chemical_formula_structural   K2TeMo2(PO7)2
_chemical_formula_sum   'K8 Te4 Mo8 P8 O56'
_cell_volume   1283.70427850
_cell_formula_units_Z   4
loop_
 _symmetry_equiv_pos_site_id
 _symmetry_equiv_pos_as_xyz
  1  'x, y, z'
loop_
 _atom_site_type_symbol
 _atom_site_label
 _atom_site_symmetry_multiplicity
 _atom_site_fract_x
 _atom_site_fract_y
 _atom_site_fract_z
 _atom_site_occupancy
  K  K0  1  0.02874200  0.21740100  0.30366500  1
  K  K1  1  0.97125800  0.78259900  0.69633500  1
  K  K2  1  0.47125800  0.71740100  0.19633500  1
  K  K3  1  0.02874200  0.28259900  0.69633500  1
  K  K4  1  0.52874200  0.28259900  0.80366500  1
  K  K5  1  0.97125800  0.71740100  0.30366500  1
  K  K6  1  0.47125800  0.78259900  0.80366500  1
  K  K7  1  0.52874200  0.21740100  0.19633500  1
  Te  Te8  1  0.13985200  0.25000000  0.00000000  1
  Te  Te9  1  0.86014800  0.75000000  0.00000000  1
  Te  Te10  1  0.36014800  0.75000000  0.50000000  1
  Te  Te11  1  0.63985200  0.25000000  0.50000000  1
  Mo  Mo12  1  0.23781900  0.47898300  0.37991100  1
  Mo  Mo13  1  0.76218100  0.52101700  0.62008900  1
  Mo  Mo14  1  0.26218100  0.97898300  0.12008900  1
  Mo  Mo15  1  0.23781900  0.02101700  0.62008900  1
  Mo  Mo16  1  0.73781900  0.02101700  0.87991100  1
  Mo  Mo17  1  0.76218100  0.97898300  0.37991100  1
  Mo  Mo18  1  0.26218100  0.52101700  0.87991100  1
  Mo  Mo19  1  0.73781900  0.47898300  0.12008900  1
  P  P20  1  0.35688700  0.00591400  0.36975900  1
  P  P21  1  0.64311300  0.99408600  0.63024100  1
  P  P22  1  0.14311300  0.50591400  0.13024100  1
  P  P23  1  0.35688700  0.49408600  0.63024100  1
  P  P24  1  0.85688700  0.49408600  0.86975900  1
  P  P25  1  0.64311300  0.50591400  0.36975900  1
  P  P26  1  0.14311300  0.99408600  0.86975900  1
  P  P27  1  0.85688700  0.00591400  0.13024100  1
  O  O28  1  0.27250900  0.05846000  0.46612600  1
  O  O29  1  0.72749100  0.94154000  0.53387400  1
  O  O30  1  0.22749100  0.55846000  0.03387400  1
  O  O31  1  0.27250900  0.44154000  0.53387400  1
  O  O32  1  0.77250900  0.44154000  0.96612600  1
  O  O33  1  0.72749100  0.55846000  0.46612600  1
  O  O34  1  0.22749100  0.94154000  0.96612600  1
  O  O35  1  0.77250900  0.05846000  0.03387400  1
  O  O36  1  0.31041700  0.34400500  0.33833000  1
  O  O37  1  0.68958300  0.65599500  0.66167000  1
  O  O38  1  0.18958300  0.84400500  0.16167000  1
  O  O39  1  0.31041700  0.15599500  0.66167000  1
  O  O40  1  0.81041700  0.15599500  0.83833000  1
  O  O41  1  0.68958300  0.84400500  0.33833000  1
  O  O42  1  0.18958300  0.65599500  0.83833000  1
  O  O43  1  0.81041700  0.34400500  0.16167000  1
  O  O44  1  0.02096400  0.05011100  0.12856900  1
  O  O45  1  0.97903600  0.94988900  0.87143000  1
  O  O46  1  0.47903600  0.55011100  0.37143100  1
  O  O47  1  0.02096400  0.44988900  0.87143000  1
  O  O48  1  0.52096400  0.44988900  0.62857000  1
  O  O49  1  0.97903600  0.55011100  0.12856900  1
  O  O50  1  0.47903600  0.94988900  0.62857000  1
  O  O51  1  0.52096400  0.05011100  0.37143100  1
  O  O52  1  0.28205900  0.15533500  0.07152200  1
  O  O53  1  0.71794100  0.84466500  0.92847800  1
  O  O54  1  0.21794100  0.65533500  0.42847800  1
  O  O55  1  0.28205900  0.34466500  0.92847800  1
  O  O56  1  0.78205900  0.34466500  0.57152200  1
  O  O57  1  0.71794100  0.65533500  0.07152200  1
  O  O58  1  0.21794100  0.84466500  0.57152200  1
  O  O59  1  0.78205900  0.15533500  0.42847800  1
  O  O60  1  0.04580700  0.45177800  0.37962100  1
  O  O61  1  0.95419300  0.54822200  0.62037900  1
  O  O62  1  0.45419300  0.95177800  0.12037900  1
  O  O63  1  0.04580700  0.04822200  0.62037900  1
  O  O64  1  0.54580700  0.04822200  0.87962100  1
  O  O65  1  0.95419300  0.95177800  0.37962100  1
  O  O66  1  0.45419300  0.54822200  0.87962100  1
  O  O67  1  0.54580700  0.45177800  0.12037900  1
  O  O68  1  0.27472200  0.05303900  0.26949900  1
  O  O69  1  0.72527800  0.94696100  0.73050100  1
  O  O70  1  0.22527800  0.55303900  0.23050100  1
  O  O71  1  0.27472200  0.44696100  0.73050100  1
  O  O72  1  0.77472200  0.44696100  0.76949900  1
  O  O73  1  0.72527800  0.55303900  0.26949900  1
  O  O74  1  0.22527800  0.94696100  0.76949900  1
  O  O75  1  0.77472200  0.05303900  0.23050100  1
  O  O76  1  0.15487000  0.36963500  0.13023500  1
  O  O77  1  0.84513000  0.63036500  0.86976500  1
  O  O78  1  0.34513000  0.86963500  0.36976500  1
  O  O79  1  0.15487000  0.13036500  0.86976500  1
  O  O80  1  0.65487000  0.13036500  0.63023500  1
  O  O81  1  0.84513000  0.86963500  0.13023500  1
  O  O82  1  0.34513000  0.63036500  0.63023500  1
  O  O83  1  0.65487000  0.36963500  0.36976500  1
