# generated using pymatgen
data_In12Ga4Ir2O15
_symmetry_space_group_name_H-M   'P 1'
_cell_length_a   6.93513000
_cell_length_b   7.57437600
_cell_length_c   19.86768200
_cell_angle_alpha   90.00000000
_cell_angle_beta   90.00000000
_cell_angle_gamma   90.00000000
_symmetry_Int_Tables_number   1
_chemical_formula_structural   In12Ga4Ir2O15
_chemical_formula_sum   'In24 Ga8 Ir4 O30'
_cell_volume   1043.63507501
_cell_formula_units_Z   2
loop_
 _symmetry_equiv_pos_site_id
 _symmetry_equiv_pos_as_xyz
  1  'x, y, z'
loop_
 _atom_site_type_symbol
 _atom_site_label
 _atom_site_symmetry_multiplicity
 _atom_site_fract_x
 _atom_site_fract_y
 _atom_site_fract_z
 _atom_site_occupancy
  In  In0  1  0.25789600  0.50794000  0.74216400  1
  In  In1  1  0.74210400  0.50794000  0.25783600  1
  In  In2  1  0.75789600  0.00794000  0.75783600  1
  In  In3  1  0.24210400  0.00794000  0.24216400  1
  In  In4  1  0.98128100  0.77501400  0.37537100  1
  In  In5  1  0.01871900  0.77501400  0.62462900  1
  In  In6  1  0.48128100  0.27501400  0.12462900  1
  In  In7  1  0.51871900  0.27501400  0.87537100  1
  In  In8  1  0.53056900  0.73473800  0.87092800  1
  In  In9  1  0.46943100  0.73473800  0.12907200  1
  In  In10  1  0.03056900  0.23473800  0.62907200  1
  In  In11  1  0.96943100  0.23473800  0.37092800  1
  In  In12  1  0.52279400  0.25463000  0.62574300  1
  In  In13  1  0.47720600  0.25463000  0.37425700  1
  In  In14  1  0.02279400  0.75463000  0.87425700  1
  In  In15  1  0.97720600  0.75463000  0.12574300  1
  In  In16  1  0.51894100  0.75504400  0.63270500  1
  In  In17  1  0.48105900  0.75504400  0.36729500  1
  In  In18  1  0.01894100  0.25504400  0.86729500  1
  In  In19  1  0.98105900  0.25504400  0.13270500  1
  In  In20  1  0.50000000  0.51788500  0.50000000  1
  In  In21  1  0.00000000  0.01788500  0.00000000  1
  In  In22  1  0.00000000  0.49920400  0.50000000  1
  In  In23  1  0.50000000  0.99920400  0.00000000  1
  Ga  Ga24  1  0.76521100  0.50369100  0.75070900  1
  Ga  Ga25  1  0.23478900  0.50369100  0.24929100  1
  Ga  Ga26  1  0.26521100  0.00369100  0.74929100  1
  Ga  Ga27  1  0.73478900  0.00369100  0.25070900  1
  Ga  Ga28  1  0.25629400  0.51245600  0.98629800  1
  Ga  Ga29  1  0.74370600  0.51245600  0.01370200  1
  Ga  Ga30  1  0.75629400  0.01245600  0.51370200  1
  Ga  Ga31  1  0.24370600  0.01245600  0.48629800  1
  Ir  Ir32  1  0.73863900  0.50715800  0.39311200  1
  Ir  Ir33  1  0.26136100  0.50715800  0.60688800  1
  Ir  Ir34  1  0.23863900  0.00715800  0.10688800  1
  Ir  Ir35  1  0.76136100  0.00715800  0.89311200  1
  O  O36  1  0.76426500  0.71757600  0.70376000  1
  O  O37  1  0.23573500  0.71757600  0.29624000  1
  O  O38  1  0.26426500  0.21757600  0.79624000  1
  O  O39  1  0.73573500  0.21757600  0.20376000  1
  O  O40  1  0.53163800  0.50326000  0.80100300  1
  O  O41  1  0.46836200  0.50326000  0.19899700  1
  O  O42  1  0.03163800  0.00326000  0.69899700  1
  O  O43  1  0.96836200  0.00326000  0.30100300  1
  O  O44  1  0.98639600  0.50718300  0.81036700  1
  O  O45  1  0.01360400  0.50718300  0.18963300  1
  O  O46  1  0.48639600  0.00718300  0.68963300  1
  O  O47  1  0.51360400  0.00718300  0.31036700  1
  O  O48  1  0.76488000  0.28975200  0.70483600  1
  O  O49  1  0.23512000  0.28975200  0.29516400  1
  O  O50  1  0.26488000  0.78975200  0.79516400  1
  O  O51  1  0.73512000  0.78975200  0.20483600  1
  O  O52  1  0.27947900  0.71618100  0.93132400  1
  O  O53  1  0.72052100  0.71618100  0.06867600  1
  O  O54  1  0.77947900  0.21618100  0.56867600  1
  O  O55  1  0.22052100  0.21618100  0.43132400  1
  O  O56  1  0.25477100  0.30281600  0.93443700  1
  O  O57  1  0.74522900  0.30281600  0.06556300  1
  O  O58  1  0.75477100  0.80281600  0.56556300  1
  O  O59  1  0.24522900  0.80281600  0.43443700  1
  O  O60  1  0.39080800  0.50438000  0.06554300  1
  O  O61  1  0.60919200  0.50438000  0.93445700  1
  O  O62  1  0.89080800  0.00438000  0.43445700  1
  O  O63  1  0.10919200  0.00438000  0.56554300  1
  O  O64  1  0.00000000  0.56257100  0.00000000  1
  O  O65  1  0.50000000  0.06257100  0.50000000  1
