# generated using pymatgen
data_Na3Np(HO3)2
_symmetry_space_group_name_H-M   'P 1'
_cell_length_a   10.70081617
_cell_length_b   5.99058730
_cell_length_c   11.48968600
_cell_angle_alpha   67.17869532
_cell_angle_beta   31.06442586
_cell_angle_gamma   81.75687883
_symmetry_Int_Tables_number   1
_chemical_formula_structural   Na3Np(HO3)2
_chemical_formula_sum   'Na6 Np2 H4 O12'
_cell_volume   321.50063404
_cell_formula_units_Z   2
loop_
 _symmetry_equiv_pos_site_id
 _symmetry_equiv_pos_as_xyz
  1  'x, y, z'
loop_
 _atom_site_type_symbol
 _atom_site_label
 _atom_site_symmetry_multiplicity
 _atom_site_fract_x
 _atom_site_fract_y
 _atom_site_fract_z
 _atom_site_occupancy
  Na  Na0  1  0.38264200  0.11735800  0.11735800  1
  Na  Na1  1  0.13264200  0.86735800  0.86735800  1
  Na  Na2  1  0.70835700  0.30303700  0.11172800  1
  Na  Na3  1  0.87687700  0.11172800  0.30303700  1
  Na  Na4  1  0.13827200  0.37312300  0.54164300  1
  Na  Na5  1  0.94696300  0.54164300  0.37312300  1
  Np  Np6  1  0.71696800  0.78303200  0.78303200  1
  Np  Np7  1  0.46696800  0.53303200  0.53303200  1
  H  H8  1  0.39902600  0.57932500  0.88365100  1
  H  H9  1  0.13799700  0.88365100  0.57932500  1
  H  H10  1  0.36634900  0.11200300  0.85097400  1
  H  H11  1  0.67067500  0.85097400  0.11200300  1
  O  O12  1  0.50049800  0.72798700  0.10390600  1
  O  O13  1  0.66760900  0.10390600  0.72798700  1
  O  O14  1  0.14609400  0.58239100  0.74950200  1
  O  O15  1  0.52201300  0.74950200  0.58239100  1
  O  O16  1  0.76346900  0.46032100  0.84372400  1
  O  O17  1  0.93248500  0.84372400  0.46032100  1
  O  O18  1  0.40627600  0.31751500  0.48653100  1
  O  O19  1  0.78967900  0.48653100  0.31751500  1
  O  O20  1  0.35469900  0.53160000  0.01074900  1
  O  O21  1  0.10295200  0.01074900  0.53160000  1
  O  O22  1  0.23925100  0.14704800  0.89530100  1
  O  O23  1  0.71840000  0.89530100  0.14704800  1
