# generated using pymatgen
data_HfTe3O8
_symmetry_space_group_name_H-M   'P 1'
_cell_length_a   9.97692615
_cell_length_b   9.97692615
_cell_length_c   9.97692615
_cell_angle_alpha   109.47122063
_cell_angle_beta   109.47122063
_cell_angle_gamma   109.47122063
_symmetry_Int_Tables_number   1
_chemical_formula_structural   HfTe3O8
_chemical_formula_sum   'Hf4 Te12 O32'
_cell_volume   764.48396801
_cell_formula_units_Z   4
loop_
 _symmetry_equiv_pos_site_id
 _symmetry_equiv_pos_as_xyz
  1  'x, y, z'
loop_
 _atom_site_type_symbol
 _atom_site_label
 _atom_site_symmetry_multiplicity
 _atom_site_fract_x
 _atom_site_fract_y
 _atom_site_fract_z
 _atom_site_occupancy
  Hf  Hf0  1  0.00000000  0.50000000  0.00000000  1
  Hf  Hf1  1  0.50000000  0.50000000  0.50000000  1
  Hf  Hf2  1  0.00000000  0.00000000  0.50000000  1
  Hf  Hf3  1  0.50000000  0.00000000  0.00000000  1
  Te  Te4  1  0.94911800  0.75000000  0.69911800  1
  Te  Te5  1  0.25000000  0.80088200  0.55088200  1
  Te  Te6  1  0.69911800  0.94911800  0.75000000  1
  Te  Te7  1  0.75000000  0.69911800  0.94911800  1
  Te  Te8  1  0.80088200  0.55088200  0.25000000  1
  Te  Te9  1  0.55088200  0.25000000  0.80088200  1
  Te  Te10  1  0.05088200  0.25000000  0.30088200  1
  Te  Te11  1  0.75000000  0.19911800  0.44911800  1
  Te  Te12  1  0.30088200  0.05088200  0.25000000  1
  Te  Te13  1  0.25000000  0.30088200  0.05088200  1
  Te  Te14  1  0.19911800  0.44911800  0.75000000  1
  Te  Te15  1  0.44911800  0.75000000  0.19911800  1
  O  O16  1  0.66625000  0.50000000  0.00000000  1
  O  O17  1  0.83375000  0.83375000  0.83375000  1
  O  O18  1  0.00000000  0.66625000  0.50000000  1
  O  O19  1  0.50000000  0.00000000  0.66625000  1
  O  O20  1  0.33375000  0.50000000  0.00000000  1
  O  O21  1  0.16625000  0.16625000  0.16625000  1
  O  O22  1  0.00000000  0.33375000  0.50000000  1
  O  O23  1  0.50000000  0.00000000  0.33375000  1
  O  O24  1  0.15855100  0.23459800  0.70308100  1
  O  O25  1  0.03151800  0.45547000  0.79691900  1
  O  O26  1  0.34144900  0.04453000  0.07604700  1
  O  O27  1  0.79691900  0.03151800  0.45547000  1
  O  O28  1  0.23459800  0.70308100  0.15855100  1
  O  O29  1  0.26540200  0.42395300  0.46848200  1
  O  O30  1  0.42395300  0.46848200  0.26540200  1
  O  O31  1  0.45547000  0.79691900  0.03151800  1
  O  O32  1  0.53151800  0.73459800  0.57604700  1
  O  O33  1  0.29691900  0.84144900  0.76540200  1
  O  O34  1  0.95547000  0.92395300  0.65855100  1
  O  O35  1  0.92395300  0.65855100  0.95547000  1
  O  O36  1  0.54453000  0.20308100  0.96848200  1
  O  O37  1  0.57604700  0.53151800  0.73459800  1
  O  O38  1  0.73459800  0.57604700  0.53151800  1
  O  O39  1  0.76540200  0.29691900  0.84144900  1
  O  O40  1  0.20308100  0.96848200  0.54453000  1
  O  O41  1  0.65855100  0.95547000  0.92395300  1
  O  O42  1  0.96848200  0.54453000  0.20308100  1
  O  O43  1  0.84144900  0.76540200  0.29691900  1
  O  O44  1  0.46848200  0.26540200  0.42395300  1
  O  O45  1  0.70308100  0.15855100  0.23459800  1
  O  O46  1  0.04453000  0.07604700  0.34144900  1
  O  O47  1  0.07604700  0.34144900  0.04453000  1
