# generated using pymatgen
data_Sm(NO3)3
_symmetry_space_group_name_H-M   'P 1'
_cell_length_a   10.62997276
_cell_length_b   10.62997276
_cell_length_c   12.84053897
_cell_angle_alpha   80.75308103
_cell_angle_beta   80.75308103
_cell_angle_gamma   103.34714933
_symmetry_Int_Tables_number   1
_chemical_formula_structural   Sm(NO3)3
_chemical_formula_sum   'Sm8 N24 O72'
_cell_volume   1363.52581347
_cell_formula_units_Z   8
loop_
 _symmetry_equiv_pos_site_id
 _symmetry_equiv_pos_as_xyz
  1  'x, y, z'
loop_
 _atom_site_type_symbol
 _atom_site_label
 _atom_site_symmetry_multiplicity
 _atom_site_fract_x
 _atom_site_fract_y
 _atom_site_fract_z
 _atom_site_occupancy
  Sm  Sm0  1  0.00000000  0.50000000  0.50000000  1
  Sm  Sm1  1  0.50000000  0.00000000  0.00000000  1
  Sm  Sm2  1  0.72106000  0.27894000  0.25000000  1
  Sm  Sm3  1  0.27894000  0.72106000  0.75000000  1
  Sm  Sm4  1  0.76337500  0.77970100  0.25532800  1
  Sm  Sm5  1  0.22029900  0.23662500  0.24467200  1
  Sm  Sm6  1  0.23662500  0.22029900  0.74467200  1
  Sm  Sm7  1  0.77970100  0.76337500  0.75532800  1
  N  N8  1  0.64003700  0.49186300  0.35842800  1
  N  N9  1  0.50813700  0.35996300  0.14157200  1
  N  N10  1  0.35996300  0.50813700  0.64157200  1
  N  N11  1  0.49186300  0.64003700  0.85842800  1
  N  N12  1  0.74433000  0.17852900  0.04296100  1
  N  N13  1  0.82147100  0.25567000  0.45703900  1
  N  N14  1  0.25567000  0.82147100  0.95703900  1
  N  N15  1  0.17852900  0.74433000  0.54296100  1
  N  N16  1  0.75607700  0.54195400  0.63041200  1
  N  N17  1  0.45804600  0.24392300  0.86958800  1
  N  N18  1  0.24392300  0.45804600  0.36958800  1
  N  N19  1  0.54195400  0.75607700  0.13041200  1
  N  N20  1  0.00184900  0.68072700  0.29351100  1
  N  N21  1  0.31927300  0.99815100  0.20648900  1
  N  N22  1  0.99815100  0.31927300  0.70648900  1
  N  N23  1  0.68072700  0.00184900  0.79351100  1
  N  N24  1  0.83095900  0.86371900  0.52196900  1
  N  N25  1  0.13628100  0.16904100  0.97803100  1
  N  N26  1  0.16904100  0.13628100  0.47803100  1
  N  N27  1  0.86371900  0.83095900  0.02196900  1
  N  N28  1  0.61588400  0.97425900  0.32244000  1
  N  N29  1  0.02574100  0.38411600  0.17756000  1
  N  N30  1  0.38411600  0.02574100  0.67756000  1
  N  N31  1  0.97425900  0.61588400  0.82244000  1
  O  O32  1  0.72622300  0.52347600  0.26787400  1
  O  O33  1  0.47652400  0.27377700  0.23212600  1
  O  O34  1  0.27377700  0.47652400  0.73212600  1
  O  O35  1  0.52347600  0.72622300  0.76787400  1
  O  O36  1  0.58765300  0.37176800  0.39713100  1
  O  O37  1  0.62823200  0.41234700  0.10286900  1
  O  O38  1  0.41234700  0.62823200  0.60286900  1
  O  O39  1  0.37176800  0.58765300  0.89713100  1
  O  O40  1  0.61563400  0.58395900  0.40085000  1
  O  O41  1  0.41604100  0.38436600  0.09915000  1
  O  O42  1  0.38436600  0.41604100  0.59915000  1
  O  O43  1  0.58395900  0.61563400  0.90085000  1
  O  O44  1  0.63077500  0.14761700  0.10992100  1
  O  O45  1  0.85238300  0.36922500  0.39007900  1
  O  O46  1  0.36922500  0.85238300  0.89007900  1
  O  O47  1  0.14761700  0.63077500  0.60992100  1
  O  O48  1  0.75089100  0.12946100  0.96149000  1
  O  O49  1  0.87053900  0.24910900  0.53851000  1
  O  O50  1  0.24910900  0.87053900  0.03851000  1
  O  O51  1  0.12946100  0.75089100  0.46149000  1
  O  O52  1  0.83942600  0.25550200  0.06575800  1
  O  O53  1  0.74449800  0.16057400  0.43424200  1
  O  O54  1  0.16057400  0.74449800  0.93424200  1
  O  O55  1  0.25550200  0.83942600  0.56575800  1
  O  O56  1  0.74479500  0.45762500  0.57286100  1
  O  O57  1  0.54237500  0.25520500  0.92713900  1
  O  O58  1  0.25520500  0.54237500  0.42713900  1
  O  O59  1  0.45762500  0.74479500  0.07286100  1
  O  O60  1  0.87182600  0.62314100  0.61940600  1
  O  O61  1  0.37685900  0.12817400  0.88059400  1
  O  O62  1  0.12817400  0.37685900  0.38059400  1
  O  O63  1  0.62314100  0.87182600  0.11940600  1
  O  O64  1  0.66366700  0.55349100  0.69840200  1
  O  O65  1  0.44650900  0.33633300  0.80159800  1
  O  O66  1  0.33633300  0.44650900  0.30159800  1
  O  O67  1  0.55349100  0.66366700  0.19840200  1
  O  O68  1  0.08997400  0.62146400  0.29872200  1
  O  O69  1  0.37853600  0.91002600  0.20127800  1
  O  O70  1  0.91002600  0.37853600  0.70127800  1
  O  O71  1  0.62146400  0.08997400  0.79872200  1
  O  O72  1  0.00052700  0.76335800  0.21241500  1
  O  O73  1  0.23664200  0.99947300  0.28758500  1
  O  O74  1  0.99947300  0.23664200  0.78758500  1
  O  O75  1  0.76335800  0.00052700  0.71241500  1
  O  O76  1  0.90543600  0.65477300  0.37605500  1
  O  O77  1  0.34522700  0.09456400  0.12394500  1
  O  O78  1  0.09456400  0.34522700  0.62394500  1
  O  O79  1  0.65477300  0.90543600  0.87605500  1
  O  O80  1  0.71426800  0.80669700  0.57733600  1
  O  O81  1  0.19330300  0.28573200  0.92266400  1
  O  O82  1  0.28573200  0.19330300  0.42266400  1
  O  O83  1  0.80669700  0.71426800  0.07733600  1
  O  O84  1  0.85370500  0.88880400  0.42133400  1
  O  O85  1  0.11119600  0.14629500  0.07866600  1
  O  O86  1  0.14629500  0.11119600  0.57866600  1
  O  O87  1  0.88880400  0.85370500  0.92133400  1
  O  O88  1  0.92186400  0.89069000  0.57498700  1
  O  O89  1  0.10931000  0.07813600  0.92501300  1
  O  O90  1  0.07813600  0.10931000  0.42501300  1
  O  O91  1  0.89069000  0.92186400  0.07498700  1
  O  O92  1  0.57255300  0.85095000  0.35345200  1
  O  O93  1  0.14905000  0.42744700  0.14654800  1
  O  O94  1  0.42744700  0.14905000  0.64654800  1
  O  O95  1  0.85095000  0.57255300  0.85345200  1
  O  O96  1  0.54846100  0.05330200  0.34119800  1
  O  O97  1  0.94669800  0.45153900  0.15880200  1
  O  O98  1  0.45153900  0.94669800  0.65880200  1
  O  O99  1  0.05330200  0.54846100  0.84119800  1
  O  O100  1  0.73577000  0.02118600  0.26691600  1
  O  O101  1  0.97881400  0.26423000  0.23308400  1
  O  O102  1  0.26423000  0.97881400  0.73308400  1
  O  O103  1  0.02118600  0.73577000  0.76691600  1
