# generated using pymatgen
data_BaBAsF10
_symmetry_space_group_name_H-M   'P 1'
_cell_length_a   6.49185900
_cell_length_b   10.70630300
_cell_length_c   12.13367400
_cell_angle_alpha   90.00000000
_cell_angle_beta   90.00000000
_cell_angle_gamma   90.00000000
_symmetry_Int_Tables_number   1
_chemical_formula_structural   BaBAsF10
_chemical_formula_sum   'Ba4 B4 As4 F40'
_cell_volume   843.33656608
_cell_formula_units_Z   4
loop_
 _symmetry_equiv_pos_site_id
 _symmetry_equiv_pos_as_xyz
  1  'x, y, z'
loop_
 _atom_site_type_symbol
 _atom_site_label
 _atom_site_symmetry_multiplicity
 _atom_site_fract_x
 _atom_site_fract_y
 _atom_site_fract_z
 _atom_site_occupancy
  Ba  Ba0  1  0.75000000  0.26486200  0.61074900  1
  Ba  Ba1  1  0.75000000  0.76486200  0.88925100  1
  Ba  Ba2  1  0.25000000  0.73513800  0.38925100  1
  Ba  Ba3  1  0.25000000  0.23513800  0.11074900  1
  B  B4  1  0.75000000  0.64163000  0.57145900  1
  B  B5  1  0.75000000  0.14163000  0.92854100  1
  B  B6  1  0.25000000  0.35837000  0.42854100  1
  B  B7  1  0.25000000  0.85837000  0.07145900  1
  As  As8  1  0.25000000  0.98270100  0.69918400  1
  As  As9  1  0.25000000  0.48270100  0.80081600  1
  As  As10  1  0.75000000  0.01729900  0.30081600  1
  As  As11  1  0.75000000  0.51729900  0.19918400  1
  F  F12  1  0.57316500  0.68601400  0.51597200  1
  F  F13  1  0.92683500  0.18601400  0.98402800  1
  F  F14  1  0.07316500  0.31398600  0.48402800  1
  F  F15  1  0.42683500  0.81398600  0.01597200  1
  F  F16  1  0.42683500  0.31398600  0.48402800  1
  F  F17  1  0.07316500  0.81398600  0.01597200  1
  F  F18  1  0.92683500  0.68601400  0.51597200  1
  F  F19  1  0.57316500  0.18601400  0.98402800  1
  F  F20  1  0.75000000  0.50964100  0.57166800  1
  F  F21  1  0.75000000  0.00964100  0.92833200  1
  F  F22  1  0.25000000  0.49035900  0.42833200  1
  F  F23  1  0.25000000  0.99035900  0.07166800  1
  F  F24  1  0.75000000  0.68570700  0.68141200  1
  F  F25  1  0.75000000  0.18570700  0.81858800  1
  F  F26  1  0.25000000  0.31429300  0.31858800  1
  F  F27  1  0.25000000  0.81429300  0.18141200  1
  F  F28  1  0.25000000  0.88945200  0.57771800  1
  F  F29  1  0.25000000  0.38945200  0.92228200  1
  F  F30  1  0.75000000  0.11054800  0.42228200  1
  F  F31  1  0.75000000  0.61054800  0.07771800  1
  F  F32  1  0.44328900  0.88453400  0.75632200  1
  F  F33  1  0.05671100  0.38453400  0.74367800  1
  F  F34  1  0.94328900  0.11546600  0.24367800  1
  F  F35  1  0.55671100  0.61546600  0.25632200  1
  F  F36  1  0.55671100  0.11546600  0.24367800  1
  F  F37  1  0.94328900  0.61546600  0.25632200  1
  F  F38  1  0.05671100  0.88453400  0.75632200  1
  F  F39  1  0.44328900  0.38453400  0.74367800  1
  F  F40  1  0.25000000  0.07608900  0.81670200  1
  F  F41  1  0.25000000  0.57608900  0.68329800  1
  F  F42  1  0.75000000  0.92391100  0.18329800  1
  F  F43  1  0.75000000  0.42391100  0.31670200  1
  F  F44  1  0.05546100  0.07789500  0.63841200  1
  F  F45  1  0.44453900  0.57789500  0.86158800  1
  F  F46  1  0.55546100  0.92210500  0.36158800  1
  F  F47  1  0.94453900  0.42210500  0.13841200  1
  F  F48  1  0.94453900  0.92210500  0.36158800  1
  F  F49  1  0.55546100  0.42210500  0.13841200  1
  F  F50  1  0.44453900  0.07789500  0.63841200  1
  F  F51  1  0.05546100  0.57789500  0.86158800  1
