# generated using pymatgen
data_Zn22Ni3
_symmetry_space_group_name_H-M   'P 1'
_cell_length_a   7.64786731
_cell_length_b   7.64786731
_cell_length_c   7.65243457
_cell_angle_alpha   72.17518950
_cell_angle_beta   72.17518950
_cell_angle_gamma   58.18915491
_symmetry_Int_Tables_number   1
_chemical_formula_structural   Zn22Ni3
_chemical_formula_sum   'Zn22 Ni3'
_cell_volume   356.25683257
_cell_formula_units_Z   1
loop_
 _symmetry_equiv_pos_site_id
 _symmetry_equiv_pos_as_xyz
  1  'x, y, z'
loop_
 _atom_site_type_symbol
 _atom_site_label
 _atom_site_symmetry_multiplicity
 _atom_site_fract_x
 _atom_site_fract_y
 _atom_site_fract_z
 _atom_site_occupancy
  Zn  Zn0  1  0.34435400  0.73970300  0.31106300  1
  Zn  Zn1  1  0.65564600  0.26029700  0.68893700  1
  Zn  Zn2  1  0.26029700  0.65564600  0.68893700  1
  Zn  Zn3  1  0.73970300  0.34435400  0.31106300  1
  Zn  Zn4  1  0.67756100  0.32243900  0.00000000  1
  Zn  Zn5  1  0.32243900  0.67756100  0.00000000  1
  Zn  Zn6  1  0.83056600  0.83056600  0.78427400  1
  Zn  Zn7  1  0.16943400  0.16943400  0.21572600  1
  Zn  Zn8  1  0.97623600  0.97623600  0.17627800  1
  Zn  Zn9  1  0.02376400  0.02376400  0.82372200  1
  Zn  Zn10  1  0.35226800  0.35226800  0.27256500  1
  Zn  Zn11  1  0.64773200  0.64773200  0.72743500  1
  Zn  Zn12  1  0.68598000  0.68598000  0.37645300  1
  Zn  Zn13  1  0.31402000  0.31402000  0.62354700  1
  Zn  Zn14  1  0.66225400  0.02372800  0.46220800  1
  Zn  Zn15  1  0.33774600  0.97627200  0.53779200  1
  Zn  Zn16  1  0.97627200  0.33774600  0.53779200  1
  Zn  Zn17  1  0.02372800  0.66225400  0.46220800  1
  Zn  Zn18  1  0.61798800  0.99873500  0.09986600  1
  Zn  Zn19  1  0.38201200  0.00126500  0.90013400  1
  Zn  Zn20  1  0.00126500  0.38201200  0.90013400  1
  Zn  Zn21  1  0.99873500  0.61798800  0.09986600  1
  Ni  Ni22  1  0.65775700  0.65775700  0.05415200  1
  Ni  Ni23  1  0.34224300  0.34224300  0.94584800  1
  Ni  Ni24  1  0.00000000  0.00000000  0.50000000  1
