# generated using pymatgen
data_USiRu
_symmetry_space_group_name_H-M   'P 1'
_cell_length_a   4.15275200
_cell_length_b   6.62327400
_cell_length_c   7.46483600
_cell_angle_alpha   90.00000000
_cell_angle_beta   90.00000000
_cell_angle_gamma   90.00000000
_symmetry_Int_Tables_number   1
_chemical_formula_structural   USiRu
_chemical_formula_sum   'U4 Si4 Ru4'
_cell_volume   205.31892833
_cell_formula_units_Z   4
loop_
 _symmetry_equiv_pos_site_id
 _symmetry_equiv_pos_as_xyz
  1  'x, y, z'
loop_
 _atom_site_type_symbol
 _atom_site_label
 _atom_site_symmetry_multiplicity
 _atom_site_fract_x
 _atom_site_fract_y
 _atom_site_fract_z
 _atom_site_occupancy
  U  U0  1  0.25000000  0.35241200  0.49352400  1
  U  U1  1  0.25000000  0.14758800  0.99352400  1
  U  U2  1  0.75000000  0.64758800  0.50647600  1
  U  U3  1  0.75000000  0.85241200  0.00647600  1
  Si  Si4  1  0.25000000  0.88421800  0.30263400  1
  Si  Si5  1  0.25000000  0.61578200  0.80263400  1
  Si  Si6  1  0.75000000  0.11578200  0.69736600  1
  Si  Si7  1  0.75000000  0.38421800  0.19736600  1
  Ru  Ru8  1  0.25000000  0.93279700  0.63019000  1
  Ru  Ru9  1  0.25000000  0.56720300  0.13019000  1
  Ru  Ru10  1  0.75000000  0.06720300  0.36981000  1
  Ru  Ru11  1  0.75000000  0.43279700  0.86981000  1
