# generated using pymatgen
data_KLa5V2O13
_symmetry_space_group_name_H-M   'P 1'
_cell_length_a   5.97096400
_cell_length_b   10.61767579
_cell_length_c   12.36016212
_cell_angle_alpha   66.54636106
_cell_angle_beta   76.02250944
_cell_angle_gamma   73.66933453
_symmetry_Int_Tables_number   1
_chemical_formula_structural   KLa5V2O13
_chemical_formula_sum   'K2 La10 V4 O26'
_cell_volume   682.34483874
_cell_formula_units_Z   2
loop_
 _symmetry_equiv_pos_site_id
 _symmetry_equiv_pos_as_xyz
  1  'x, y, z'
loop_
 _atom_site_type_symbol
 _atom_site_label
 _atom_site_symmetry_multiplicity
 _atom_site_fract_x
 _atom_site_fract_y
 _atom_site_fract_z
 _atom_site_occupancy
  K  K0  1  0.24885900  0.50000000  0.50000000  1
  K  K1  1  0.75114100  0.50000000  0.50000000  1
  La  La2  1  0.23625900  0.76854500  0.75893700  1
  La  La3  1  0.76374100  0.23145500  0.24106300  1
  La  La4  1  0.19213500  0.52955600  0.08617500  1
  La  La5  1  0.80786500  0.47044400  0.91382500  1
  La  La6  1  0.66402900  0.05630500  0.61563600  1
  La  La7  1  0.33597100  0.94369500  0.38436400  1
  La  La8  1  0.60854200  0.84125300  0.94166200  1
  La  La9  1  0.39145800  0.15874700  0.05833800  1
  La  La10  1  0.03078600  0.10305800  0.83536900  1
  La  La11  1  0.96921400  0.89694200  0.16463100  1
  V  V12  1  0.15760800  0.24299800  0.44178700  1
  V  V13  1  0.84239200  0.75700200  0.55821300  1
  V  V14  1  0.43944800  0.35925500  0.76185000  1
  V  V15  1  0.56055200  0.64074500  0.23815000  1
  O  O16  1  0.38747200  0.95680400  0.77066400  1
  O  O17  1  0.88505900  0.95680400  0.77066400  1
  O  O18  1  0.61252800  0.04319600  0.22933600  1
  O  O19  1  0.11494100  0.04319600  0.22933600  1
  O  O20  1  0.97662300  0.14494700  0.42805400  1
  O  O21  1  0.45037600  0.14494700  0.42805400  1
  O  O22  1  0.02337700  0.85505300  0.57194600  1
  O  O23  1  0.54962400  0.85505300  0.57194600  1
  O  O24  1  0.13131800  0.40544000  0.33192500  1
  O  O25  1  0.86868200  0.59456000  0.66807500  1
  O  O26  1  0.34025400  0.69879100  0.14655200  1
  O  O27  1  0.81440300  0.69879100  0.14655200  1
  O  O28  1  0.65974600  0.30120900  0.85344800  1
  O  O29  1  0.18559700  0.30120900  0.85344800  1
  O  O30  1  0.46258900  0.64937100  0.91751500  1
  O  O31  1  0.97052400  0.64937100  0.91751500  1
  O  O32  1  0.53741100  0.35062900  0.08248500  1
  O  O33  1  0.02947600  0.35062900  0.08248500  1
  O  O34  1  0.53237400  0.28260200  0.65265100  1
  O  O35  1  0.46762600  0.71739800  0.34734900  1
  O  O36  1  0.08141300  0.25564900  0.58152600  1
  O  O37  1  0.91858700  0.74435100  0.41847400  1
  O  O38  1  0.38261100  0.53865300  0.69612500  1
  O  O39  1  0.61738900  0.46134700  0.30387500  1
  O  O40  1  0.24275800  0.00000000  0.00000000  1
  O  O41  1  0.75724200  0.00000000  0.00000000  1
