# generated using pymatgen
data_SrLi(B3O5)3
_symmetry_space_group_name_H-M   'P 1'
_cell_length_a   8.61179452
_cell_length_b   8.61179452
_cell_length_c   8.61179470
_cell_angle_alpha   77.83245129
_cell_angle_beta   77.83245129
_cell_angle_gamma   77.83245868
_symmetry_Int_Tables_number   1
_chemical_formula_structural   SrLi(B3O5)3
_chemical_formula_sum   'Sr2 Li2 B18 O30'
_cell_volume   600.98528231
_cell_formula_units_Z   2
loop_
 _symmetry_equiv_pos_site_id
 _symmetry_equiv_pos_as_xyz
  1  'x, y, z'
loop_
 _atom_site_type_symbol
 _atom_site_label
 _atom_site_symmetry_multiplicity
 _atom_site_fract_x
 _atom_site_fract_y
 _atom_site_fract_z
 _atom_site_occupancy
  Sr  Sr0  1  0.49219200  0.49219200  0.49219200  1
  Sr  Sr1  1  0.99219200  0.99219200  0.99219200  1
  Li  Li2  1  0.23313300  0.23313300  0.23313300  1
  Li  Li3  1  0.73313300  0.73313300  0.73313300  1
  B  B4  1  0.62513000  0.76886600  0.10389300  1
  B  B5  1  0.71128600  0.27530900  0.83366000  1
  B  B6  1  0.33366000  0.77530900  0.21128600  1
  B  B7  1  0.21128600  0.33366000  0.77530900  1
  B  B8  1  0.26886600  0.12513000  0.60389300  1
  B  B9  1  0.60389300  0.26886600  0.12513000  1
  B  B10  1  0.12513000  0.60389300  0.26886600  1
  B  B11  1  0.27530900  0.83366000  0.71128600  1
  B  B12  1  0.76886600  0.10389300  0.62513000  1
  B  B13  1  0.10389300  0.62513000  0.76886600  1
  B  B14  1  0.28057900  0.93976200  0.42276800  1
  B  B15  1  0.42276800  0.28057900  0.93976200  1
  B  B16  1  0.93976200  0.42276800  0.28057900  1
  B  B17  1  0.78057900  0.92276800  0.43976200  1
  B  B18  1  0.43976200  0.78057900  0.92276800  1
  B  B19  1  0.92276800  0.43976200  0.78057900  1
  B  B20  1  0.83366000  0.71128600  0.27530900  1
  B  B21  1  0.77530900  0.21128600  0.33366000  1
  O  O22  1  0.76912100  0.79533000  0.12531400  1
  O  O23  1  0.12531400  0.76912100  0.79533000  1
  O  O24  1  0.23108100  0.50505500  0.73515200  1
  O  O25  1  0.50505500  0.73515200  0.23108100  1
  O  O26  1  0.79533000  0.12531400  0.76912100  1
  O  O27  1  0.00505500  0.73108100  0.23515200  1
  O  O28  1  0.73108100  0.23515200  0.00505500  1
  O  O29  1  0.23515200  0.00505500  0.73108100  1
  O  O30  1  0.27476100  0.25973700  0.92548700  1
  O  O31  1  0.25973700  0.92548700  0.27476100  1
  O  O32  1  0.92548700  0.27476100  0.25973700  1
  O  O33  1  0.75973700  0.77476100  0.42548700  1
  O  O34  1  0.77476100  0.42548700  0.75973700  1
  O  O35  1  0.42548700  0.75973700  0.77476100  1
  O  O36  1  0.26912100  0.62531400  0.29533000  1
  O  O37  1  0.29533000  0.26912100  0.62531400  1
  O  O38  1  0.30747700  0.81126300  0.54248400  1
  O  O39  1  0.54248400  0.30747700  0.81126300  1
  O  O40  1  0.81126300  0.54248400  0.30747700  1
  O  O41  1  0.80747700  0.04248400  0.31126300  1
  O  O42  1  0.31126300  0.80747700  0.04248400  1
  O  O43  1  0.04248400  0.31126300  0.80747700  1
  O  O44  1  0.27497400  0.09839700  0.44688900  1
  O  O45  1  0.44688900  0.27497400  0.09839700  1
  O  O46  1  0.09839700  0.44688900  0.27497400  1
  O  O47  1  0.77497400  0.94688900  0.59839700  1
  O  O48  1  0.59839700  0.77497400  0.94688900  1
  O  O49  1  0.94688900  0.59839700  0.77497400  1
  O  O50  1  0.73515200  0.23108100  0.50505500  1
  O  O51  1  0.62531400  0.29533000  0.26912100  1
