# generated using pymatgen
data_Y3Si3Pd2
_symmetry_space_group_name_H-M   'P 1'
_cell_length_a   5.65814315
_cell_length_b   5.65814315
_cell_length_c   14.15345500
_cell_angle_alpha   90.00000000
_cell_angle_beta   90.00000000
_cell_angle_gamma   135.68265537
_symmetry_Int_Tables_number   1
_chemical_formula_structural   Y3Si3Pd2
_chemical_formula_sum   'Y6 Si6 Pd4'
_cell_volume   316.56197491
_cell_formula_units_Z   2
loop_
 _symmetry_equiv_pos_site_id
 _symmetry_equiv_pos_as_xyz
  1  'x, y, z'
loop_
 _atom_site_type_symbol
 _atom_site_label
 _atom_site_symmetry_multiplicity
 _atom_site_fract_x
 _atom_site_fract_y
 _atom_site_fract_z
 _atom_site_occupancy
  Y  Y0  1  0.41297600  0.58702400  0.38900000  1
  Y  Y1  1  0.58702400  0.41297600  0.61100000  1
  Y  Y2  1  0.86556100  0.13443900  0.75000000  1
  Y  Y3  1  0.13443900  0.86556100  0.25000000  1
  Y  Y4  1  0.41297600  0.58702400  0.11100000  1
  Y  Y5  1  0.58702400  0.41297600  0.88900000  1
  Si  Si6  1  0.83856000  0.16144000  0.25000000  1
  Si  Si7  1  0.16144000  0.83856000  0.75000000  1
  Si  Si8  1  0.89428900  0.10571100  0.53901900  1
  Si  Si9  1  0.10571100  0.89428900  0.46098100  1
  Si  Si10  1  0.10571100  0.89428900  0.03901900  1
  Si  Si11  1  0.89428900  0.10571100  0.96098100  1
  Pd  Pd12  1  0.29525300  0.70474700  0.59454000  1
  Pd  Pd13  1  0.70474700  0.29525300  0.40546000  1
  Pd  Pd14  1  0.70474700  0.29525300  0.09454000  1
  Pd  Pd15  1  0.29525300  0.70474700  0.90546000  1
