# generated using pymatgen
data_CsTh2(PO4)3
_symmetry_space_group_name_H-M   'P 1'
_cell_length_a   9.73608065
_cell_length_b   9.73608065
_cell_length_c   8.25990606
_cell_angle_alpha   77.48134318
_cell_angle_beta   77.48134318
_cell_angle_gamma   42.31385310
_symmetry_Int_Tables_number   1
_chemical_formula_structural   CsTh2(PO4)3
_chemical_formula_sum   'Cs2 Th4 P6 O24'
_cell_volume   512.65206995
_cell_formula_units_Z   2
loop_
 _symmetry_equiv_pos_site_id
 _symmetry_equiv_pos_as_xyz
  1  'x, y, z'
loop_
 _atom_site_type_symbol
 _atom_site_label
 _atom_site_symmetry_multiplicity
 _atom_site_fract_x
 _atom_site_fract_y
 _atom_site_fract_z
 _atom_site_occupancy
  Cs  Cs0  1  0.40950900  0.59049100  0.75000000  1
  Cs  Cs1  1  0.59049100  0.40950900  0.25000000  1
  Th  Th2  1  0.93750100  0.75193900  0.53174200  1
  Th  Th3  1  0.24806100  0.06249900  0.96825800  1
  Th  Th4  1  0.06249900  0.24806100  0.46825800  1
  Th  Th5  1  0.75193900  0.93750100  0.03174200  1
  P  P6  1  0.78480500  0.60156000  0.82013500  1
  P  P7  1  0.39844000  0.21519500  0.67986500  1
  P  P8  1  0.21519500  0.39844000  0.17986500  1
  P  P9  1  0.60156000  0.78480500  0.32013500  1
  P  P10  1  0.90911800  0.09088200  0.75000000  1
  P  P11  1  0.09088200  0.90911800  0.25000000  1
  O  O12  1  0.95715800  0.89937900  0.74200400  1
  O  O13  1  0.10062100  0.04284200  0.75799600  1
  O  O14  1  0.04284200  0.10062100  0.25799600  1
  O  O15  1  0.89937900  0.95715800  0.24200400  1
  O  O16  1  0.82005000  0.23746600  0.58929500  1
  O  O17  1  0.76253400  0.17995000  0.91070500  1
  O  O18  1  0.17995000  0.76253400  0.41070500  1
  O  O19  1  0.23746600  0.82005000  0.08929500  1
  O  O20  1  0.83123600  0.72340300  0.82998000  1
  O  O21  1  0.27659700  0.16876400  0.67002000  1
  O  O22  1  0.16876400  0.27659700  0.17002000  1
  O  O23  1  0.72340300  0.83123600  0.32998000  1
  O  O24  1  0.55380000  0.74160300  0.85474700  1
  O  O25  1  0.25839700  0.44620000  0.64525300  1
  O  O26  1  0.44620000  0.25839700  0.14525300  1
  O  O27  1  0.74160300  0.55380000  0.35474700  1
  O  O28  1  0.85810200  0.55284800  0.63198200  1
  O  O29  1  0.44715200  0.14189800  0.86801800  1
  O  O30  1  0.14189800  0.44715200  0.36801800  1
  O  O31  1  0.55284800  0.85810200  0.13198200  1
  O  O32  1  0.91223200  0.39864100  0.93055700  1
  O  O33  1  0.60135900  0.08776800  0.56944300  1
  O  O34  1  0.08776800  0.60135900  0.06944300  1
  O  O35  1  0.39864100  0.91223200  0.43055700  1
