# generated using pymatgen
data_BaAsAu
_symmetry_space_group_name_H-M   'P 1'
_cell_length_a   4.62545652
_cell_length_b   4.62545652
_cell_length_c   9.21843900
_cell_angle_alpha   90.00000000
_cell_angle_beta   90.00000000
_cell_angle_gamma   120.00000743
_symmetry_Int_Tables_number   1
_chemical_formula_structural   BaAsAu
_chemical_formula_sum   'Ba2 As2 Au2'
_cell_volume   170.80366728
_cell_formula_units_Z   2
loop_
 _symmetry_equiv_pos_site_id
 _symmetry_equiv_pos_as_xyz
  1  'x, y, z'
loop_
 _atom_site_type_symbol
 _atom_site_label
 _atom_site_symmetry_multiplicity
 _atom_site_fract_x
 _atom_site_fract_y
 _atom_site_fract_z
 _atom_site_occupancy
  Ba  Ba0  1  0.00000000  0.00000000  0.50000000  1
  Ba  Ba1  1  0.00000000  0.00000000  0.00000000  1
  As  As2  1  0.33333300  0.66666700  0.25000000  1
  As  As3  1  0.66666700  0.33333300  0.75000000  1
  Au  Au4  1  0.33333300  0.66666700  0.75000000  1
  Au  Au5  1  0.66666700  0.33333300  0.25000000  1
