# generated using pymatgen
data_MgTl2H12(SO7)2
_symmetry_space_group_name_H-M   'P 1'
_cell_length_a   12.60725900
_cell_length_b   6.27598800
_cell_length_c   9.34899142
_cell_angle_alpha   73.76260110
_cell_angle_beta   90.00000000
_cell_angle_gamma   90.00000000
_symmetry_Int_Tables_number   1
_chemical_formula_structural   MgTl2H12(SO7)2
_chemical_formula_sum   'Mg2 Tl4 H24 S4 O28'
_cell_volume   710.21387960
_cell_formula_units_Z   2
loop_
 _symmetry_equiv_pos_site_id
 _symmetry_equiv_pos_as_xyz
  1  'x, y, z'
loop_
 _atom_site_type_symbol
 _atom_site_label
 _atom_site_symmetry_multiplicity
 _atom_site_fract_x
 _atom_site_fract_y
 _atom_site_fract_z
 _atom_site_occupancy
  Mg  Mg0  1  0.50000000  0.00000000  0.50000000  1
  Mg  Mg1  1  0.00000000  0.00000000  0.00000000  1
  Tl  Tl2  1  0.14495700  0.65008000  0.62528200  1
  Tl  Tl3  1  0.64495700  0.34992000  0.87471800  1
  Tl  Tl4  1  0.85504300  0.34992000  0.37471800  1
  Tl  Tl5  1  0.35504300  0.65008000  0.12528200  1
  H  H6  1  0.40560700  0.68494800  0.71275800  1
  H  H7  1  0.90560700  0.31505200  0.78724200  1
  H  H8  1  0.59439300  0.31505200  0.28724200  1
  H  H9  1  0.09439300  0.68494800  0.21275800  1
  H  H10  1  0.37209600  0.91896800  0.73941100  1
  H  H11  1  0.87209600  0.08103200  0.76058900  1
  H  H12  1  0.62790400  0.08103200  0.26058900  1
  H  H13  1  0.12790400  0.91896800  0.23941100  1
  H  H14  1  0.40340800  0.06191400  0.23236000  1
  H  H15  1  0.90340800  0.93808600  0.26764000  1
  H  H16  1  0.59659200  0.93808600  0.76764000  1
  H  H17  1  0.09659200  0.06191400  0.73236000  1
  H  H18  1  0.31467600  0.00426900  0.35842000  1
  H  H19  1  0.81467600  0.99573100  0.14158000  1
  H  H20  1  0.68532400  0.99573100  0.64158000  1
  H  H21  1  0.18532400  0.00426900  0.85842000  1
  H  H22  1  0.55665100  0.65350500  0.40749100  1
  H  H23  1  0.05665100  0.34649500  0.09250900  1
  H  H24  1  0.44334900  0.34649500  0.59250900  1
  H  H25  1  0.94334900  0.65350500  0.90749100  1
  H  H26  1  0.64152800  0.66950000  0.52856000  1
  H  H27  1  0.14152800  0.33050000  0.97144000  1
  H  H28  1  0.35847200  0.33050000  0.47144000  1
  H  H29  1  0.85847200  0.66950000  0.02856000  1
  S  S30  1  0.36145500  0.26418300  0.90563000  1
  S  S31  1  0.86145500  0.73581700  0.59437000  1
  S  S32  1  0.63854500  0.73581700  0.09437000  1
  S  S33  1  0.13854500  0.26418300  0.40563000  1
  O  O34  1  0.26861800  0.40746300  0.91610900  1
  O  O35  1  0.76861800  0.59253700  0.58389100  1
  O  O36  1  0.73138200  0.59253700  0.08389100  1
  O  O37  1  0.23138200  0.40746300  0.41610900  1
  O  O38  1  0.42497100  0.21383300  0.04536100  1
  O  O39  1  0.92497100  0.78616700  0.45463900  1
  O  O40  1  0.57502900  0.78616700  0.95463800  1
  O  O41  1  0.07502900  0.21383300  0.54536200  1
  O  O42  1  0.43046300  0.38890200  0.77840000  1
  O  O43  1  0.93046300  0.61109800  0.72160000  1
  O  O44  1  0.56953700  0.61109800  0.22160000  1
  O  O45  1  0.06953700  0.38890200  0.27840000  1
  O  O46  1  0.32290800  0.05295000  0.87720800  1
  O  O47  1  0.82290800  0.94705000  0.62279200  1
  O  O48  1  0.67709200  0.94705000  0.12279200  1
  O  O49  1  0.17709200  0.05295000  0.37720900  1
  O  O50  1  0.39042200  0.84300500  0.66272400  1
  O  O51  1  0.89042200  0.15699500  0.83727600  1
  O  O52  1  0.60957800  0.15699500  0.33727600  1
  O  O53  1  0.10957800  0.84300500  0.16272400  1
  O  O54  1  0.38966100  0.97464800  0.33688400  1
  O  O55  1  0.88966100  0.02535200  0.16311600  1
  O  O56  1  0.61033900  0.02535200  0.66311600  1
  O  O57  1  0.11033900  0.97464800  0.83688400  1
  O  O58  1  0.56563900  0.69761400  0.50023400  1
  O  O59  1  0.06563900  0.30238600  0.99976600  1
  O  O60  1  0.43436100  0.30238600  0.49976600  1
  O  O61  1  0.93436100  0.69761400  0.00023400  1
