# generated using pymatgen
data_Er2B6Ru
_symmetry_space_group_name_H-M   'P 1'
_cell_length_a   3.64051500
_cell_length_b   9.09962700
_cell_length_c   11.46623600
_cell_angle_alpha   90.00000000
_cell_angle_beta   90.00000000
_cell_angle_gamma   90.00000000
_symmetry_Int_Tables_number   1
_chemical_formula_structural   Er2B6Ru
_chemical_formula_sum   'Er8 B24 Ru4'
_cell_volume   379.84576764
_cell_formula_units_Z   4
loop_
 _symmetry_equiv_pos_site_id
 _symmetry_equiv_pos_as_xyz
  1  'x, y, z'
loop_
 _atom_site_type_symbol
 _atom_site_label
 _atom_site_symmetry_multiplicity
 _atom_site_fract_x
 _atom_site_fract_y
 _atom_site_fract_z
 _atom_site_occupancy
  Er  Er0  1  0.00000000  0.32187700  0.41442000  1
  Er  Er1  1  0.00000000  0.67812300  0.58558000  1
  Er  Er2  1  0.00000000  0.82187700  0.08558000  1
  Er  Er3  1  0.00000000  0.17812300  0.91442000  1
  Er  Er4  1  0.00000000  0.94478100  0.37244400  1
  Er  Er5  1  0.00000000  0.05521900  0.62755600  1
  Er  Er6  1  0.00000000  0.44478100  0.12755600  1
  Er  Er7  1  0.00000000  0.55521900  0.87244400  1
  B  B8  1  0.50000000  0.55452400  0.43344500  1
  B  B9  1  0.50000000  0.44547600  0.56655500  1
  B  B10  1  0.50000000  0.05452400  0.06655500  1
  B  B11  1  0.50000000  0.94547600  0.93344500  1
  B  B12  1  0.50000000  0.74934600  0.42029600  1
  B  B13  1  0.50000000  0.25065400  0.57970400  1
  B  B14  1  0.50000000  0.24934600  0.07970400  1
  B  B15  1  0.50000000  0.75065400  0.92029600  1
  B  B16  1  0.50000000  0.79228000  0.26614900  1
  B  B17  1  0.50000000  0.20772000  0.73385100  1
  B  B18  1  0.50000000  0.29228000  0.23385100  1
  B  B19  1  0.50000000  0.70772000  0.76614900  1
  B  B20  1  0.50000000  0.63250000  0.18474100  1
  B  B21  1  0.50000000  0.36750000  0.81525900  1
  B  B22  1  0.50000000  0.13250000  0.31525900  1
  B  B23  1  0.50000000  0.86750000  0.68474100  1
  B  B24  1  0.50000000  0.98412200  0.21262000  1
  B  B25  1  0.50000000  0.01587800  0.78738000  1
  B  B26  1  0.50000000  0.48412200  0.28738000  1
  B  B27  1  0.50000000  0.51587800  0.71262000  1
  B  B28  1  0.50000000  0.60873500  0.02985200  1
  B  B29  1  0.50000000  0.39126500  0.97014800  1
  B  B30  1  0.50000000  0.10873500  0.47014800  1
  B  B31  1  0.50000000  0.89126500  0.52985200  1
  Ru  Ru32  1  0.00000000  0.63892500  0.32098800  1
  Ru  Ru33  1  0.00000000  0.36107500  0.67901200  1
  Ru  Ru34  1  0.00000000  0.13892500  0.17901200  1
  Ru  Ru35  1  0.00000000  0.86107500  0.82098800  1
