# generated using pymatgen
data_TiCuNi
_symmetry_space_group_name_H-M   'P 1'
_cell_length_a   4.53408263
_cell_length_b   4.53408263
_cell_length_c   4.53408263
_cell_angle_alpha   139.51207725
_cell_angle_beta   139.51207725
_cell_angle_gamma   58.59489443
_symmetry_Int_Tables_number   1
_chemical_formula_structural   TiCuNi
_chemical_formula_sum   'Ti1 Cu1 Ni1'
_cell_volume   38.93031785
_cell_formula_units_Z   1
loop_
 _symmetry_equiv_pos_site_id
 _symmetry_equiv_pos_as_xyz
  1  'x, y, z'
loop_
 _atom_site_type_symbol
 _atom_site_label
 _atom_site_symmetry_multiplicity
 _atom_site_fract_x
 _atom_site_fract_y
 _atom_site_fract_z
 _atom_site_occupancy
  Ti  Ti0  1  0.99400200  0.99400200  0.00000000  1
  Cu  Cu1  1  0.66804200  0.66804200  0.00000000  1
  Ni  Ni2  1  0.33795600  0.33795600  0.00000000  1
