# generated using pymatgen
data_IN4
_symmetry_space_group_name_H-M   'P 1'
_cell_length_a   5.97713500
_cell_length_b   8.99438800
_cell_length_c   9.51266100
_cell_angle_alpha   90.00000000
_cell_angle_beta   90.00000000
_cell_angle_gamma   90.00000000
_symmetry_Int_Tables_number   1
_chemical_formula_structural   IN4
_chemical_formula_sum   'I4 N16'
_cell_volume   511.40704138
_cell_formula_units_Z   4
loop_
 _symmetry_equiv_pos_site_id
 _symmetry_equiv_pos_as_xyz
  1  'x, y, z'
loop_
 _atom_site_type_symbol
 _atom_site_label
 _atom_site_symmetry_multiplicity
 _atom_site_fract_x
 _atom_site_fract_y
 _atom_site_fract_z
 _atom_site_occupancy
  I  I0  1  0.53213600  0.47825900  0.52128600  1
  I  I1  1  0.03213600  0.52174100  0.47871400  1
  I  I2  1  0.03213600  0.02174100  0.02128600  1
  I  I3  1  0.53213600  0.97825900  0.97871400  1
  N  N4  1  0.38130400  0.61666900  0.19094300  1
  N  N5  1  0.88130400  0.38333100  0.80905700  1
  N  N6  1  0.88130400  0.88333100  0.69094300  1
  N  N7  1  0.38130400  0.11666900  0.30905700  1
  N  N8  1  0.39511900  0.40021700  0.93987900  1
  N  N9  1  0.89511900  0.59978300  0.06012100  1
  N  N10  1  0.89511900  0.09978300  0.43987900  1
  N  N11  1  0.39511900  0.90021700  0.56012100  1
  N  N12  1  0.83413100  0.67353500  0.14631500  1
  N  N13  1  0.33413100  0.32646500  0.85368500  1
  N  N14  1  0.33413100  0.82646500  0.64631500  1
  N  N15  1  0.83413100  0.17353500  0.35368500  1
  N  N16  1  0.31481000  0.72895100  0.21865400  1
  N  N17  1  0.81481000  0.27104900  0.78134600  1
  N  N18  1  0.81481000  0.77104900  0.71865400  1
  N  N19  1  0.31481000  0.22895100  0.28134600  1
