# generated using pymatgen
data_NaMg3Si4HO12
_symmetry_space_group_name_H-M   'P 1'
_cell_length_a   5.33475482
_cell_length_b   9.91090337
_cell_length_c   18.16780000
_cell_angle_alpha   90.00000000
_cell_angle_beta   90.00000000
_cell_angle_gamma   101.94041015
_symmetry_Int_Tables_number   1
_chemical_formula_structural   NaMg3Si4HO12
_chemical_formula_sum   'Na4 Mg12 Si16 H4 O48'
_cell_volume   939.78866677
_cell_formula_units_Z   4
loop_
 _symmetry_equiv_pos_site_id
 _symmetry_equiv_pos_as_xyz
  1  'x, y, z'
loop_
 _atom_site_type_symbol
 _atom_site_label
 _atom_site_symmetry_multiplicity
 _atom_site_fract_x
 _atom_site_fract_y
 _atom_site_fract_z
 _atom_site_occupancy
  Na  Na0  1  0.04646800  0.26405400  0.24963600  1
  Na  Na1  1  0.95353200  0.73594600  0.74963600  1
  Na  Na2  1  0.47840400  0.74321600  0.97891100  1
  Na  Na3  1  0.52159600  0.25678400  0.47891100  1
  Mg  Mg4  1  0.98517200  0.75032400  0.06746600  1
  Mg  Mg5  1  0.01482800  0.24967600  0.56746600  1
  Mg  Mg6  1  0.01569200  0.24993800  0.92981500  1
  Mg  Mg7  1  0.98430800  0.75006200  0.42981500  1
  Mg  Mg8  1  0.98519400  0.75075100  0.24842700  1
  Mg  Mg9  1  0.01480600  0.24924900  0.74842700  1
  Mg  Mg10  1  0.48498300  0.74992700  0.15822500  1
  Mg  Mg11  1  0.51501700  0.25007300  0.65822500  1
  Mg  Mg12  1  0.51474500  0.24917600  0.83599800  1
  Mg  Mg13  1  0.48525500  0.75082400  0.33599800  1
  Mg  Mg14  1  0.51545300  0.24718200  0.00551900  1
  Mg  Mg15  1  0.48454700  0.75281800  0.50551900  1
  Si  Si16  1  0.29024400  0.52850100  0.66499000  1
  Si  Si17  1  0.70975600  0.47149900  0.16499000  1
  Si  Si18  1  0.70845700  0.47403600  0.33405600  1
  Si  Si19  1  0.29154300  0.52596400  0.83405600  1
  Si  Si20  1  0.76245000  0.04018600  0.07949700  1
  Si  Si21  1  0.23755000  0.95981400  0.57949700  1
  Si  Si22  1  0.23200800  0.96338500  0.92154300  1
  Si  Si23  1  0.76799200  0.03661500  0.42154300  1
  Si  Si24  1  0.79396600  0.54359000  0.58199600  1
  Si  Si25  1  0.20603400  0.45641000  0.08199600  1
  Si  Si26  1  0.20337500  0.46226100  0.42068800  1
  Si  Si27  1  0.79662500  0.53773900  0.92068800  1
  Si  Si28  1  0.25510300  0.02876700  0.16364200  1
  Si  Si29  1  0.74489700  0.97123300  0.66364200  1
  Si  Si30  1  0.73955300  0.97369600  0.83474300  1
  Si  Si31  1  0.26044700  0.02630400  0.33474300  1
  H  H32  1  0.24335300  0.54655100  0.24888900  1
  H  H33  1  0.75664700  0.45344900  0.74888900  1
  H  H34  1  0.73429200  0.95683300  0.24953600  1
  H  H35  1  0.26570800  0.04316700  0.74953600  1
  O  O36  1  0.69129800  0.85673100  0.24960800  1
  O  O37  1  0.30870200  0.14326900  0.74960800  1
  O  O38  1  0.22359700  0.36195100  0.66255900  1
  O  O39  1  0.77640300  0.63804900  0.16255900  1
  O  O40  1  0.77563300  0.64075200  0.33711300  1
  O  O41  1  0.22436700  0.35924800  0.83711300  1
  O  O42  1  0.19556700  0.86232700  0.16253400  1
  O  O43  1  0.80443300  0.13767300  0.66253400  1
  O  O44  1  0.80546100  0.14042700  0.83690100  1
  O  O45  1  0.19453900  0.85957300  0.33690100  1
  O  O46  1  0.70596500  0.87364200  0.07968100  1
  O  O47  1  0.29403500  0.12635800  0.57968100  1
  O  O48  1  0.29952000  0.13368500  0.92319900  1
  O  O49  1  0.70048000  0.86631500  0.42319900  1
  O  O50  1  0.29535200  0.08731700  0.24953200  1
  O  O51  1  0.70464800  0.91268300  0.74953200  1
  O  O52  1  0.73833000  0.37679200  0.57970800  1
  O  O53  1  0.26167000  0.62320800  0.07970800  1
  O  O54  1  0.26887900  0.63244000  0.42394500  1
  O  O55  1  0.73112100  0.36756000  0.92394500  1
  O  O56  1  0.01761300  0.09729600  0.13400000  1
  O  O57  1  0.98238700  0.90270300  0.63400000  1
  O  O58  1  0.98071700  0.91016100  0.86536500  1
  O  O59  1  0.01928300  0.08983900  0.36536500  1
  O  O60  1  0.25593700  0.58506400  0.75006000  1
  O  O61  1  0.74406300  0.41493600  0.25006000  1
  O  O62  1  0.71974000  0.35366100  0.74974700  1
  O  O63  1  0.28026000  0.64633900  0.24974700  1
  O  O64  1  0.51808700  0.09977300  0.11923300  1
  O  O65  1  0.48191300  0.90022700  0.61923300  1
  O  O66  1  0.47174700  0.90947700  0.87765200  1
  O  O67  1  0.52825300  0.09052300  0.37765200  1
  O  O68  1  0.59312100  0.59178500  0.64468900  1
  O  O69  1  0.40687900  0.40821500  0.14468900  1
  O  O70  1  0.40877900  0.41381500  0.35907700  1
  O  O71  1  0.59122100  0.58618500  0.85907700  1
  O  O72  1  0.75602200  0.63496200  0.51019800  1
  O  O73  1  0.24397800  0.36503800  0.01019800  1
  O  O74  1  0.21861800  0.38403300  0.49588100  1
  O  O75  1  0.78138200  0.61596700  0.99588100  1
  O  O76  1  0.09225600  0.60070900  0.61623200  1
  O  O77  1  0.90774400  0.39929100  0.11623200  1
  O  O78  1  0.91384000  0.40822400  0.38216700  1
  O  O79  1  0.08616000  0.59177600  0.88216700  1
  O  O80  1  0.78605600  0.12886700  0.00408500  1
  O  O81  1  0.21394400  0.87113300  0.50408500  1
  O  O82  1  0.19236200  0.88853700  0.99885500  1
  O  O83  1  0.80763800  0.11146300  0.49885500  1
