# generated using pymatgen
data_Ca11Sb10
_symmetry_space_group_name_H-M   'P 1'
_cell_length_a   12.17583630
_cell_length_b   12.17583630
_cell_length_c   12.17583630
_cell_angle_alpha   120.59851175
_cell_angle_beta   120.59851175
_cell_angle_gamma   88.96643604
_symmetry_Int_Tables_number   1
_chemical_formula_structural   Ca11Sb10
_chemical_formula_sum   'Ca22 Sb20'
_cell_volume   1264.61419903
_cell_formula_units_Z   2
loop_
 _symmetry_equiv_pos_site_id
 _symmetry_equiv_pos_as_xyz
  1  'x, y, z'
loop_
 _atom_site_type_symbol
 _atom_site_label
 _atom_site_symmetry_multiplicity
 _atom_site_fract_x
 _atom_site_fract_y
 _atom_site_fract_z
 _atom_site_occupancy
  Ca  Ca0  1  0.44054400  0.18902400  0.25152000  1
  Ca  Ca1  1  0.18902400  0.93750500  0.74848000  1
  Ca  Ca2  1  0.18902400  0.44054400  0.25152000  1
  Ca  Ca3  1  0.55945600  0.81097600  0.74848000  1
  Ca  Ca4  1  0.06249500  0.81097600  0.25152000  1
  Ca  Ca5  1  0.81097600  0.06249500  0.25152000  1
  Ca  Ca6  1  0.81097600  0.55945600  0.74848000  1
  Ca  Ca7  1  0.93750500  0.18902400  0.74848000  1
  Ca  Ca8  1  0.16445600  0.16445600  0.32891200  1
  Ca  Ca9  1  0.16445600  0.83554400  0.00000000  1
  Ca  Ca10  1  0.83554400  0.16445600  0.00000000  1
  Ca  Ca11  1  0.83554400  0.83554400  0.67108800  1
  Ca  Ca12  1  0.33498300  0.33498300  0.00000000  1
  Ca  Ca13  1  0.66501700  0.66501700  0.00000000  1
  Ca  Ca14  1  0.73596000  0.39662700  0.33933300  1
  Ca  Ca15  1  0.39662700  0.05729300  0.66066700  1
  Ca  Ca16  1  0.39662700  0.73596000  0.33933300  1
  Ca  Ca17  1  0.26404000  0.60337300  0.66066700  1
  Ca  Ca18  1  0.94270700  0.60337300  0.33933300  1
  Ca  Ca19  1  0.60337300  0.94270700  0.33933300  1
  Ca  Ca20  1  0.60337300  0.26404000  0.66066700  1
  Ca  Ca21  1  0.05729300  0.39662700  0.66066700  1
  Sb  Sb22  1  0.00000000  0.34832600  0.34832600  1
  Sb  Sb23  1  0.34832600  0.00000000  0.34832600  1
  Sb  Sb24  1  0.65167400  0.00000000  0.65167400  1
  Sb  Sb25  1  0.00000000  0.65167400  0.65167400  1
  Sb  Sb26  1  0.12819400  0.12819400  0.00000000  1
  Sb  Sb27  1  0.87180600  0.87180600  0.00000000  1
  Sb  Sb28  1  0.37356100  0.37356100  0.74712100  1
  Sb  Sb29  1  0.37356100  0.62643900  0.00000000  1
  Sb  Sb30  1  0.62643900  0.37356100  0.00000000  1
  Sb  Sb31  1  0.62643900  0.62643900  0.25287900  1
  Sb  Sb32  1  0.75000000  0.25000000  0.50000000  1
  Sb  Sb33  1  0.25000000  0.75000000  0.50000000  1
  Sb  Sb34  1  0.53093100  0.53093100  0.41246200  1
  Sb  Sb35  1  0.53093100  0.11847000  0.00000000  1
  Sb  Sb36  1  0.11847000  0.53093100  0.00000000  1
  Sb  Sb37  1  0.46906900  0.88153000  0.00000000  1
  Sb  Sb38  1  0.88153000  0.46906900  0.00000000  1
  Sb  Sb39  1  0.88153000  0.88153000  0.41246200  1
  Sb  Sb40  1  0.46906900  0.46906900  0.58753800  1
  Sb  Sb41  1  0.11847000  0.11847000  0.58753800  1
