# generated using pymatgen
data_PrCo5P3
_symmetry_space_group_name_H-M   'P 1'
_cell_length_a   3.70049300
_cell_length_b   10.41524100
_cell_length_c   11.85581400
_cell_angle_alpha   90.00000000
_cell_angle_beta   90.00000000
_cell_angle_gamma   90.00000000
_symmetry_Int_Tables_number   1
_chemical_formula_structural   PrCo5P3
_chemical_formula_sum   'Pr4 Co20 P12'
_cell_volume   456.94116844
_cell_formula_units_Z   4
loop_
 _symmetry_equiv_pos_site_id
 _symmetry_equiv_pos_as_xyz
  1  'x, y, z'
loop_
 _atom_site_type_symbol
 _atom_site_label
 _atom_site_symmetry_multiplicity
 _atom_site_fract_x
 _atom_site_fract_y
 _atom_site_fract_z
 _atom_site_occupancy
  Pr  Pr0  1  0.25000000  0.58341700  0.70218000  1
  Pr  Pr1  1  0.25000000  0.91658300  0.20218000  1
  Pr  Pr2  1  0.75000000  0.41658300  0.29782000  1
  Pr  Pr3  1  0.75000000  0.08341700  0.79782000  1
  Co  Co4  1  0.25000000  0.71319800  0.98980300  1
  Co  Co5  1  0.25000000  0.78680200  0.48980300  1
  Co  Co6  1  0.75000000  0.28680200  0.01019700  1
  Co  Co7  1  0.75000000  0.21319800  0.51019700  1
  Co  Co8  1  0.25000000  0.40524500  0.49014300  1
  Co  Co9  1  0.25000000  0.09475500  0.99014300  1
  Co  Co10  1  0.75000000  0.59475500  0.50985700  1
  Co  Co11  1  0.75000000  0.90524500  0.00985700  1
  Co  Co12  1  0.25000000  0.22082600  0.17510400  1
  Co  Co13  1  0.25000000  0.27917400  0.67510400  1
  Co  Co14  1  0.75000000  0.77917400  0.82489600  1
  Co  Co15  1  0.75000000  0.72082600  0.32489600  1
  Co  Co16  1  0.25000000  0.88187600  0.69643900  1
  Co  Co17  1  0.25000000  0.61812400  0.19643900  1
  Co  Co18  1  0.75000000  0.11812400  0.30356100  1
  Co  Co19  1  0.75000000  0.38187600  0.80356100  1
  Co  Co20  1  0.25000000  0.46857200  0.93312600  1
  Co  Co21  1  0.25000000  0.03142800  0.43312600  1
  Co  Co22  1  0.75000000  0.53142800  0.06687400  1
  Co  Co23  1  0.75000000  0.96857200  0.56687400  1
  P  P24  1  0.25000000  0.41832500  0.10960000  1
  P  P25  1  0.25000000  0.08167500  0.60960000  1
  P  P26  1  0.75000000  0.58167500  0.89040000  1
  P  P27  1  0.75000000  0.91832500  0.39040000  1
  P  P28  1  0.25000000  0.27598800  0.86989100  1
  P  P29  1  0.25000000  0.22401200  0.36989100  1
  P  P30  1  0.75000000  0.72401200  0.13010900  1
  P  P31  1  0.75000000  0.77598800  0.63010900  1
  P  P32  1  0.25000000  0.60597200  0.39301100  1
  P  P33  1  0.25000000  0.89402800  0.89301100  1
  P  P34  1  0.75000000  0.39402800  0.60698900  1
  P  P35  1  0.75000000  0.10597200  0.10698900  1
