# generated using pymatgen
data_KSm(SO4)2
_symmetry_space_group_name_H-M   'P 1'
_cell_length_a   7.24682200
_cell_length_b   8.73633900
_cell_length_c   10.65723774
_cell_angle_alpha   87.80077479
_cell_angle_beta   90.00000000
_cell_angle_gamma   90.00000000
_symmetry_Int_Tables_number   1
_chemical_formula_structural   KSm(SO4)2
_chemical_formula_sum   'K4 Sm4 S8 O32'
_cell_volume   674.22014138
_cell_formula_units_Z   4
loop_
 _symmetry_equiv_pos_site_id
 _symmetry_equiv_pos_as_xyz
  1  'x, y, z'
loop_
 _atom_site_type_symbol
 _atom_site_label
 _atom_site_symmetry_multiplicity
 _atom_site_fract_x
 _atom_site_fract_y
 _atom_site_fract_z
 _atom_site_occupancy
  K  K0  1  0.34954000  0.43736500  0.84231900  1
  K  K1  1  0.65046000  0.56263500  0.15768100  1
  K  K2  1  0.84954000  0.56263500  0.65768100  1
  K  K3  1  0.15046000  0.43736500  0.34231900  1
  Sm  Sm4  1  0.16886900  0.94425900  0.84898200  1
  Sm  Sm5  1  0.83113100  0.05574100  0.15101800  1
  Sm  Sm6  1  0.66886900  0.05574100  0.65101800  1
  Sm  Sm7  1  0.33113100  0.94425900  0.34898200  1
  S  S8  1  0.16646500  0.18115900  0.60963600  1
  S  S9  1  0.83353500  0.81884100  0.39036400  1
  S  S10  1  0.66646500  0.81884100  0.89036400  1
  S  S11  1  0.33353500  0.18115900  0.10963600  1
  S  S12  1  0.34342600  0.72893900  0.58904200  1
  S  S13  1  0.65657400  0.27106100  0.41095800  1
  S  S14  1  0.84342600  0.27106100  0.91095800  1
  S  S15  1  0.15657400  0.72893900  0.08904200  1
  O  O16  1  0.81772000  0.87441300  0.51932100  1
  O  O17  1  0.18228000  0.12558700  0.48067900  1
  O  O18  1  0.31772000  0.12558700  0.98067900  1
  O  O19  1  0.68228000  0.87441300  0.01932100  1
  O  O20  1  0.51145700  0.90636000  0.82354200  1
  O  O21  1  0.48854300  0.09364000  0.17645800  1
  O  O22  1  0.01145700  0.09364000  0.67645800  1
  O  O23  1  0.98854300  0.90636000  0.32354200  1
  O  O24  1  0.13964800  0.34613500  0.60808300  1
  O  O25  1  0.86035200  0.65386500  0.39191700  1
  O  O26  1  0.63964800  0.65386500  0.89191700  1
  O  O27  1  0.36035200  0.34613500  0.10808300  1
  O  O28  1  0.24691000  0.70268700  0.96531500  1
  O  O29  1  0.75309000  0.29731300  0.03468500  1
  O  O30  1  0.74691000  0.29731300  0.53468500  1
  O  O31  1  0.25309000  0.70268700  0.46531500  1
  O  O32  1  0.44538800  0.87881100  0.56130200  1
  O  O33  1  0.55461200  0.12118900  0.43869800  1
  O  O34  1  0.94538800  0.12118900  0.93869800  1
  O  O35  1  0.05461200  0.87881100  0.06130200  1
  O  O36  1  0.46875300  0.60701600  0.62918400  1
  O  O37  1  0.53124700  0.39298400  0.37081600  1
  O  O38  1  0.96875300  0.39298400  0.87081600  1
  O  O39  1  0.03124700  0.60701600  0.12918400  1
  O  O40  1  0.83288600  0.86378400  0.80946200  1
  O  O41  1  0.16711400  0.13621600  0.19053800  1
  O  O42  1  0.33288600  0.13621600  0.69053800  1
  O  O43  1  0.66711400  0.86378400  0.30946200  1
  O  O44  1  0.19970500  0.75585100  0.68676300  1
  O  O45  1  0.80029500  0.24414900  0.31323700  1
  O  O46  1  0.69970500  0.24414900  0.81323700  1
  O  O47  1  0.30029500  0.75585100  0.18676300  1
