# generated using pymatgen
data_K2Nb2As2O11
_symmetry_space_group_name_H-M   'P 1'
_cell_length_a   10.68234900
_cell_length_b   10.16858500
_cell_length_c   10.56337417
_cell_angle_alpha   83.28851830
_cell_angle_beta   90.00000000
_cell_angle_gamma   90.00000000
_symmetry_Int_Tables_number   1
_chemical_formula_structural   K2Nb2As2O11
_chemical_formula_sum   'K8 Nb8 As8 O44'
_cell_volume   1139.57678486
_cell_formula_units_Z   4
loop_
 _symmetry_equiv_pos_site_id
 _symmetry_equiv_pos_as_xyz
  1  'x, y, z'
loop_
 _atom_site_type_symbol
 _atom_site_label
 _atom_site_symmetry_multiplicity
 _atom_site_fract_x
 _atom_site_fract_y
 _atom_site_fract_z
 _atom_site_occupancy
  K  K0  1  0.20731100  0.73750400  0.54269700  1
  K  K1  1  0.70731100  0.26249600  0.45730300  1
  K  K2  1  0.79514600  0.26119500  0.95170400  1
  K  K3  1  0.29514600  0.73880500  0.04829600  1
  K  K4  1  0.00008700  0.49988300  0.25014000  1
  K  K5  1  0.50008700  0.50011700  0.74986000  1
  K  K6  1  0.05748500  0.99467700  0.75778700  1
  K  K7  1  0.55748500  0.00532300  0.24221300  1
  Nb  Nb8  1  0.09314000  0.14520600  0.38366800  1
  Nb  Nb9  1  0.59314000  0.85479400  0.61633200  1
  Nb  Nb10  1  0.90774700  0.85438600  0.11585100  1
  Nb  Nb11  1  0.40774700  0.14561400  0.88414900  1
  Nb  Nb12  1  0.31778400  0.43285200  0.39654200  1
  Nb  Nb13  1  0.81778400  0.56714800  0.60345800  1
  Nb  Nb14  1  0.68223000  0.56655700  0.10353400  1
  Nb  Nb15  1  0.18223000  0.43344300  0.89646600  1
  As  As16  1  0.38566500  0.11110200  0.56067300  1
  As  As17  1  0.88566500  0.88889800  0.43932700  1
  As  As18  1  0.61422400  0.88851600  0.93831400  1
  As  As19  1  0.11422400  0.11148400  0.06168600  1
  As  As20  1  0.07848800  0.36927200  0.60460900  1
  As  As21  1  0.57848800  0.63072800  0.39539100  1
  As  As22  1  0.92145700  0.63112600  0.89520100  1
  As  As23  1  0.42145700  0.36887400  0.10479900  1
  O  O24  1  0.19068900  0.31011500  0.35310600  1
  O  O25  1  0.69068900  0.68988500  0.64689400  1
  O  O26  1  0.80926000  0.69009000  0.14658500  1
  O  O27  1  0.30926000  0.30991000  0.85341500  1
  O  O28  1  0.94473900  0.21050500  0.33410100  1
  O  O29  1  0.44473900  0.78949500  0.66589900  1
  O  O30  1  0.05556000  0.78897100  0.16668400  1
  O  O31  1  0.55556000  0.21102900  0.83331600  1
  O  O32  1  0.34665000  0.07553500  0.72285200  1
  O  O33  1  0.84665000  0.92446500  0.27714800  1
  O  O34  1  0.65205100  0.92444200  0.77721500  1
  O  O35  1  0.15205100  0.07555800  0.22278500  1
  O  O36  1  0.21612500  0.45122200  0.56172600  1
  O  O37  1  0.71612500  0.54877800  0.43827400  1
  O  O38  1  0.78390100  0.54913700  0.93832600  1
  O  O39  1  0.28390100  0.45086300  0.06167400  1
  O  O40  1  0.44025700  0.36451200  0.26679400  1
  O  O41  1  0.94025700  0.63548800  0.73320600  1
  O  O42  1  0.56039400  0.63579900  0.23313900  1
  O  O43  1  0.06039400  0.36420100  0.76686100  1
  O  O44  1  0.26035600  0.58166600  0.30888400  1
  O  O45  1  0.76035600  0.41833400  0.69111600  1
  O  O46  1  0.73924300  0.41745800  0.19103700  1
  O  O47  1  0.23924300  0.58254200  0.80896300  1
  O  O48  1  0.41761800  0.27470400  0.52652100  1
  O  O49  1  0.91761800  0.72529600  0.47347900  1
  O  O50  1  0.58274300  0.72497100  0.97358600  1
  O  O51  1  0.08274300  0.27502900  0.02641400  1
  O  O52  1  0.27046300  0.04527100  0.47669800  1
  O  O53  1  0.77046300  0.95472900  0.52330200  1
  O  O54  1  0.72499900  0.95456000  0.02848700  1
  O  O55  1  0.22499900  0.04544000  0.97151300  1
  O  O56  1  0.07396900  0.20727800  0.57425800  1
  O  O57  1  0.57396900  0.79272200  0.42574200  1
  O  O58  1  0.92780900  0.79328900  0.92577400  1
  O  O59  1  0.42780900  0.20671100  0.07422600  1
  O  O60  1  0.02846200  0.96383200  0.47083200  1
  O  O61  1  0.52846200  0.03616800  0.52916800  1
  O  O62  1  0.97201700  0.03554600  0.02952700  1
  O  O63  1  0.47201700  0.96445400  0.97047300  1
  O  O64  1  0.46349100  0.53851200  0.47774400  1
  O  O65  1  0.96349100  0.46148800  0.52225600  1
  O  O66  1  0.53633900  0.46157800  0.02240800  1
  O  O67  1  0.03633900  0.53842200  0.97759200  1
