# generated using pymatgen
data_Cs3K5Mo8(P2O11)4
_symmetry_space_group_name_H-M   'P 1'
_cell_length_a   10.02900800
_cell_length_b   10.29508661
_cell_length_c   10.36214144
_cell_angle_alpha   90.02056818
_cell_angle_beta   90.08144164
_cell_angle_gamma   100.08550257
_symmetry_Int_Tables_number   1
_chemical_formula_structural   Cs3K5Mo8(P2O11)4
_chemical_formula_sum   'Cs3 K5 Mo8 P8 O44'
_cell_volume   1053.35232917
_cell_formula_units_Z   1
loop_
 _symmetry_equiv_pos_site_id
 _symmetry_equiv_pos_as_xyz
  1  'x, y, z'
loop_
 _atom_site_type_symbol
 _atom_site_label
 _atom_site_symmetry_multiplicity
 _atom_site_fract_x
 _atom_site_fract_y
 _atom_site_fract_z
 _atom_site_occupancy
  Cs  Cs0  1  0.26285500  0.75330800  0.80800700  1
  Cs  Cs1  1  0.75793600  0.75315000  0.69437100  1
  Cs  Cs2  1  0.74216200  0.24692900  0.19458300  1
  K  K3  1  0.49974500  0.00012100  0.49977200  1
  K  K4  1  0.00026300  0.00025600  0.00009000  1
  K  K5  1  0.23678200  0.24423200  0.31390400  1
  K  K6  1  0.99881000  0.49729700  0.53869300  1
  K  K7  1  0.50123200  0.50244700  0.03899600  1
  Mo  Mo8  1  0.35710100  0.91632500  0.18170000  1
  Mo  Mo9  1  0.14273400  0.08479700  0.68113100  1
  Mo  Mo10  1  0.64255800  0.08503800  0.81897800  1
  Mo  Mo11  1  0.85804500  0.91574800  0.31894700  1
  Mo  Mo12  1  0.36357300  0.65481900  0.42507100  1
  Mo  Mo13  1  0.13658400  0.34474700  0.92617700  1
  Mo  Mo14  1  0.63416700  0.34438400  0.57397800  1
  Mo  Mo15  1  0.86547600  0.65544900  0.07454800  1
  P  P16  1  0.17700900  0.59815700  0.13860900  1
  P  P17  1  0.32265500  0.40034800  0.63689300  1
  P  P18  1  0.82320600  0.40145900  0.86156700  1
  P  P19  1  0.67689300  0.59870800  0.36147100  1
  P  P20  1  0.15104800  0.87547300  0.43596600  1
  P  P21  1  0.34919600  0.12519700  0.93634300  1
  P  P22  1  0.84872000  0.12465800  0.56417000  1
  P  P23  1  0.65118700  0.87557900  0.06435800  1
  O  O24  1  0.41665300  0.79673900  0.30479800  1
  O  O25  1  0.08335900  0.20381000  0.80493100  1
  O  O26  1  0.58262700  0.20373800  0.69498400  1
  O  O27  1  0.91742400  0.79652200  0.19518600  1
  O  O28  1  0.27425100  0.01922500  0.03140900  1
  O  O29  1  0.22584300  0.98063400  0.53204300  1
  O  O30  1  0.72560000  0.98051100  0.96813400  1
  O  O31  1  0.77427700  0.01955600  0.46784500  1
  O  O32  1  0.44725300  0.72089000  0.56348100  1
  O  O33  1  0.05532000  0.27850400  0.06569600  1
  O  O34  1  0.55141400  0.27854200  0.43484600  1
  O  O35  1  0.94706100  0.72165300  0.93533400  1
  O  O36  1  0.23738400  0.55451600  0.26598000  1
  O  O37  1  0.26243800  0.44131000  0.76510000  1
  O  O38  1  0.76590800  0.44313000  0.73193600  1
  O  O39  1  0.73415800  0.55684800  0.23187000  1
  O  O40  1  0.44747300  0.06520500  0.24007500  1
  O  O41  1  0.04989600  0.93716700  0.73882100  1
  O  O42  1  0.54964000  0.93749600  0.76066500  1
  O  O43  1  0.95232800  0.06326000  0.26187700  1
  O  O44  1  0.27292600  0.48105200  0.52336300  1
  O  O45  1  0.22686600  0.51869100  0.02426900  1
  O  O46  1  0.72607900  0.51798000  0.47502800  1
  O  O47  1  0.77384200  0.48189000  0.97511600  1
  O  O48  1  0.19226300  0.92615000  0.29803000  1
  O  O49  1  0.30766100  0.07639100  0.79776900  1
  O  O50  1  0.80744300  0.07502700  0.70232600  1
  O  O51  1  0.69295300  0.92556200  0.20252300  1
  O  O52  1  0.51870500  0.56561500  0.35150000  1
  O  O53  1  0.98141300  0.43414200  0.85233000  1
  O  O54  1  0.48042600  0.43378600  0.64609200  1
  O  O55  1  0.01917500  0.56541000  0.14670000  1
  O  O56  1  0.18751200  0.73772700  0.46727400  1
  O  O57  1  0.31312000  0.26263800  0.96898700  1
  O  O58  1  0.81154100  0.26194200  0.53292100  1
  O  O59  1  0.68790100  0.73814500  0.03313400  1
  O  O60  1  0.49559000  0.86280600  0.05010700  1
  O  O61  1  0.00425200  0.13804000  0.54926000  1
  O  O62  1  0.50459100  0.13716900  0.95103500  1
  O  O63  1  0.99568700  0.86282800  0.45094100  1
  O  O64  1  0.22627900  0.74518400  0.10643200  1
  O  O65  1  0.27322300  0.25386700  0.60136500  1
  O  O66  1  0.77392600  0.25474100  0.89464700  1
  O  O67  1  0.72638200  0.74533600  0.39451500  1
