# generated using pymatgen
data_Mn4Zn3(NiO6)2
_symmetry_space_group_name_H-M   'P 1'
_cell_length_a   6.00672561
_cell_length_b   6.00672561
_cell_length_c   13.24515179
_cell_angle_alpha   77.50423509
_cell_angle_beta   77.50423509
_cell_angle_gamma   90.36386972
_symmetry_Int_Tables_number   1
_chemical_formula_structural   Mn4Zn3(NiO6)2
_chemical_formula_sum   'Mn8 Zn6 Ni4 O24'
_cell_volume   454.81332149
_cell_formula_units_Z   2
loop_
 _symmetry_equiv_pos_site_id
 _symmetry_equiv_pos_as_xyz
  1  'x, y, z'
loop_
 _atom_site_type_symbol
 _atom_site_label
 _atom_site_symmetry_multiplicity
 _atom_site_fract_x
 _atom_site_fract_y
 _atom_site_fract_z
 _atom_site_occupancy
  Mn  Mn0  1  0.50000000  0.00000000  0.00000000  1
  Mn  Mn1  1  0.00000000  0.50000000  0.50000000  1
  Mn  Mn2  1  0.50000000  0.50000000  0.50000000  1
  Mn  Mn3  1  0.16041400  0.16794900  0.16610200  1
  Mn  Mn4  1  0.83958600  0.83205100  0.83389800  1
  Mn  Mn5  1  0.16794900  0.16041400  0.66610200  1
  Mn  Mn6  1  0.83205100  0.83958600  0.33389800  1
  Mn  Mn7  1  0.50000000  0.50000000  0.00000000  1
  Zn  Zn8  1  0.30068100  0.02264400  0.41610800  1
  Zn  Zn9  1  0.97735600  0.69931900  0.08389200  1
  Zn  Zn10  1  0.63443300  0.36556700  0.75000000  1
  Zn  Zn11  1  0.02264400  0.30068100  0.91610800  1
  Zn  Zn12  1  0.69931900  0.97735600  0.58389200  1
  Zn  Zn13  1  0.36556700  0.63443300  0.25000000  1
  Ni  Ni14  1  0.16698100  0.66406600  0.66769300  1
  Ni  Ni15  1  0.83301900  0.33593400  0.33230700  1
  Ni  Ni16  1  0.66406600  0.16698100  0.16769300  1
  Ni  Ni17  1  0.33593400  0.83301900  0.83230700  1
  O  O18  1  0.07616000  0.07155000  0.82271700  1
  O  O19  1  0.75485000  0.76341000  0.48745700  1
  O  O20  1  0.39961400  0.39571200  0.16266700  1
  O  O21  1  0.92845000  0.92384000  0.67728300  1
  O  O22  1  0.60428800  0.60038600  0.33733300  1
  O  O23  1  0.23659000  0.24515000  0.01254300  1
  O  O24  1  0.38467700  0.92645900  0.67159800  1
  O  O25  1  0.05182500  0.59540600  0.34305800  1
  O  O26  1  0.70479600  0.25117200  0.00406400  1
  O  O27  1  0.07354100  0.61532300  0.82840200  1
  O  O28  1  0.74882800  0.29520400  0.49593600  1
  O  O29  1  0.40459400  0.94817500  0.15694200  1
  O  O30  1  0.24515000  0.23659000  0.51254300  1
  O  O31  1  0.92384000  0.92845000  0.17728300  1
  O  O32  1  0.60038600  0.60428800  0.83733300  1
  O  O33  1  0.39571200  0.39961400  0.66266700  1
  O  O34  1  0.07155000  0.07616100  0.32271700  1
  O  O35  1  0.76341000  0.75485000  0.98745700  1
  O  O36  1  0.94817500  0.40459400  0.65694200  1
  O  O37  1  0.61532300  0.07354100  0.32840200  1
  O  O38  1  0.29520400  0.74882800  0.99593600  1
  O  O39  1  0.25117200  0.70479600  0.50406400  1
  O  O40  1  0.92645900  0.38467700  0.17159800  1
  O  O41  1  0.59540600  0.05182500  0.84305800  1
