# generated using pymatgen
data_TmSiIr
_symmetry_space_group_name_H-M   'P 1'
_cell_length_a   4.19231800
_cell_length_b   6.74483500
_cell_length_c   7.44927200
_cell_angle_alpha   90.00000000
_cell_angle_beta   90.00000000
_cell_angle_gamma   90.00000000
_symmetry_Int_Tables_number   1
_chemical_formula_structural   TmSiIr
_chemical_formula_sum   'Tm4 Si4 Ir4'
_cell_volume   210.63928889
_cell_formula_units_Z   4
loop_
 _symmetry_equiv_pos_site_id
 _symmetry_equiv_pos_as_xyz
  1  'x, y, z'
loop_
 _atom_site_type_symbol
 _atom_site_label
 _atom_site_symmetry_multiplicity
 _atom_site_fract_x
 _atom_site_fract_y
 _atom_site_fract_z
 _atom_site_occupancy
  Tm  Tm0  1  0.25000000  0.50599800  0.18761300  1
  Tm  Tm1  1  0.75000000  0.49400200  0.81238700  1
  Tm  Tm2  1  0.75000000  0.99400200  0.68761300  1
  Tm  Tm3  1  0.25000000  0.00599800  0.31238700  1
  Si  Si4  1  0.25000000  0.79561900  0.88657100  1
  Si  Si5  1  0.75000000  0.20438100  0.11342900  1
  Si  Si6  1  0.75000000  0.70438100  0.38657100  1
  Si  Si7  1  0.25000000  0.29561900  0.61342900  1
  Ir  Ir8  1  0.25000000  0.65807800  0.56375300  1
  Ir  Ir9  1  0.75000000  0.34192200  0.43624700  1
  Ir  Ir10  1  0.75000000  0.84192200  0.06375300  1
  Ir  Ir11  1  0.25000000  0.15807800  0.93624700  1
