# generated using pymatgen
data_LaAl2Ag3
_symmetry_space_group_name_H-M   'P 1'
_cell_length_a   5.60920741
_cell_length_b   5.60920741
_cell_length_c   4.57215200
_cell_angle_alpha   90.00000000
_cell_angle_beta   90.00000000
_cell_angle_gamma   120.96102961
_symmetry_Int_Tables_number   1
_chemical_formula_structural   LaAl2Ag3
_chemical_formula_sum   'La1 Al2 Ag3'
_cell_volume   123.35779718
_cell_formula_units_Z   1
loop_
 _symmetry_equiv_pos_site_id
 _symmetry_equiv_pos_as_xyz
  1  'x, y, z'
loop_
 _atom_site_type_symbol
 _atom_site_label
 _atom_site_symmetry_multiplicity
 _atom_site_fract_x
 _atom_site_fract_y
 _atom_site_fract_z
 _atom_site_occupancy
  La  La0  1  0.00000000  0.00000000  0.00000000  1
  Al  Al1  1  0.50000000  0.00000000  0.50000000  1
  Al  Al2  1  0.00000000  0.50000000  0.50000000  1
  Ag  Ag3  1  0.67509900  0.32490100  0.00000000  1
  Ag  Ag4  1  0.32490100  0.67509900  0.00000000  1
  Ag  Ag5  1  0.50000000  0.50000000  0.50000000  1
