# generated using pymatgen
data_Ce5Ge4
_symmetry_space_group_name_H-M   'P 1'
_cell_length_a   7.83285400
_cell_length_b   7.92572200
_cell_length_c   14.93257500
_cell_angle_alpha   90.00000000
_cell_angle_beta   90.00000000
_cell_angle_gamma   90.00000000
_symmetry_Int_Tables_number   1
_chemical_formula_structural   Ce5Ge4
_chemical_formula_sum   'Ce20 Ge16'
_cell_volume   927.02953606
_cell_formula_units_Z   4
loop_
 _symmetry_equiv_pos_site_id
 _symmetry_equiv_pos_as_xyz
  1  'x, y, z'
loop_
 _atom_site_type_symbol
 _atom_site_label
 _atom_site_symmetry_multiplicity
 _atom_site_fract_x
 _atom_site_fract_y
 _atom_site_fract_z
 _atom_site_occupancy
  Ce  Ce0  1  0.61300900  0.16360800  0.61822800  1
  Ce  Ce1  1  0.11300900  0.33639200  0.88177200  1
  Ce  Ce2  1  0.38699100  0.83639200  0.11822800  1
  Ce  Ce3  1  0.88699100  0.66360800  0.38177200  1
  Ce  Ce4  1  0.38699100  0.83639200  0.38177200  1
  Ce  Ce5  1  0.88699100  0.66360800  0.11822800  1
  Ce  Ce6  1  0.61300900  0.16360800  0.88177200  1
  Ce  Ce7  1  0.11300900  0.33639200  0.61822800  1
  Ce  Ce8  1  0.47619700  0.68565800  0.60154100  1
  Ce  Ce9  1  0.97619700  0.81434200  0.89845900  1
  Ce  Ce10  1  0.52380300  0.31434200  0.10154100  1
  Ce  Ce11  1  0.02380300  0.18565800  0.39845900  1
  Ce  Ce12  1  0.52380300  0.31434200  0.39845900  1
  Ce  Ce13  1  0.02380300  0.18565800  0.10154100  1
  Ce  Ce14  1  0.47619700  0.68565800  0.89845900  1
  Ce  Ce15  1  0.97619700  0.81434200  0.60154100  1
  Ce  Ce16  1  0.79817300  0.49491300  0.75000000  1
  Ce  Ce17  1  0.29817300  0.00508700  0.75000000  1
  Ce  Ce18  1  0.20182700  0.50508700  0.25000000  1
  Ce  Ce19  1  0.70182700  0.99491300  0.25000000  1
  Ge  Ge20  1  0.72293200  0.96833100  0.45749700  1
  Ge  Ge21  1  0.22293200  0.53166900  0.04250300  1
  Ge  Ge22  1  0.27706800  0.03166900  0.95749700  1
  Ge  Ge23  1  0.77706800  0.46833100  0.54250300  1
  Ge  Ge24  1  0.27706800  0.03166900  0.54250300  1
  Ge  Ge25  1  0.77706800  0.46833100  0.95749700  1
  Ge  Ge26  1  0.72293200  0.96833100  0.04250300  1
  Ge  Ge27  1  0.22293200  0.53166900  0.45749700  1
  Ge  Ge28  1  0.41716000  0.39160300  0.75000000  1
  Ge  Ge29  1  0.91716000  0.10839700  0.75000000  1
  Ge  Ge30  1  0.58284000  0.60839700  0.25000000  1
  Ge  Ge31  1  0.08284000  0.89160300  0.25000000  1
  Ge  Ge32  1  0.67887800  0.86448200  0.75000000  1
  Ge  Ge33  1  0.17887800  0.63551800  0.75000000  1
  Ge  Ge34  1  0.32112200  0.13551800  0.25000000  1
  Ge  Ge35  1  0.82112200  0.36448200  0.25000000  1
