# generated using pymatgen
data_SmGa3Pd
_symmetry_space_group_name_H-M   'P 1'
_cell_length_a   6.18998403
_cell_length_b   6.18998403
_cell_length_c   6.18998403
_cell_angle_alpha   140.31190627
_cell_angle_beta   140.31190627
_cell_angle_gamma   57.38001837
_symmetry_Int_Tables_number   1
_chemical_formula_structural   SmGa3Pd
_chemical_formula_sum   'Sm1 Ga3 Pd1'
_cell_volume   95.90077423
_cell_formula_units_Z   1
loop_
 _symmetry_equiv_pos_site_id
 _symmetry_equiv_pos_as_xyz
  1  'x, y, z'
loop_
 _atom_site_type_symbol
 _atom_site_label
 _atom_site_symmetry_multiplicity
 _atom_site_fract_x
 _atom_site_fract_y
 _atom_site_fract_z
 _atom_site_occupancy
  Sm  Sm0  1  0.00000000  0.00000000  0.00000000  1
  Ga  Ga1  1  0.61392000  0.61392000  0.00000000  1
  Ga  Ga2  1  0.38608000  0.38608000  0.00000000  1
  Ga  Ga3  1  0.75000000  0.25000000  0.50000000  1
  Pd  Pd4  1  0.25000000  0.75000000  0.50000000  1
