# generated using pymatgen
data_Cs3Ho2Br9
_symmetry_space_group_name_H-M   'P 1'
_cell_length_a   10.49686362
_cell_length_b   10.49686362
_cell_length_c   10.49686356
_cell_angle_alpha   83.50264038
_cell_angle_beta   83.50264038
_cell_angle_gamma   83.50264799
_symmetry_Int_Tables_number   1
_chemical_formula_structural   Cs3Ho2Br9
_chemical_formula_sum   'Cs6 Ho4 Br18'
_cell_volume   1135.86363469
_cell_formula_units_Z   2
loop_
 _symmetry_equiv_pos_site_id
 _symmetry_equiv_pos_as_xyz
  1  'x, y, z'
loop_
 _atom_site_type_symbol
 _atom_site_label
 _atom_site_symmetry_multiplicity
 _atom_site_fract_x
 _atom_site_fract_y
 _atom_site_fract_z
 _atom_site_occupancy
  Cs  Cs0  1  0.58828100  0.91171900  0.25000000  1
  Cs  Cs1  1  0.25000000  0.58828100  0.91171900  1
  Cs  Cs2  1  0.91171900  0.25000000  0.58828100  1
  Cs  Cs3  1  0.75000000  0.41171900  0.08828100  1
  Cs  Cs4  1  0.08828100  0.75000000  0.41171900  1
  Cs  Cs5  1  0.41171900  0.08828100  0.75000000  1
  Ho  Ho6  1  0.84660300  0.84660300  0.84660300  1
  Ho  Ho7  1  0.34660300  0.34660300  0.34660300  1
  Ho  Ho8  1  0.15339700  0.15339700  0.15339700  1
  Ho  Ho9  1  0.65339700  0.65339700  0.65339700  1
  Br  Br10  1  0.09557300  0.40442700  0.25000000  1
  Br  Br11  1  0.25000000  0.09557300  0.40442700  1
  Br  Br12  1  0.40442700  0.25000000  0.09557300  1
  Br  Br13  1  0.75000000  0.90442700  0.59557300  1
  Br  Br14  1  0.59557300  0.75000000  0.90442700  1
  Br  Br15  1  0.90442700  0.59557300  0.75000000  1
  Br  Br16  1  0.23601600  0.41525100  0.57839900  1
  Br  Br17  1  0.57839900  0.23601600  0.41525100  1
  Br  Br18  1  0.41525100  0.57839900  0.23601600  1
  Br  Br19  1  0.07839900  0.91525100  0.73601600  1
  Br  Br20  1  0.73601600  0.07839900  0.91525100  1
  Br  Br21  1  0.91525100  0.73601600  0.07839900  1
  Br  Br22  1  0.76398400  0.58474900  0.42160100  1
  Br  Br23  1  0.42160100  0.76398400  0.58474900  1
  Br  Br24  1  0.58474900  0.42160100  0.76398400  1
  Br  Br25  1  0.92160100  0.08474900  0.26398400  1
  Br  Br26  1  0.26398400  0.92160100  0.08474900  1
  Br  Br27  1  0.08474900  0.26398400  0.92160100  1
