# generated using pymatgen
data_RbErBeF6
_symmetry_space_group_name_H-M   'P 1'
_cell_length_a   5.85754100
_cell_length_b   6.52466300
_cell_length_c   7.18260651
_cell_angle_alpha   66.33834970
_cell_angle_beta   90.00000000
_cell_angle_gamma   90.00000000
_symmetry_Int_Tables_number   1
_chemical_formula_structural   RbErBeF6
_chemical_formula_sum   'Rb2 Er2 Be2 F12'
_cell_volume   251.43078756
_cell_formula_units_Z   2
loop_
 _symmetry_equiv_pos_site_id
 _symmetry_equiv_pos_as_xyz
  1  'x, y, z'
loop_
 _atom_site_type_symbol
 _atom_site_label
 _atom_site_symmetry_multiplicity
 _atom_site_fract_x
 _atom_site_fract_y
 _atom_site_fract_z
 _atom_site_occupancy
  Rb  Rb0  1  0.25000000  0.07694200  0.79044400  1
  Rb  Rb1  1  0.75000000  0.92305800  0.20955600  1
  Er  Er2  1  0.25000000  0.39069800  0.17977300  1
  Er  Er3  1  0.75000000  0.60930200  0.82022700  1
  Be  Be4  1  0.25000000  0.76599000  0.46472500  1
  Be  Be5  1  0.75000000  0.23401000  0.53527500  1
  F  F6  1  0.46598800  0.76042600  0.59669400  1
  F  F7  1  0.53401200  0.23957400  0.40330600  1
  F  F8  1  0.96598800  0.23957400  0.40330600  1
  F  F9  1  0.03401200  0.76042600  0.59669400  1
  F  F10  1  0.25000000  0.56594500  0.40048200  1
  F  F11  1  0.75000000  0.43405500  0.59951800  1
  F  F12  1  0.49919600  0.67288000  0.03217400  1
  F  F13  1  0.50080400  0.32712000  0.96782600  1
  F  F14  1  0.99919600  0.32712000  0.96782600  1
  F  F15  1  0.00080400  0.67288000  0.03217400  1
  F  F16  1  0.25000000  0.99276100  0.26900500  1
  F  F17  1  0.75000000  0.00723900  0.73099500  1
