# generated using pymatgen
data_NbS3
_symmetry_space_group_name_H-M   'P 1'
_cell_length_a   3.38075800
_cell_length_b   9.81880100
_cell_length_c   14.99522483
_cell_angle_alpha   71.46909633
_cell_angle_beta   90.00000000
_cell_angle_gamma   90.00000000
_symmetry_Int_Tables_number   1
_chemical_formula_structural   NbS3
_chemical_formula_sum   'Nb6 S18'
_cell_volume   471.95833508
_cell_formula_units_Z   6
loop_
 _symmetry_equiv_pos_site_id
 _symmetry_equiv_pos_as_xyz
  1  'x, y, z'
loop_
 _atom_site_type_symbol
 _atom_site_label
 _atom_site_symmetry_multiplicity
 _atom_site_fract_x
 _atom_site_fract_y
 _atom_site_fract_z
 _atom_site_occupancy
  Nb  Nb0  1  0.25000000  0.47301200  0.88337600  1
  Nb  Nb1  1  0.75000000  0.52698800  0.11662400  1
  Nb  Nb2  1  0.75000000  0.88773800  0.79386900  1
  Nb  Nb3  1  0.25000000  0.11226200  0.20613100  1
  Nb  Nb4  1  0.25000000  0.15973700  0.54000400  1
  Nb  Nb5  1  0.75000000  0.84026300  0.45999600  1
  S  S6  1  0.75000000  0.27023100  0.90411400  1
  S  S7  1  0.25000000  0.72976900  0.09588600  1
  S  S8  1  0.75000000  0.42708100  0.76944900  1
  S  S9  1  0.25000000  0.57291900  0.23055100  1
  S  S10  1  0.75000000  0.33438700  0.56816800  1
  S  S11  1  0.25000000  0.66561300  0.43183200  1
  S  S12  1  0.75000000  0.32577600  0.43143900  1
  S  S13  1  0.25000000  0.67422400  0.56856100  1
  S  S14  1  0.75000000  0.62476400  0.93390800  1
  S  S15  1  0.25000000  0.37523600  0.06609200  1
  S  S16  1  0.25000000  0.90919800  0.91050400  1
  S  S17  1  0.75000000  0.09080200  0.08949600  1
  S  S18  1  0.25000000  0.08815700  0.72215000  1
  S  S19  1  0.75000000  0.91184300  0.27785000  1
  S  S20  1  0.25000000  0.72303500  0.75198400  1
  S  S21  1  0.75000000  0.27696500  0.24801600  1
  S  S22  1  0.75000000  0.95955700  0.59438400  1
  S  S23  1  0.25000000  0.04044300  0.40561600  1
