# generated using pymatgen
data_TbTaO4
_symmetry_space_group_name_H-M   'P 1'
_cell_length_a   5.53512200
_cell_length_b   5.17112800
_cell_length_c   5.36299280
_cell_angle_alpha   83.34409446
_cell_angle_beta   90.00000000
_cell_angle_gamma   90.00000000
_symmetry_Int_Tables_number   1
_chemical_formula_structural   TbTaO4
_chemical_formula_sum   'Tb2 Ta2 O8'
_cell_volume   152.46940606
_cell_formula_units_Z   2
loop_
 _symmetry_equiv_pos_site_id
 _symmetry_equiv_pos_as_xyz
  1  'x, y, z'
loop_
 _atom_site_type_symbol
 _atom_site_label
 _atom_site_symmetry_multiplicity
 _atom_site_fract_x
 _atom_site_fract_y
 _atom_site_fract_z
 _atom_site_occupancy
  Tb  Tb0  1  0.76661800  0.00000000  0.75000000  1
  Tb  Tb1  1  0.23338200  0.00000000  0.25000000  1
  Ta  Ta2  1  0.69212000  0.50000000  0.25000000  1
  Ta  Ta3  1  0.30788000  0.50000000  0.75000000  1
  O  O4  1  0.56408800  0.26941500  0.00558200  1
  O  O5  1  0.56408800  0.73058500  0.49441800  1
  O  O6  1  0.43591200  0.73058500  0.99441800  1
  O  O7  1  0.43591200  0.26941500  0.50558200  1
  O  O8  1  0.08663200  0.74952900  0.60202100  1
  O  O9  1  0.08663200  0.25047100  0.89797900  1
  O  O10  1  0.91336800  0.25047100  0.39797900  1
  O  O11  1  0.91336800  0.74952900  0.10202100  1
