# generated using pymatgen
data_KMn2P2HO9
_symmetry_space_group_name_H-M   'P 1'
_cell_length_a   6.35062666
_cell_length_b   7.02039800
_cell_length_c   8.97091267
_cell_angle_alpha   90.00000000
_cell_angle_beta   107.23019624
_cell_angle_gamma   90.00000000
_symmetry_Int_Tables_number   1
_chemical_formula_structural   KMn2P2HO9
_chemical_formula_sum   'K2 Mn4 P4 H2 O18'
_cell_volume   382.00932883
_cell_formula_units_Z   2
loop_
 _symmetry_equiv_pos_site_id
 _symmetry_equiv_pos_as_xyz
  1  'x, y, z'
loop_
 _atom_site_type_symbol
 _atom_site_label
 _atom_site_symmetry_multiplicity
 _atom_site_fract_x
 _atom_site_fract_y
 _atom_site_fract_z
 _atom_site_occupancy
  K  K0  1  0.95037100  0.25000000  0.82921600  1
  K  K1  1  0.04962900  0.75000000  0.17078400  1
  Mn  Mn2  1  0.50000000  0.50000000  0.00000000  1
  Mn  Mn3  1  0.50000000  0.00000000  0.00000000  1
  Mn  Mn4  1  0.45960900  0.25000000  0.28665700  1
  Mn  Mn5  1  0.54039100  0.75000000  0.71334300  1
  P  P6  1  0.88649800  0.25000000  0.18955600  1
  P  P7  1  0.11350200  0.75000000  0.81044400  1
  P  P8  1  0.43448100  0.25000000  0.65583500  1
  P  P9  1  0.56551900  0.75000000  0.34416500  1
  H  H10  1  0.08693600  0.25000000  0.49948400  1
  H  H11  1  0.91306400  0.75000000  0.50051600  1
  O  O12  1  0.78574200  0.25000000  0.32769100  1
  O  O13  1  0.21425800  0.75000000  0.67230900  1
  O  O14  1  0.41675300  0.25000000  0.06239200  1
  O  O15  1  0.58324700  0.75000000  0.93760800  1
  O  O16  1  0.51333700  0.25000000  0.51039600  1
  O  O17  1  0.48666300  0.75000000  0.48960400  1
  O  O18  1  0.13764500  0.25000000  0.25851800  1
  O  O19  1  0.86235500  0.75000000  0.74148200  1
  O  O20  1  0.17121000  0.25000000  0.61095800  1
  O  O21  1  0.82879000  0.75000000  0.38904200  1
  O  O22  1  0.81358400  0.43070400  0.08484400  1
  O  O23  1  0.18641600  0.93070400  0.91515600  1
  O  O24  1  0.18641600  0.56929600  0.91515600  1
  O  O25  1  0.81358400  0.06929600  0.08484400  1
  O  O26  1  0.51984300  0.42812800  0.75673900  1
  O  O27  1  0.48015700  0.92812800  0.24326100  1
  O  O28  1  0.48015700  0.57187200  0.24326100  1
  O  O29  1  0.51984300  0.07187200  0.75673900  1
