# generated using pymatgen
data_YB6(HO4)3
_symmetry_space_group_name_H-M   'P 1'
_cell_length_a   8.45310450
_cell_length_b   8.45310450
_cell_length_c   8.45310503
_cell_angle_alpha   60.58577288
_cell_angle_beta   60.58577288
_cell_angle_gamma   60.58577974
_symmetry_Int_Tables_number   1
_chemical_formula_structural   YB6(HO4)3
_chemical_formula_sum   'Y2 B12 H6 O24'
_cell_volume   432.75512431
_cell_formula_units_Z   2
loop_
 _symmetry_equiv_pos_site_id
 _symmetry_equiv_pos_as_xyz
  1  'x, y, z'
loop_
 _atom_site_type_symbol
 _atom_site_label
 _atom_site_symmetry_multiplicity
 _atom_site_fract_x
 _atom_site_fract_y
 _atom_site_fract_z
 _atom_site_occupancy
  Y  Y0  1  0.53435700  0.53435700  0.53435700  1
  Y  Y1  1  0.03435700  0.03435700  0.03435700  1
  B  B2  1  0.63484100  0.41149400  0.15654100  1
  B  B3  1  0.41149400  0.15654100  0.63484100  1
  B  B4  1  0.15654100  0.63484100  0.41149400  1
  B  B5  1  0.13484100  0.65654100  0.91149400  1
  B  B6  1  0.65654100  0.91149400  0.13484100  1
  B  B7  1  0.91149400  0.13484100  0.65654100  1
  B  B8  1  0.44727400  0.74600200  0.16151100  1
  B  B9  1  0.74600200  0.16151100  0.44727400  1
  B  B10  1  0.16151100  0.44727400  0.74600200  1
  B  B11  1  0.94727400  0.66151100  0.24600200  1
  B  B12  1  0.66151100  0.24600200  0.94727400  1
  B  B13  1  0.24600200  0.94727400  0.66151100  1
  H  H14  1  0.53266300  0.88419500  0.53209800  1
  H  H15  1  0.88419500  0.53209800  0.53266300  1
  H  H16  1  0.53209800  0.53266300  0.88419500  1
  H  H17  1  0.03266300  0.03209800  0.38419500  1
  H  H18  1  0.03209800  0.38419500  0.03266300  1
  H  H19  1  0.38419500  0.03266300  0.03209800  1
  O  O20  1  0.19730300  0.59234400  0.76229800  1
  O  O21  1  0.59234400  0.76229800  0.19730300  1
  O  O22  1  0.76229800  0.19730300  0.59234400  1
  O  O23  1  0.69730300  0.26229800  0.09234400  1
  O  O24  1  0.26229800  0.09234400  0.69730300  1
  O  O25  1  0.09234400  0.69730300  0.26229800  1
  O  O26  1  0.43276800  0.84104000  0.55171800  1
  O  O27  1  0.84104000  0.55171800  0.43276800  1
  O  O28  1  0.55171800  0.43276800  0.84104000  1
  O  O29  1  0.93276800  0.05171800  0.34104000  1
  O  O30  1  0.05171800  0.34104000  0.93276800  1
  O  O31  1  0.34104000  0.93276800  0.05171800  1
  O  O32  1  0.31862200  0.67421700  0.36361000  1
  O  O33  1  0.67421700  0.36361000  0.31862200  1
  O  O34  1  0.36361000  0.31862200  0.67421700  1
  O  O35  1  0.81862200  0.86361000  0.17421700  1
  O  O36  1  0.86361000  0.17421700  0.81862200  1
  O  O37  1  0.17421700  0.81862200  0.86361000  1
  O  O38  1  0.53701600  0.59742700  0.06955700  1
  O  O39  1  0.59742700  0.06955700  0.53701600  1
  O  O40  1  0.06955700  0.53701600  0.59742700  1
  O  O41  1  0.03701600  0.56955700  0.09742700  1
  O  O42  1  0.56955700  0.09742700  0.03701600  1
  O  O43  1  0.09742700  0.03701600  0.56955700  1
