# generated using pymatgen
data_ZnP2PbO7
_symmetry_space_group_name_H-M   'P 1'
_cell_length_a   8.41694300
_cell_length_b   5.40856900
_cell_length_c   14.12864630
_cell_angle_alpha   67.86445337
_cell_angle_beta   90.00000000
_cell_angle_gamma   90.00000000
_symmetry_Int_Tables_number   1
_chemical_formula_structural   ZnP2PbO7
_chemical_formula_sum   'Zn4 P8 Pb4 O28'
_cell_volume   595.78100494
_cell_formula_units_Z   4
loop_
 _symmetry_equiv_pos_site_id
 _symmetry_equiv_pos_as_xyz
  1  'x, y, z'
loop_
 _atom_site_type_symbol
 _atom_site_label
 _atom_site_symmetry_multiplicity
 _atom_site_fract_x
 _atom_site_fract_y
 _atom_site_fract_z
 _atom_site_occupancy
  Zn  Zn0  1  0.34799000  0.27619100  0.39579100  1
  Zn  Zn1  1  0.65201000  0.72380900  0.60420900  1
  Zn  Zn2  1  0.15201000  0.27619100  0.89579100  1
  Zn  Zn3  1  0.84799000  0.72380900  0.10420900  1
  P  P4  1  0.79966700  0.33753600  0.97975900  1
  P  P5  1  0.70033300  0.33753600  0.47975900  1
  P  P6  1  0.20033300  0.66246400  0.02024100  1
  P  P7  1  0.29966700  0.66246400  0.52024100  1
  P  P8  1  0.53633100  0.41862600  0.83314500  1
  P  P9  1  0.96366900  0.41862600  0.33314500  1
  P  P10  1  0.46366900  0.58137400  0.16685500  1
  P  P11  1  0.03633100  0.58137400  0.66685500  1
  Pb  Pb12  1  0.32701900  0.98107500  0.72272600  1
  Pb  Pb13  1  0.82701900  0.01892500  0.77727400  1
  Pb  Pb14  1  0.67298100  0.01892500  0.27727400  1
  Pb  Pb15  1  0.17298100  0.98107500  0.22272600  1
  O  O16  1  0.55932700  0.18462000  0.79852400  1
  O  O17  1  0.05932700  0.81538000  0.70147600  1
  O  O18  1  0.44067300  0.81538000  0.20147600  1
  O  O19  1  0.94067300  0.18462000  0.29852400  1
  O  O20  1  0.36185200  0.48053300  0.84587000  1
  O  O21  1  0.86185200  0.51946700  0.65413000  1
  O  O22  1  0.63814800  0.51946700  0.15413000  1
  O  O23  1  0.13814800  0.48053300  0.34587000  1
  O  O24  1  0.61909400  0.67556800  0.76086600  1
  O  O25  1  0.11909400  0.32443200  0.73913400  1
  O  O26  1  0.38090600  0.32443200  0.23913400  1
  O  O27  1  0.88090600  0.67556800  0.26086600  1
  O  O28  1  0.90291700  0.27895100  0.90025800  1
  O  O29  1  0.40291700  0.72104900  0.59974200  1
  O  O30  1  0.09708300  0.72104900  0.09974200  1
  O  O31  1  0.59708300  0.27895100  0.40025800  1
  O  O32  1  0.69281900  0.10988200  0.58562000  1
  O  O33  1  0.19281900  0.89011800  0.91438000  1
  O  O34  1  0.30718100  0.89011800  0.41438000  1
  O  O35  1  0.80718100  0.10988200  0.08562000  1
  O  O36  1  0.88440600  0.33519400  0.44497700  1
  O  O37  1  0.38440600  0.66480600  0.05502300  1
  O  O38  1  0.11559400  0.66480600  0.55502300  1
  O  O39  1  0.61559400  0.33519400  0.94497700  1
  O  O40  1  0.66825200  0.61677000  0.47989500  1
  O  O41  1  0.16825200  0.38323000  0.02010500  1
  O  O42  1  0.33174800  0.38323000  0.52010500  1
  O  O43  1  0.83174800  0.61677000  0.97989500  1
