# generated using pymatgen
data_BSbPbS4
_symmetry_space_group_name_H-M   'P 1'
_cell_length_a   6.17972178
_cell_length_b   6.26592500
_cell_length_c   9.57214524
_cell_angle_alpha   90.00000000
_cell_angle_beta   107.99172932
_cell_angle_gamma   90.00000000
_symmetry_Int_Tables_number   1
_chemical_formula_structural   BSbPbS4
_chemical_formula_sum   'B2 Sb2 Pb2 S8'
_cell_volume   352.52513282
_cell_formula_units_Z   2
loop_
 _symmetry_equiv_pos_site_id
 _symmetry_equiv_pos_as_xyz
  1  'x, y, z'
loop_
 _atom_site_type_symbol
 _atom_site_label
 _atom_site_symmetry_multiplicity
 _atom_site_fract_x
 _atom_site_fract_y
 _atom_site_fract_z
 _atom_site_occupancy
  B  B0  1  0.16940300  0.25000300  0.19888700  1
  B  B1  1  0.83059700  0.75000300  0.80111300  1
  Sb  Sb2  1  0.69013100  0.24999800  0.83445800  1
  Sb  Sb3  1  0.30986900  0.74999800  0.16554200  1
  Pb  Pb4  1  0.72922600  0.30163600  0.43814600  1
  Pb  Pb5  1  0.27077400  0.80163600  0.56185400  1
  S  S6  1  0.40561100  0.24322600  0.58502900  1
  S  S7  1  0.59438900  0.74322600  0.41497100  1
  S  S8  1  0.02174400  0.49453000  0.21509400  1
  S  S9  1  0.97825600  0.99453000  0.78490600  1
  S  S10  1  0.97595500  0.50470500  0.78173800  1
  S  S11  1  0.02404500  0.00470500  0.21826200  1
  S  S12  1  0.43399400  0.24810200  0.15610100  1
  S  S13  1  0.56600600  0.74810200  0.84389900  1
