# generated using pymatgen
data_MnGa4
_symmetry_space_group_name_H-M   'P 1'
_cell_length_a   4.86445950
_cell_length_b   4.86445950
_cell_length_c   4.86445950
_cell_angle_alpha   109.47122063
_cell_angle_beta   109.47122063
_cell_angle_gamma   109.47122063
_symmetry_Int_Tables_number   1
_chemical_formula_structural   MnGa4
_chemical_formula_sum   'Mn1 Ga4'
_cell_volume   88.60982610
_cell_formula_units_Z   1
loop_
 _symmetry_equiv_pos_site_id
 _symmetry_equiv_pos_as_xyz
  1  'x, y, z'
loop_
 _atom_site_type_symbol
 _atom_site_label
 _atom_site_symmetry_multiplicity
 _atom_site_fract_x
 _atom_site_fract_y
 _atom_site_fract_z
 _atom_site_occupancy
  Mn  Mn0  1  0.00000000  0.00000000  0.00000000  1
  Ga  Ga1  1  0.00000000  0.00000000  0.50000000  1
  Ga  Ga2  1  0.00000000  0.50000000  0.00000000  1
  Ga  Ga3  1  0.50000000  0.00000000  0.00000000  1
  Ga  Ga4  1  0.50000000  0.50000000  0.50000000  1
