# generated using pymatgen
data_Sr2Nd(FeO3)3
_symmetry_space_group_name_H-M   'P 1'
_cell_length_a   5.53971834
_cell_length_b   5.53971834
_cell_length_c   13.49056496
_cell_angle_alpha   89.98127728
_cell_angle_beta   89.98127728
_cell_angle_gamma   60.45245039
_symmetry_Int_Tables_number   1
_chemical_formula_structural   Sr2Nd(FeO3)3
_chemical_formula_sum   'Sr4 Nd2 Fe6 O18'
_cell_volume   360.16220528
_cell_formula_units_Z   2
loop_
 _symmetry_equiv_pos_site_id
 _symmetry_equiv_pos_as_xyz
  1  'x, y, z'
loop_
 _atom_site_type_symbol
 _atom_site_label
 _atom_site_symmetry_multiplicity
 _atom_site_fract_x
 _atom_site_fract_y
 _atom_site_fract_z
 _atom_site_occupancy
  Sr  Sr0  1  0.33059100  0.33581100  0.41671900  1
  Sr  Sr1  1  0.66418900  0.66940900  0.08328100  1
  Sr  Sr2  1  0.33581100  0.33059100  0.91671900  1
  Sr  Sr3  1  0.66940900  0.66418900  0.58328100  1
  Nd  Nd4  1  0.99970500  0.00029500  0.75000000  1
  Nd  Nd5  1  0.00029500  0.99970500  0.25000000  1
  Fe  Fe6  1  0.33389500  0.33279200  0.66586100  1
  Fe  Fe7  1  0.66610500  0.66720800  0.33413900  1
  Fe  Fe8  1  0.00000000  0.00000000  0.00000000  1
  Fe  Fe9  1  0.00000000  0.00000000  0.50000000  1
  Fe  Fe10  1  0.33279200  0.33389500  0.16586100  1
  Fe  Fe11  1  0.66720800  0.66610500  0.83413900  1
  O  O12  1  0.11858300  0.20552700  0.08855400  1
  O  O13  1  0.44187500  0.55812500  0.75000000  1
  O  O14  1  0.79447300  0.88141700  0.41144600  1
  O  O15  1  0.20552700  0.11858300  0.58855400  1
  O  O16  1  0.55812500  0.44187500  0.25000000  1
  O  O17  1  0.88141700  0.79447300  0.91144600  1
  O  O18  1  0.01387500  0.53434700  0.25599500  1
  O  O19  1  0.34496100  0.84794600  0.92072500  1
  O  O20  1  0.69279900  0.17335500  0.59419700  1
  O  O21  1  0.46565300  0.98612500  0.24400500  1
  O  O22  1  0.82664500  0.30720100  0.90580300  1
  O  O23  1  0.15205400  0.65503900  0.57927500  1
  O  O24  1  0.84794600  0.34496100  0.42072500  1
  O  O25  1  0.17335500  0.69279900  0.09419700  1
  O  O26  1  0.53434700  0.01387500  0.75599500  1
  O  O27  1  0.30720100  0.82664500  0.40580300  1
  O  O28  1  0.65503900  0.15205400  0.07927500  1
  O  O29  1  0.98612500  0.46565300  0.74400500  1
