# generated using pymatgen
data_Ba(ErS2)2
_symmetry_space_group_name_H-M   'P 1'
_cell_length_a   4.02101200
_cell_length_b   12.25525000
_cell_length_c   14.47669200
_cell_angle_alpha   90.00000000
_cell_angle_beta   90.00000000
_cell_angle_gamma   90.00000000
_symmetry_Int_Tables_number   1
_chemical_formula_structural   Ba(ErS2)2
_chemical_formula_sum   'Ba4 Er8 S16'
_cell_volume   713.38977259
_cell_formula_units_Z   4
loop_
 _symmetry_equiv_pos_site_id
 _symmetry_equiv_pos_as_xyz
  1  'x, y, z'
loop_
 _atom_site_type_symbol
 _atom_site_label
 _atom_site_symmetry_multiplicity
 _atom_site_fract_x
 _atom_site_fract_y
 _atom_site_fract_z
 _atom_site_occupancy
  Ba  Ba0  1  0.25000000  0.24183500  0.33737800  1
  Ba  Ba1  1  0.25000000  0.74183500  0.16262200  1
  Ba  Ba2  1  0.75000000  0.75816500  0.66262200  1
  Ba  Ba3  1  0.75000000  0.25816500  0.83737800  1
  Er  Er4  1  0.25000000  0.07880100  0.60109400  1
  Er  Er5  1  0.25000000  0.57880100  0.89890600  1
  Er  Er6  1  0.75000000  0.92119900  0.39890600  1
  Er  Er7  1  0.75000000  0.42119900  0.10109400  1
  Er  Er8  1  0.25000000  0.56629500  0.39166200  1
  Er  Er9  1  0.25000000  0.06629500  0.10833800  1
  Er  Er10  1  0.75000000  0.43370500  0.60833800  1
  Er  Er11  1  0.75000000  0.93370500  0.89166200  1
  S  S12  1  0.25000000  0.08125700  0.92350700  1
  S  S13  1  0.25000000  0.58125700  0.57649300  1
  S  S14  1  0.75000000  0.91874300  0.07649300  1
  S  S15  1  0.75000000  0.41874300  0.42350700  1
  S  S16  1  0.25000000  0.29324300  0.66155600  1
  S  S17  1  0.25000000  0.79324300  0.83844400  1
  S  S18  1  0.75000000  0.70675700  0.33844400  1
  S  S19  1  0.75000000  0.20675700  0.16155600  1
  S  S20  1  0.25000000  0.37635300  0.97689200  1
  S  S21  1  0.25000000  0.87635300  0.52310800  1
  S  S22  1  0.75000000  0.62364700  0.02310800  1
  S  S23  1  0.75000000  0.12364700  0.47689200  1
  S  S24  1  0.25000000  0.47704300  0.21673900  1
  S  S25  1  0.25000000  0.97704300  0.28326100  1
  S  S26  1  0.75000000  0.52295700  0.78326100  1
  S  S27  1  0.75000000  0.02295700  0.71673900  1
