# generated using pymatgen
data_Ba3Fe2TeO9
_symmetry_space_group_name_H-M   'P 1'
_cell_length_a   5.86328186
_cell_length_b   5.86328186
_cell_length_c   14.46009800
_cell_angle_alpha   90.00000000
_cell_angle_beta   90.00000000
_cell_angle_gamma   119.99999842
_symmetry_Int_Tables_number   1
_chemical_formula_structural   Ba3Fe2TeO9
_chemical_formula_sum   'Ba6 Fe4 Te2 O18'
_cell_volume   430.51017380
_cell_formula_units_Z   2
loop_
 _symmetry_equiv_pos_site_id
 _symmetry_equiv_pos_as_xyz
  1  'x, y, z'
loop_
 _atom_site_type_symbol
 _atom_site_label
 _atom_site_symmetry_multiplicity
 _atom_site_fract_x
 _atom_site_fract_y
 _atom_site_fract_z
 _atom_site_occupancy
  Ba  Ba0  1  0.66666700  0.33333300  0.58584900  1
  Ba  Ba1  1  0.33333300  0.66666700  0.40533100  1
  Ba  Ba2  1  0.33333300  0.66666700  0.08584900  1
  Ba  Ba3  1  0.66666700  0.33333300  0.90533100  1
  Ba  Ba4  1  0.00000000  0.00000000  0.75343500  1
  Ba  Ba5  1  0.00000000  0.00000000  0.25343500  1
  Fe  Fe6  1  0.00000000  0.00000000  0.49156400  1
  Fe  Fe7  1  0.00000000  0.00000000  0.99156400  1
  Fe  Fe8  1  0.66666700  0.33333300  0.35512300  1
  Fe  Fe9  1  0.33333300  0.66666700  0.85512300  1
  Te  Te10  1  0.33333300  0.66666700  0.65905100  1
  Te  Te11  1  0.66666700  0.33333300  0.15905100  1
  O  O12  1  0.48329300  0.96658500  0.74510200  1
  O  O13  1  0.48329300  0.51670700  0.74510200  1
  O  O14  1  0.03341500  0.51670700  0.74510200  1
  O  O15  1  0.51670700  0.03341500  0.24510200  1
  O  O16  1  0.51670700  0.48329300  0.24510200  1
  O  O17  1  0.96658500  0.48329300  0.24510200  1
  O  O18  1  0.17225700  0.34451400  0.58451000  1
  O  O19  1  0.17225700  0.82774300  0.58451000  1
  O  O20  1  0.65548600  0.82774300  0.58451000  1
  O  O21  1  0.83449100  0.66898100  0.42025200  1
  O  O22  1  0.83449100  0.16550900  0.42025200  1
  O  O23  1  0.33101900  0.16550900  0.42025200  1
  O  O24  1  0.82774300  0.65548600  0.08451000  1
  O  O25  1  0.82774300  0.17225700  0.08451000  1
  O  O26  1  0.34451400  0.17225700  0.08451000  1
  O  O27  1  0.16550900  0.33101900  0.92025200  1
  O  O28  1  0.16550900  0.83449100  0.92025200  1
  O  O29  1  0.66898100  0.83449100  0.92025200  1
