# generated using pymatgen
data_NpI2O9
_symmetry_space_group_name_H-M   'P 1'
_cell_length_a   7.96484800
_cell_length_b   8.31592800
_cell_length_c   12.53700900
_cell_angle_alpha   90.00000000
_cell_angle_beta   90.00000000
_cell_angle_gamma   90.00000000
_symmetry_Int_Tables_number   1
_chemical_formula_structural   NpI2O9
_chemical_formula_sum   'Np4 I8 O36'
_cell_volume   830.39007615
_cell_formula_units_Z   4
loop_
 _symmetry_equiv_pos_site_id
 _symmetry_equiv_pos_as_xyz
  1  'x, y, z'
loop_
 _atom_site_type_symbol
 _atom_site_label
 _atom_site_symmetry_multiplicity
 _atom_site_fract_x
 _atom_site_fract_y
 _atom_site_fract_z
 _atom_site_occupancy
  Np  Np0  1  0.92890600  0.50000000  0.25000000  1
  Np  Np1  1  0.57109400  0.00000000  0.75000000  1
  Np  Np2  1  0.07109400  0.50000000  0.75000000  1
  Np  Np3  1  0.42890600  0.00000000  0.25000000  1
  I  I4  1  0.10011300  0.82291900  0.04195500  1
  I  I5  1  0.39988700  0.67708100  0.54195500  1
  I  I6  1  0.39988700  0.32291900  0.95804500  1
  I  I7  1  0.10011300  0.17708100  0.45804500  1
  I  I8  1  0.89988700  0.17708100  0.95804500  1
  I  I9  1  0.60011300  0.32291900  0.45804500  1
  I  I10  1  0.60011300  0.67708100  0.04195500  1
  I  I11  1  0.89988700  0.82291900  0.54195500  1
  O  O12  1  0.91716700  0.32072600  0.16942200  1
  O  O13  1  0.58283300  0.17927400  0.66942200  1
  O  O14  1  0.58283300  0.82072600  0.83057800  1
  O  O15  1  0.91716700  0.67927400  0.33057800  1
  O  O16  1  0.08283300  0.67927400  0.83057800  1
  O  O17  1  0.41716700  0.82072600  0.33057800  1
  O  O18  1  0.41716700  0.17927400  0.16942200  1
  O  O19  1  0.08283300  0.32072600  0.66942200  1
  O  O20  1  0.18296400  0.50000000  0.25000000  1
  O  O21  1  0.31703600  0.00000000  0.75000000  1
  O  O22  1  0.81703600  0.50000000  0.75000000  1
  O  O23  1  0.68296400  0.00000000  0.25000000  1
  O  O24  1  0.02654800  0.62494300  0.09826300  1
  O  O25  1  0.47345200  0.87505700  0.59826300  1
  O  O26  1  0.47345200  0.12494300  0.90173700  1
  O  O27  1  0.02654800  0.37505700  0.40173700  1
  O  O28  1  0.97345200  0.37505700  0.90173700  1
  O  O29  1  0.52654800  0.12494300  0.40173700  1
  O  O30  1  0.52654800  0.87505700  0.09826300  1
  O  O31  1  0.97345200  0.62494300  0.59826300  1
  O  O32  1  0.88127800  0.89544900  0.03437300  1
  O  O33  1  0.61872200  0.60455100  0.53437300  1
  O  O34  1  0.61872200  0.39544900  0.96562700  1
  O  O35  1  0.88127800  0.10455100  0.46562700  1
  O  O36  1  0.11872200  0.10455100  0.96562700  1
  O  O37  1  0.38127800  0.39544900  0.46562700  1
  O  O38  1  0.38127800  0.60455100  0.03437300  1
  O  O39  1  0.11872200  0.89544900  0.53437300  1
  O  O40  1  0.17231400  0.91021900  0.16658400  1
  O  O41  1  0.32768600  0.58978100  0.66658400  1
  O  O42  1  0.32768600  0.41021900  0.83341600  1
  O  O43  1  0.17231400  0.08978100  0.33341600  1
  O  O44  1  0.82768600  0.08978100  0.83341600  1
  O  O45  1  0.67231400  0.41021900  0.33341600  1
  O  O46  1  0.67231400  0.58978100  0.16658400  1
  O  O47  1  0.82768600  0.91021900  0.66658400  1
