# generated using pymatgen
data_Er5(Si5Ir2)2
_symmetry_space_group_name_H-M   'P 1'
_cell_length_a   12.61710400
_cell_length_b   12.61710400
_cell_length_c   4.24603500
_cell_angle_alpha   90.00000000
_cell_angle_beta   90.00000000
_cell_angle_gamma   90.00000000
_symmetry_Int_Tables_number   1
_chemical_formula_structural   Er5(Si5Ir2)2
_chemical_formula_sum   'Er10 Si20 Ir8'
_cell_volume   675.93188817
_cell_formula_units_Z   2
loop_
 _symmetry_equiv_pos_site_id
 _symmetry_equiv_pos_as_xyz
  1  'x, y, z'
loop_
 _atom_site_type_symbol
 _atom_site_label
 _atom_site_symmetry_multiplicity
 _atom_site_fract_x
 _atom_site_fract_y
 _atom_site_fract_z
 _atom_site_occupancy
  Er  Er0  1  0.50000000  0.50000000  0.00000000  1
  Er  Er1  1  0.00000000  0.00000000  0.00000000  1
  Er  Er2  1  0.67512900  0.17512900  0.50000000  1
  Er  Er3  1  0.32487100  0.82487100  0.50000000  1
  Er  Er4  1  0.17512900  0.32487100  0.50000000  1
  Er  Er5  1  0.82487100  0.67512900  0.50000000  1
  Er  Er6  1  0.88411500  0.38411500  0.50000000  1
  Er  Er7  1  0.11588500  0.61588500  0.50000000  1
  Er  Er8  1  0.38411500  0.11588500  0.50000000  1
  Er  Er9  1  0.61588500  0.88411500  0.50000000  1
  Si  Si10  1  0.56545400  0.06545400  0.00000000  1
  Si  Si11  1  0.43454600  0.93454600  0.00000000  1
  Si  Si12  1  0.06545400  0.43454600  0.00000000  1
  Si  Si13  1  0.93454600  0.56545400  0.00000000  1
  Si  Si14  1  0.66398400  0.70048500  0.00000000  1
  Si  Si15  1  0.33601600  0.29951500  0.00000000  1
  Si  Si16  1  0.16398400  0.79951500  0.00000000  1
  Si  Si17  1  0.83601600  0.20048500  0.00000000  1
  Si  Si18  1  0.29951500  0.66398400  0.00000000  1
  Si  Si19  1  0.70048500  0.33601600  0.00000000  1
  Si  Si20  1  0.20048500  0.16398400  0.00000000  1
  Si  Si21  1  0.79951500  0.83601600  0.00000000  1
  Si  Si22  1  0.65611300  0.50375500  0.50000000  1
  Si  Si23  1  0.34388700  0.49624500  0.50000000  1
  Si  Si24  1  0.15611300  0.99624500  0.50000000  1
  Si  Si25  1  0.84388700  0.00375500  0.50000000  1
  Si  Si26  1  0.49624500  0.65611300  0.50000000  1
  Si  Si27  1  0.50375500  0.34388700  0.50000000  1
  Si  Si28  1  0.00375500  0.15611300  0.50000000  1
  Si  Si29  1  0.99624500  0.84388700  0.50000000  1
  Ir  Ir30  1  0.74589300  0.52047700  0.00000000  1
  Ir  Ir31  1  0.25410700  0.47952300  0.00000000  1
  Ir  Ir32  1  0.24589300  0.97952300  0.00000000  1
  Ir  Ir33  1  0.75410700  0.02047700  0.00000000  1
  Ir  Ir34  1  0.47952300  0.74589300  0.00000000  1
  Ir  Ir35  1  0.52047700  0.25410700  0.00000000  1
  Ir  Ir36  1  0.02047700  0.24589300  0.00000000  1
  Ir  Ir37  1  0.97952300  0.75410700  0.00000000  1
