# generated using pymatgen
data_Sr6Yb4(CdSb2)5
_symmetry_space_group_name_H-M   'P 1'
_cell_length_a   9.41845066
_cell_length_b   9.41845066
_cell_length_c   37.13293143
_cell_angle_alpha   89.94475147
_cell_angle_beta   89.94475147
_cell_angle_gamma   29.15348585
_symmetry_Int_Tables_number   1
_chemical_formula_structural   Sr6Yb4(CdSb2)5
_chemical_formula_sum   'Sr12 Yb8 Cd10 Sb20'
_cell_volume   1604.65401880
_cell_formula_units_Z   2
loop_
 _symmetry_equiv_pos_site_id
 _symmetry_equiv_pos_as_xyz
  1  'x, y, z'
loop_
 _atom_site_type_symbol
 _atom_site_label
 _atom_site_symmetry_multiplicity
 _atom_site_fract_x
 _atom_site_fract_y
 _atom_site_fract_z
 _atom_site_occupancy
  Sr  Sr0  1  0.30181200  0.30181200  0.80531200  1
  Sr  Sr1  1  0.30143600  0.30143600  0.60491000  1
  Sr  Sr2  1  0.30152900  0.30152900  0.40478300  1
  Sr  Sr3  1  0.30191800  0.30191800  0.20518900  1
  Sr  Sr4  1  0.30193300  0.30193300  0.00518200  1
  Sr  Sr5  1  0.69807800  0.69807800  0.90516700  1
  Sr  Sr6  1  0.69884000  0.69884000  0.70573300  1
  Sr  Sr7  1  0.69904300  0.69904300  0.50564500  1
  Sr  Sr8  1  0.69827800  0.69827800  0.30508400  1
  Sr  Sr9  1  0.69804300  0.69804300  0.10519200  1
  Sr  Sr10  1  0.52045500  0.52045500  0.64479700  1
  Sr  Sr11  1  0.52042100  0.52042100  0.44464100  1
  Yb  Yb12  1  0.47918700  0.47918700  0.94446400  1
  Yb  Yb13  1  0.47913200  0.47913200  0.74519500  1
  Yb  Yb14  1  0.47865100  0.47865100  0.54452300  1
  Yb  Yb15  1  0.47870800  0.47870800  0.34379500  1
  Yb  Yb16  1  0.47921000  0.47921000  0.14445900  1
  Yb  Yb17  1  0.52081300  0.52081300  0.84454800  1
  Yb  Yb18  1  0.52076500  0.52076500  0.24440700  1
  Yb  Yb19  1  0.52077000  0.52077000  0.04447400  1
  Cd  Cd20  1  0.09518400  0.09518400  0.97864000  1
  Cd  Cd21  1  0.09543000  0.09543000  0.77924400  1
  Cd  Cd22  1  0.09594900  0.09594900  0.57868800  1
  Cd  Cd23  1  0.09565800  0.09565800  0.37805000  1
  Cd  Cd24  1  0.09518400  0.09518400  0.17862500  1
  Cd  Cd25  1  0.90482700  0.90482700  0.87866100  1
  Cd  Cd26  1  0.90324700  0.90324700  0.67891400  1
  Cd  Cd27  1  0.90319900  0.90319900  0.47885700  1
  Cd  Cd28  1  0.90478700  0.90478700  0.27859800  1
  Cd  Cd29  1  0.90485500  0.90485500  0.07865000  1
  Sb  Sb30  1  0.32839100  0.32839100  0.90174200  1
  Sb  Sb31  1  0.32829000  0.32829000  0.70193500  1
  Sb  Sb32  1  0.32820300  0.32820300  0.50176400  1
  Sb  Sb33  1  0.32831100  0.32831100  0.30155100  1
  Sb  Sb34  1  0.32837700  0.32837700  0.10174100  1
  Sb  Sb35  1  0.67186400  0.67186400  0.80187100  1
  Sb  Sb36  1  0.67478300  0.67478300  0.60049700  1
  Sb  Sb37  1  0.67455600  0.67455600  0.40027600  1
  Sb  Sb38  1  0.67162200  0.67162200  0.20169000  1
  Sb  Sb39  1  0.67164700  0.67164700  0.00169900  1
  Sb  Sb40  1  0.06263500  0.06263500  0.90058800  1
  Sb  Sb41  1  0.06356300  0.06356300  0.70250600  1
  Sb  Sb42  1  0.06364700  0.06364700  0.50232200  1
  Sb  Sb43  1  0.06270700  0.06270700  0.30042800  1
  Sb  Sb44  1  0.06266100  0.06266100  0.10058600  1
  Sb  Sb45  1  0.93725100  0.93725100  0.80074200  1
  Sb  Sb46  1  0.93461900  0.93461900  0.59933300  1
  Sb  Sb47  1  0.93473400  0.93473400  0.39920200  1
  Sb  Sb48  1  0.93742100  0.93742100  0.20061200  1
  Sb  Sb49  1  0.93737400  0.93737400  0.00060900  1
