# generated using pymatgen
data_WI2
_symmetry_space_group_name_H-M   'P 1'
_cell_length_a   10.80777844
_cell_length_b   10.80777844
_cell_length_c   12.93953300
_cell_angle_alpha   90.00000000
_cell_angle_beta   90.00000000
_cell_angle_gamma   107.06665857
_symmetry_Int_Tables_number   1
_chemical_formula_structural   WI2
_chemical_formula_sum   'W12 I24'
_cell_volume   1444.88402255
_cell_formula_units_Z   12
loop_
 _symmetry_equiv_pos_site_id
 _symmetry_equiv_pos_as_xyz
  1  'x, y, z'
loop_
 _atom_site_type_symbol
 _atom_site_label
 _atom_site_symmetry_multiplicity
 _atom_site_fract_x
 _atom_site_fract_y
 _atom_site_fract_z
 _atom_site_occupancy
  W  W0  1  0.89100300  0.10899700  0.00000000  1
  W  W1  1  0.10899700  0.89100300  0.00000000  1
  W  W2  1  0.60899700  0.39100300  0.50000000  1
  W  W3  1  0.39100300  0.60899700  0.50000000  1
  W  W4  1  0.43352400  0.43352400  0.36891500  1
  W  W5  1  0.56647600  0.56647600  0.63108500  1
  W  W6  1  0.06647600  0.06647600  0.86891500  1
  W  W7  1  0.93352400  0.93352400  0.13108500  1
  W  W8  1  0.13203800  0.13203800  0.06614400  1
  W  W9  1  0.86796200  0.86796200  0.93385600  1
  W  W10  1  0.36796200  0.36796200  0.56614400  1
  W  W11  1  0.63203800  0.63203800  0.43385600  1
  I  I12  1  0.72759800  0.27240200  0.00000000  1
  I  I13  1  0.27240200  0.72759800  0.00000000  1
  I  I14  1  0.77240200  0.22759800  0.50000000  1
  I  I15  1  0.22759800  0.77240200  0.50000000  1
  I  I16  1  0.95577100  0.18391700  0.20702300  1
  I  I17  1  0.04422900  0.81608300  0.79297700  1
  I  I18  1  0.54422900  0.31608300  0.70702300  1
  I  I19  1  0.68391700  0.45577100  0.29297700  1
  I  I20  1  0.45577100  0.68391700  0.29297700  1
  I  I21  1  0.31608300  0.54422900  0.70702300  1
  I  I22  1  0.81608300  0.04422900  0.79297700  1
  I  I23  1  0.18391700  0.95577100  0.20702300  1
  I  I24  1  0.34270700  0.34270700  0.15881000  1
  I  I25  1  0.65729300  0.65729300  0.84119000  1
  I  I26  1  0.15729300  0.15729300  0.65881000  1
  I  I27  1  0.84270700  0.84270700  0.34119000  1
  I  I28  1  0.90547200  0.67729400  0.06896200  1
  I  I29  1  0.09452800  0.32270600  0.93103800  1
  I  I30  1  0.59452800  0.82270600  0.56896200  1
  I  I31  1  0.17729400  0.40547200  0.43103800  1
  I  I32  1  0.40547200  0.17729400  0.43103800  1
  I  I33  1  0.82270600  0.59452800  0.56896200  1
  I  I34  1  0.32270600  0.09452800  0.93103800  1
  I  I35  1  0.67729400  0.90547200  0.06896200  1
