# generated using pymatgen
data_YbAl2Pd
_symmetry_space_group_name_H-M   'P 1'
_cell_length_a   5.42282751
_cell_length_b   5.42282751
_cell_length_c   7.27003000
_cell_angle_alpha   90.00000000
_cell_angle_beta   90.00000000
_cell_angle_gamma   133.45167103
_symmetry_Int_Tables_number   1
_chemical_formula_structural   YbAl2Pd
_chemical_formula_sum   'Yb2 Al4 Pd2'
_cell_volume   155.20200575
_cell_formula_units_Z   2
loop_
 _symmetry_equiv_pos_site_id
 _symmetry_equiv_pos_as_xyz
  1  'x, y, z'
loop_
 _atom_site_type_symbol
 _atom_site_label
 _atom_site_symmetry_multiplicity
 _atom_site_fract_x
 _atom_site_fract_y
 _atom_site_fract_z
 _atom_site_occupancy
  Yb  Yb0  1  0.56352200  0.43647800  0.25000000  1
  Yb  Yb1  1  0.43647800  0.56352200  0.75000000  1
  Al  Al2  1  0.84835800  0.15164200  0.44444000  1
  Al  Al3  1  0.15164200  0.84835800  0.55556000  1
  Al  Al4  1  0.84835800  0.15164200  0.05556000  1
  Al  Al5  1  0.15164200  0.84835800  0.94444000  1
  Pd  Pd6  1  0.28397900  0.71602100  0.25000000  1
  Pd  Pd7  1  0.71602100  0.28397900  0.75000000  1
