# generated using pymatgen
data_Na7As11O31
_symmetry_space_group_name_H-M   'P 1'
_cell_length_a   11.37581500
_cell_length_b   11.39584449
_cell_length_c   16.47133029
_cell_angle_alpha   89.65815905
_cell_angle_beta   89.78364277
_cell_angle_gamma   60.15963696
_symmetry_Int_Tables_number   1
_chemical_formula_structural   Na7As11O31
_chemical_formula_sum   'Na21 As33 O93'
_cell_volume   1852.15270079
_cell_formula_units_Z   3
loop_
 _symmetry_equiv_pos_site_id
 _symmetry_equiv_pos_as_xyz
  1  'x, y, z'
loop_
 _atom_site_type_symbol
 _atom_site_label
 _atom_site_symmetry_multiplicity
 _atom_site_fract_x
 _atom_site_fract_y
 _atom_site_fract_z
 _atom_site_occupancy
  Na  Na0  1  0.77397100  0.45463000  0.66841900  1
  Na  Na1  1  0.76885600  0.46301000  0.33629400  1
  Na  Na2  1  0.77126400  0.45840700  0.00346500  1
  Na  Na3  1  0.45922200  0.77136100  0.67004600  1
  Na  Na4  1  0.97631100  0.00616200  0.65787700  1
  Na  Na5  1  0.45196800  0.77603700  0.33699300  1
  Na  Na6  1  0.45408000  0.77453600  0.00256700  1
  Na  Na7  1  0.01457300  0.97118200  0.32794800  1
  Na  Na8  1  0.77329900  0.77316800  0.66994100  1
  Na  Na9  1  0.77242800  0.77496700  0.33704300  1
  Na  Na10  1  0.77372600  0.77508500  0.00391200  1
  Na  Na11  1  0.22151600  0.23607300  0.99826200  1
  Na  Na12  1  0.23633700  0.22203700  0.66493700  1
  Na  Na13  1  0.23728000  0.21950200  0.33165300  1
  Na  Na14  1  0.00819800  0.98012400  0.98653600  1
  Na  Na15  1  0.54643100  0.22493800  0.99548600  1
  Na  Na16  1  0.54263400  0.21918100  0.33143400  1
  Na  Na17  1  0.54524800  0.21849800  0.66597200  1
  Na  Na18  1  0.21808500  0.54556000  0.99884400  1
  Na  Na19  1  0.22574300  0.54486500  0.66184900  1
  Na  Na20  1  0.22445400  0.54991300  0.32994000  1
  As  As21  1  0.50872800  0.49313000  0.83302600  1
  As  As22  1  0.49294500  0.50896200  0.50047300  1
  As  As23  1  0.49432300  0.50737300  0.16689600  1
  As  As24  1  0.02282300  0.25408700  0.50702600  1
  As  As25  1  0.99463400  0.25511400  0.83297200  1
  As  As26  1  0.02325900  0.25284000  0.17402100  1
  As  As27  1  0.25487300  0.72156500  0.83800300  1
  As  As28  1  0.24655300  0.75299700  0.50178100  1
  As  As29  1  0.24804300  0.75131200  0.16601800  1
  As  As30  1  0.66769500  0.66605900  0.84101400  1
  As  As31  1  0.66592700  0.66801300  0.50842600  1
  As  As32  1  0.66607000  0.66763900  0.17470600  1
  As  As33  1  0.00239500  0.49867300  0.82975600  1
  As  As34  1  0.99795000  0.50854400  0.50005300  1
  As  As35  1  0.99823100  0.50750200  0.16719800  1
  As  As36  1  0.25338700  0.02337500  0.83909600  1
  As  As37  1  0.25401200  0.99511300  0.50124500  1
  As  As38  1  0.25479400  0.99406100  0.16615400  1
  As  As39  1  0.49841800  0.00252700  0.49778900  1
  As  As40  1  0.50840400  0.99793300  0.83303000  1
  As  As41  1  0.49911400  0.00215700  0.16391000  1
  As  As42  1  0.75338600  0.00016900  0.83300400  1
  As  As43  1  0.75005600  0.99508300  0.49907700  1
  As  As44  1  0.75138100  0.99422100  0.16631400  1
  As  As45  1  0.33400300  0.33363500  0.82537400  1
  As  As46  1  0.33257500  0.33510700  0.49240900  1
  As  As47  1  0.33362700  0.33385700  0.15933900  1
  As  As48  1  0.75283400  0.24679300  0.83372800  1
  As  As49  1  0.72176100  0.25515600  0.50597900  1
  As  As50  1  0.72349700  0.25327500  0.17393200  1
  As  As51  1  0.99475700  0.74967300  0.83123200  1
  As  As52  1  0.00009400  0.75310500  0.50068300  1
  As  As53  1  0.00074800  0.75189700  0.16623200  1
  O  O54  1  0.90602100  0.19119800  0.76858100  1
  O  O55  1  0.65422500  0.40540700  0.76729800  1
  O  O56  1  0.64692200  0.40307700  0.10397600  1
  O  O57  1  0.64591800  0.40498900  0.43668400  1
  O  O58  1  0.84471000  0.31052700  0.89684100  1
  O  O59  1  0.85615500  0.28638100  0.53498900  1
  O  O60  1  0.85604000  0.28782200  0.20296400  1
  O  O61  1  0.40476100  0.64561100  0.76918800  1
  O  O62  1  0.40486600  0.65466700  0.43508000  1
  O  O63  1  0.40659400  0.65262800  0.10036100  1
  O  O64  1  0.94441400  0.40613800  0.76496200  1
  O  O65  1  0.95034000  0.40364100  0.43682700  1
  O  O66  1  0.95181300  0.40247100  0.10369200  1
  O  O67  1  0.58994500  0.58489300  0.55818000  1
  O  O68  1  0.58494100  0.58966000  0.89087400  1
  O  O69  1  0.59018600  0.58446600  0.22463200  1
  O  O70  1  0.66687000  0.66647600  0.40695100  1
  O  O71  1  0.66500400  0.66782700  0.73968400  1
  O  O72  1  0.66800200  0.66507500  0.07335700  1
  O  O73  1  0.28493000  0.85694600  0.86620700  1
  O  O74  1  0.31078000  0.84458400  0.56479700  1
  O  O75  1  0.18958500  0.90698300  0.43728000  1
  O  O76  1  0.31103800  0.84340600  0.22901900  1
  O  O77  1  0.19101900  0.90557000  0.10114200  1
  O  O78  1  0.82556200  0.58688100  0.88914100  1
  O  O79  1  0.82479600  0.58429500  0.22437600  1
  O  O80  1  0.82453900  0.58485200  0.55764000  1
  O  O81  1  0.58458500  0.82451200  0.89014000  1
  O  O82  1  0.58711000  0.82539600  0.55655000  1
  O  O83  1  0.58732800  0.82481200  0.22290500  1
  O  O84  1  0.94509300  0.64912200  0.76399800  1
  O  O85  1  0.94182200  0.65374400  0.43402400  1
  O  O86  1  0.94283900  0.65191600  0.10027800  1
  O  O87  1  0.09988100  0.10273000  0.90076400  1
  O  O88  1  0.10212800  0.10034500  0.56876800  1
  O  O89  1  0.10280400  0.09832100  0.23464300  1
  O  O90  1  0.40277400  0.95240700  0.76907600  1
  O  O91  1  0.40588300  0.94520700  0.09847900  1
  O  O92  1  0.40466000  0.94636500  0.43280000  1
  O  O93  1  0.35718800  0.05593100  0.90494400  1
  O  O94  1  0.34977000  0.05824700  0.56375300  1
  O  O95  1  0.35004400  0.05710600  0.22948400  1
  O  O96  1  0.15276300  0.14876400  0.76643400  1
  O  O97  1  0.14707800  0.15353700  0.43412900  1
  O  O98  1  0.14741100  0.15322600  0.10049400  1
  O  O99  1  0.84472900  0.84310000  0.89467500  1
  O  O100  1  0.84322600  0.84490500  0.56246600  1
  O  O101  1  0.84492800  0.84321000  0.22904900  1
  O  O102  1  0.65258200  0.94332200  0.76633500  1
  O  O103  1  0.64956300  0.94558600  0.09862100  1
  O  O104  1  0.64830200  0.94668000  0.43158100  1
  O  O105  1  0.59709100  0.05453700  0.89895300  1
  O  O106  1  0.59139300  0.05824000  0.56262500  1
  O  O107  1  0.59228000  0.05719000  0.22962000  1
  O  O108  1  0.90702400  0.90428800  0.76793300  1
  O  O109  1  0.90412900  0.90739600  0.43572900  1
  O  O110  1  0.90472600  0.90632000  0.10194100  1
  O  O111  1  0.05842200  0.34970100  0.89566400  1
  O  O112  1  0.05614700  0.35744300  0.57238300  1
  O  O113  1  0.05670200  0.35615200  0.23952700  1
  O  O114  1  0.41239300  0.17514200  0.77742900  1
  O  O115  1  0.41039300  0.17911400  0.44098500  1
  O  O116  1  0.41118800  0.17831300  0.10767900  1
  O  O117  1  0.69173800  0.15478800  0.77071400  1
  O  O118  1  0.69981800  0.15425100  0.43262400  1
  O  O119  1  0.69998400  0.15342500  0.10042500  1
  O  O120  1  0.33187200  0.33421000  0.92692700  1
  O  O121  1  0.81139300  0.09364900  0.89870300  1
  O  O122  1  0.79397200  0.10125700  0.56725200  1
  O  O123  1  0.33448700  0.33171900  0.59403200  1
  O  O124  1  0.33350800  0.33226700  0.26105300  1
  O  O125  1  0.79782500  0.09884600  0.23476600  1
  O  O126  1  0.17818300  0.41117200  0.77325300  1
  O  O127  1  0.17385700  0.41317800  0.44448800  1
  O  O128  1  0.17477900  0.41209300  0.11127400  1
  O  O129  1  0.41311500  0.41372600  0.77703200  1
  O  O130  1  0.41343200  0.41360400  0.44434700  1
  O  O131  1  0.41425000  0.41237300  0.11111500  1
  O  O132  1  0.05842700  0.59106300  0.89479500  1
  O  O133  1  0.05472900  0.59662700  0.56632100  1
  O  O134  1  0.05541400  0.59573200  0.23273800  1
  O  O135  1  0.59660300  0.34706800  0.89923800  1
  O  O136  1  0.58526300  0.35725800  0.57198600  1
  O  O137  1  0.58625900  0.35619300  0.23944200  1
  O  O138  1  0.15353900  0.69945100  0.76485300  1
  O  O139  1  0.15448900  0.69206900  0.43840900  1
  O  O140  1  0.15514800  0.69046000  0.10360100  1
  O  O141  1  0.35713800  0.58513000  0.90442600  1
  O  O142  1  0.34827300  0.59559400  0.23246900  1
  O  O143  1  0.34756400  0.59622800  0.56699200  1
  O  O144  1  0.10130800  0.79329300  0.89945600  1
  O  O145  1  0.09651300  0.80698300  0.23159700  1
  O  O146  1  0.09385100  0.81050300  0.56674400  1
