# generated using pymatgen
data_Gd2FeSbO7
_symmetry_space_group_name_H-M   'P 1'
_cell_length_a   7.32300163
_cell_length_b   7.32300163
_cell_length_c   7.32300163
_cell_angle_alpha   120.32832739
_cell_angle_beta   119.60575543
_cell_angle_gamma   90.05823337
_symmetry_Int_Tables_number   1
_chemical_formula_structural   Gd2FeSbO7
_chemical_formula_sum   'Gd4 Fe2 Sb2 O14'
_cell_volume   277.80937042
_cell_formula_units_Z   2
loop_
 _symmetry_equiv_pos_site_id
 _symmetry_equiv_pos_as_xyz
  1  'x, y, z'
loop_
 _atom_site_type_symbol
 _atom_site_label
 _atom_site_symmetry_multiplicity
 _atom_site_fract_x
 _atom_site_fract_y
 _atom_site_fract_z
 _atom_site_occupancy
  Gd  Gd0  1  0.00000000  0.00000000  0.50000000  1
  Gd  Gd1  1  0.00000000  0.50000000  0.00000000  1
  Gd  Gd2  1  0.00000000  0.00000000  0.00000000  1
  Gd  Gd3  1  0.50000000  0.00000000  0.50000000  1
  Fe  Fe4  1  0.50000000  0.50000000  0.50000000  1
  Fe  Fe5  1  0.50000000  0.00000000  0.00000000  1
  Sb  Sb6  1  0.50000000  0.50000000  0.00000000  1
  Sb  Sb7  1  0.00000000  0.50000000  0.50000000  1
  O  O8  1  0.41419800  0.16419800  0.25000000  1
  O  O9  1  0.82930700  0.57930700  0.25000000  1
  O  O10  1  0.41374900  0.57790100  0.24163500  1
  O  O11  1  0.83626500  0.17211400  0.25836500  1
  O  O12  1  0.41374900  0.17211400  0.83584900  1
  O  O13  1  0.83626500  0.57790100  0.66415100  1
  O  O14  1  0.58580200  0.83580200  0.75000000  1
  O  O15  1  0.17069300  0.42069300  0.75000000  1
  O  O16  1  0.58625100  0.42209900  0.75836500  1
  O  O17  1  0.16373500  0.82788600  0.74163500  1
  O  O18  1  0.58625100  0.82788600  0.16415100  1
  O  O19  1  0.16373500  0.42209900  0.33584900  1
  O  O20  1  0.12336200  0.87336200  0.25000000  1
  O  O21  1  0.87663800  0.12663800  0.75000000  1
