# generated using pymatgen
data_Nd2Te3
_symmetry_space_group_name_H-M   'P 1'
_cell_length_a   4.43893200
_cell_length_b   12.02886800
_cell_length_c   12.37020800
_cell_angle_alpha   90.00000000
_cell_angle_beta   90.00000000
_cell_angle_gamma   90.00000000
_symmetry_Int_Tables_number   1
_chemical_formula_structural   Nd2Te3
_chemical_formula_sum   'Nd8 Te12'
_cell_volume   660.51130232
_cell_formula_units_Z   4
loop_
 _symmetry_equiv_pos_site_id
 _symmetry_equiv_pos_as_xyz
  1  'x, y, z'
loop_
 _atom_site_type_symbol
 _atom_site_label
 _atom_site_symmetry_multiplicity
 _atom_site_fract_x
 _atom_site_fract_y
 _atom_site_fract_z
 _atom_site_occupancy
  Nd  Nd0  1  0.25000000  0.49721700  0.69652200  1
  Nd  Nd1  1  0.75000000  0.50278300  0.30347800  1
  Nd  Nd2  1  0.75000000  0.99721700  0.80347800  1
  Nd  Nd3  1  0.25000000  0.00278300  0.19652200  1
  Nd  Nd4  1  0.25000000  0.18762600  0.51662100  1
  Nd  Nd5  1  0.75000000  0.81237400  0.48337900  1
  Nd  Nd6  1  0.75000000  0.68762600  0.98337900  1
  Nd  Nd7  1  0.25000000  0.31237400  0.01662100  1
  Te  Te8  1  0.25000000  0.87714300  0.95786100  1
  Te  Te9  1  0.75000000  0.12285700  0.04213900  1
  Te  Te10  1  0.75000000  0.37714300  0.54213900  1
  Te  Te11  1  0.25000000  0.62285700  0.45786100  1
  Te  Te12  1  0.25000000  0.19778000  0.77476900  1
  Te  Te13  1  0.75000000  0.80222000  0.22523100  1
  Te  Te14  1  0.75000000  0.69778000  0.72523100  1
  Te  Te15  1  0.25000000  0.30222000  0.27476900  1
  Te  Te16  1  0.25000000  0.55718800  0.11926900  1
  Te  Te17  1  0.75000000  0.44281200  0.88073100  1
  Te  Te18  1  0.75000000  0.05718800  0.38073100  1
  Te  Te19  1  0.25000000  0.94281200  0.61926900  1
