# generated using pymatgen
data_Eu3(GeIr)4
_symmetry_space_group_name_H-M   'P 1'
_cell_length_a   6.69421702
_cell_length_b   6.69421702
_cell_length_c   6.69421702
_cell_angle_alpha   109.47122063
_cell_angle_beta   109.47122063
_cell_angle_gamma   109.47122063
_symmetry_Int_Tables_number   1
_chemical_formula_structural   Eu3(GeIr)4
_chemical_formula_sum   'Eu3 Ge4 Ir4'
_cell_volume   230.92846709
_cell_formula_units_Z   1
loop_
 _symmetry_equiv_pos_site_id
 _symmetry_equiv_pos_as_xyz
  1  'x, y, z'
loop_
 _atom_site_type_symbol
 _atom_site_label
 _atom_site_symmetry_multiplicity
 _atom_site_fract_x
 _atom_site_fract_y
 _atom_site_fract_z
 _atom_site_occupancy
  Eu  Eu0  1  0.00000000  0.50000000  0.50000000  1
  Eu  Eu1  1  0.50000000  0.00000000  0.50000000  1
  Eu  Eu2  1  0.50000000  0.50000000  0.00000000  1
  Ge  Ge3  1  0.62232600  0.00000000  0.00000000  1
  Ge  Ge4  1  0.00000000  0.62232600  0.00000000  1
  Ge  Ge5  1  0.00000000  0.00000000  0.62232600  1
  Ge  Ge6  1  0.37767400  0.37767400  0.37767400  1
  Ir  Ir7  1  0.26381200  0.00000000  0.00000000  1
  Ir  Ir8  1  0.00000000  0.26381200  0.00000000  1
  Ir  Ir9  1  0.00000000  0.00000000  0.26381200  1
  Ir  Ir10  1  0.73618800  0.73618800  0.73618800  1
