# generated using pymatgen
data_LiBH4
_symmetry_space_group_name_H-M   'P 1'
_cell_length_a   4.40234700
_cell_length_b   5.83729800
_cell_length_c   8.61366400
_cell_angle_alpha   90.00000000
_cell_angle_beta   90.00000000
_cell_angle_gamma   90.00000000
_symmetry_Int_Tables_number   1
_chemical_formula_structural   LiBH4
_chemical_formula_sum   'Li4 B4 H16'
_cell_volume   221.35231240
_cell_formula_units_Z   4
loop_
 _symmetry_equiv_pos_site_id
 _symmetry_equiv_pos_as_xyz
  1  'x, y, z'
loop_
 _atom_site_type_symbol
 _atom_site_label
 _atom_site_symmetry_multiplicity
 _atom_site_fract_x
 _atom_site_fract_y
 _atom_site_fract_z
 _atom_site_occupancy
  Li  Li0  1  0.75000000  0.91926000  0.85589100  1
  Li  Li1  1  0.75000000  0.58074000  0.35589100  1
  Li  Li2  1  0.25000000  0.08074000  0.14410900  1
  Li  Li3  1  0.25000000  0.41926000  0.64410900  1
  B  B4  1  0.25000000  0.34857300  0.36374300  1
  B  B5  1  0.25000000  0.15142700  0.86374300  1
  B  B6  1  0.75000000  0.65142700  0.63625700  1
  B  B7  1  0.75000000  0.84857300  0.13625700  1
  H  H8  1  0.47669100  0.31849700  0.28321600  1
  H  H9  1  0.02330900  0.18150300  0.78321600  1
  H  H10  1  0.97669100  0.68150300  0.71678400  1
  H  H11  1  0.52330900  0.81849700  0.21678400  1
  H  H12  1  0.52330900  0.68150300  0.71678400  1
  H  H13  1  0.97669100  0.81849700  0.21678400  1
  H  H14  1  0.02330900  0.31849700  0.28321600  1
  H  H15  1  0.47669100  0.18150300  0.78321600  1
  H  H16  1  0.25000000  0.20871700  0.46945200  1
  H  H17  1  0.25000000  0.29128300  0.96945200  1
  H  H18  1  0.75000000  0.79128300  0.53054800  1
  H  H19  1  0.75000000  0.70871700  0.03054800  1
  H  H20  1  0.25000000  0.54744800  0.41095900  1
  H  H21  1  0.25000000  0.95255200  0.91095900  1
  H  H22  1  0.75000000  0.45255200  0.58904100  1
  H  H23  1  0.75000000  0.04744800  0.08904100  1
