# generated using pymatgen
data_CsScAs2(HO4)2
_symmetry_space_group_name_H-M   'P 1'
_cell_length_a   7.73568792
_cell_length_b   9.52641532
_cell_length_c   10.28364408
_cell_angle_alpha   65.21700504
_cell_angle_beta   70.64265261
_cell_angle_gamma   69.92647184
_symmetry_Int_Tables_number   1
_chemical_formula_structural   CsScAs2(HO4)2
_chemical_formula_sum   'Cs3 Sc3 As6 H6 O24'
_cell_volume   630.41508194
_cell_formula_units_Z   3
loop_
 _symmetry_equiv_pos_site_id
 _symmetry_equiv_pos_as_xyz
  1  'x, y, z'
loop_
 _atom_site_type_symbol
 _atom_site_label
 _atom_site_symmetry_multiplicity
 _atom_site_fract_x
 _atom_site_fract_y
 _atom_site_fract_z
 _atom_site_occupancy
  Cs  Cs0  1  0.50000000  0.00000000  0.00000000  1
  Cs  Cs1  1  0.63087600  0.16863800  0.52465500  1
  Cs  Cs2  1  0.36912400  0.83136200  0.47534500  1
  Sc  Sc3  1  0.00000000  0.50000000  0.50000000  1
  Sc  Sc4  1  0.79669800  0.27866200  0.05718800  1
  Sc  Sc5  1  0.20330200  0.72133800  0.94281200  1
  As  As6  1  0.55449000  0.44619600  0.78036300  1
  As  As7  1  0.44551000  0.55380400  0.21963700  1
  As  As8  1  0.07866500  0.12421700  0.77007500  1
  As  As9  1  0.92133500  0.87578300  0.22992500  1
  As  As10  1  0.91232500  0.64854400  0.78341000  1
  As  As11  1  0.08767500  0.35145600  0.21659000  1
  H  H12  1  0.28996200  0.43877100  0.71756300  1
  H  H13  1  0.71003800  0.56122900  0.28243700  1
  H  H14  1  0.92378900  0.95875500  0.77250100  1
  H  H15  1  0.07621100  0.04124500  0.22749900  1
  H  H16  1  0.61130200  0.73760900  0.74413700  1
  H  H17  1  0.38869800  0.26239100  0.25586300  1
  O  O18  1  0.60515800  0.30632400  0.94072800  1
  O  O19  1  0.39484200  0.69367600  0.05927200  1
  O  O20  1  0.41306200  0.36450600  0.73857000  1
  O  O21  1  0.58693800  0.63549400  0.26143000  1
  O  O22  1  0.43765000  0.63409700  0.78388100  1
  O  O23  1  0.56235000  0.36590300  0.21611900  1
  O  O24  1  0.74416300  0.46365500  0.63727700  1
  O  O25  1  0.25583700  0.53634500  0.36272300  1
  O  O26  1  0.02067000  0.18338400  0.91734100  1
  O  O27  1  0.97933000  0.81661600  0.08265900  1
  O  O28  1  0.14918400  0.26633300  0.60952400  1
  O  O29  1  0.85081600  0.73366700  0.39047600  1
  O  O30  1  0.25096800  0.94987400  0.79523100  1
  O  O31  1  0.74903200  0.05012600  0.20476900  1
  O  O32  1  0.88462900  0.07803200  0.75050600  1
  O  O33  1  0.11537100  0.92196800  0.24949400  1
  O  O34  1  0.06672600  0.57552300  0.64984000  1
  O  O35  1  0.93327400  0.42447700  0.35016000  1
  O  O36  1  0.01495200  0.76517300  0.80963500  1
  O  O37  1  0.98504800  0.23482700  0.19036500  1
  O  O38  1  0.82705400  0.50955700  0.93903200  1
  O  O39  1  0.17294600  0.49044300  0.06096800  1
  O  O40  1  0.71314200  0.79365300  0.71931300  1
  O  O41  1  0.28685800  0.20634700  0.28068700  1
