# generated using pymatgen
data_CuH2CN2Cl
_symmetry_space_group_name_H-M   'P 1'
_cell_length_a   3.95441700
_cell_length_b   17.85905200
_cell_length_c   16.06580300
_cell_angle_alpha   90.00000000
_cell_angle_beta   90.00000000
_cell_angle_gamma   90.00000000
_symmetry_Int_Tables_number   1
_chemical_formula_structural   CuH2CN2Cl
_chemical_formula_sum   'Cu12 H24 C12 N24 Cl12'
_cell_volume   1134.60136992
_cell_formula_units_Z   12
loop_
 _symmetry_equiv_pos_site_id
 _symmetry_equiv_pos_as_xyz
  1  'x, y, z'
loop_
 _atom_site_type_symbol
 _atom_site_label
 _atom_site_symmetry_multiplicity
 _atom_site_fract_x
 _atom_site_fract_y
 _atom_site_fract_z
 _atom_site_occupancy
  Cu  Cu0  1  0.64601200  0.70224900  0.81946700  1
  Cu  Cu1  1  0.35398800  0.29775100  0.31946700  1
  Cu  Cu2  1  0.85398800  0.20224900  0.81946700  1
  Cu  Cu3  1  0.14601200  0.79775100  0.31946700  1
  Cu  Cu4  1  0.82065700  0.99568000  0.31315900  1
  Cu  Cu5  1  0.17934300  0.00432000  0.81315900  1
  Cu  Cu6  1  0.67934300  0.49568000  0.31315900  1
  Cu  Cu7  1  0.32065700  0.50432000  0.81315900  1
  Cu  Cu8  1  0.58383600  0.88664000  0.11834900  1
  Cu  Cu9  1  0.41616400  0.11336000  0.61834900  1
  Cu  Cu10  1  0.91616400  0.38664000  0.11834900  1
  Cu  Cu11  1  0.08383600  0.61336000  0.61834900  1
  H  H12  1  0.40391200  0.39140800  0.72901600  1
  H  H13  1  0.59608800  0.60859200  0.22901600  1
  H  H14  1  0.09608800  0.89140800  0.72901600  1
  H  H15  1  0.90391200  0.10859200  0.22901600  1
  H  H16  1  0.96773600  0.96259600  0.46168500  1
  H  H17  1  0.03226400  0.03740400  0.96168500  1
  H  H18  1  0.53226400  0.46259600  0.46168500  1
  H  H19  1  0.46773600  0.53740400  0.96168500  1
  H  H20  1  0.34972600  0.49915100  0.55514100  1
  H  H21  1  0.65027400  0.50084900  0.05514100  1
  H  H22  1  0.15027400  0.99915100  0.55514100  1
  H  H23  1  0.84972600  0.00084900  0.05514100  1
  H  H24  1  0.93591700  0.79764700  0.72996700  1
  H  H25  1  0.06408300  0.20235300  0.22996700  1
  H  H26  1  0.56408300  0.29764700  0.72996700  1
  H  H27  1  0.43591700  0.70235300  0.22996700  1
  H  H28  1  0.94671100  0.79333300  0.46671000  1
  H  H29  1  0.05328900  0.20666700  0.96671000  1
  H  H30  1  0.55328900  0.29333300  0.46671000  1
  H  H31  1  0.44671100  0.70666700  0.96671000  1
  H  H32  1  0.92693500  0.73600400  0.55828100  1
  H  H33  1  0.07306500  0.26399600  0.05828100  1
  H  H34  1  0.57306500  0.23600400  0.55828100  1
  H  H35  1  0.42693500  0.76399600  0.05828100  1
  C  C36  1  0.65405600  0.81004100  0.95775700  1
  C  C37  1  0.34594400  0.18995900  0.45775700  1
  C  C38  1  0.84594400  0.31004100  0.95775700  1
  C  C39  1  0.15405600  0.68995900  0.45775700  1
  C  C40  1  0.89114900  0.85661300  0.83771100  1
  C  C41  1  0.10885100  0.14338700  0.33771100  1
  C  C42  1  0.60885100  0.35661300  0.83771100  1
  C  C43  1  0.39114900  0.64338700  0.33771100  1
  C  C44  1  0.85864400  0.93063200  0.95557600  1
  C  C45  1  0.14135600  0.06936800  0.45557600  1
  C  C46  1  0.64135600  0.43063200  0.95557600  1
  C  C47  1  0.35864400  0.56936800  0.45557600  1
  N  N48  1  0.74064500  0.79817800  0.87703600  1
  N  N49  1  0.25935500  0.20182200  0.37703600  1
  N  N50  1  0.75935500  0.29817800  0.87703600  1
  N  N51  1  0.24064500  0.70182200  0.37703600  1
  N  N52  1  0.98535000  0.84753500  0.75894200  1
  N  N53  1  0.01465000  0.15246500  0.25894200  1
  N  N54  1  0.51465000  0.34753500  0.75894200  1
  N  N55  1  0.48535000  0.65246500  0.25894200  1
  N  N56  1  0.70741300  0.87503600  0.99949200  1
  N  N57  1  0.29258700  0.12496400  0.49949200  1
  N  N58  1  0.79258700  0.37503600  0.99949200  1
  N  N59  1  0.20741300  0.62496400  0.49949200  1
  N  N60  1  0.50866900  0.75408500  0.99894900  1
  N  N61  1  0.49133100  0.24591500  0.49894900  1
  N  N62  1  0.99133100  0.25408500  0.99894900  1
  N  N63  1  0.00866900  0.74591500  0.49894900  1
  N  N64  1  0.95438100  0.92395500  0.87445300  1
  N  N65  1  0.04561900  0.07604500  0.37445300  1
  N  N66  1  0.54561900  0.42395500  0.87445300  1
  N  N67  1  0.45438100  0.57604500  0.37445300  1
  N  N68  1  0.91871200  0.99523400  0.99405300  1
  N  N69  1  0.08128800  0.00476600  0.49405300  1
  N  N70  1  0.58128800  0.49523400  0.99405300  1
  N  N71  1  0.41871200  0.50476600  0.49405300  1
  Cl  Cl72  1  0.64520100  0.68652600  0.67745000  1
  Cl  Cl73  1  0.35479900  0.31347400  0.17745000  1
  Cl  Cl74  1  0.85479900  0.18652600  0.67745000  1
  Cl  Cl75  1  0.14520100  0.81347400  0.17745000  1
  Cl  Cl76  1  0.44020900  0.00289100  0.68915600  1
  Cl  Cl77  1  0.55979100  0.99710900  0.18915600  1
  Cl  Cl78  1  0.05979100  0.50289100  0.68915600  1
  Cl  Cl79  1  0.94020900  0.49710900  0.18915600  1
  Cl  Cl80  1  0.71548900  0.87711100  0.36832000  1
  Cl  Cl81  1  0.28451100  0.12288900  0.86832000  1
  Cl  Cl82  1  0.78451100  0.37711100  0.36832000  1
  Cl  Cl83  1  0.21548900  0.62288900  0.86832000  1
