# generated using pymatgen
data_KSr2Cl5
_symmetry_space_group_name_H-M   'P 1'
_cell_length_a   7.95950400
_cell_length_b   8.94079600
_cell_length_c   12.98053554
_cell_angle_alpha   89.84493681
_cell_angle_beta   90.00000000
_cell_angle_gamma   90.00000000
_symmetry_Int_Tables_number   1
_chemical_formula_structural   KSr2Cl5
_chemical_formula_sum   'K4 Sr8 Cl20'
_cell_volume   923.74736198
_cell_formula_units_Z   4
loop_
 _symmetry_equiv_pos_site_id
 _symmetry_equiv_pos_as_xyz
  1  'x, y, z'
loop_
 _atom_site_type_symbol
 _atom_site_label
 _atom_site_symmetry_multiplicity
 _atom_site_fract_x
 _atom_site_fract_y
 _atom_site_fract_z
 _atom_site_occupancy
  K  K0  1  0.47314200  0.49844600  0.82591400  1
  K  K1  1  0.52685800  0.50155400  0.17408600  1
  K  K2  1  0.97314200  0.50155400  0.67408600  1
  K  K3  1  0.02685800  0.49844600  0.32591400  1
  Sr  Sr4  1  0.47856700  0.00160100  0.82350400  1
  Sr  Sr5  1  0.52143300  0.99839900  0.17649600  1
  Sr  Sr6  1  0.97856700  0.99839900  0.67649600  1
  Sr  Sr7  1  0.02143300  0.00160100  0.32350400  1
  Sr  Sr8  1  0.43553400  0.75066500  0.50487000  1
  Sr  Sr9  1  0.56446600  0.24933500  0.49513000  1
  Sr  Sr10  1  0.93553400  0.24933500  0.99513000  1
  Sr  Sr11  1  0.06446600  0.75066500  0.00487000  1
  Cl  Cl12  1  0.33967000  0.46830200  0.59365500  1
  Cl  Cl13  1  0.66033000  0.53169800  0.40634500  1
  Cl  Cl14  1  0.83967000  0.53169800  0.90634500  1
  Cl  Cl15  1  0.16033000  0.46830200  0.09365500  1
  Cl  Cl16  1  0.66946300  0.78570100  0.68270800  1
  Cl  Cl17  1  0.33053700  0.21429900  0.31729200  1
  Cl  Cl18  1  0.16946300  0.21429900  0.81729200  1
  Cl  Cl19  1  0.83053700  0.78570100  0.18270800  1
  Cl  Cl20  1  0.19550600  0.77213600  0.78698100  1
  Cl  Cl21  1  0.80449400  0.22786400  0.21301900  1
  Cl  Cl22  1  0.69550600  0.22786400  0.71301900  1
  Cl  Cl23  1  0.30449400  0.77213600  0.28698100  1
  Cl  Cl24  1  0.05023900  0.78252800  0.50313100  1
  Cl  Cl25  1  0.94976100  0.21747200  0.49686900  1
  Cl  Cl26  1  0.55023900  0.21747200  0.99686900  1
  Cl  Cl27  1  0.44976100  0.78252800  0.00313100  1
  Cl  Cl28  1  0.84161700  0.96256100  0.89735800  1
  Cl  Cl29  1  0.15838300  0.03743900  0.10264200  1
  Cl  Cl30  1  0.34161700  0.03743900  0.60264200  1
  Cl  Cl31  1  0.65838300  0.96256100  0.39735800  1
