# generated using pymatgen
data_BaBiNO5
_symmetry_space_group_name_H-M   'P 1'
_cell_length_a   8.41266133
_cell_length_b   8.41266133
_cell_length_c   6.22740512
_cell_angle_alpha   89.88856274
_cell_angle_beta   89.88856274
_cell_angle_gamma   138.79439215
_symmetry_Int_Tables_number   1
_chemical_formula_structural   BaBiNO5
_chemical_formula_sum   'Ba2 Bi2 N2 O10'
_cell_volume   290.33310731
_cell_formula_units_Z   2
loop_
 _symmetry_equiv_pos_site_id
 _symmetry_equiv_pos_as_xyz
  1  'x, y, z'
loop_
 _atom_site_type_symbol
 _atom_site_label
 _atom_site_symmetry_multiplicity
 _atom_site_fract_x
 _atom_site_fract_y
 _atom_site_fract_z
 _atom_site_occupancy
  Ba  Ba0  1  0.85629900  0.16497200  0.99574000  1
  Ba  Ba1  1  0.16497200  0.85629900  0.99574000  1
  Bi  Bi2  1  0.69427600  0.31454700  0.49600400  1
  Bi  Bi3  1  0.31454700  0.69427600  0.49600400  1
  N  N4  1  0.99421700  0.99421700  0.50709700  1
  N  N5  1  0.49279400  0.49279400  0.00692000  1
  O  O6  1  0.50407200  0.00510000  0.27566300  1
  O  O7  1  0.00395700  0.50473400  0.71793700  1
  O  O8  1  0.50473400  0.00395700  0.71793700  1
  O  O9  1  0.00510000  0.50407200  0.27566300  1
  O  O10  1  0.98389800  0.98389800  0.71091000  1
  O  O11  1  0.06944900  0.92905900  0.40813300  1
  O  O12  1  0.92905900  0.06944900  0.40813300  1
  O  O13  1  0.66645600  0.52601900  0.00114100  1
  O  O14  1  0.52601900  0.66645600  0.00114100  1
  O  O15  1  0.27914800  0.27914800  0.01883800  1
