# generated using pymatgen
data_Sc2Nb3Ge4
_symmetry_space_group_name_H-M   'P 1'
_cell_length_a   6.86926100
_cell_length_b   7.05350900
_cell_length_c   13.38539400
_cell_angle_alpha   90.00000000
_cell_angle_beta   90.00000000
_cell_angle_gamma   90.00000000
_symmetry_Int_Tables_number   1
_chemical_formula_structural   Sc2Nb3Ge4
_chemical_formula_sum   'Sc8 Nb12 Ge16'
_cell_volume   648.55438777
_cell_formula_units_Z   4
loop_
 _symmetry_equiv_pos_site_id
 _symmetry_equiv_pos_as_xyz
  1  'x, y, z'
loop_
 _atom_site_type_symbol
 _atom_site_label
 _atom_site_symmetry_multiplicity
 _atom_site_fract_x
 _atom_site_fract_y
 _atom_site_fract_z
 _atom_site_occupancy
  Sc  Sc0  1  0.49414200  0.67678200  0.59390700  1
  Sc  Sc1  1  0.99414200  0.82321800  0.90609300  1
  Sc  Sc2  1  0.50585800  0.32321800  0.09390700  1
  Sc  Sc3  1  0.00585800  0.17678200  0.40609300  1
  Sc  Sc4  1  0.50585800  0.32321800  0.40609300  1
  Sc  Sc5  1  0.00585800  0.17678200  0.09390700  1
  Sc  Sc6  1  0.49414200  0.67678200  0.90609300  1
  Sc  Sc7  1  0.99414200  0.82321800  0.59390700  1
  Nb  Nb8  1  0.65977700  0.16927600  0.62549200  1
  Nb  Nb9  1  0.15977700  0.33072400  0.87450800  1
  Nb  Nb10  1  0.34022300  0.83072400  0.12549200  1
  Nb  Nb11  1  0.84022300  0.66927600  0.37450800  1
  Nb  Nb12  1  0.34022300  0.83072400  0.37450800  1
  Nb  Nb13  1  0.84022300  0.66927600  0.12549200  1
  Nb  Nb14  1  0.65977700  0.16927600  0.87450800  1
  Nb  Nb15  1  0.15977700  0.33072400  0.62549200  1
  Nb  Nb16  1  0.83569100  0.48959100  0.75000000  1
  Nb  Nb17  1  0.33569100  0.01040900  0.75000000  1
  Nb  Nb18  1  0.16430900  0.51040900  0.25000000  1
  Nb  Nb19  1  0.66430900  0.98959100  0.25000000  1
  Ge  Ge20  1  0.68120300  0.96604000  0.45957400  1
  Ge  Ge21  1  0.18120300  0.53396000  0.04042600  1
  Ge  Ge22  1  0.31879700  0.03396000  0.95957400  1
  Ge  Ge23  1  0.81879700  0.46604000  0.54042600  1
  Ge  Ge24  1  0.31879700  0.03396000  0.54042600  1
  Ge  Ge25  1  0.81879700  0.46604000  0.95957400  1
  Ge  Ge26  1  0.68120300  0.96604000  0.04042600  1
  Ge  Ge27  1  0.18120300  0.53396000  0.45957400  1
  Ge  Ge28  1  0.45976500  0.38500700  0.75000000  1
  Ge  Ge29  1  0.95976500  0.11499300  0.75000000  1
  Ge  Ge30  1  0.54023500  0.61499300  0.25000000  1
  Ge  Ge31  1  0.04023500  0.88500700  0.25000000  1
  Ge  Ge32  1  0.69537100  0.85177000  0.75000000  1
  Ge  Ge33  1  0.19537100  0.64823000  0.75000000  1
  Ge  Ge34  1  0.30462900  0.14823000  0.25000000  1
  Ge  Ge35  1  0.80462900  0.35177000  0.25000000  1
