# generated using pymatgen
data_ErSiNi
_symmetry_space_group_name_H-M   'P 1'
_cell_length_a   4.12022000
_cell_length_b   6.76058200
_cell_length_c   7.07397600
_cell_angle_alpha   90.00000000
_cell_angle_beta   90.00000000
_cell_angle_gamma   90.00000000
_symmetry_Int_Tables_number   1
_chemical_formula_structural   ErSiNi
_chemical_formula_sum   'Er4 Si4 Ni4'
_cell_volume   197.04620396
_cell_formula_units_Z   4
loop_
 _symmetry_equiv_pos_site_id
 _symmetry_equiv_pos_as_xyz
  1  'x, y, z'
loop_
 _atom_site_type_symbol
 _atom_site_label
 _atom_site_symmetry_multiplicity
 _atom_site_fract_x
 _atom_site_fract_y
 _atom_site_fract_z
 _atom_site_occupancy
  Er  Er0  1  0.25000000  0.48975300  0.19963100  1
  Er  Er1  1  0.75000000  0.51024700  0.80036900  1
  Er  Er2  1  0.75000000  0.01024700  0.69963100  1
  Er  Er3  1  0.25000000  0.98975300  0.30036900  1
  Si  Si4  1  0.25000000  0.80914300  0.90696200  1
  Si  Si5  1  0.75000000  0.19085700  0.09303800  1
  Si  Si6  1  0.75000000  0.69085700  0.40696200  1
  Si  Si7  1  0.25000000  0.30914300  0.59303800  1
  Ni  Ni8  1  0.25000000  0.68429800  0.57913900  1
  Ni  Ni9  1  0.75000000  0.31570200  0.42086100  1
  Ni  Ni10  1  0.75000000  0.81570200  0.07913900  1
  Ni  Ni11  1  0.25000000  0.18429800  0.92086100  1
