# generated using pymatgen
data_YbAlF5
_symmetry_space_group_name_H-M   'P 1'
_cell_length_a   6.94169679
_cell_length_b   10.42298091
_cell_length_c   10.37872491
_cell_angle_alpha   83.73175262
_cell_angle_beta   70.26198832
_cell_angle_gamma   70.01753166
_symmetry_Int_Tables_number   1
_chemical_formula_structural   YbAlF5
_chemical_formula_sum   'Yb8 Al8 F40'
_cell_volume   664.24524066
_cell_formula_units_Z   8
loop_
 _symmetry_equiv_pos_site_id
 _symmetry_equiv_pos_as_xyz
  1  'x, y, z'
loop_
 _atom_site_type_symbol
 _atom_site_label
 _atom_site_symmetry_multiplicity
 _atom_site_fract_x
 _atom_site_fract_y
 _atom_site_fract_z
 _atom_site_occupancy
  Yb  Yb0  1  0.02754000  0.66797700  0.19655900  1
  Yb  Yb1  1  0.23443300  0.27727400  0.17762600  1
  Yb  Yb2  1  0.23231400  0.79941700  0.66218400  1
  Yb  Yb3  1  0.41146400  0.81935300  0.27299200  1
  Yb  Yb4  1  0.50631700  0.18131200  0.72099200  1
  Yb  Yb5  1  0.68525500  0.20241900  0.33195900  1
  Yb  Yb6  1  0.68284200  0.72394600  0.81654900  1
  Yb  Yb7  1  0.88932300  0.33375300  0.79774500  1
  Al  Al8  1  0.45575100  0.00065100  0.99695200  1
  Al  Al9  1  0.95908600  0.50039800  0.49724600  1
  Al  Al10  1  0.12233400  0.14499000  0.51464000  1
  Al  Al11  1  0.26454600  0.51787400  0.85129300  1
  Al  Al12  1  0.95559900  0.00113600  0.99701800  1
  Al  Al13  1  0.45888400  0.50059500  0.49755100  1
  Al  Al14  1  0.65231700  0.48310400  0.14327500  1
  Al  Al15  1  0.79572500  0.85572500  0.47898400  1
  F  F16  1  0.99907500  0.17957300  0.37435700  1
  F  F17  1  0.37550200  0.03396100  0.17816700  1
  F  F18  1  0.98431400  0.33166700  0.55652700  1
  F  F19  1  0.03048900  0.45778700  0.31825400  1
  F  F20  1  0.21283700  0.49465100  0.03163000  1
  F  F21  1  0.04462700  0.86211300  0.34484300  1
  F  F22  1  0.22990700  0.16047200  0.65276800  1
  F  F23  1  0.48287100  0.82224500  0.03235700  1
  F  F24  1  0.00428900  0.65319200  0.86925700  1
  F  F25  1  0.34406100  0.19115900  0.38315000  1
  F  F26  1  0.24078500  0.47141900  0.46450100  1
  F  F27  1  0.17712200  0.37555900  0.82416500  1
  F  F28  1  0.43032900  0.17888300  0.96161800  1
  F  F29  1  0.37955900  0.61391400  0.19524000  1
  F  F30  1  0.52199200  0.34906900  0.16762500  1
  F  F31  1  0.79628900  0.06210600  0.16882600  1
  F  F32  1  0.24063200  0.96452000  0.49036600  1
  F  F33  1  0.29035600  0.55843700  0.66583300  1
  F  F34  1  0.37748300  0.67955800  0.45201200  1
  F  F35  1  0.54065200  0.32148100  0.54263600  1
  F  F36  1  0.62664000  0.44334500  0.32899000  1
  F  F37  1  0.67712200  0.03606600  0.50257700  1
  F  F38  1  0.39439500  0.65233800  0.82751800  1
  F  F39  1  0.53761100  0.38737300  0.79873000  1
  F  F40  1  0.74065000  0.62510200  0.16963300  1
  F  F41  1  0.53710600  0.96709800  0.81562500  1
  F  F42  1  0.67719800  0.52925700  0.53079000  1
  F  F43  1  0.57411100  0.80940300  0.61055100  1
  F  F44  1  0.91173300  0.34685800  0.12594300  1
  F  F45  1  0.85304900  0.16931500  0.93223800  1
  F  F46  1  0.68867400  0.83928100  0.34070900  1
  F  F47  1  0.05744800  0.83280600  0.06161500  1
  F  F48  1  0.87331500  0.13805200  0.64803800  1
  F  F49  1  0.70427100  0.50601800  0.96287600  1
  F  F50  1  0.88754300  0.54345400  0.67618600  1
  F  F51  1  0.93391700  0.66916500  0.43806100  1
  F  F52  1  0.17408400  0.05055900  0.01467200  1
  F  F53  1  0.73773500  0.95141500  0.97885800  1
  F  F54  1  0.91851700  0.82235900  0.61945300  1
  F  F55  1  0.11638200  0.94004800  0.82544300  1
