# generated using pymatgen
data_Cs2ErSi4O10F
_symmetry_space_group_name_H-M   'P 1'
_cell_length_a   9.03726100
_cell_length_b   12.13398600
_cell_length_c   22.65508800
_cell_angle_alpha   90.00000000
_cell_angle_beta   90.00000000
_cell_angle_gamma   90.00000000
_symmetry_Int_Tables_number   1
_chemical_formula_structural   Cs2ErSi4O10F
_chemical_formula_sum   'Cs16 Er8 Si32 O80 F8'
_cell_volume   2484.31160484
_cell_formula_units_Z   8
loop_
 _symmetry_equiv_pos_site_id
 _symmetry_equiv_pos_as_xyz
  1  'x, y, z'
loop_
 _atom_site_type_symbol
 _atom_site_label
 _atom_site_symmetry_multiplicity
 _atom_site_fract_x
 _atom_site_fract_y
 _atom_site_fract_z
 _atom_site_occupancy
  Cs  Cs0  1  0.25000000  0.55715600  0.95613400  1
  Cs  Cs1  1  0.25000000  0.94284400  0.45613400  1
  Cs  Cs2  1  0.75000000  0.44284400  0.04386600  1
  Cs  Cs3  1  0.75000000  0.05715600  0.54386600  1
  Cs  Cs4  1  0.25000000  0.95295000  0.98396800  1
  Cs  Cs5  1  0.25000000  0.54705000  0.48396800  1
  Cs  Cs6  1  0.75000000  0.04705000  0.01603200  1
  Cs  Cs7  1  0.75000000  0.45295000  0.51603200  1
  Cs  Cs8  1  0.25000000  0.82186600  0.77174500  1
  Cs  Cs9  1  0.25000000  0.67813400  0.27174500  1
  Cs  Cs10  1  0.75000000  0.17813400  0.22825500  1
  Cs  Cs11  1  0.75000000  0.32186600  0.72825500  1
  Cs  Cs12  1  0.25000000  0.37742200  0.76274100  1
  Cs  Cs13  1  0.25000000  0.12257800  0.26274100  1
  Cs  Cs14  1  0.75000000  0.62257800  0.23725900  1
  Cs  Cs15  1  0.75000000  0.87742200  0.73725900  1
  Er  Er16  1  0.50010700  0.09685300  0.84897200  1
  Er  Er17  1  0.99989300  0.40314700  0.34897200  1
  Er  Er18  1  0.00010700  0.90314700  0.15102800  1
  Er  Er19  1  0.49989300  0.59685300  0.65102800  1
  Er  Er20  1  0.49989300  0.90314700  0.15102800  1
  Er  Er21  1  0.00010700  0.59685300  0.65102800  1
  Er  Er22  1  0.99989300  0.09685300  0.84897200  1
  Er  Er23  1  0.50010700  0.40314700  0.34897200  1
  Si  Si24  1  0.07034100  0.30495300  0.61177400  1
  Si  Si25  1  0.42965900  0.19504700  0.11177400  1
  Si  Si26  1  0.57034100  0.69504700  0.38822600  1
  Si  Si27  1  0.92965900  0.80495300  0.88822600  1
  Si  Si28  1  0.92965900  0.69504700  0.38822600  1
  Si  Si29  1  0.57034100  0.80495300  0.88822600  1
  Si  Si30  1  0.42965900  0.30495300  0.61177400  1
  Si  Si31  1  0.07034100  0.19504700  0.11177400  1
  Si  Si32  1  0.07043100  0.08923500  0.68991000  1
  Si  Si33  1  0.42956900  0.41076500  0.18991000  1
  Si  Si34  1  0.57043100  0.91076500  0.31009000  1
  Si  Si35  1  0.92956900  0.58923500  0.81009000  1
  Si  Si36  1  0.92956900  0.91076500  0.31009000  1
  Si  Si37  1  0.57043100  0.58923500  0.81009000  1
  Si  Si38  1  0.42956900  0.08923500  0.68991000  1
  Si  Si39  1  0.07043100  0.41076500  0.18991000  1
  Si  Si40  1  0.07313700  0.24921300  0.97918400  1
  Si  Si41  1  0.42686300  0.25078700  0.47918400  1
  Si  Si42  1  0.57313700  0.75078700  0.02081600  1
  Si  Si43  1  0.92686300  0.74921300  0.52081600  1
  Si  Si44  1  0.92686300  0.75078700  0.02081600  1
  Si  Si45  1  0.57313700  0.74921300  0.52081600  1
  Si  Si46  1  0.42686300  0.24921300  0.97918400  1
  Si  Si47  1  0.07313700  0.25078700  0.47918400  1
  Si  Si48  1  0.07210200  0.87563500  0.61753500  1
  Si  Si49  1  0.42789800  0.62436500  0.11753500  1
  Si  Si50  1  0.57210200  0.12436500  0.38246500  1
  Si  Si51  1  0.92789800  0.37563500  0.88246500  1
  Si  Si52  1  0.92789800  0.12436500  0.38246500  1
  Si  Si53  1  0.57210200  0.37563500  0.88246500  1
  Si  Si54  1  0.42789800  0.87563500  0.61753500  1
  Si  Si55  1  0.07210200  0.62436500  0.11753500  1
  O  O56  1  0.25000000  0.31833400  0.60854200  1
  O  O57  1  0.25000000  0.18166600  0.10854200  1
  O  O58  1  0.75000000  0.68166600  0.39145800  1
  O  O59  1  0.75000000  0.81833400  0.89145800  1
  O  O60  1  0.25000000  0.07754900  0.69533600  1
  O  O61  1  0.25000000  0.42245100  0.19533600  1
  O  O62  1  0.75000000  0.92245100  0.30466400  1
  O  O63  1  0.75000000  0.57754900  0.80466400  1
  O  O64  1  0.25000000  0.27625800  0.98238600  1
  O  O65  1  0.25000000  0.22374200  0.48238600  1
  O  O66  1  0.75000000  0.72374200  0.01761400  1
  O  O67  1  0.75000000  0.77625800  0.51761400  1
  O  O68  1  0.25000000  0.88638700  0.60626400  1
  O  O69  1  0.25000000  0.61361300  0.10626400  1
  O  O70  1  0.75000000  0.11361300  0.39373600  1
  O  O71  1  0.75000000  0.38638700  0.89373600  1
  O  O72  1  0.03091100  0.21164700  0.66249800  1
  O  O73  1  0.46908900  0.28835300  0.16249800  1
  O  O74  1  0.53091100  0.78835300  0.33750200  1
  O  O75  1  0.96908900  0.71164700  0.83750200  1
  O  O76  1  0.96908900  0.78835300  0.33750200  1
  O  O77  1  0.53091100  0.71164700  0.83750200  1
  O  O78  1  0.46908900  0.21164700  0.66249800  1
  O  O79  1  0.03091100  0.28835300  0.16249800  1
  O  O80  1  0.01202900  0.25279800  0.54819900  1
  O  O81  1  0.48797100  0.24720200  0.04819900  1
  O  O82  1  0.51202900  0.74720200  0.45180100  1
  O  O83  1  0.98797100  0.75279800  0.95180100  1
  O  O84  1  0.98797100  0.74720200  0.45180100  1
  O  O85  1  0.51202900  0.75279800  0.95180100  1
  O  O86  1  0.48797100  0.25279800  0.54819900  1
  O  O87  1  0.01202900  0.24720200  0.04819900  1
  O  O88  1  0.01340600  0.99806200  0.64014400  1
  O  O89  1  0.48659400  0.50193800  0.14014400  1
  O  O90  1  0.51340600  0.00193800  0.35985600  1
  O  O91  1  0.98659400  0.49806200  0.85985600  1
  O  O92  1  0.98659400  0.00193800  0.35985600  1
  O  O93  1  0.51340600  0.49806200  0.85985600  1
  O  O94  1  0.48659400  0.99806200  0.64014400  1
  O  O95  1  0.01340600  0.50193800  0.14014400  1
  O  O96  1  0.00944500  0.91831800  0.87163800  1
  O  O97  1  0.49055500  0.58168200  0.37163800  1
  O  O98  1  0.50944500  0.08168200  0.12836200  1
  O  O99  1  0.99055500  0.41831800  0.62836200  1
  O  O100  1  0.99055500  0.08168200  0.12836200  1
  O  O101  1  0.50944500  0.41831800  0.62836200  1
  O  O102  1  0.49055500  0.91831800  0.87163800  1
  O  O103  1  0.00944500  0.58168200  0.37163800  1
  O  O104  1  0.00941200  0.57213800  0.74787600  1
  O  O105  1  0.49058800  0.92786200  0.24787600  1
  O  O106  1  0.50941200  0.42786200  0.25212400  1
  O  O107  1  0.99058800  0.07213800  0.75212400  1
  O  O108  1  0.99058800  0.42786200  0.25212400  1
  O  O109  1  0.50941200  0.07213800  0.75212400  1
  O  O110  1  0.49058800  0.57213800  0.74787600  1
  O  O111  1  0.00941200  0.92786200  0.24787600  1
  O  O112  1  0.02952000  0.13955300  0.94436000  1
  O  O113  1  0.47048000  0.36044700  0.44436000  1
  O  O114  1  0.52952000  0.86044700  0.05564000  1
  O  O115  1  0.97048000  0.63955300  0.55564000  1
  O  O116  1  0.97048000  0.86044700  0.05564000  1
  O  O117  1  0.52952000  0.63955300  0.55564000  1
  O  O118  1  0.47048000  0.13955300  0.94436000  1
  O  O119  1  0.02952000  0.36044700  0.44436000  1
  O  O120  1  0.02438300  0.77976400  0.66204400  1
  O  O121  1  0.47561700  0.72023600  0.16204400  1
  O  O122  1  0.52438300  0.22023600  0.33795600  1
  O  O123  1  0.97561700  0.27976400  0.83795600  1
  O  O124  1  0.97561700  0.22023600  0.33795600  1
  O  O125  1  0.52438300  0.27976400  0.83795600  1
  O  O126  1  0.47561700  0.77976400  0.66204400  1
  O  O127  1  0.02438300  0.72023600  0.16204400  1
  O  O128  1  0.00087600  0.86197100  0.55024500  1
  O  O129  1  0.49912400  0.63802900  0.05024500  1
  O  O130  1  0.50087600  0.13802900  0.44975500  1
  O  O131  1  0.99912400  0.36197100  0.94975500  1
  O  O132  1  0.99912400  0.13802900  0.44975500  1
  O  O133  1  0.50087600  0.36197100  0.94975500  1
  O  O134  1  0.49912400  0.86197100  0.55024500  1
  O  O135  1  0.00087600  0.63802900  0.05024500  1
  F  F136  1  0.25000000  0.58622600  0.64514700  1
  F  F137  1  0.25000000  0.91377400  0.14514700  1
  F  F138  1  0.75000000  0.41377400  0.35485300  1
  F  F139  1  0.75000000  0.08622600  0.85485300  1
  F  F140  1  0.25000000  0.10114500  0.84182100  1
  F  F141  1  0.25000000  0.39885500  0.34182100  1
  F  F142  1  0.75000000  0.89885500  0.15817900  1
  F  F143  1  0.75000000  0.60114500  0.65817900  1
