# generated using pymatgen
data_AsBrOF8
_symmetry_space_group_name_H-M   'P 1'
_cell_length_a   8.88004800
_cell_length_b   8.86014400
_cell_length_c   8.88653275
_cell_angle_alpha   89.60353459
_cell_angle_beta   90.00000000
_cell_angle_gamma   90.00000000
_symmetry_Int_Tables_number   1
_chemical_formula_structural   AsBrOF8
_chemical_formula_sum   'As4 Br4 O4 F32'
_cell_volume   699.16236373
_cell_formula_units_Z   4
loop_
 _symmetry_equiv_pos_site_id
 _symmetry_equiv_pos_as_xyz
  1  'x, y, z'
loop_
 _atom_site_type_symbol
 _atom_site_label
 _atom_site_symmetry_multiplicity
 _atom_site_fract_x
 _atom_site_fract_y
 _atom_site_fract_z
 _atom_site_occupancy
  As  As0  1  0.63503200  0.88601400  0.63603100  1
  As  As1  1  0.86489700  0.61468000  0.13451000  1
  As  As2  1  0.36489700  0.38532000  0.86549000  1
  As  As3  1  0.13503200  0.11398600  0.36396900  1
  Br  Br4  1  0.77961600  0.45409500  0.69616300  1
  Br  Br5  1  0.19631300  0.97037400  0.79580000  1
  Br  Br6  1  0.69631300  0.02962600  0.20420000  1
  Br  Br7  1  0.27961600  0.54590500  0.30383700  1
  O  O8  1  0.71528600  0.38116500  0.54713000  1
  O  O9  1  0.04709700  0.03460600  0.86921500  1
  O  O10  1  0.54709700  0.96539400  0.13078500  1
  O  O11  1  0.21528600  0.61883500  0.45287000  1
  F  F12  1  0.64121700  0.68091700  0.62069100  1
  F  F13  1  0.88086400  0.61350600  0.93439500  1
  F  F14  1  0.56972100  0.37001300  0.85905800  1
  F  F15  1  0.36105100  0.17936500  0.87823200  1
  F  F16  1  0.12231700  0.10969600  0.56881200  1
  F  F17  1  0.43487200  0.86944800  0.63766500  1
  F  F18  1  0.86105100  0.82063500  0.12176800  1
  F  F19  1  0.62231700  0.89030400  0.43118800  1
  F  F20  1  0.93487200  0.13055200  0.36233500  1
  F  F21  1  0.14121700  0.31908300  0.37930900  1
  F  F22  1  0.38086400  0.38649400  0.06560500  1
  F  F23  1  0.06972100  0.62998700  0.14094200  1
  F  F24  1  0.62206700  0.08262300  0.63855100  1
  F  F25  1  0.86150700  0.62860600  0.33096200  1
  F  F26  1  0.16884500  0.38839100  0.87799000  1
  F  F27  1  0.37947900  0.58161300  0.85911000  1
  F  F28  1  0.14027100  0.12934300  0.16809000  1
  F  F29  1  0.83133400  0.88919000  0.62121200  1
  F  F30  1  0.87947900  0.41838700  0.14089000  1
  F  F31  1  0.64027100  0.87065700  0.83191000  1
  F  F32  1  0.33133400  0.11081000  0.37878800  1
  F  F33  1  0.12206700  0.91737700  0.36144900  1
  F  F34  1  0.36150700  0.37139400  0.66903800  1
  F  F35  1  0.66884500  0.61160900  0.12201000  1
  F  F36  1  0.95496700  0.53064900  0.63572000  1
  F  F37  1  0.87344100  0.30000000  0.78464700  1
  F  F38  1  0.28402900  0.87609300  0.94957800  1
  F  F39  1  0.13577600  0.79518700  0.72001000  1
  F  F40  1  0.78402900  0.12390700  0.05042200  1
  F  F41  1  0.63577600  0.20481300  0.27999000  1
  F  F42  1  0.45496700  0.46935100  0.36428000  1
  F  F43  1  0.37344100  0.70000000  0.21535300  1
