# generated using pymatgen
data_NaB(SO4)2
_symmetry_space_group_name_H-M   'P 1'
_cell_length_a   7.68753200
_cell_length_b   5.55282600
_cell_length_c   7.88599105
_cell_angle_alpha   71.33482153
_cell_angle_beta   90.00000000
_cell_angle_gamma   90.00000000
_symmetry_Int_Tables_number   1
_chemical_formula_structural   NaB(SO4)2
_chemical_formula_sum   'Na2 B2 S4 O16'
_cell_volume   318.92820851
_cell_formula_units_Z   2
loop_
 _symmetry_equiv_pos_site_id
 _symmetry_equiv_pos_as_xyz
  1  'x, y, z'
loop_
 _atom_site_type_symbol
 _atom_site_label
 _atom_site_symmetry_multiplicity
 _atom_site_fract_x
 _atom_site_fract_y
 _atom_site_fract_z
 _atom_site_occupancy
  Na  Na0  1  0.56704800  0.50000000  0.75000000  1
  Na  Na1  1  0.43295200  0.50000000  0.25000000  1
  B  B2  1  0.95806400  0.00000000  0.25000000  1
  B  B3  1  0.04193600  0.00000000  0.75000000  1
  S  S4  1  0.22319500  0.87023100  0.49615900  1
  S  S5  1  0.22319500  0.12976900  0.00384100  1
  S  S6  1  0.77680500  0.12976900  0.50384100  1
  S  S7  1  0.77680500  0.87023100  0.99615900  1
  O  O8  1  0.28497000  0.12682000  0.41758800  1
  O  O9  1  0.28497000  0.87318000  0.08241200  1
  O  O10  1  0.71503000  0.87318000  0.58241200  1
  O  O11  1  0.71503000  0.12682000  0.91758800  1
  O  O12  1  0.06088000  0.82120800  0.39404000  1
  O  O13  1  0.06088000  0.17879200  0.10596000  1
  O  O14  1  0.93912000  0.17879200  0.60596000  1
  O  O15  1  0.93912000  0.82120800  0.89404000  1
  O  O16  1  0.15378200  0.82640900  0.68772100  1
  O  O17  1  0.15378200  0.17359100  0.81227900  1
  O  O18  1  0.84621800  0.17359100  0.31227900  1
  O  O19  1  0.84621800  0.82640900  0.18772100  1
  O  O20  1  0.34344500  0.66509600  0.51070000  1
  O  O21  1  0.34344500  0.33490400  0.98930000  1
  O  O22  1  0.65655500  0.33490400  0.48930000  1
  O  O23  1  0.65655500  0.66509600  0.01070000  1
