# generated using pymatgen
data_LaCuSe2
_symmetry_space_group_name_H-M   'P 1'
_cell_length_a   7.61052300
_cell_length_b   6.84824100
_cell_length_c   7.26759086
_cell_angle_alpha   82.92654999
_cell_angle_beta   90.00000000
_cell_angle_gamma   90.00000000
_symmetry_Int_Tables_number   1
_chemical_formula_structural   LaCuSe2
_chemical_formula_sum   'La4 Cu4 Se8'
_cell_volume   375.89452195
_cell_formula_units_Z   4
loop_
 _symmetry_equiv_pos_site_id
 _symmetry_equiv_pos_as_xyz
  1  'x, y, z'
loop_
 _atom_site_type_symbol
 _atom_site_label
 _atom_site_symmetry_multiplicity
 _atom_site_fract_x
 _atom_site_fract_y
 _atom_site_fract_z
 _atom_site_occupancy
  La  La0  1  0.54912600  0.30839500  0.29864700  1
  La  La1  1  0.04912600  0.69160500  0.20135300  1
  La  La2  1  0.45087400  0.69160500  0.70135300  1
  La  La3  1  0.95087400  0.30839500  0.79864700  1
  Cu  Cu4  1  0.83887300  0.93285200  0.54493500  1
  Cu  Cu5  1  0.16112700  0.06714800  0.45506500  1
  Cu  Cu6  1  0.66112700  0.93285200  0.04493500  1
  Cu  Cu7  1  0.33887300  0.06714800  0.95506500  1
  Se  Se8  1  0.72555400  0.58839600  0.00108100  1
  Se  Se9  1  0.77444600  0.58839600  0.50108100  1
  Se  Se10  1  0.22555400  0.41160400  0.49891900  1
  Se  Se11  1  0.27444600  0.41160400  0.99891900  1
  Se  Se12  1  0.61293200  0.09430700  0.72127600  1
  Se  Se13  1  0.11293200  0.90569300  0.77872400  1
  Se  Se14  1  0.38706800  0.90569300  0.27872400  1
  Se  Se15  1  0.88706800  0.09430700  0.22127600  1
