# generated using pymatgen
data_TbReB4
_symmetry_space_group_name_H-M   'P 1'
_cell_length_a   3.62962000
_cell_length_b   5.98549400
_cell_length_c   11.58566000
_cell_angle_alpha   90.00000000
_cell_angle_beta   90.00000000
_cell_angle_gamma   90.00000000
_symmetry_Int_Tables_number   1
_chemical_formula_structural   TbReB4
_chemical_formula_sum   'Tb4 Re4 B16'
_cell_volume   251.69925981
_cell_formula_units_Z   4
loop_
 _symmetry_equiv_pos_site_id
 _symmetry_equiv_pos_as_xyz
  1  'x, y, z'
loop_
 _atom_site_type_symbol
 _atom_site_label
 _atom_site_symmetry_multiplicity
 _atom_site_fract_x
 _atom_site_fract_y
 _atom_site_fract_z
 _atom_site_occupancy
  Tb  Tb0  1  0.00000000  0.62599300  0.34967500  1
  Tb  Tb1  1  0.00000000  0.37400700  0.65032500  1
  Tb  Tb2  1  0.00000000  0.12599300  0.15032500  1
  Tb  Tb3  1  0.00000000  0.87400700  0.84967500  1
  Re  Re4  1  0.00000000  0.63200300  0.08725700  1
  Re  Re5  1  0.00000000  0.36799700  0.91274300  1
  Re  Re6  1  0.00000000  0.13200300  0.41274300  1
  Re  Re7  1  0.00000000  0.86799700  0.58725700  1
  B  B8  1  0.50000000  0.78697400  0.18451900  1
  B  B9  1  0.50000000  0.21302600  0.81548100  1
  B  B10  1  0.50000000  0.28697400  0.31548100  1
  B  B11  1  0.50000000  0.71302600  0.68451900  1
  B  B12  1  0.50000000  0.86335600  0.03153900  1
  B  B13  1  0.50000000  0.13664400  0.96846100  1
  B  B14  1  0.50000000  0.36335600  0.46846100  1
  B  B15  1  0.50000000  0.63664400  0.53153900  1
  B  B16  1  0.50000000  0.88652400  0.45297900  1
  B  B17  1  0.50000000  0.11347600  0.54702100  1
  B  B18  1  0.50000000  0.38652400  0.04702100  1
  B  B19  1  0.50000000  0.61347600  0.95297900  1
  B  B20  1  0.50000000  0.97736200  0.30826700  1
  B  B21  1  0.50000000  0.02263800  0.69173300  1
  B  B22  1  0.50000000  0.47736200  0.19173300  1
  B  B23  1  0.50000000  0.52263800  0.80826700  1
