# generated using pymatgen
data_Mg(Co2Ge3)2
_symmetry_space_group_name_H-M   'P 1'
_cell_length_a   6.15836278
_cell_length_b   6.15836278
_cell_length_c   6.15836278
_cell_angle_alpha   119.87433961
_cell_angle_beta   119.87433961
_cell_angle_gamma   90.21778832
_symmetry_Int_Tables_number   1
_chemical_formula_structural   Mg(Co2Ge3)2
_chemical_formula_sum   'Mg1 Co4 Ge6'
_cell_volume   165.46323406
_cell_formula_units_Z   1
loop_
 _symmetry_equiv_pos_site_id
 _symmetry_equiv_pos_as_xyz
  1  'x, y, z'
loop_
 _atom_site_type_symbol
 _atom_site_label
 _atom_site_symmetry_multiplicity
 _atom_site_fract_x
 _atom_site_fract_y
 _atom_site_fract_z
 _atom_site_occupancy
  Mg  Mg0  1  0.00000000  0.00000000  0.00000000  1
  Co  Co1  1  0.40032000  0.40032000  0.64277100  1
  Co  Co2  1  0.75755000  0.75755000  0.35722900  1
  Co  Co3  1  0.59968000  0.24245000  0.00000000  1
  Co  Co4  1  0.24245000  0.59968000  0.00000000  1
  Ge  Ge5  1  0.46328100  0.46328100  0.33860100  1
  Ge  Ge6  1  0.12467900  0.12467900  0.66139900  1
  Ge  Ge7  1  0.53671900  0.87532100  0.00000000  1
  Ge  Ge8  1  0.87532100  0.53671900  0.00000000  1
  Ge  Ge9  1  0.50000000  0.00000000  0.50000000  1
  Ge  Ge10  1  0.00000000  0.50000000  0.50000000  1
