# generated using pymatgen
data_TbHO2
_symmetry_space_group_name_H-M   'P 1'
_cell_length_a   3.69371500
_cell_length_b   4.36646900
_cell_length_c   6.05222505
_cell_angle_alpha   70.74944829
_cell_angle_beta   90.00000000
_cell_angle_gamma   90.00000000
_symmetry_Int_Tables_number   1
_chemical_formula_structural   TbHO2
_chemical_formula_sum   'Tb2 H2 O4'
_cell_volume   92.15530040
_cell_formula_units_Z   2
loop_
 _symmetry_equiv_pos_site_id
 _symmetry_equiv_pos_as_xyz
  1  'x, y, z'
loop_
 _atom_site_type_symbol
 _atom_site_label
 _atom_site_symmetry_multiplicity
 _atom_site_fract_x
 _atom_site_fract_y
 _atom_site_fract_z
 _atom_site_occupancy
  Tb  Tb0  1  0.75000000  0.83431500  0.81153900  1
  Tb  Tb1  1  0.25000000  0.16568500  0.18846100  1
  H  H2  1  0.75000000  0.47746300  0.41747000  1
  H  H3  1  0.25000000  0.52253700  0.58253000  1
  O  O4  1  0.75000000  0.26604900  0.94951300  1
  O  O5  1  0.25000000  0.73395100  0.05048700  1
  O  O6  1  0.75000000  0.24734300  0.43630400  1
  O  O7  1  0.25000000  0.75265700  0.56369600  1
