# generated using pymatgen
data_LaUN2
_symmetry_space_group_name_H-M   'P 1'
_cell_length_a   6.24052502
_cell_length_b   6.24052502
_cell_length_c   6.24052479
_cell_angle_alpha   33.05778328
_cell_angle_beta   33.05778328
_cell_angle_gamma   33.05778589
_symmetry_Int_Tables_number   1
_chemical_formula_structural   LaUN2
_chemical_formula_sum   'La1 U1 N2'
_cell_volume   64.36013203
_cell_formula_units_Z   1
loop_
 _symmetry_equiv_pos_site_id
 _symmetry_equiv_pos_as_xyz
  1  'x, y, z'
loop_
 _atom_site_type_symbol
 _atom_site_label
 _atom_site_symmetry_multiplicity
 _atom_site_fract_x
 _atom_site_fract_y
 _atom_site_fract_z
 _atom_site_occupancy
  La  La0  1  0.00000000  0.00000000  0.00000000  1
  U  U1  1  0.50000000  0.50000000  0.50000000  1
  N  N2  1  0.23201800  0.23201800  0.23201800  1
  N  N3  1  0.76798200  0.76798200  0.76798200  1
