# generated using pymatgen
data_K2MoS4
_symmetry_space_group_name_H-M   'P 1'
_cell_length_a   6.98016000
_cell_length_b   9.58958000
_cell_length_c   12.42691900
_cell_angle_alpha   90.00000000
_cell_angle_beta   90.00000000
_cell_angle_gamma   90.00000000
_symmetry_Int_Tables_number   1
_chemical_formula_structural   K2MoS4
_chemical_formula_sum   'K8 Mo4 S16'
_cell_volume   831.81822568
_cell_formula_units_Z   4
loop_
 _symmetry_equiv_pos_site_id
 _symmetry_equiv_pos_as_xyz
  1  'x, y, z'
loop_
 _atom_site_type_symbol
 _atom_site_label
 _atom_site_symmetry_multiplicity
 _atom_site_fract_x
 _atom_site_fract_y
 _atom_site_fract_z
 _atom_site_occupancy
  K  K0  1  0.75000000  0.04495700  0.83645100  1
  K  K1  1  0.25000000  0.95504300  0.16354900  1
  K  K2  1  0.75000000  0.54495700  0.66354900  1
  K  K3  1  0.25000000  0.45504300  0.33645100  1
  K  K4  1  0.25000000  0.15456600  0.60946100  1
  K  K5  1  0.75000000  0.84543400  0.39053900  1
  K  K6  1  0.25000000  0.65456600  0.89053900  1
  K  K7  1  0.75000000  0.34543400  0.10946100  1
  Mo  Mo8  1  0.75000000  0.75408900  0.06681600  1
  Mo  Mo9  1  0.25000000  0.24591100  0.93318400  1
  Mo  Mo10  1  0.75000000  0.25408900  0.43318400  1
  Mo  Mo11  1  0.25000000  0.74591100  0.56681600  1
  S  S12  1  0.25000000  0.77863000  0.39112500  1
  S  S13  1  0.75000000  0.22137000  0.60887500  1
  S  S14  1  0.25000000  0.27863000  0.10887500  1
  S  S15  1  0.75000000  0.72137000  0.89112500  1
  S  S16  1  0.49593000  0.15354000  0.36383500  1
  S  S17  1  0.99593000  0.84646000  0.63616500  1
  S  S18  1  0.00407000  0.65354000  0.13616500  1
  S  S19  1  0.50407000  0.34646000  0.86383500  1
  S  S20  1  0.50407000  0.84646000  0.63616500  1
  S  S21  1  0.00407000  0.15354000  0.36383500  1
  S  S22  1  0.99593000  0.34646000  0.86383500  1
  S  S23  1  0.49593000  0.65354000  0.13616500  1
  S  S24  1  0.75000000  0.97886000  0.10716800  1
  S  S25  1  0.25000000  0.02114000  0.89283200  1
  S  S26  1  0.75000000  0.47886000  0.39283200  1
  S  S27  1  0.25000000  0.52114000  0.60716800  1
