# generated using pymatgen
data_Nd(YS2)3
_symmetry_space_group_name_H-M   'P 1'
_cell_length_a   3.99955000
_cell_length_b   11.12653800
_cell_length_c   11.34608328
_cell_angle_alpha   71.12220831
_cell_angle_beta   90.00000000
_cell_angle_gamma   90.00000000
_symmetry_Int_Tables_number   1
_chemical_formula_structural   Nd(YS2)3
_chemical_formula_sum   'Nd2 Y6 S12'
_cell_volume   477.75481460
_cell_formula_units_Z   2
loop_
 _symmetry_equiv_pos_site_id
 _symmetry_equiv_pos_as_xyz
  1  'x, y, z'
loop_
 _atom_site_type_symbol
 _atom_site_label
 _atom_site_symmetry_multiplicity
 _atom_site_fract_x
 _atom_site_fract_y
 _atom_site_fract_z
 _atom_site_occupancy
  Nd  Nd0  1  0.75000000  0.54837400  0.80662300  1
  Nd  Nd1  1  0.25000000  0.45162600  0.19337700  1
  Y  Y2  1  0.75000000  0.18042100  0.99879900  1
  Y  Y3  1  0.25000000  0.81957900  0.00120100  1
  Y  Y4  1  0.75000000  0.93983000  0.66697200  1
  Y  Y5  1  0.25000000  0.06017000  0.33302800  1
  Y  Y6  1  0.75000000  0.66080900  0.41414700  1
  Y  Y7  1  0.25000000  0.33919100  0.58585300  1
  S  S8  1  0.75000000  0.97836200  0.88804100  1
  S  S9  1  0.25000000  0.02163800  0.11195900  1
  S  S10  1  0.75000000  0.30615300  0.74892600  1
  S  S11  1  0.25000000  0.69384700  0.25107400  1
  S  S12  1  0.75000000  0.89471400  0.44052700  1
  S  S13  1  0.25000000  0.10528600  0.55947300  1
  S  S14  1  0.75000000  0.41888000  0.40396400  1
  S  S15  1  0.25000000  0.58112000  0.59603600  1
  S  S16  1  0.75000000  0.23621500  0.22815300  1
  S  S17  1  0.25000000  0.76378500  0.77184700  1
  S  S18  1  0.75000000  0.61630700  0.03679100  1
  S  S19  1  0.25000000  0.38369300  0.96320900  1
