# generated using pymatgen
data_Na5B(SO4)4
_symmetry_space_group_name_H-M   'P 1'
_cell_length_a   10.97031011
_cell_length_b   14.12183447
_cell_length_c   18.53032234
_cell_angle_alpha   90.00000000
_cell_angle_beta   90.00000000
_cell_angle_gamma   90.00000000
_symmetry_Int_Tables_number   1
_chemical_formula_structural   Na5B(SO4)4
_chemical_formula_sum   'Na40 B8 S32 O128'
_cell_volume   2870.73427828
_cell_formula_units_Z   8
loop_
 _symmetry_equiv_pos_site_id
 _symmetry_equiv_pos_as_xyz
  1  'x, y, z'
loop_
 _atom_site_type_symbol
 _atom_site_label
 _atom_site_symmetry_multiplicity
 _atom_site_fract_x
 _atom_site_fract_y
 _atom_site_fract_z
 _atom_site_occupancy
  Na  Na0  1  0.02398937  0.13221558  0.59016318  1
  Na  Na1  1  0.97601063  0.86778442  0.09016318  1
  Na  Na2  1  0.47601063  0.13221558  0.09016318  1
  Na  Na3  1  0.52398937  0.86778442  0.59016318  1
  Na  Na4  1  0.22788653  0.62723718  0.83061919  1
  Na  Na5  1  0.77211347  0.37276282  0.33061919  1
  Na  Na6  1  0.27211347  0.62723718  0.33061919  1
  Na  Na7  1  0.72788653  0.37276282  0.83061919  1
  Na  Na8  1  0.26091195  0.37126974  0.85475092  1
  Na  Na9  1  0.73908805  0.62873026  0.35475092  1
  Na  Na10  1  0.23908805  0.37126974  0.35475092  1
  Na  Na11  1  0.76091195  0.62873026  0.85475092  1
  Na  Na12  1  0.22900291  0.13501917  0.88741962  1
  Na  Na13  1  0.77099709  0.86498083  0.38741962  1
  Na  Na14  1  0.27099709  0.13501917  0.38741962  1
  Na  Na15  1  0.72900291  0.86498083  0.88741962  1
  Na  Na16  1  0.69320888  0.13882262  0.87545897  1
  Na  Na17  1  0.30679112  0.86117738  0.37545897  1
  Na  Na18  1  0.80679112  0.13882262  0.37545897  1
  Na  Na19  1  0.19320888  0.86117738  0.87545897  1
  Na  Na20  1  0.76937396  0.26969629  0.53715606  1
  Na  Na21  1  0.23062604  0.73030371  0.03715606  1
  Na  Na22  1  0.73062604  0.26969629  0.03715606  1
  Na  Na23  1  0.26937396  0.73030371  0.53715606  1
  Na  Na24  1  0.00300986  0.23985125  0.78023760  1
  Na  Na25  1  0.99699014  0.76014875  0.28023760  1
  Na  Na26  1  0.49699014  0.23985125  0.28023760  1
  Na  Na27  1  0.50300986  0.76014875  0.78023760  1
  Na  Na28  1  0.50301984  0.12871045  0.58536997  1
  Na  Na29  1  0.49698016  0.87128955  0.08536997  1
  Na  Na30  1  0.99698016  0.12871045  0.08536997  1
  Na  Na31  1  0.00301984  0.87128955  0.58536997  1
  Na  Na32  1  0.01393688  0.64630160  0.63566010  1
  Na  Na33  1  0.98606312  0.35369840  0.13566010  1
  Na  Na34  1  0.48606312  0.64630160  0.13566010  1
  Na  Na35  1  0.51393688  0.35369840  0.63566010  1
  Na  Na36  1  0.08914975  0.37483518  0.62462002  1
  Na  Na37  1  0.91085025  0.62516482  0.12462002  1
  Na  Na38  1  0.41085025  0.37483518  0.12462002  1
  Na  Na39  1  0.58914975  0.62516482  0.62462002  1
  B  B40  1  0.03906285  0.50255664  0.93831132  1
  B  B41  1  0.96093715  0.49744336  0.43831132  1
  B  B42  1  0.46093715  0.50255664  0.43831132  1
  B  B43  1  0.53906285  0.49744336  0.93831132  1
  B  B44  1  0.81514554  0.00164761  0.69365872  1
  B  B45  1  0.18485446  0.99835239  0.19365872  1
  B  B46  1  0.68485446  0.00164761  0.19365872  1
  B  B47  1  0.31514554  0.99835239  0.69365872  1
  S  S48  1  0.97789648  0.31233295  0.94578866  1
  S  S49  1  0.02210352  0.68766705  0.44578866  1
  S  S50  1  0.52210352  0.31233295  0.44578866  1
  S  S51  1  0.47789648  0.68766705  0.94578866  1
  S  S52  1  0.98624421  0.69272506  0.95256933  1
  S  S53  1  0.01375579  0.30727494  0.45256933  1
  S  S54  1  0.51375579  0.69272506  0.45256933  1
  S  S55  1  0.48624421  0.30727494  0.95256933  1
  S  S56  1  0.00759944  0.49279410  0.78901821  1
  S  S57  1  0.99240056  0.50720590  0.28901821  1
  S  S58  1  0.49240056  0.49279410  0.28901821  1
  S  S59  1  0.50759944  0.50720590  0.78901821  1
  S  S60  1  0.17117921  0.50095784  0.06409304  1
  S  S61  1  0.82882079  0.49904216  0.56409304  1
  S  S62  1  0.32882079  0.50095784  0.56409304  1
  S  S63  1  0.67117921  0.49904216  0.06409304  1
  S  S64  1  0.94866931  0.00780042  0.81893759  1
  S  S65  1  0.05133069  0.99219958  0.31893759  1
  S  S66  1  0.55133069  0.00780042  0.31893759  1
  S  S67  1  0.44866931  0.99219958  0.81893759  1
  S  S68  1  0.75538338  0.18933122  0.69736694  1
  S  S69  1  0.24461662  0.81066878  0.19736694  1
  S  S70  1  0.74461662  0.18933122  0.19736694  1
  S  S71  1  0.25538338  0.81066878  0.69736694  1
  S  S72  1  0.76010562  0.80993297  0.70458006  1
  S  S73  1  0.23989438  0.19006703  0.20458006  1
  S  S74  1  0.73989438  0.80993297  0.20458006  1
  S  S75  1  0.26010562  0.19006703  0.70458006  1
  S  S76  1  0.77999548  0.00815492  0.54395585  1
  S  S77  1  0.22000452  0.99184508  0.04395585  1
  S  S78  1  0.72000452  0.00815492  0.04395585  1
  S  S79  1  0.27999548  0.99184508  0.54395585  1
  O  O80  1  0.96705558  0.27092966  0.01830456  1
  O  O81  1  0.03294442  0.72907034  0.51830456  1
  O  O82  1  0.53294442  0.27092966  0.51830456  1
  O  O83  1  0.46705558  0.72907034  0.01830456  1
  O  O84  1  0.87344808  0.28528021  0.90016489  1
  O  O85  1  0.12655192  0.71471979  0.40016489  1
  O  O86  1  0.62655192  0.28528021  0.40016489  1
  O  O87  1  0.37344808  0.71471979  0.90016489  1
  O  O88  1  0.09458140  0.29300500  0.91007512  1
  O  O89  1  0.90541860  0.70699500  0.41007512  1
  O  O90  1  0.40541860  0.29300500  0.41007512  1
  O  O91  1  0.59458140  0.70699500  0.91007512  1
  O  O92  1  0.87945355  0.73854655  0.92208230  1
  O  O93  1  0.12054645  0.26145345  0.42208230  1
  O  O94  1  0.62054645  0.73854655  0.42208230  1
  O  O95  1  0.37945355  0.26145345  0.92208230  1
  O  O96  1  0.00409293  0.71436354  0.02992000  1
  O  O97  1  0.99590707  0.28563646  0.52992000  1
  O  O98  1  0.49590707  0.71436354  0.52992000  1
  O  O99  1  0.50409293  0.28563646  0.02992000  1
  O  O100  1  0.10081409  0.70993536  0.91299638  1
  O  O101  1  0.89918591  0.29006464  0.41299638  1
  O  O102  1  0.39918591  0.70993536  0.41299638  1
  O  O103  1  0.60081409  0.29006464  0.91299638  1
  O  O104  1  0.05163479  0.57594185  0.74982392  1
  O  O105  1  0.94836521  0.42405815  0.24982392  1
  O  O106  1  0.44836521  0.57594185  0.24982392  1
  O  O107  1  0.55163479  0.42405815  0.74982392  1
  O  O108  1  0.87762074  0.49686645  0.80768531  1
  O  O109  1  0.12237926  0.50313355  0.30768531  1
  O  O110  1  0.62237926  0.49686645  0.30768531  1
  O  O111  1  0.37762074  0.50313355  0.80768531  1
  O  O112  1  0.04295407  0.40260435  0.75535003  1
  O  O113  1  0.95704593  0.59739565  0.25535003  1
  O  O114  1  0.45704593  0.40260435  0.25535003  1
  O  O115  1  0.54295407  0.59739565  0.75535003  1
  O  O116  1  0.25385243  0.57858524  0.08231919  1
  O  O117  1  0.74614757  0.42141476  0.58231919  1
  O  O118  1  0.24614757  0.57858524  0.58231919  1
  O  O119  1  0.75385243  0.42141476  0.08231919  1
  O  O120  1  0.05006741  0.50910948  0.09777954  1
  O  O121  1  0.94993259  0.49089052  0.59777954  1
  O  O122  1  0.44993259  0.50910948  0.59777954  1
  O  O123  1  0.55006741  0.49089052  0.09777954  1
  O  O124  1  0.22292526  0.40692228  0.07553738  1
  O  O125  1  0.77707474  0.59307772  0.57553738  1
  O  O126  1  0.27707474  0.40692228  0.57553738  1
  O  O127  1  0.72292526  0.59307772  0.07553738  1
  O  O128  1  0.82665257  0.01258024  0.85231445  1
  O  O129  1  0.17334743  0.98741976  0.35231445  1
  O  O130  1  0.67334743  0.01258024  0.35231445  1
  O  O131  1  0.32665257  0.98741976  0.85231445  1
  O  O132  1  0.02139712  0.09336703  0.83212183  1
  O  O133  1  0.97860288  0.90663297  0.33212183  1
  O  O134  1  0.47860288  0.09336703  0.33212183  1
  O  O135  1  0.52139712  0.90663297  0.83212183  1
  O  O136  1  0.01195258  0.92039041  0.83602985  1
  O  O137  1  0.98804742  0.07960959  0.33602985  1
  O  O138  1  0.48804742  0.92039041  0.33602985  1
  O  O139  1  0.51195258  0.07960959  0.83602985  1
  O  O140  1  0.65980180  0.22296382  0.64817280  1
  O  O141  1  0.34019820  0.77703618  0.14817280  1
  O  O142  1  0.84019820  0.22296382  0.14817280  1
  O  O143  1  0.15980180  0.77703618  0.64817280  1
  O  O144  1  0.87830681  0.20362470  0.66700775  1
  O  O145  1  0.12169319  0.79637530  0.16700775  1
  O  O146  1  0.62169319  0.20362470  0.16700775  1
  O  O147  1  0.37830681  0.79637530  0.66700775  1
  O  O148  1  0.74699863  0.22991631  0.77011825  1
  O  O149  1  0.25300137  0.77008369  0.27011825  1
  O  O150  1  0.75300137  0.22991631  0.27011825  1
  O  O151  1  0.24699863  0.77008369  0.77011825  1
  O  O152  1  0.65469917  0.77740501  0.66160759  1
  O  O153  1  0.34530083  0.22259499  0.16160759  1
  O  O154  1  0.84530083  0.77740501  0.16160759  1
  O  O155  1  0.15469917  0.22259499  0.66160759  1
  O  O156  1  0.87766913  0.79185450  0.67022601  1
  O  O157  1  0.12233087  0.20814550  0.17022601  1
  O  O158  1  0.62233087  0.79185450  0.17022601  1
  O  O159  1  0.37766913  0.20814550  0.67022601  1
  O  O160  1  0.75082728  0.77310870  0.77868631  1
  O  O161  1  0.24917272  0.22689130  0.27868631  1
  O  O162  1  0.74917272  0.77310870  0.27868631  1
  O  O163  1  0.25082728  0.22689130  0.77868631  1
  O  O164  1  0.65003689  0.00146204  0.56239356  1
  O  O165  1  0.34996311  0.99853796  0.06239356  1
  O  O166  1  0.84996311  0.00146204  0.06239356  1
  O  O167  1  0.15003689  0.99853796  0.56239356  1
  O  O168  1  0.82547582  0.92828607  0.50161146  1
  O  O169  1  0.17452418  0.07171393  0.00161146  1
  O  O170  1  0.67452418  0.92828607  0.00161146  1
  O  O171  1  0.32547582  0.07171393  0.50161146  1
  O  O172  1  0.81285834  0.10107781  0.51320403  1
  O  O173  1  0.18714166  0.89892219  0.01320403  1
  O  O174  1  0.68714166  0.10107781  0.01320403  1
  O  O175  1  0.31285834  0.89892219  0.51320403  1
  O  O176  1  0.95410262  0.58399806  0.94637860  1
  O  O177  1  0.04589738  0.41600194  0.44637860  1
  O  O178  1  0.54589738  0.58399806  0.44637860  1
  O  O179  1  0.45410262  0.41600194  0.94637860  1
  O  O180  1  0.96294955  0.42140372  0.95843370  1
  O  O181  1  0.03705045  0.57859628  0.45843370  1
  O  O182  1  0.53705045  0.42140372  0.45843370  1
  O  O183  1  0.46294955  0.57859628  0.95843370  1
  O  O184  1  0.15270832  0.51229910  0.97875944  1
  O  O185  1  0.84729168  0.48770090  0.47875944  1
  O  O186  1  0.34729168  0.51229910  0.47875944  1
  O  O187  1  0.65270832  0.48770090  0.97875944  1
  O  O188  1  0.08625252  0.49562364  0.86204666  1
  O  O189  1  0.91374748  0.50437636  0.36204666  1
  O  O190  1  0.41374748  0.49562364  0.36204666  1
  O  O191  1  0.58625252  0.50437636  0.86204666  1
  O  O192  1  0.73864342  0.91942257  0.71099889  1
  O  O193  1  0.26135658  0.08057743  0.21099889  1
  O  O194  1  0.76135658  0.91942257  0.21099889  1
  O  O195  1  0.23864342  0.08057743  0.71099889  1
  O  O196  1  0.92966908  0.00766912  0.73331695  1
  O  O197  1  0.07033092  0.99233088  0.23331695  1
  O  O198  1  0.57033092  0.00766912  0.23331695  1
  O  O199  1  0.42966908  0.99233088  0.73331695  1
  O  O200  1  0.72999162  0.08132261  0.70649903  1
  O  O201  1  0.27000838  0.91867739  0.20649903  1
  O  O202  1  0.77000838  0.08132261  0.20649903  1
  O  O203  1  0.22999162  0.91867739  0.70649903  1
  O  O204  1  0.85948951  0.00096126  0.61631888  1
  O  O205  1  0.14051049  0.99903874  0.11631888  1
  O  O206  1  0.64051049  0.00096126  0.11631888  1
  O  O207  1  0.35948951  0.99903874  0.61631888  1
