# generated using pymatgen
data_MgAl3SiBO9
_symmetry_space_group_name_H-M   'P 1'
_cell_length_a   5.81667000
_cell_length_b   10.43481800
_cell_length_c   11.10122000
_cell_angle_alpha   90.00000000
_cell_angle_beta   90.00000000
_cell_angle_gamma   90.00000000
_symmetry_Int_Tables_number   1
_chemical_formula_structural   MgAl3SiBO9
_chemical_formula_sum   'Mg4 Al12 Si4 B4 O36'
_cell_volume   673.79845925
_cell_formula_units_Z   4
loop_
 _symmetry_equiv_pos_site_id
 _symmetry_equiv_pos_as_xyz
  1  'x, y, z'
loop_
 _atom_site_type_symbol
 _atom_site_label
 _atom_site_symmetry_multiplicity
 _atom_site_fract_x
 _atom_site_fract_y
 _atom_site_fract_z
 _atom_site_occupancy
  Mg  Mg0  1  0.25000000  0.40725900  0.28120000  1
  Mg  Mg1  1  0.75000000  0.59274100  0.71880000  1
  Mg  Mg2  1  0.75000000  0.90725900  0.21880000  1
  Mg  Mg3  1  0.25000000  0.09274100  0.78120000  1
  Al  Al4  1  0.00000000  0.00000000  0.00000000  1
  Al  Al5  1  0.00000000  0.50000000  0.50000000  1
  Al  Al6  1  0.50000000  0.00000000  0.00000000  1
  Al  Al7  1  0.50000000  0.50000000  0.50000000  1
  Al  Al8  1  0.00000000  0.50000000  0.00000000  1
  Al  Al9  1  0.00000000  0.00000000  0.50000000  1
  Al  Al10  1  0.50000000  0.50000000  0.00000000  1
  Al  Al11  1  0.50000000  0.00000000  0.50000000  1
  Al  Al12  1  0.25000000  0.27364800  0.05214000  1
  Al  Al13  1  0.75000000  0.72635200  0.94786000  1
  Al  Al14  1  0.75000000  0.77364800  0.44786000  1
  Al  Al15  1  0.25000000  0.22635200  0.55214000  1
  Si  Si16  1  0.25000000  0.06610500  0.23625300  1
  Si  Si17  1  0.75000000  0.93389500  0.76374700  1
  Si  Si18  1  0.75000000  0.56610500  0.26374700  1
  Si  Si19  1  0.25000000  0.43389500  0.73625300  1
  B  B20  1  0.25000000  0.74883000  0.00048600  1
  B  B21  1  0.75000000  0.25117000  0.99951400  1
  B  B22  1  0.75000000  0.24883000  0.49951400  1
  B  B23  1  0.25000000  0.75117000  0.50048600  1
  O  O24  1  0.25000000  0.22501800  0.21160900  1
  O  O25  1  0.75000000  0.77498200  0.78839100  1
  O  O26  1  0.75000000  0.72501800  0.28839100  1
  O  O27  1  0.25000000  0.27498200  0.71160900  1
  O  O28  1  0.04537800  0.68062200  0.00149600  1
  O  O29  1  0.95462200  0.31937800  0.99850400  1
  O  O30  1  0.95462200  0.18062200  0.49850400  1
  O  O31  1  0.54537800  0.31937800  0.99850400  1
  O  O32  1  0.04537800  0.81937800  0.50149600  1
  O  O33  1  0.45462200  0.68062200  0.00149600  1
  O  O34  1  0.45462200  0.81937800  0.50149600  1
  O  O35  1  0.54537800  0.18062200  0.49850400  1
  O  O36  1  0.25000000  0.45311600  0.09966600  1
  O  O37  1  0.75000000  0.54688400  0.90033400  1
  O  O38  1  0.75000000  0.95311600  0.40033400  1
  O  O39  1  0.25000000  0.04688400  0.59966600  1
  O  O40  1  0.25000000  0.38142600  0.47769900  1
  O  O41  1  0.75000000  0.61857400  0.52230100  1
  O  O42  1  0.75000000  0.88142600  0.02230100  1
  O  O43  1  0.25000000  0.11857400  0.97769900  1
  O  O44  1  0.25000000  0.62147200  0.49637300  1
  O  O45  1  0.75000000  0.37852800  0.50362700  1
  O  O46  1  0.75000000  0.12147200  0.00362700  1
  O  O47  1  0.25000000  0.87852800  0.99637300  1
  O  O48  1  0.02209400  0.00715400  0.17038500  1
  O  O49  1  0.97790600  0.99284600  0.82961500  1
  O  O50  1  0.97790600  0.50715400  0.32961500  1
  O  O51  1  0.52209400  0.99284600  0.82961500  1
  O  O52  1  0.02209400  0.49284600  0.67038500  1
  O  O53  1  0.47790600  0.00715400  0.17038500  1
  O  O54  1  0.47790600  0.49284600  0.67038500  1
  O  O55  1  0.52209400  0.50715400  0.32961500  1
  O  O56  1  0.25000000  0.02616800  0.37957300  1
  O  O57  1  0.75000000  0.97383200  0.62042700  1
  O  O58  1  0.75000000  0.52616800  0.12042700  1
  O  O59  1  0.25000000  0.47383200  0.87957300  1
