# generated using pymatgen
data_Mg(PO3)2
_symmetry_space_group_name_H-M   'P 1'
_cell_length_a   7.29015515
_cell_length_b   7.29015515
_cell_length_c   10.10147746
_cell_angle_alpha   66.69766643
_cell_angle_beta   66.69766643
_cell_angle_gamma   70.06329336
_symmetry_Int_Tables_number   1
_chemical_formula_structural   Mg(PO3)2
_chemical_formula_sum   'Mg4 P8 O24'
_cell_volume   441.88151286
_cell_formula_units_Z   4
loop_
 _symmetry_equiv_pos_site_id
 _symmetry_equiv_pos_as_xyz
  1  'x, y, z'
loop_
 _atom_site_type_symbol
 _atom_site_label
 _atom_site_symmetry_multiplicity
 _atom_site_fract_x
 _atom_site_fract_y
 _atom_site_fract_z
 _atom_site_occupancy
  Mg  Mg0  1  0.95005100  0.04994900  0.75000000  1
  Mg  Mg1  1  0.04994900  0.95005100  0.25000000  1
  Mg  Mg2  1  0.00000000  0.50000000  0.50000000  1
  Mg  Mg3  1  0.50000000  0.00000000  0.00000000  1
  P  P4  1  0.26833400  0.74490400  0.52431000  1
  P  P5  1  0.25509600  0.73166600  0.97569000  1
  P  P6  1  0.73166600  0.25509600  0.47569000  1
  P  P7  1  0.74490400  0.26833400  0.02431000  1
  P  P8  1  0.70714200  0.68534800  0.80558800  1
  P  P9  1  0.31465200  0.29285800  0.69441200  1
  P  P10  1  0.29285800  0.31465200  0.19441200  1
  P  P11  1  0.68534800  0.70714200  0.30558800  1
  O  O12  1  0.14863800  0.90706300  0.59735400  1
  O  O13  1  0.09293700  0.85136200  0.90264600  1
  O  O14  1  0.85136200  0.09293700  0.40264600  1
  O  O15  1  0.90706300  0.14863800  0.09735400  1
  O  O16  1  0.18883800  0.71067500  0.41927000  1
  O  O17  1  0.28932500  0.81116200  0.08073000  1
  O  O18  1  0.81116200  0.28932500  0.58073000  1
  O  O19  1  0.71067500  0.18883800  0.91927000  1
  O  O20  1  0.49561100  0.78527200  0.43690800  1
  O  O21  1  0.21472800  0.50438900  0.06309200  1
  O  O22  1  0.50438900  0.21472800  0.56309200  1
  O  O23  1  0.78527200  0.49561100  0.93690800  1
  O  O24  1  0.81350800  0.64954800  0.65633700  1
  O  O25  1  0.35045200  0.18649200  0.84366300  1
  O  O26  1  0.18649200  0.35045200  0.34366300  1
  O  O27  1  0.64954800  0.81350800  0.15633700  1
  O  O28  1  0.72080800  0.87395800  0.82768600  1
  O  O29  1  0.12604200  0.27919200  0.67231400  1
  O  O30  1  0.27919200  0.12604200  0.17231400  1
  O  O31  1  0.87395800  0.72080800  0.32768600  1
  O  O32  1  0.46948000  0.68768900  0.84719300  1
  O  O33  1  0.31231100  0.53052000  0.65280700  1
  O  O34  1  0.53052000  0.31231100  0.15280700  1
  O  O35  1  0.68768900  0.46948000  0.34719300  1
