# generated using pymatgen
data_ErAu4
_symmetry_space_group_name_H-M   'P 1'
_cell_length_a   5.23223058
_cell_length_b   5.23223058
_cell_length_c   5.23223058
_cell_angle_alpha   99.34532050
_cell_angle_beta   99.34532050
_cell_angle_gamma   132.47211217
_symmetry_Int_Tables_number   1
_chemical_formula_structural   ErAu4
_chemical_formula_sum   'Er1 Au4'
_cell_volume   96.69577568
_cell_formula_units_Z   1
loop_
 _symmetry_equiv_pos_site_id
 _symmetry_equiv_pos_as_xyz
  1  'x, y, z'
loop_
 _atom_site_type_symbol
 _atom_site_label
 _atom_site_symmetry_multiplicity
 _atom_site_fract_x
 _atom_site_fract_y
 _atom_site_fract_z
 _atom_site_occupancy
  Er  Er0  1  0.00000000  0.00000000  0.00000000  1
  Au  Au1  1  0.40034700  0.19989300  0.60024100  1
  Au  Au2  1  0.59965300  0.80010700  0.39975900  1
  Au  Au3  1  0.80010700  0.40034700  0.20045400  1
  Au  Au4  1  0.19989300  0.59965300  0.79954600  1
