# generated using pymatgen
data_Sr(AlS2)2
_symmetry_space_group_name_H-M   'P 1'
_cell_length_a   14.80099946
_cell_length_b   12.24695321
_cell_length_c   11.99332931
_cell_angle_alpha   75.25696413
_cell_angle_beta   53.14911161
_cell_angle_gamma   51.59392425
_symmetry_Int_Tables_number   1
_chemical_formula_structural   Sr(AlS2)2
_chemical_formula_sum   'Sr8 Al16 S32'
_cell_volume   1338.83018038
_cell_formula_units_Z   8
loop_
 _symmetry_equiv_pos_site_id
 _symmetry_equiv_pos_as_xyz
  1  'x, y, z'
loop_
 _atom_site_type_symbol
 _atom_site_label
 _atom_site_symmetry_multiplicity
 _atom_site_fract_x
 _atom_site_fract_y
 _atom_site_fract_z
 _atom_site_occupancy
  Sr  Sr0  1  0.99869400  0.99869400  0.50130600  1
  Sr  Sr1  1  0.50130600  0.50130600  0.99869400  1
  Sr  Sr2  1  0.25130600  0.25130600  0.74869400  1
  Sr  Sr3  1  0.74869400  0.74869400  0.25130600  1
  Sr  Sr4  1  0.75000000  0.75000000  0.75000000  1
  Sr  Sr5  1  0.50000000  0.50000000  0.50000000  1
  Sr  Sr6  1  0.25000000  0.25000000  0.25000000  1
  Sr  Sr7  1  0.00000000  0.00000000  0.00000000  1
  Al  Al8  1  0.73317500  0.01604200  0.99064100  1
  Al  Al9  1  0.26014200  0.99064100  0.01604200  1
  Al  Al10  1  0.99064100  0.26014200  0.73317500  1
  Al  Al11  1  0.01604200  0.73317500  0.26014200  1
  Al  Al12  1  0.51682500  0.23395800  0.25935900  1
  Al  Al13  1  0.98985800  0.25935900  0.23395800  1
  Al  Al14  1  0.25935900  0.98985800  0.51682500  1
  Al  Al15  1  0.23395800  0.51682500  0.98985800  1
  Al  Al16  1  0.59363900  0.15655800  0.76192500  1
  Al  Al17  1  0.48787900  0.76192500  0.15655800  1
  Al  Al18  1  0.76192500  0.48787900  0.59363900  1
  Al  Al19  1  0.15655800  0.59363900  0.48787900  1
  Al  Al20  1  0.65636100  0.09344200  0.48807500  1
  Al  Al21  1  0.76212100  0.48807500  0.09344200  1
  Al  Al22  1  0.48807500  0.76212100  0.65636100  1
  Al  Al23  1  0.09344200  0.65636100  0.76212100  1
  S  S24  1  0.31552900  0.43584500  0.28505200  1
  S  S25  1  0.96357400  0.28505200  0.43584500  1
  S  S26  1  0.28505200  0.96357400  0.31552900  1
  S  S27  1  0.43584500  0.31552900  0.96357400  1
  S  S28  1  0.93447100  0.81415500  0.96494800  1
  S  S29  1  0.28642600  0.96494800  0.81415500  1
  S  S30  1  0.96494800  0.28642600  0.93447100  1
  S  S31  1  0.81415500  0.93447100  0.28642600  1
  S  S32  1  0.04552100  0.04322400  0.20510800  1
  S  S33  1  0.70614800  0.20510800  0.04322400  1
  S  S34  1  0.20510800  0.70614800  0.04552100  1
  S  S35  1  0.04322400  0.04552100  0.70614800  1
  S  S36  1  0.20447900  0.20677600  0.04489200  1
  S  S37  1  0.54385200  0.04489200  0.20677600  1
  S  S38  1  0.04489200  0.54385200  0.20447900  1
  S  S39  1  0.20677600  0.20447900  0.54385200  1
  S  S40  1  0.54466300  0.54336200  0.20534200  1
  S  S41  1  0.70663300  0.20534200  0.54336200  1
  S  S42  1  0.20534200  0.70663300  0.54466300  1
  S  S43  1  0.54336200  0.54466300  0.70663300  1
  S  S44  1  0.70533700  0.70663800  0.04465800  1
  S  S45  1  0.54336700  0.04465800  0.70663800  1
  S  S46  1  0.04465800  0.54336700  0.70533700  1
  S  S47  1  0.70663800  0.70533700  0.54336700  1
  S  S48  1  0.97957400  0.76899600  0.46267100  1
  S  S49  1  0.78875900  0.46267100  0.76899600  1
  S  S50  1  0.46267100  0.78875900  0.97957400  1
  S  S51  1  0.76899600  0.97957400  0.78875900  1
  S  S52  1  0.27042600  0.48100400  0.78732900  1
  S  S53  1  0.46124100  0.78732900  0.48100400  1
  S  S54  1  0.78732900  0.46124100  0.27042600  1
  S  S55  1  0.48100400  0.27042600  0.46124100  1
