# generated using pymatgen
data_Rb3Ho(PO4)2
_symmetry_space_group_name_H-M   'P 1'
_cell_length_a   5.76178013
_cell_length_b   5.76178013
_cell_length_c   8.07339400
_cell_angle_alpha   90.00000000
_cell_angle_beta   90.00000000
_cell_angle_gamma   120.00000148
_symmetry_Int_Tables_number   1
_chemical_formula_structural   Rb3Ho(PO4)2
_chemical_formula_sum   'Rb3 Ho1 P2 O8'
_cell_volume   232.11335860
_cell_formula_units_Z   1
loop_
 _symmetry_equiv_pos_site_id
 _symmetry_equiv_pos_as_xyz
  1  'x, y, z'
loop_
 _atom_site_type_symbol
 _atom_site_label
 _atom_site_symmetry_multiplicity
 _atom_site_fract_x
 _atom_site_fract_y
 _atom_site_fract_z
 _atom_site_occupancy
  Rb  Rb0  1  0.33333300  0.66666700  0.74176500  1
  Rb  Rb1  1  0.66666700  0.33333300  0.25823500  1
  Rb  Rb2  1  0.00000000  0.00000000  0.00000000  1
  Ho  Ho3  1  0.00000000  0.00000000  0.50000000  1
  P  P4  1  0.33333300  0.66666700  0.27340900  1
  P  P5  1  0.66666700  0.33333300  0.72659100  1
  O  O6  1  0.33333300  0.66666700  0.08526400  1
  O  O7  1  0.66666700  0.33333300  0.91473600  1
  O  O8  1  0.18605900  0.81394100  0.34175800  1
  O  O9  1  0.81394100  0.18605900  0.65824200  1
  O  O10  1  0.18605900  0.37211900  0.34175800  1
  O  O11  1  0.81394100  0.62788100  0.65824200  1
  O  O12  1  0.62788100  0.81394100  0.34175800  1
  O  O13  1  0.37211900  0.18605900  0.65824200  1
