# generated using pymatgen
data_ErB4W
_symmetry_space_group_name_H-M   'P 1'
_cell_length_a   3.61118900
_cell_length_b   6.01891000
_cell_length_c   11.62922000
_cell_angle_alpha   90.00000000
_cell_angle_beta   90.00000000
_cell_angle_gamma   90.00000000
_symmetry_Int_Tables_number   1
_chemical_formula_structural   ErB4W
_chemical_formula_sum   'Er4 B16 W4'
_cell_volume   252.76599939
_cell_formula_units_Z   4
loop_
 _symmetry_equiv_pos_site_id
 _symmetry_equiv_pos_as_xyz
  1  'x, y, z'
loop_
 _atom_site_type_symbol
 _atom_site_label
 _atom_site_symmetry_multiplicity
 _atom_site_fract_x
 _atom_site_fract_y
 _atom_site_fract_z
 _atom_site_occupancy
  Er  Er0  1  0.00000000  0.62644800  0.35069200  1
  Er  Er1  1  0.00000000  0.37355200  0.64930800  1
  Er  Er2  1  0.00000000  0.12644800  0.14930800  1
  Er  Er3  1  0.00000000  0.87355200  0.85069200  1
  B  B4  1  0.50000000  0.78663100  0.18699100  1
  B  B5  1  0.50000000  0.21336900  0.81300900  1
  B  B6  1  0.50000000  0.28663100  0.31300900  1
  B  B7  1  0.50000000  0.71336900  0.68699100  1
  B  B8  1  0.50000000  0.86705700  0.03220200  1
  B  B9  1  0.50000000  0.13294300  0.96779800  1
  B  B10  1  0.50000000  0.36705700  0.46779800  1
  B  B11  1  0.50000000  0.63294300  0.53220200  1
  B  B12  1  0.50000000  0.88523700  0.45243800  1
  B  B13  1  0.50000000  0.11476300  0.54756200  1
  B  B14  1  0.50000000  0.38523700  0.04756200  1
  B  B15  1  0.50000000  0.61476300  0.95243800  1
  B  B16  1  0.50000000  0.97547600  0.30632100  1
  B  B17  1  0.50000000  0.02452400  0.69367900  1
  B  B18  1  0.50000000  0.47547600  0.19367900  1
  B  B19  1  0.50000000  0.52452400  0.80632100  1
  W  W20  1  0.00000000  0.63096100  0.08475800  1
  W  W21  1  0.00000000  0.36903900  0.91524200  1
  W  W22  1  0.00000000  0.13096100  0.41524200  1
  W  W23  1  0.00000000  0.86903900  0.58475800  1
