# generated using pymatgen
data_Sr5P3O13
_symmetry_space_group_name_H-M   'P 1'
_cell_length_a   9.90671984
_cell_length_b   9.90671984
_cell_length_c   7.35430800
_cell_angle_alpha   90.00000000
_cell_angle_beta   90.00000000
_cell_angle_gamma   119.99999891
_symmetry_Int_Tables_number   1
_chemical_formula_structural   Sr5P3O13
_chemical_formula_sum   'Sr10 P6 O26'
_cell_volume   625.07512049
_cell_formula_units_Z   2
loop_
 _symmetry_equiv_pos_site_id
 _symmetry_equiv_pos_as_xyz
  1  'x, y, z'
loop_
 _atom_site_type_symbol
 _atom_site_label
 _atom_site_symmetry_multiplicity
 _atom_site_fract_x
 _atom_site_fract_y
 _atom_site_fract_z
 _atom_site_occupancy
  Sr  Sr0  1  0.66666700  0.33333300  0.00031100  1
  Sr  Sr1  1  0.33333300  0.66666700  0.99968900  1
  Sr  Sr2  1  0.33333300  0.66666700  0.50031100  1
  Sr  Sr3  1  0.66666700  0.33333300  0.49968900  1
  Sr  Sr4  1  0.75619600  0.01048000  0.75000000  1
  Sr  Sr5  1  0.24380400  0.98952000  0.25000000  1
  Sr  Sr6  1  0.25428400  0.24380400  0.75000000  1
  Sr  Sr7  1  0.74571600  0.75619600  0.25000000  1
  Sr  Sr8  1  0.98952000  0.74571600  0.75000000  1
  Sr  Sr9  1  0.01048000  0.25428400  0.25000000  1
  P  P10  1  0.60157600  0.63152800  0.75000000  1
  P  P11  1  0.39842400  0.36847200  0.25000000  1
  P  P12  1  0.02995200  0.39842400  0.75000000  1
  P  P13  1  0.97004800  0.60157600  0.25000000  1
  P  P14  1  0.36847200  0.97004800  0.75000000  1
  P  P15  1  0.63152800  0.02995200  0.25000000  1
  O  O16  1  0.85025200  0.32956200  0.75000000  1
  O  O17  1  0.14974800  0.67043800  0.25000000  1
  O  O18  1  0.47930900  0.14974800  0.75000000  1
  O  O19  1  0.52069100  0.85025200  0.25000000  1
  O  O20  1  0.67043800  0.52069100  0.75000000  1
  O  O21  1  0.32956200  0.47930900  0.25000000  1
  O  O22  1  0.00000000  0.00000000  0.75000000  1
  O  O23  1  0.00000000  0.00000000  0.25000000  1
  O  O24  1  0.41984100  0.53775900  0.75000000  1
  O  O25  1  0.58015900  0.46224100  0.25000000  1
  O  O26  1  0.11791800  0.58015900  0.75000000  1
  O  O27  1  0.88208200  0.41984100  0.25000000  1
  O  O28  1  0.46224100  0.88208200  0.75000000  1
  O  O29  1  0.53775900  0.11791800  0.25000000  1
  O  O30  1  0.65574900  0.73833600  0.92145700  1
  O  O31  1  0.34425100  0.26166400  0.07854300  1
  O  O32  1  0.08258700  0.34425100  0.92145700  1
  O  O33  1  0.34425100  0.26166400  0.42145700  1
  O  O34  1  0.91741300  0.65574900  0.07854300  1
  O  O35  1  0.65574900  0.73833600  0.57854300  1
  O  O36  1  0.26166400  0.91741300  0.92145700  1
  O  O37  1  0.91741300  0.65574900  0.42145700  1
  O  O38  1  0.73833600  0.08258700  0.07854300  1
  O  O39  1  0.08258700  0.34425100  0.57854300  1
  O  O40  1  0.73833600  0.08258700  0.42145700  1
  O  O41  1  0.26166400  0.91741300  0.57854300  1
