# generated using pymatgen
data_KEr(MoO4)2
_symmetry_space_group_name_H-M   'P 1'
_cell_length_a   5.11755200
_cell_length_b   8.06663100
_cell_length_c   18.42838300
_cell_angle_alpha   90.00000000
_cell_angle_beta   90.00000000
_cell_angle_gamma   90.00000000
_symmetry_Int_Tables_number   1
_chemical_formula_structural   KEr(MoO4)2
_chemical_formula_sum   'K4 Er4 Mo8 O32'
_cell_volume   760.74951645
_cell_formula_units_Z   4
loop_
 _symmetry_equiv_pos_site_id
 _symmetry_equiv_pos_as_xyz
  1  'x, y, z'
loop_
 _atom_site_type_symbol
 _atom_site_label
 _atom_site_symmetry_multiplicity
 _atom_site_fract_x
 _atom_site_fract_y
 _atom_site_fract_z
 _atom_site_occupancy
  K  K0  1  0.00000000  0.75000000  0.76990900  1
  K  K1  1  0.00000000  0.25000000  0.23009100  1
  K  K2  1  0.50000000  0.25000000  0.73009100  1
  K  K3  1  0.50000000  0.75000000  0.26990900  1
  Er  Er4  1  0.00000000  0.75000000  0.00587300  1
  Er  Er5  1  0.00000000  0.25000000  0.99412700  1
  Er  Er6  1  0.50000000  0.25000000  0.49412700  1
  Er  Er7  1  0.50000000  0.75000000  0.50587300  1
  Mo  Mo8  1  0.02236000  0.51610000  0.39911900  1
  Mo  Mo9  1  0.97764000  0.48390000  0.60088100  1
  Mo  Mo10  1  0.47764000  0.01610000  0.10088100  1
  Mo  Mo11  1  0.97764000  0.98390000  0.39911900  1
  Mo  Mo12  1  0.52236000  0.98390000  0.89911900  1
  Mo  Mo13  1  0.02236000  0.01610000  0.60088100  1
  Mo  Mo14  1  0.52236000  0.48390000  0.10088100  1
  Mo  Mo15  1  0.47764000  0.51610000  0.89911900  1
  O  O16  1  0.10213100  0.97444400  0.31074100  1
  O  O17  1  0.89786900  0.02555600  0.68925900  1
  O  O18  1  0.39786900  0.47444400  0.18925900  1
  O  O19  1  0.89786900  0.52555600  0.31074100  1
  O  O20  1  0.60213100  0.52555600  0.81074100  1
  O  O21  1  0.10213100  0.47444400  0.68925900  1
  O  O22  1  0.60213100  0.02555600  0.18925900  1
  O  O23  1  0.39786900  0.97444400  0.81074100  1
  O  O24  1  0.26760700  0.83738700  0.09855800  1
  O  O25  1  0.73239300  0.16261300  0.90144200  1
  O  O26  1  0.23239300  0.33738700  0.40144200  1
  O  O27  1  0.73239300  0.66261300  0.09855800  1
  O  O28  1  0.76760700  0.66261300  0.59855800  1
  O  O29  1  0.26760700  0.33738700  0.90144200  1
  O  O30  1  0.76760700  0.16261300  0.40144200  1
  O  O31  1  0.23239300  0.83738700  0.59855800  1
  O  O32  1  0.24699700  0.50480400  0.03466300  1
  O  O33  1  0.75300300  0.49519600  0.96533700  1
  O  O34  1  0.25300300  0.00480400  0.46533700  1
  O  O35  1  0.75300300  0.99519600  0.03466300  1
  O  O36  1  0.74699700  0.99519600  0.53466300  1
  O  O37  1  0.24699700  0.00480400  0.96533700  1
  O  O38  1  0.74699700  0.49519600  0.46533700  1
  O  O39  1  0.25300300  0.50480400  0.53466300  1
  O  O40  1  0.24710300  0.69039400  0.40781600  1
  O  O41  1  0.75289700  0.30960600  0.59218400  1
  O  O42  1  0.25289700  0.19039400  0.09218400  1
  O  O43  1  0.75289700  0.80960600  0.40781600  1
  O  O44  1  0.74710300  0.80960600  0.90781600  1
  O  O45  1  0.24710300  0.19039400  0.59218400  1
  O  O46  1  0.74710300  0.30960600  0.09218400  1
  O  O47  1  0.25289700  0.69039400  0.90781600  1
