# generated using pymatgen
data_NpPO4F
_symmetry_space_group_name_H-M   'P 1'
_cell_length_a   6.41705800
_cell_length_b   6.99804900
_cell_length_c   8.67139300
_cell_angle_alpha   90.00000000
_cell_angle_beta   90.00000000
_cell_angle_gamma   90.00000000
_symmetry_Int_Tables_number   1
_chemical_formula_structural   NpPO4F
_chemical_formula_sum   'Np4 P4 O16 F4'
_cell_volume   389.40525969
_cell_formula_units_Z   4
loop_
 _symmetry_equiv_pos_site_id
 _symmetry_equiv_pos_as_xyz
  1  'x, y, z'
loop_
 _atom_site_type_symbol
 _atom_site_label
 _atom_site_symmetry_multiplicity
 _atom_site_fract_x
 _atom_site_fract_y
 _atom_site_fract_z
 _atom_site_occupancy
  Np  Np0  1  0.65126900  0.25000000  0.94329900  1
  Np  Np1  1  0.15126900  0.75000000  0.55670100  1
  Np  Np2  1  0.34873100  0.75000000  0.05670100  1
  Np  Np3  1  0.84873100  0.25000000  0.44329900  1
  P  P4  1  0.17891200  0.25000000  0.09954400  1
  P  P5  1  0.67891200  0.75000000  0.40045600  1
  P  P6  1  0.82108800  0.75000000  0.90045600  1
  P  P7  1  0.32108800  0.25000000  0.59954400  1
  O  O8  1  0.10459800  0.25000000  0.26720600  1
  O  O9  1  0.60459800  0.75000000  0.23279400  1
  O  O10  1  0.89540200  0.75000000  0.73279400  1
  O  O11  1  0.39540200  0.25000000  0.76720600  1
  O  O12  1  0.67421800  0.57562500  0.93296700  1
  O  O13  1  0.17421800  0.42437500  0.56703300  1
  O  O14  1  0.32578200  0.07562500  0.06703300  1
  O  O15  1  0.82578200  0.92437500  0.43296700  1
  O  O16  1  0.32578200  0.42437500  0.06703300  1
  O  O17  1  0.82578200  0.57562500  0.43296700  1
  O  O18  1  0.67421800  0.92437500  0.93296700  1
  O  O19  1  0.17421800  0.07562500  0.56703300  1
  O  O20  1  0.50613300  0.25000000  0.48742200  1
  O  O21  1  0.00613300  0.75000000  0.01257800  1
  O  O22  1  0.49386700  0.75000000  0.51257800  1
  O  O23  1  0.99386700  0.25000000  0.98742200  1
  F  F24  1  0.69221600  0.25000000  0.20590000  1
  F  F25  1  0.19221600  0.75000000  0.29410000  1
  F  F26  1  0.30778400  0.75000000  0.79410000  1
  F  F27  1  0.80778400  0.25000000  0.70590000  1
