# generated using pymatgen
data_PrAlZn
_symmetry_space_group_name_H-M   'P 1'
_cell_length_a   5.82745399
_cell_length_b   5.82745399
_cell_length_c   7.56794023
_cell_angle_alpha   50.66010611
_cell_angle_beta   50.66010611
_cell_angle_gamma   46.90005706
_symmetry_Int_Tables_number   1
_chemical_formula_structural   PrAlZn
_chemical_formula_sum   'Pr2 Al2 Zn2'
_cell_volume   135.64753553
_cell_formula_units_Z   2
loop_
 _symmetry_equiv_pos_site_id
 _symmetry_equiv_pos_as_xyz
  1  'x, y, z'
loop_
 _atom_site_type_symbol
 _atom_site_label
 _atom_site_symmetry_multiplicity
 _atom_site_fract_x
 _atom_site_fract_y
 _atom_site_fract_z
 _atom_site_occupancy
  Pr  Pr0  1  0.53543400  0.53543400  0.21130300  1
  Pr  Pr1  1  0.46456600  0.46456600  0.78869700  1
  Al  Al2  1  0.16270000  0.16270000  0.39122400  1
  Al  Al3  1  0.83730000  0.83730000  0.60877600  1
  Zn  Zn4  1  0.83614400  0.83614400  0.21871900  1
  Zn  Zn5  1  0.16385600  0.16385600  0.78128100  1
