# generated using pymatgen
data_La7Ir3
_symmetry_space_group_name_H-M   'P 1'
_cell_length_a   6.47986600
_cell_length_b   10.28367948
_cell_length_c   10.28367948
_cell_angle_alpha   119.97375936
_cell_angle_beta   90.00000000
_cell_angle_gamma   90.00000000
_symmetry_Int_Tables_number   1
_chemical_formula_structural   La7Ir3
_chemical_formula_sum   'La14 Ir6'
_cell_volume   593.61996084
_cell_formula_units_Z   2
loop_
 _symmetry_equiv_pos_site_id
 _symmetry_equiv_pos_as_xyz
  1  'x, y, z'
loop_
 _atom_site_type_symbol
 _atom_site_label
 _atom_site_symmetry_multiplicity
 _atom_site_fract_x
 _atom_site_fract_y
 _atom_site_fract_z
 _atom_site_occupancy
  La  La0  1  0.46736000  0.33329900  0.66670100  1
  La  La1  1  0.96736000  0.66670100  0.33329900  1
  La  La2  1  0.24995700  0.12551900  0.87448100  1
  La  La3  1  0.24996500  0.74887800  0.87446500  1
  La  La4  1  0.24996500  0.12553500  0.25112200  1
  La  La5  1  0.74995700  0.87448100  0.12551900  1
  La  La6  1  0.74996500  0.25112200  0.12553500  1
  La  La7  1  0.74996500  0.87446500  0.74887800  1
  La  La8  1  0.44004000  0.54014800  0.45985200  1
  La  La9  1  0.43989500  0.91974500  0.45993300  1
  La  La10  1  0.43989500  0.54006700  0.08025500  1
  La  La11  1  0.94004000  0.45985200  0.54014800  1
  La  La12  1  0.93989500  0.08025500  0.54006700  1
  La  La13  1  0.93989500  0.45993300  0.91974500  1
  Ir  Ir14  1  0.18796800  0.81114700  0.18885300  1
  Ir  Ir15  1  0.18797700  0.37769100  0.18885900  1
  Ir  Ir16  1  0.18797700  0.81114100  0.62230900  1
  Ir  Ir17  1  0.68796800  0.18885300  0.81114700  1
  Ir  Ir18  1  0.68797700  0.62230900  0.81114100  1
  Ir  Ir19  1  0.68797700  0.18885900  0.37769100  1
