# generated using pymatgen
data_Tb2Si4Mo3
_symmetry_space_group_name_H-M   'P 1'
_cell_length_a   6.95040200
_cell_length_b   6.76814900
_cell_length_c   6.88994661
_cell_angle_alpha   71.04074410
_cell_angle_beta   90.00000000
_cell_angle_gamma   90.00000000
_symmetry_Int_Tables_number   1
_chemical_formula_structural   Tb2Si4Mo3
_chemical_formula_sum   'Tb4 Si8 Mo6'
_cell_volume   306.52928682
_cell_formula_units_Z   2
loop_
 _symmetry_equiv_pos_site_id
 _symmetry_equiv_pos_as_xyz
  1  'x, y, z'
loop_
 _atom_site_type_symbol
 _atom_site_label
 _atom_site_symmetry_multiplicity
 _atom_site_fract_x
 _atom_site_fract_y
 _atom_site_fract_z
 _atom_site_occupancy
  Tb  Tb0  1  0.33153700  0.56068200  0.80957000  1
  Tb  Tb1  1  0.83153700  0.93931800  0.19043000  1
  Tb  Tb2  1  0.66846300  0.43931800  0.19043000  1
  Tb  Tb3  1  0.16846300  0.06068200  0.80957000  1
  Si  Si4  1  0.54494100  0.86955400  0.90921100  1
  Si  Si5  1  0.04494100  0.63044600  0.09078900  1
  Si  Si6  1  0.45505900  0.13044600  0.09078900  1
  Si  Si7  1  0.95505900  0.36955400  0.90921100  1
  Si  Si8  1  0.13225100  0.87060100  0.49482400  1
  Si  Si9  1  0.63225100  0.62939900  0.50517600  1
  Si  Si10  1  0.86774900  0.12939900  0.50517600  1
  Si  Si11  1  0.36774900  0.37060100  0.49482400  1
  Mo  Mo12  1  0.50000000  0.00000000  0.50000000  1
  Mo  Mo13  1  0.00000000  0.50000000  0.50000000  1
  Mo  Mo14  1  0.83721600  0.75035700  0.75071500  1
  Mo  Mo15  1  0.33721600  0.74964300  0.24928500  1
  Mo  Mo16  1  0.16278400  0.24964300  0.24928500  1
  Mo  Mo17  1  0.66278400  0.25035700  0.75071500  1
