# generated using pymatgen
data_La2SiC(NO2)2
_symmetry_space_group_name_H-M   'P 1'
_cell_length_a   12.91621600
_cell_length_b   6.57529500
_cell_length_c   6.68015702
_cell_angle_alpha   74.72482020
_cell_angle_beta   90.00000000
_cell_angle_gamma   90.00000000
_symmetry_Int_Tables_number   1
_chemical_formula_structural   La2SiC(NO2)2
_chemical_formula_sum   'La8 Si4 C4 N8 O16'
_cell_volume   547.28900265
_cell_formula_units_Z   4
loop_
 _symmetry_equiv_pos_site_id
 _symmetry_equiv_pos_as_xyz
  1  'x, y, z'
loop_
 _atom_site_type_symbol
 _atom_site_label
 _atom_site_symmetry_multiplicity
 _atom_site_fract_x
 _atom_site_fract_y
 _atom_site_fract_z
 _atom_site_occupancy
  La  La0  1  0.09914300  0.58831400  0.21887200  1
  La  La1  1  0.59914300  0.41168600  0.28112800  1
  La  La2  1  0.90085700  0.41168600  0.78112800  1
  La  La3  1  0.40085700  0.58831400  0.71887200  1
  La  La4  1  0.85480500  0.96956000  0.33021400  1
  La  La5  1  0.35480500  0.03044000  0.16978600  1
  La  La6  1  0.14519500  0.03044000  0.66978600  1
  La  La7  1  0.64519500  0.96956000  0.83021400  1
  Si  Si8  1  0.90072900  0.90771100  0.81280000  1
  Si  Si9  1  0.40072900  0.09228900  0.68720000  1
  Si  Si10  1  0.09927100  0.09228900  0.18720000  1
  Si  Si11  1  0.59927100  0.90771100  0.31280000  1
  C  C12  1  0.84817300  0.47400100  0.26862900  1
  C  C13  1  0.34817300  0.52599900  0.23137100  1
  C  C14  1  0.15182700  0.52599900  0.73137100  1
  C  C15  1  0.65182700  0.47400100  0.76862900  1
  N  N16  1  0.90227300  0.57473300  0.36163800  1
  N  N17  1  0.40227300  0.42526700  0.13836200  1
  N  N18  1  0.09772700  0.42526700  0.63836200  1
  N  N19  1  0.59772700  0.57473300  0.86163800  1
  N  N20  1  0.79574600  0.37043600  0.17590000  1
  N  N21  1  0.29574600  0.62956400  0.32410000  1
  N  N22  1  0.20425400  0.62956400  0.82410000  1
  N  N23  1  0.70425400  0.37043600  0.67590000  1
  O  O24  1  0.05204600  0.89404100  0.37068000  1
  O  O25  1  0.55204600  0.10595900  0.12932000  1
  O  O26  1  0.94795400  0.10595900  0.62932000  1
  O  O27  1  0.44795400  0.89404100  0.87068000  1
  O  O28  1  0.99302600  0.74674500  0.91569200  1
  O  O29  1  0.49302600  0.25325500  0.58430800  1
  O  O30  1  0.00697400  0.25325500  0.08430800  1
  O  O31  1  0.50697400  0.74674500  0.41569200  1
  O  O32  1  0.83371300  0.02544900  0.95943000  1
  O  O33  1  0.33371300  0.97455100  0.54057000  1
  O  O34  1  0.16628700  0.97455100  0.04057000  1
  O  O35  1  0.66628700  0.02544900  0.45943000  1
  O  O36  1  0.81999700  0.77698600  0.70287100  1
  O  O37  1  0.31999700  0.22301400  0.79712900  1
  O  O38  1  0.18000300  0.22301400  0.29712900  1
  O  O39  1  0.68000300  0.77698600  0.20287100  1
