# generated using pymatgen
data_K2Mg5Sn3
_symmetry_space_group_name_H-M   'P 1'
_cell_length_a   12.35009804
_cell_length_b   12.35009804
_cell_length_c   12.35009804
_cell_angle_alpha   156.64755513
_cell_angle_beta   156.64755513
_cell_angle_gamma   33.26235766
_symmetry_Int_Tables_number   1
_chemical_formula_structural   K2Mg5Sn3
_chemical_formula_sum   'K2 Mg5 Sn3'
_cell_volume   295.70009429
_cell_formula_units_Z   1
loop_
 _symmetry_equiv_pos_site_id
 _symmetry_equiv_pos_as_xyz
  1  'x, y, z'
loop_
 _atom_site_type_symbol
 _atom_site_label
 _atom_site_symmetry_multiplicity
 _atom_site_fract_x
 _atom_site_fract_y
 _atom_site_fract_z
 _atom_site_occupancy
  K  K0  1  0.80095300  0.80095300  0.00000000  1
  K  K1  1  0.19904700  0.19904700  0.00000000  1
  Mg  Mg2  1  0.42139600  0.92139600  0.50000000  1
  Mg  Mg3  1  0.92139600  0.42139600  0.50000000  1
  Mg  Mg4  1  0.57860400  0.07860400  0.50000000  1
  Mg  Mg5  1  0.07860400  0.57860400  0.50000000  1
  Mg  Mg6  1  0.50000000  0.50000000  0.00000000  1
  Sn  Sn7  1  0.00000000  0.00000000  0.00000000  1
  Sn  Sn8  1  0.35836300  0.35836300  0.00000000  1
  Sn  Sn9  1  0.64163700  0.64163700  0.00000000  1
