# generated using pymatgen
data_Er5(GeSb)2
_symmetry_space_group_name_H-M   'P 1'
_cell_length_a   8.47153679
_cell_length_b   8.47153679
_cell_length_c   7.87708800
_cell_angle_alpha   90.00000000
_cell_angle_beta   90.00000000
_cell_angle_gamma   124.82735686
_symmetry_Int_Tables_number   1
_chemical_formula_structural   Er5(GeSb)2
_chemical_formula_sum   'Er10 Ge4 Sb4'
_cell_volume   464.05342813
_cell_formula_units_Z   2
loop_
 _symmetry_equiv_pos_site_id
 _symmetry_equiv_pos_as_xyz
  1  'x, y, z'
loop_
 _atom_site_type_symbol
 _atom_site_label
 _atom_site_symmetry_multiplicity
 _atom_site_fract_x
 _atom_site_fract_y
 _atom_site_fract_z
 _atom_site_occupancy
  Er  Er0  1  0.03661500  0.29265300  0.33600300  1
  Er  Er1  1  0.96338500  0.70734700  0.66399700  1
  Er  Er2  1  0.46338500  0.20734700  0.83600300  1
  Er  Er3  1  0.79265300  0.53661500  0.16399700  1
  Er  Er4  1  0.53661500  0.79265300  0.16399700  1
  Er  Er5  1  0.20734700  0.46338500  0.83600300  1
  Er  Er6  1  0.70734700  0.96338500  0.66399700  1
  Er  Er7  1  0.29265300  0.03661500  0.33600300  1
  Er  Er8  1  0.00000000  0.00000000  0.00000000  1
  Er  Er9  1  0.50000000  0.50000000  0.50000000  1
  Ge  Ge10  1  0.36122300  0.36122300  0.13766700  1
  Ge  Ge11  1  0.63877700  0.63877700  0.86233300  1
  Ge  Ge12  1  0.13877700  0.13877700  0.63766700  1
  Ge  Ge13  1  0.86122300  0.86122300  0.36233300  1
  Sb  Sb14  1  0.79505300  0.20494700  0.00000000  1
  Sb  Sb15  1  0.20494700  0.79505300  0.00000000  1
  Sb  Sb16  1  0.70494700  0.29505300  0.50000000  1
  Sb  Sb17  1  0.29505300  0.70494700  0.50000000  1
