# generated using pymatgen
data_GaH6C2SeI3
_symmetry_space_group_name_H-M   'P 1'
_cell_length_a   13.07535300
_cell_length_b   7.88155200
_cell_length_c   12.74547742
_cell_angle_alpha   64.90239848
_cell_angle_beta   90.00000000
_cell_angle_gamma   90.00000000
_symmetry_Int_Tables_number   1
_chemical_formula_structural   GaH6C2SeI3
_chemical_formula_sum   'Ga4 H24 C8 Se4 I12'
_cell_volume   1189.46383508
_cell_formula_units_Z   4
loop_
 _symmetry_equiv_pos_site_id
 _symmetry_equiv_pos_as_xyz
  1  'x, y, z'
loop_
 _atom_site_type_symbol
 _atom_site_label
 _atom_site_symmetry_multiplicity
 _atom_site_fract_x
 _atom_site_fract_y
 _atom_site_fract_z
 _atom_site_occupancy
  Ga  Ga0  1  0.70120000  0.76841300  0.36053400  1
  Ga  Ga1  1  0.79880000  0.76841300  0.86053400  1
  Ga  Ga2  1  0.29880000  0.23158700  0.63946600  1
  Ga  Ga3  1  0.20120000  0.23158700  0.13946600  1
  H  H4  1  0.64094900  0.26694400  0.34451600  1
  H  H5  1  0.85905100  0.26694400  0.84451600  1
  H  H6  1  0.35905100  0.73305600  0.65548400  1
  H  H7  1  0.14094900  0.73305600  0.15548400  1
  H  H8  1  0.68728000  0.37867900  0.19804600  1
  H  H9  1  0.81272000  0.37867900  0.69804600  1
  H  H10  1  0.31272000  0.62132100  0.80195400  1
  H  H11  1  0.18728000  0.62132100  0.30195400  1
  H  H12  1  0.60292400  0.17909800  0.24008000  1
  H  H13  1  0.89707600  0.17909800  0.74008000  1
  H  H14  1  0.39707600  0.82090200  0.75992000  1
  H  H15  1  0.10292400  0.82090200  0.25992000  1
  H  H16  1  0.86996700  0.00182300  0.16248900  1
  H  H17  1  0.63003300  0.00182300  0.66248900  1
  H  H18  1  0.13003300  0.99817700  0.83751100  1
  H  H19  1  0.36996700  0.99817700  0.33751100  1
  H  H20  1  0.89568600  0.24134000  0.13582900  1
  H  H21  1  0.60431400  0.24134000  0.63582900  1
  H  H22  1  0.10431400  0.75866000  0.86417100  1
  H  H23  1  0.39568600  0.75866000  0.36417100  1
  H  H24  1  0.77276600  0.17761000  0.09711300  1
  H  H25  1  0.72723400  0.17761000  0.59711300  1
  H  H26  1  0.22723400  0.82239000  0.90288700  1
  H  H27  1  0.27276600  0.82239000  0.40288700  1
  C  C28  1  0.66366100  0.24596800  0.26815600  1
  C  C29  1  0.83633900  0.24596800  0.76815600  1
  C  C30  1  0.33633900  0.75403200  0.73184400  1
  C  C31  1  0.16366100  0.75403200  0.23184400  1
  C  C32  1  0.83692900  0.13251400  0.15767400  1
  C  C33  1  0.66307100  0.13251400  0.65767400  1
  C  C34  1  0.16307100  0.86748600  0.84232600  1
  C  C35  1  0.33692900  0.86748600  0.34232600  1
  Se  Se36  1  0.78532800  0.08293600  0.31331500  1
  Se  Se37  1  0.71467200  0.08293600  0.81331500  1
  Se  Se38  1  0.21467200  0.91706400  0.68668500  1
  Se  Se39  1  0.28532800  0.91706400  0.18668500  1
  I  I40  1  0.59420000  0.70781500  0.54118400  1
  I  I41  1  0.90580000  0.70781500  0.04118400  1
  I  I42  1  0.40580000  0.29218500  0.45881600  1
  I  I43  1  0.09420000  0.29218500  0.95881600  1
  I  I44  1  0.59647400  0.80872200  0.18099000  1
  I  I45  1  0.90352600  0.80872200  0.68099000  1
  I  I46  1  0.40352600  0.19127800  0.81901000  1
  I  I47  1  0.09647400  0.19127800  0.31901000  1
  I  I48  1  0.85501300  0.54700200  0.40167700  1
  I  I49  1  0.64498700  0.54700200  0.90167700  1
  I  I50  1  0.14498700  0.45299800  0.59832300  1
  I  I51  1  0.35501300  0.45299800  0.09832300  1
