# generated using pymatgen
data_MnTl(PO3)3
_symmetry_space_group_name_H-M   'P 1'
_cell_length_a   9.61175600
_cell_length_b   7.45148100
_cell_length_c   12.38921200
_cell_angle_alpha   90.00000000
_cell_angle_beta   90.00000000
_cell_angle_gamma   90.00000000
_symmetry_Int_Tables_number   1
_chemical_formula_structural   MnTl(PO3)3
_chemical_formula_sum   'Mn4 Tl4 P12 O36'
_cell_volume   887.33787725
_cell_formula_units_Z   4
loop_
 _symmetry_equiv_pos_site_id
 _symmetry_equiv_pos_as_xyz
  1  'x, y, z'
loop_
 _atom_site_type_symbol
 _atom_site_label
 _atom_site_symmetry_multiplicity
 _atom_site_fract_x
 _atom_site_fract_y
 _atom_site_fract_z
 _atom_site_occupancy
  Mn  Mn0  1  0.98692900  0.25000000  0.21835000  1
  Mn  Mn1  1  0.48692900  0.25000000  0.28165000  1
  Mn  Mn2  1  0.01307100  0.75000000  0.78165000  1
  Mn  Mn3  1  0.51307100  0.75000000  0.71835000  1
  Tl  Tl4  1  0.59379200  0.25000000  0.57900800  1
  Tl  Tl5  1  0.09379200  0.25000000  0.92099200  1
  Tl  Tl6  1  0.40620800  0.75000000  0.42099200  1
  Tl  Tl7  1  0.90620800  0.75000000  0.07900800  1
  P  P8  1  0.20628200  0.25000000  0.45499300  1
  P  P9  1  0.70628200  0.25000000  0.04500700  1
  P  P10  1  0.79371800  0.75000000  0.54500700  1
  P  P11  1  0.29371800  0.75000000  0.95499300  1
  P  P12  1  0.24553600  0.04774200  0.65075100  1
  P  P13  1  0.74553600  0.45225800  0.84924900  1
  P  P14  1  0.75446400  0.54774200  0.34924900  1
  P  P15  1  0.25446400  0.95225800  0.15075100  1
  P  P16  1  0.75446400  0.95225800  0.34924900  1
  P  P17  1  0.25446400  0.54774200  0.15075100  1
  P  P18  1  0.24553600  0.45225800  0.65075100  1
  P  P19  1  0.74553600  0.04774200  0.84924900  1
  O  O20  1  0.10236600  0.25000000  0.36657400  1
  O  O21  1  0.60236600  0.25000000  0.13342600  1
  O  O22  1  0.89763400  0.75000000  0.63342600  1
  O  O23  1  0.39763400  0.75000000  0.86657400  1
  O  O24  1  0.17029300  0.08236400  0.53535100  1
  O  O25  1  0.67029300  0.41763600  0.96464900  1
  O  O26  1  0.82970700  0.58236400  0.46464900  1
  O  O27  1  0.32970700  0.91763600  0.03535100  1
  O  O28  1  0.82970700  0.91763600  0.46464900  1
  O  O29  1  0.32970700  0.58236400  0.03535100  1
  O  O30  1  0.17029300  0.41763600  0.53535100  1
  O  O31  1  0.67029300  0.08236400  0.96464900  1
  O  O32  1  0.36048700  0.25000000  0.43221900  1
  O  O33  1  0.86048700  0.25000000  0.06778100  1
  O  O34  1  0.63951300  0.75000000  0.56778100  1
  O  O35  1  0.13951300  0.75000000  0.93221900  1
  O  O36  1  0.28739200  0.25000000  0.68876900  1
  O  O37  1  0.78739200  0.25000000  0.81123100  1
  O  O38  1  0.71260800  0.75000000  0.31123100  1
  O  O39  1  0.21260800  0.75000000  0.18876900  1
  O  O40  1  0.38049700  0.94986400  0.63246600  1
  O  O41  1  0.88049700  0.55013600  0.86753400  1
  O  O42  1  0.61950300  0.44986400  0.36753400  1
  O  O43  1  0.11950300  0.05013600  0.13246600  1
  O  O44  1  0.61950300  0.05013600  0.36753400  1
  O  O45  1  0.11950300  0.44986400  0.13246600  1
  O  O46  1  0.38049700  0.55013600  0.63246600  1
  O  O47  1  0.88049700  0.94986400  0.86753400  1
  O  O48  1  0.14013800  0.97480800  0.72761700  1
  O  O49  1  0.64013800  0.52519200  0.77238300  1
  O  O50  1  0.85986200  0.47480800  0.27238300  1
  O  O51  1  0.35986200  0.02519200  0.22761700  1
  O  O52  1  0.85986200  0.02519200  0.27238300  1
  O  O53  1  0.35986200  0.47480800  0.22761700  1
  O  O54  1  0.14013800  0.52519200  0.72761700  1
  O  O55  1  0.64013800  0.97480800  0.77238300  1
