# generated using pymatgen
data_Al4B2O9
_symmetry_space_group_name_H-M   'P 1'
_cell_length_a   5.59272400
_cell_length_b   7.99270705
_cell_length_c   15.16475370
_cell_angle_alpha   91.12453570
_cell_angle_beta   90.00000000
_cell_angle_gamma   69.52099122
_symmetry_Int_Tables_number   1
_chemical_formula_structural   Al4B2O9
_chemical_formula_sum   'Al16 B8 O36'
_cell_volume   634.89864698
_cell_formula_units_Z   4
loop_
 _symmetry_equiv_pos_site_id
 _symmetry_equiv_pos_as_xyz
  1  'x, y, z'
loop_
 _atom_site_type_symbol
 _atom_site_label
 _atom_site_symmetry_multiplicity
 _atom_site_fract_x
 _atom_site_fract_y
 _atom_site_fract_z
 _atom_site_occupancy
  Al  Al0  1  0.18875200  0.62249600  0.15864700  1
  Al  Al1  1  0.81124800  0.37750400  0.84135300  1
  Al  Al2  1  0.32670800  0.34658400  0.33913800  1
  Al  Al3  1  0.67329200  0.65341600  0.66086200  1
  Al  Al4  1  0.42960200  0.14079600  0.06843900  1
  Al  Al5  1  0.57039800  0.85920400  0.93156100  1
  Al  Al6  1  0.50000000  0.50000000  0.00000000  1
  Al  Al7  1  0.00000000  0.50000000  0.00000000  1
  Al  Al8  1  0.25648200  0.99992700  0.24386900  1
  Al  Al9  1  0.74359100  0.99992700  0.24386900  1
  Al  Al10  1  0.74351800  0.00007300  0.75613100  1
  Al  Al11  1  0.25640900  0.00007300  0.75613100  1
  Al  Al12  1  0.13468400  0.73063300  0.34053100  1
  Al  Al13  1  0.86531600  0.26936700  0.65946900  1
  Al  Al14  1  0.50000000  0.50000000  0.50000000  1
  Al  Al15  1  0.00000000  0.50000000  0.50000000  1
  B  B16  1  0.62195400  0.75609300  0.11650500  1
  B  B17  1  0.37804600  0.24390700  0.88349500  1
  B  B18  1  0.60926500  0.78146900  0.38962800  1
  B  B19  1  0.39073500  0.21853100  0.61037200  1
  B  B20  1  0.89720700  0.20558700  0.10352800  1
  B  B21  1  0.10279300  0.79441300  0.89647200  1
  B  B22  1  0.86649000  0.26702100  0.36393500  1
  B  B23  1  0.13351000  0.73297900  0.63606500  1
  O  O24  1  0.23536100  0.52927700  0.26785200  1
  O  O25  1  0.76463900  0.47072300  0.73214800  1
  O  O26  1  0.46161000  0.64175900  0.10550100  1
  O  O27  1  0.89663100  0.64175900  0.10550100  1
  O  O28  1  0.53839000  0.35824100  0.89449900  1
  O  O29  1  0.10336900  0.35824100  0.89449900  1
  O  O30  1  0.36151300  0.84573300  0.35718800  1
  O  O31  1  0.79275400  0.84573300  0.35718800  1
  O  O32  1  0.63848700  0.15426700  0.64281200  1
  O  O33  1  0.20724600  0.15426700  0.64281200  1
  O  O34  1  0.20461800  0.59076300  0.43715700  1
  O  O35  1  0.79538200  0.40923700  0.56284300  1
  O  O36  1  0.14873000  0.13309900  0.13469000  1
  O  O37  1  0.71817100  0.13309900  0.13469000  1
  O  O38  1  0.85127000  0.86690100  0.86531000  1
  O  O39  1  0.28182900  0.86690100  0.86531000  1
  O  O40  1  0.67510600  0.64978800  0.45304800  1
  O  O41  1  0.32489400  0.35021200  0.54695200  1
  O  O42  1  0.16905400  0.66189100  0.95714000  1
  O  O43  1  0.83094600  0.33810900  0.04286000  1
  O  O44  1  0.42811400  0.14377200  0.28199600  1
  O  O45  1  0.57188600  0.85622800  0.71800400  1
  O  O46  1  0.57198100  0.85603800  0.20024000  1
  O  O47  1  0.42801900  0.14396200  0.79976000  1
  O  O48  1  0.04467700  0.33658800  0.39757500  1
  O  O49  1  0.61873500  0.33658800  0.39757500  1
  O  O50  1  0.95532300  0.66341200  0.60242500  1
  O  O51  1  0.38126500  0.66341200  0.60242500  1
  O  O52  1  0.93110900  0.13778200  0.29898800  1
  O  O53  1  0.06889100  0.86221800  0.70101200  1
  O  O54  1  0.30359600  0.39280700  0.06183500  1
  O  O55  1  0.69640400  0.60719300  0.93816500  1
  O  O56  1  0.07784500  0.84430900  0.22472600  1
  O  O57  1  0.92215500  0.15569100  0.77527400  1
  O  O58  1  0.55549600  0.88900900  0.04868400  1
  O  O59  1  0.44450400  0.11099100  0.95131600  1
