# generated using pymatgen
data_GdGaPd2
_symmetry_space_group_name_H-M   'P 1'
_cell_length_a   5.71764800
_cell_length_b   7.16578200
_cell_length_c   7.47163300
_cell_angle_alpha   90.00000000
_cell_angle_beta   90.00000000
_cell_angle_gamma   90.00000000
_symmetry_Int_Tables_number   1
_chemical_formula_structural   GdGaPd2
_chemical_formula_sum   'Gd4 Ga4 Pd8'
_cell_volume   306.12340716
_cell_formula_units_Z   4
loop_
 _symmetry_equiv_pos_site_id
 _symmetry_equiv_pos_as_xyz
  1  'x, y, z'
loop_
 _atom_site_type_symbol
 _atom_site_label
 _atom_site_symmetry_multiplicity
 _atom_site_fract_x
 _atom_site_fract_y
 _atom_site_fract_z
 _atom_site_occupancy
  Gd  Gd0  1  0.34978300  0.25000000  0.53292400  1
  Gd  Gd1  1  0.15021700  0.25000000  0.03292400  1
  Gd  Gd2  1  0.65021700  0.75000000  0.46707600  1
  Gd  Gd3  1  0.84978300  0.75000000  0.96707600  1
  Ga  Ga4  1  0.65162000  0.25000000  0.87924200  1
  Ga  Ga5  1  0.84838000  0.25000000  0.37924200  1
  Ga  Ga6  1  0.34838000  0.75000000  0.12075800  1
  Ga  Ga7  1  0.15162000  0.75000000  0.62075800  1
  Pd  Pd8  1  0.91209800  0.05279900  0.67710900  1
  Pd  Pd9  1  0.58790200  0.44720100  0.17710900  1
  Pd  Pd10  1  0.08790200  0.55279900  0.32289100  1
  Pd  Pd11  1  0.41209800  0.94720100  0.82289100  1
  Pd  Pd12  1  0.08790200  0.94720100  0.32289100  1
  Pd  Pd13  1  0.41209800  0.55279900  0.82289100  1
  Pd  Pd14  1  0.91209800  0.44720100  0.67710900  1
  Pd  Pd15  1  0.58790200  0.05279900  0.17710900  1
