# generated using pymatgen
data_Ga(SiNi3)2
_symmetry_space_group_name_H-M   'P 1'
_cell_length_a   3.75125000
_cell_length_b   5.01054573
_cell_length_c   21.49062169
_cell_angle_alpha   90.53513409
_cell_angle_beta   90.00000000
_cell_angle_gamma   90.00000000
_symmetry_Int_Tables_number   1
_chemical_formula_structural   Ga(SiNi3)2
_chemical_formula_sum   'Ga4 Si8 Ni24'
_cell_volume   403.91601691
_cell_formula_units_Z   4
loop_
 _symmetry_equiv_pos_site_id
 _symmetry_equiv_pos_as_xyz
  1  'x, y, z'
loop_
 _atom_site_type_symbol
 _atom_site_label
 _atom_site_symmetry_multiplicity
 _atom_site_fract_x
 _atom_site_fract_y
 _atom_site_fract_z
 _atom_site_occupancy
  Ga  Ga0  1  0.75000000  0.29873200  0.29610800  1
  Ga  Ga1  1  0.75000000  0.29403300  0.62936500  1
  Ga  Ga2  1  0.75000000  0.29444200  0.96176700  1
  Ga  Ga3  1  0.75000000  0.79898100  0.20419600  1
  Si  Si4  1  0.75000000  0.78980800  0.53935700  1
  Si  Si5  1  0.75000000  0.78997700  0.87142700  1
  Si  Si6  1  0.25000000  0.69854500  0.03515400  1
  Si  Si7  1  0.25000000  0.69723100  0.37113400  1
  Si  Si8  1  0.25000000  0.69797700  0.70343500  1
  Si  Si9  1  0.25000000  0.19629600  0.13005900  1
  Si  Si10  1  0.25000000  0.21136800  0.46318500  1
  Si  Si11  1  0.25000000  0.21133400  0.79566800  1
  Ni  Ni12  1  0.75000000  0.45651400  0.06998100  1
  Ni  Ni13  1  0.75000000  0.45727400  0.40550000  1
  Ni  Ni14  1  0.75000000  0.45852600  0.73770400  1
  Ni  Ni15  1  0.75000000  0.95679400  0.09411400  1
  Ni  Ni16  1  0.75000000  0.95593500  0.43422400  1
  Ni  Ni17  1  0.75000000  0.95656000  0.76553500  1
  Ni  Ni18  1  0.25000000  0.56509200  0.26259600  1
  Ni  Ni19  1  0.25000000  0.55894000  0.59507200  1
  Ni  Ni20  1  0.25000000  0.55785800  0.92703400  1
  Ni  Ni21  1  0.25000000  0.06365500  0.23785300  1
  Ni  Ni22  1  0.25000000  0.04769400  0.56694800  1
  Ni  Ni23  1  0.25000000  0.04750500  0.89923000  1
  Ni  Ni24  1  0.75000000  0.32601100  0.18377100  1
  Ni  Ni25  1  0.75000000  0.33577500  0.51909400  1
  Ni  Ni26  1  0.75000000  0.33531300  0.85120500  1
  Ni  Ni27  1  0.75000000  0.82608900  0.31755800  1
  Ni  Ni28  1  0.75000000  0.82193300  0.64786700  1
  Ni  Ni29  1  0.75000000  0.82265300  0.97925600  1
  Ni  Ni30  1  0.25000000  0.65868600  0.14146900  1
  Ni  Ni31  1  0.25000000  0.67103700  0.47939900  1
  Ni  Ni32  1  0.25000000  0.67218500  0.81146400  1
  Ni  Ni33  1  0.25000000  0.15828200  0.02309400  1
  Ni  Ni34  1  0.25000000  0.15577100  0.35859500  1
  Ni  Ni35  1  0.25000000  0.15519300  0.69058300  1
