# generated using pymatgen
data_Er8Ni18P11
_symmetry_space_group_name_H-M   'P 1'
_cell_length_a   17.88673757
_cell_length_b   17.88673757
_cell_length_c   3.77966400
_cell_angle_alpha   90.00000000
_cell_angle_beta   90.00000000
_cell_angle_gamma   119.99999840
_symmetry_Int_Tables_number   1
_chemical_formula_structural   Er8Ni18P11
_chemical_formula_sum   'Er16 Ni36 P22'
_cell_volume   1047.23971325
_cell_formula_units_Z   2
loop_
 _symmetry_equiv_pos_site_id
 _symmetry_equiv_pos_as_xyz
  1  'x, y, z'
loop_
 _atom_site_type_symbol
 _atom_site_label
 _atom_site_symmetry_multiplicity
 _atom_site_fract_x
 _atom_site_fract_y
 _atom_site_fract_z
 _atom_site_occupancy
  Er  Er0  1  0.95038100  0.47519000  0.50000000  1
  Er  Er1  1  0.52481000  0.47519000  0.50000000  1
  Er  Er2  1  0.52481000  0.04961900  0.50000000  1
  Er  Er3  1  0.52220000  0.26110000  0.50000000  1
  Er  Er4  1  0.73890000  0.26110000  0.50000000  1
  Er  Er5  1  0.73890000  0.47780000  0.50000000  1
  Er  Er6  1  0.56018900  0.78009500  0.00000000  1
  Er  Er7  1  0.21990500  0.78009500  0.00000000  1
  Er  Er8  1  0.21990500  0.43981100  0.00000000  1
  Er  Er9  1  0.78475100  0.00166500  0.00000000  1
  Er  Er10  1  0.99833500  0.78308600  0.00000000  1
  Er  Er11  1  0.78475100  0.78308600  0.00000000  1
  Er  Er12  1  0.21691400  0.21524900  0.00000000  1
  Er  Er13  1  0.99833500  0.21524900  0.00000000  1
  Er  Er14  1  0.21691400  0.00166500  0.00000000  1
  Er  Er15  1  0.00000000  0.00000000  0.00000000  1
  Ni  Ni16  1  0.42297900  0.71149000  0.50000000  1
  Ni  Ni17  1  0.28851000  0.71149000  0.50000000  1
  Ni  Ni18  1  0.28851000  0.57702100  0.50000000  1
  Ni  Ni19  1  0.70690700  0.07672400  0.50000000  1
  Ni  Ni20  1  0.92327600  0.63018400  0.50000000  1
  Ni  Ni21  1  0.70690700  0.63018400  0.50000000  1
  Ni  Ni22  1  0.36981600  0.29309300  0.50000000  1
  Ni  Ni23  1  0.92327600  0.29309300  0.50000000  1
  Ni  Ni24  1  0.36981600  0.07672400  0.50000000  1
  Ni  Ni25  1  0.37200200  0.39782600  0.00000000  1
  Ni  Ni26  1  0.60217400  0.97417600  0.00000000  1
  Ni  Ni27  1  0.37200200  0.97417600  0.00000000  1
  Ni  Ni28  1  0.02582400  0.62799800  0.00000000  1
  Ni  Ni29  1  0.60217400  0.62799800  0.00000000  1
  Ni  Ni30  1  0.02582400  0.39782600  0.00000000  1
  Ni  Ni31  1  0.36987800  0.18493900  0.00000000  1
  Ni  Ni32  1  0.81506100  0.18493900  0.00000000  1
  Ni  Ni33  1  0.81506100  0.63012200  0.00000000  1
  Ni  Ni34  1  0.80900900  0.40450500  0.00000000  1
  Ni  Ni35  1  0.59549500  0.40450500  0.00000000  1
  Ni  Ni36  1  0.59549500  0.19099100  0.00000000  1
  Ni  Ni37  1  0.14478700  0.07239400  0.50000000  1
  Ni  Ni38  1  0.92760600  0.07239400  0.50000000  1
  Ni  Ni39  1  0.92760600  0.85521300  0.50000000  1
  Ni  Ni40  1  0.36828000  0.49606300  0.50000000  1
  Ni  Ni41  1  0.50393700  0.87221700  0.50000000  1
  Ni  Ni42  1  0.36828000  0.87221700  0.50000000  1
  Ni  Ni43  1  0.12778300  0.63172000  0.50000000  1
  Ni  Ni44  1  0.50393700  0.63172000  0.50000000  1
  Ni  Ni45  1  0.12778300  0.49606300  0.50000000  1
  Ni  Ni46  1  0.22741000  0.61370500  0.00000000  1
  Ni  Ni47  1  0.38629500  0.61370500  0.00000000  1
  Ni  Ni48  1  0.38629500  0.77259000  0.00000000  1
  Ni  Ni49  1  0.71265900  0.85632900  0.50000000  1
  Ni  Ni50  1  0.14367100  0.85632900  0.50000000  1
  Ni  Ni51  1  0.14367100  0.28734100  0.50000000  1
  P  P52  1  0.66666700  0.33333300  0.00000000  1
  P  P53  1  0.28753500  0.14376800  0.50000000  1
  P  P54  1  0.85623200  0.14376800  0.50000000  1
  P  P55  1  0.85623200  0.71246500  0.50000000  1
  P  P56  1  0.66774100  0.12163200  0.00000000  1
  P  P57  1  0.87836800  0.54610900  0.00000000  1
  P  P58  1  0.66774100  0.54610900  0.00000000  1
  P  P59  1  0.45389100  0.33225900  0.00000000  1
  P  P60  1  0.87836800  0.33225900  0.00000000  1
  P  P61  1  0.45389100  0.12163200  0.00000000  1
  P  P62  1  0.08746500  0.54373200  0.00000000  1
  P  P63  1  0.45626800  0.54373200  0.00000000  1
  P  P64  1  0.45626800  0.91253500  0.00000000  1
  P  P65  1  0.28391700  0.35517700  0.50000000  1
  P  P66  1  0.64482300  0.92874000  0.50000000  1
  P  P67  1  0.28391700  0.92874000  0.50000000  1
  P  P68  1  0.07126000  0.71608300  0.50000000  1
  P  P69  1  0.64482300  0.71608300  0.50000000  1
  P  P70  1  0.07126000  0.35517700  0.50000000  1
  P  P71  1  0.85724000  0.92862000  0.50000000  1
  P  P72  1  0.07138000  0.92862000  0.50000000  1
  P  P73  1  0.07138000  0.14276000  0.50000000  1
