# generated using pymatgen
data_Tb2MnSbO7
_symmetry_space_group_name_H-M   'P 1'
_cell_length_a   7.33561938
_cell_length_b   7.33561938
_cell_length_c   7.33561938
_cell_angle_alpha   121.68410471
_cell_angle_beta   118.63933783
_cell_angle_gamma   89.74044119
_symmetry_Int_Tables_number   1
_chemical_formula_structural   Tb2MnSbO7
_chemical_formula_sum   'Tb4 Mn2 Sb2 O14'
_cell_volume   278.19030471
_cell_formula_units_Z   2
loop_
 _symmetry_equiv_pos_site_id
 _symmetry_equiv_pos_as_xyz
  1  'x, y, z'
loop_
 _atom_site_type_symbol
 _atom_site_label
 _atom_site_symmetry_multiplicity
 _atom_site_fract_x
 _atom_site_fract_y
 _atom_site_fract_z
 _atom_site_occupancy
  Tb  Tb0  1  0.00000000  0.50000000  0.00000000  1
  Tb  Tb1  1  0.00000000  0.00000000  0.50000000  1
  Tb  Tb2  1  0.00000000  0.50000000  0.50000000  1
  Tb  Tb3  1  0.50000000  0.50000000  0.00000000  1
  Mn  Mn4  1  0.50000000  0.00000000  0.00000000  1
  Mn  Mn5  1  0.50000000  0.50000000  0.50000000  1
  Sb  Sb6  1  0.50000000  0.00000000  0.50000000  1
  Sb  Sb7  1  0.00000000  0.00000000  0.00000000  1
  O  O8  1  0.87304100  0.62304100  0.25000000  1
  O  O9  1  0.12695900  0.37695900  0.75000000  1
  O  O10  1  0.82793500  0.07793500  0.75000000  1
  O  O11  1  0.41867900  0.66867900  0.75000000  1
  O  O12  1  0.84194300  0.66687800  0.76028400  1
  O  O13  1  0.40659400  0.08165900  0.73971600  1
  O  O14  1  0.84194300  0.08165900  0.17506500  1
  O  O15  1  0.40659400  0.66687800  0.32493500  1
  O  O16  1  0.17206500  0.92206500  0.25000000  1
  O  O17  1  0.58132100  0.33132100  0.25000000  1
  O  O18  1  0.15805700  0.33312200  0.23971600  1
  O  O19  1  0.59340600  0.91834100  0.26028400  1
  O  O20  1  0.15805700  0.91834100  0.82493500  1
  O  O21  1  0.59340600  0.33312200  0.67506500  1
