# generated using pymatgen
data_LaCoSi2
_symmetry_space_group_name_H-M   'P 1'
_cell_length_a   8.53773303
_cell_length_b   8.53773303
_cell_length_c   4.12264800
_cell_angle_alpha   90.00000000
_cell_angle_beta   90.00000000
_cell_angle_gamma   151.25507679
_symmetry_Int_Tables_number   1
_chemical_formula_structural   LaCoSi2
_chemical_formula_sum   'La2 Co2 Si4'
_cell_volume   144.51941087
_cell_formula_units_Z   2
loop_
 _symmetry_equiv_pos_site_id
 _symmetry_equiv_pos_as_xyz
  1  'x, y, z'
loop_
 _atom_site_type_symbol
 _atom_site_label
 _atom_site_symmetry_multiplicity
 _atom_site_fract_x
 _atom_site_fract_y
 _atom_site_fract_z
 _atom_site_occupancy
  La  La0  1  0.60714500  0.39285500  0.25000000  1
  La  La1  1  0.39285500  0.60714500  0.75000000  1
  Co  Co2  1  0.81750200  0.18249800  0.25000000  1
  Co  Co3  1  0.18249800  0.81750200  0.75000000  1
  Si  Si4  1  0.95620600  0.04379400  0.25000000  1
  Si  Si5  1  0.04379400  0.95620600  0.75000000  1
  Si  Si6  1  0.24979700  0.75020300  0.25000000  1
  Si  Si7  1  0.75020300  0.24979700  0.75000000  1
