# generated using pymatgen
data_Cs6Dy21S34Cl
_symmetry_space_group_name_H-M   'P 1'
_cell_length_a   13.11414817
_cell_length_b   13.11414817
_cell_length_c   13.12066578
_cell_angle_alpha   65.56827975
_cell_angle_beta   65.56827975
_cell_angle_gamma   97.28603158
_symmetry_Int_Tables_number   1
_chemical_formula_structural   Cs6Dy21S34Cl
_chemical_formula_sum   'Cs6 Dy21 S34 Cl1'
_cell_volume   1745.51938961
_cell_formula_units_Z   1
loop_
 _symmetry_equiv_pos_site_id
 _symmetry_equiv_pos_as_xyz
  1  'x, y, z'
loop_
 _atom_site_type_symbol
 _atom_site_label
 _atom_site_symmetry_multiplicity
 _atom_site_fract_x
 _atom_site_fract_y
 _atom_site_fract_z
 _atom_site_occupancy
  Cs  Cs0  1  0.05135600  0.80550300  0.72970200  1
  Cs  Cs1  1  0.80550300  0.05135600  0.72970200  1
  Cs  Cs2  1  0.94864400  0.19449700  0.27029800  1
  Cs  Cs3  1  0.19449700  0.94864400  0.27029800  1
  Cs  Cs4  1  0.76835500  0.76835500  0.58442100  1
  Cs  Cs5  1  0.23164500  0.23164500  0.41557900  1
  Dy  Dy6  1  0.69844100  0.30155900  0.00000000  1
  Dy  Dy7  1  0.30155900  0.69844100  0.00000000  1
  Dy  Dy8  1  0.04531200  0.46301000  0.75140200  1
  Dy  Dy9  1  0.46301000  0.04531200  0.75140200  1
  Dy  Dy10  1  0.95468800  0.53699000  0.24859800  1
  Dy  Dy11  1  0.53699000  0.95468800  0.24859800  1
  Dy  Dy12  1  0.82843900  0.42752500  0.62322200  1
  Dy  Dy13  1  0.42752500  0.82843900  0.62322200  1
  Dy  Dy14  1  0.17156100  0.57247500  0.37677800  1
  Dy  Dy15  1  0.57247500  0.17156100  0.37677800  1
  Dy  Dy16  1  0.90042100  0.09957900  0.00000000  1
  Dy  Dy17  1  0.09957900  0.90042100  0.00000000  1
  Dy  Dy18  1  0.26139800  0.46554500  0.89330900  1
  Dy  Dy19  1  0.46554500  0.26139800  0.89330900  1
  Dy  Dy20  1  0.73860200  0.53445500  0.10669100  1
  Dy  Dy21  1  0.53445500  0.73860200  0.10669100  1
  Dy  Dy22  1  0.39968600  0.60031400  0.50000000  1
  Dy  Dy23  1  0.60031400  0.39968600  0.50000000  1
  Dy  Dy24  1  0.50000000  0.50000000  0.00000000  1
  Dy  Dy25  1  0.24361400  0.24361400  0.74316500  1
  Dy  Dy26  1  0.75638600  0.75638600  0.25683500  1
  S  S27  1  0.68243300  0.68243300  0.94171400  1
  S  S28  1  0.31756700  0.31756700  0.05828600  1
  S  S29  1  0.05889300  0.05889300  0.82113100  1
  S  S30  1  0.94110700  0.94110700  0.17886900  1
  S  S31  1  0.08933800  0.29001600  0.92269700  1
  S  S32  1  0.29001600  0.08933800  0.92269700  1
  S  S33  1  0.91066200  0.70998400  0.07730300  1
  S  S34  1  0.70998400  0.91066200  0.07730300  1
  S  S35  1  0.88133800  0.48572300  0.93614700  1
  S  S36  1  0.48572300  0.88133800  0.93614700  1
  S  S37  1  0.11866200  0.51427700  0.06385300  1
  S  S38  1  0.51427700  0.11866200  0.06385300  1
  S  S39  1  0.86692800  0.27345200  0.81440800  1
  S  S40  1  0.27345200  0.86692800  0.81440800  1
  S  S41  1  0.13307200  0.72654800  0.18559200  1
  S  S42  1  0.72654800  0.13307200  0.18559200  1
  S  S43  1  0.24581500  0.63231600  0.68941200  1
  S  S44  1  0.63231600  0.24581500  0.68941200  1
  S  S45  1  0.75418500  0.36768400  0.31058800  1
  S  S46  1  0.36768400  0.75418500  0.31058800  1
  S  S47  1  0.01295700  0.60788500  0.55796700  1
  S  S48  1  0.60788500  0.01295700  0.55796700  1
  S  S49  1  0.98704300  0.39211500  0.44203300  1
  S  S50  1  0.39211500  0.98704300  0.44203300  1
  S  S51  1  0.21330000  0.42237800  0.56335600  1
  S  S52  1  0.42237800  0.21330000  0.56335600  1
  S  S53  1  0.78670000  0.57762200  0.43664400  1
  S  S54  1  0.57762200  0.78670000  0.43664400  1
  S  S55  1  0.65099400  0.44983600  0.81924300  1
  S  S56  1  0.44983600  0.65099400  0.81924300  1
  S  S57  1  0.34900600  0.55016400  0.18075700  1
  S  S58  1  0.55016400  0.34900600  0.18075700  1
  S  S59  1  0.42553800  0.42553800  0.69221700  1
  S  S60  1  0.57446200  0.57446200  0.30778300  1
  Cl  Cl61  1  0.00000000  0.00000000  0.50000000  1
