# generated using pymatgen
data_Rb6U3Sb2(PS4)8
_symmetry_space_group_name_H-M   'P 1'
_cell_length_a   15.01444666
_cell_length_b   15.02560890
_cell_length_c   17.61711340
_cell_angle_alpha   64.75757104
_cell_angle_beta   64.66631434
_cell_angle_gamma   59.97540637
_symmetry_Int_Tables_number   1
_chemical_formula_structural   Rb6U3Sb2(PS4)8
_chemical_formula_sum   'Rb12 U6 Sb4 P16 S64'
_cell_volume   2993.49281170
_cell_formula_units_Z   2
loop_
 _symmetry_equiv_pos_site_id
 _symmetry_equiv_pos_as_xyz
  1  'x, y, z'
loop_
 _atom_site_type_symbol
 _atom_site_label
 _atom_site_symmetry_multiplicity
 _atom_site_fract_x
 _atom_site_fract_y
 _atom_site_fract_z
 _atom_site_occupancy
  Rb  Rb0  1  0.86406121  0.24020259  0.58889780  1
  Rb  Rb1  1  0.24016697  0.30685515  0.58893866  1
  Rb  Rb2  1  0.30686402  0.86404617  0.58894186  1
  Rb  Rb3  1  0.36406121  0.80683840  0.08889780  1
  Rb  Rb4  1  0.80686402  0.74014795  0.08894186  1
  Rb  Rb5  1  0.74016697  0.36403921  0.08893866  1
  Rb  Rb6  1  0.13598784  0.75982352  0.41104670  1
  Rb  Rb7  1  0.75987092  0.69313439  0.41104632  1
  Rb  Rb8  1  0.69316023  0.13590569  0.41110609  1
  Rb  Rb9  1  0.63598784  0.19314194  0.91104670  1
  Rb  Rb10  1  0.19316023  0.25982800  0.91110609  1
  Rb  Rb11  1  0.25987092  0.63594837  0.91104632  1
  U  U12  1  0.08220436  0.25016608  0.24981147  1
  U  U13  1  0.24995367  0.41827839  0.25001627  1
  U  U14  1  0.41825650  0.08172673  0.25017903  1
  U  U15  1  0.58220436  0.91781709  0.74981147  1
  U  U16  1  0.91825650  0.74983674  0.75017903  1
  U  U17  1  0.74995367  0.58175067  0.75001627  1
  Sb  Sb18  1  0.46122275  0.46074888  0.61697548  1
  Sb  Sb19  1  0.96122275  0.96105288  0.11697548  1
  Sb  Sb20  1  0.53873911  0.53929250  0.38302557  1
  Sb  Sb21  1  0.03873911  0.03894282  0.88302557  1
  P  P22  1  0.19122239  0.19137268  0.42598907  1
  P  P23  1  0.69122239  0.69141586  0.92598907  1
  P  P24  1  0.80850190  0.80866269  0.57400127  1
  P  P25  1  0.30850190  0.30883415  0.07400127  1
  P  P26  1  0.54135961  0.18746753  0.66534020  1
  P  P27  1  0.18785018  0.60588641  0.66509424  1
  P  P28  1  0.60595614  0.54124069  0.66497107  1
  P  P29  1  0.04135961  0.10583266  0.16534020  1
  P  P30  1  0.10595614  0.68783209  0.16497107  1
  P  P31  1  0.68785018  0.04116917  0.16509424  1
  P  P32  1  0.45891863  0.81215450  0.33478608  1
  P  P33  1  0.81249098  0.39409309  0.33478701  1
  P  P34  1  0.39406703  0.45869259  0.33503346  1
  P  P35  1  0.95891863  0.89414079  0.83478608  1
  P  P36  1  0.89406703  0.31220692  0.83503346  1
  P  P37  1  0.31249098  0.95862892  0.83478701  1
  S  S38  1  0.08514770  0.33612996  0.36764820  1
  S  S39  1  0.33617872  0.21093310  0.36735105  1
  S  S40  1  0.21090657  0.08555629  0.36765125  1
  S  S41  1  0.58514770  0.71107414  0.86764820  1
  S  S42  1  0.71090657  0.83588589  0.86765125  1
  S  S43  1  0.83617872  0.58553713  0.86735105  1
  S  S44  1  0.91471089  0.66399714  0.63242996  1
  S  S45  1  0.66381841  0.78898930  0.63258960  1
  S  S46  1  0.78916571  0.91443615  0.63243407  1
  S  S47  1  0.41471089  0.28886201  0.13242996  1
  S  S48  1  0.28916571  0.16396407  0.13243407  1
  S  S49  1  0.16381841  0.41460269  0.13258960  1
  S  S50  1  0.89653346  0.23121559  0.37307821  1
  S  S51  1  0.23092844  0.49906033  0.37295372  1
  S  S52  1  0.49895299  0.89681037  0.37283817  1
  S  S53  1  0.39653346  0.99917275  0.87307821  1
  S  S54  1  0.99895299  0.73139848  0.87283817  1
  S  S55  1  0.73092844  0.39705751  0.87295372  1
  S  S56  1  0.10327594  0.76861390  0.62711670  1
  S  S57  1  0.76903270  0.50100428  0.62705420  1
  S  S58  1  0.50079509  0.10337028  0.62696479  1
  S  S59  1  0.60327594  0.00099346  0.12711670  1
  S  S60  1  0.00079509  0.26886985  0.12696479  1
  S  S61  1  0.26903270  0.60290882  0.12705420  1
  S  S62  1  0.40031795  0.30402580  0.71702564  1
  S  S63  1  0.30373348  0.57874256  0.71696835  1
  S  S64  1  0.57863175  0.40058336  0.71690393  1
  S  S65  1  0.90031795  0.07863062  0.21702564  1
  S  S66  1  0.07863175  0.80388096  0.21690393  1
  S  S67  1  0.80373348  0.90055561  0.21696835  1
  S  S68  1  0.59970602  0.69598741  0.28300640  1
  S  S69  1  0.69614046  0.42139646  0.28306550  1
  S  S70  1  0.42131326  0.59946376  0.28302367  1
  S  S71  1  0.09970602  0.92130017  0.78300640  1
  S  S72  1  0.92131326  0.19619932  0.78302367  1
  S  S73  1  0.19614046  0.09939758  0.78306550  1
  S  S74  1  0.63374770  0.26219494  0.56465434  1
  S  S75  1  0.26275786  0.53933248  0.56458602  1
  S  S76  1  0.53932142  0.63319175  0.56482383  1
  S  S77  1  0.13374770  0.03940302  0.06465434  1
  S  S78  1  0.03932142  0.76266301  0.06482383  1
  S  S79  1  0.76275786  0.13332364  0.06458602  1
  S  S80  1  0.36632932  0.73758630  0.43543384  1
  S  S81  1  0.73741423  0.46062591  0.43528734  1
  S  S82  1  0.46068532  0.36675091  0.43517471  1
  S  S83  1  0.86632932  0.96065054  0.93543384  1
  S  S84  1  0.96068532  0.23738906  0.93517471  1
  S  S85  1  0.23741423  0.86667251  0.93528734  1
  S  S86  1  0.60950440  0.07818923  0.76464984  1
  S  S87  1  0.07772551  0.54804055  0.76471750  1
  S  S88  1  0.54737169  0.60958187  0.76470204  1
  S  S89  1  0.10950440  0.04765654  0.26464984  1
  S  S90  1  0.04737169  0.57834440  0.26470204  1
  S  S91  1  0.57772551  0.10951645  0.26471750  1
  S  S92  1  0.39046117  0.92195168  0.23545552  1
  S  S93  1  0.92208433  0.45224072  0.23517254  1
  S  S94  1  0.45250830  0.39044891  0.23531541  1
  S  S95  1  0.89046117  0.95213163  0.73545552  1
  S  S96  1  0.95250830  0.42172738  0.73531541  1
  S  S97  1  0.42208433  0.89050242  0.73517254  1
  S  S98  1  0.14809822  0.14825251  0.55518134  1
  S  S99  1  0.64809822  0.64846793  0.05518134  1
  S  S100  1  0.85181256  0.85173030  0.44485370  1
  S  S101  1  0.35181256  0.35160343  0.94485370  1
