# generated using pymatgen
data_SrAl9Co2
_symmetry_space_group_name_H-M   'P 1'
_cell_length_a   7.90809374
_cell_length_b   7.90809374
_cell_length_c   3.91292000
_cell_angle_alpha   90.00000000
_cell_angle_beta   90.00000000
_cell_angle_gamma   119.99999783
_symmetry_Int_Tables_number   1
_chemical_formula_structural   SrAl9Co2
_chemical_formula_sum   'Sr1 Al9 Co2'
_cell_volume   211.92160155
_cell_formula_units_Z   1
loop_
 _symmetry_equiv_pos_site_id
 _symmetry_equiv_pos_as_xyz
  1  'x, y, z'
loop_
 _atom_site_type_symbol
 _atom_site_label
 _atom_site_symmetry_multiplicity
 _atom_site_fract_x
 _atom_site_fract_y
 _atom_site_fract_z
 _atom_site_occupancy
  Sr  Sr0  1  0.00000000  0.00000000  0.00000000  1
  Al  Al1  1  0.50000000  0.00000000  0.00000000  1
  Al  Al2  1  0.50000000  0.50000000  0.00000000  1
  Al  Al3  1  0.00000000  0.50000000  0.00000000  1
  Al  Al4  1  0.21417900  0.42835900  0.50000000  1
  Al  Al5  1  0.78582100  0.21417900  0.50000000  1
  Al  Al6  1  0.42835900  0.21417900  0.50000000  1
  Al  Al7  1  0.57164100  0.78582100  0.50000000  1
  Al  Al8  1  0.21417900  0.78582100  0.50000000  1
  Al  Al9  1  0.78582100  0.57164100  0.50000000  1
  Co  Co10  1  0.33333300  0.66666700  0.00000000  1
  Co  Co11  1  0.66666700  0.33333300  0.00000000  1
