# generated using pymatgen
data_Ba3V2O8
_symmetry_space_group_name_H-M   'P 1'
_cell_length_a   7.96305042
_cell_length_b   7.96305042
_cell_length_c   7.96305084
_cell_angle_alpha   43.48971901
_cell_angle_beta   43.48971901
_cell_angle_gamma   43.48971941
_symmetry_Int_Tables_number   1
_chemical_formula_structural   Ba3V2O8
_chemical_formula_sum   'Ba3 V2 O8'
_cell_volume   216.99784002
_cell_formula_units_Z   1
loop_
 _symmetry_equiv_pos_site_id
 _symmetry_equiv_pos_as_xyz
  1  'x, y, z'
loop_
 _atom_site_type_symbol
 _atom_site_label
 _atom_site_symmetry_multiplicity
 _atom_site_fract_x
 _atom_site_fract_y
 _atom_site_fract_z
 _atom_site_occupancy
  Ba  Ba0  1  0.20526900  0.20526900  0.20526900  1
  Ba  Ba1  1  0.79473100  0.79473100  0.79473100  1
  Ba  Ba2  1  0.00000000  0.00000000  0.00000000  1
  V  V3  1  0.59269500  0.59269500  0.59269500  1
  V  V4  1  0.40730500  0.40730500  0.40730500  1
  O  O5  1  0.67278700  0.67278700  0.67278700  1
  O  O6  1  0.32721300  0.32721300  0.32721300  1
  O  O7  1  0.72705300  0.24276400  0.72705300  1
  O  O8  1  0.72705300  0.72705300  0.24276400  1
  O  O9  1  0.24276400  0.72705300  0.72705300  1
  O  O10  1  0.27294700  0.75723600  0.27294700  1
  O  O11  1  0.75723600  0.27294700  0.27294700  1
  O  O12  1  0.27294700  0.27294700  0.75723600  1
