# generated using pymatgen
data_Cs2ZnI4
_symmetry_space_group_name_H-M   'P 1'
_cell_length_a   8.56860600
_cell_length_b   14.97348800
_cell_length_c   33.29865400
_cell_angle_alpha   90.00000000
_cell_angle_beta   90.00000000
_cell_angle_gamma   90.00000000
_symmetry_Int_Tables_number   1
_chemical_formula_structural   Cs2ZnI4
_chemical_formula_sum   'Cs24 Zn12 I48'
_cell_volume   4272.28121224
_cell_formula_units_Z   12
loop_
 _symmetry_equiv_pos_site_id
 _symmetry_equiv_pos_as_xyz
  1  'x, y, z'
loop_
 _atom_site_type_symbol
 _atom_site_label
 _atom_site_symmetry_multiplicity
 _atom_site_fract_x
 _atom_site_fract_y
 _atom_site_fract_z
 _atom_site_occupancy
  Cs  Cs0  1  0.74968500  0.16490100  0.50817100  1
  Cs  Cs1  1  0.24968500  0.83509900  0.49182900  1
  Cs  Cs2  1  0.24968500  0.66490100  0.99182900  1
  Cs  Cs3  1  0.74968500  0.33509900  0.00817100  1
  Cs  Cs4  1  0.74499700  0.16661400  0.84155800  1
  Cs  Cs5  1  0.24499700  0.83338600  0.15844200  1
  Cs  Cs6  1  0.24499700  0.66661400  0.65844200  1
  Cs  Cs7  1  0.74499700  0.33338600  0.34155800  1
  Cs  Cs8  1  0.74920700  0.16453700  0.17489400  1
  Cs  Cs9  1  0.24920700  0.83546300  0.82510600  1
  Cs  Cs10  1  0.24920700  0.66453700  0.32510600  1
  Cs  Cs11  1  0.74920700  0.33546300  0.67489400  1
  Cs  Cs12  1  0.74874100  0.89711200  0.62314100  1
  Cs  Cs13  1  0.24874100  0.10288800  0.37685900  1
  Cs  Cs14  1  0.24874100  0.39711200  0.87685900  1
  Cs  Cs15  1  0.74874100  0.60288800  0.12314100  1
  Cs  Cs16  1  0.75371100  0.90033000  0.95680100  1
  Cs  Cs17  1  0.25371100  0.09967000  0.04319900  1
  Cs  Cs18  1  0.25371100  0.40033000  0.54319900  1
  Cs  Cs19  1  0.75371100  0.59967000  0.45680100  1
  Cs  Cs20  1  0.74282300  0.89574400  0.28979100  1
  Cs  Cs21  1  0.24282300  0.10425600  0.71020900  1
  Cs  Cs22  1  0.24282300  0.39574400  0.21020900  1
  Cs  Cs23  1  0.74282300  0.60425600  0.78979100  1
  Zn  Zn24  1  0.74601900  0.92366100  0.75453000  1
  Zn  Zn25  1  0.24601900  0.07633900  0.24547000  1
  Zn  Zn26  1  0.24601900  0.42366100  0.74547000  1
  Zn  Zn27  1  0.74601900  0.57633900  0.25453000  1
  Zn  Zn28  1  0.75041100  0.92221600  0.08791700  1
  Zn  Zn29  1  0.25041100  0.07778400  0.91208300  1
  Zn  Zn30  1  0.25041100  0.42221600  0.41208300  1
  Zn  Zn31  1  0.75041100  0.57778400  0.58791700  1
  Zn  Zn32  1  0.74278800  0.92163100  0.42108900  1
  Zn  Zn33  1  0.24278800  0.07836900  0.57891100  1
  Zn  Zn34  1  0.24278800  0.42163100  0.07891100  1
  Zn  Zn35  1  0.74278800  0.57836900  0.92108900  1
  I  I36  1  0.73752100  0.90115200  0.49949000  1
  I  I37  1  0.23752100  0.09884800  0.50051000  1
  I  I38  1  0.23752100  0.40115200  0.00051000  1
  I  I39  1  0.73752100  0.59884800  0.99949000  1
  I  I40  1  0.74942300  0.90237500  0.83287700  1
  I  I41  1  0.24942300  0.09762500  0.16712300  1
  I  I42  1  0.24942300  0.40237500  0.66712300  1
  I  I43  1  0.74942300  0.59762500  0.33287700  1
  I  I44  1  0.75458000  0.90059300  0.16619400  1
  I  I45  1  0.25458000  0.09940700  0.83380600  1
  I  I46  1  0.25458000  0.40059300  0.33380600  1
  I  I47  1  0.75458000  0.59940700  0.66619400  1
  I  I48  1  0.72661200  0.09217500  0.73050400  1
  I  I49  1  0.22661200  0.90782500  0.26949600  1
  I  I50  1  0.22661200  0.59217500  0.76949600  1
  I  I51  1  0.72661200  0.40782500  0.23050400  1
  I  I52  1  0.75828100  0.09087400  0.06370400  1
  I  I53  1  0.25828100  0.90912600  0.93629600  1
  I  I54  1  0.25828100  0.59087400  0.43629600  1
  I  I55  1  0.75828100  0.40912600  0.56370400  1
  I  I56  1  0.75848700  0.09039600  0.39712400  1
  I  I57  1  0.25848700  0.90960400  0.60287600  1
  I  I58  1  0.25848700  0.59039600  0.10287600  1
  I  I59  1  0.75848700  0.40960400  0.89712400  1
  I  I60  1  0.50072900  0.84007900  0.72464800  1
  I  I61  1  0.00072900  0.15992100  0.27535200  1
  I  I62  1  0.00072900  0.34007900  0.77535200  1
  I  I63  1  0.50072900  0.65992100  0.22464800  1
  I  I64  1  0.49366700  0.85229100  0.05746200  1
  I  I65  1  0.99366700  0.14770900  0.94253800  1
  I  I66  1  0.99366700  0.35229100  0.44253800  1
  I  I67  1  0.49366700  0.64770900  0.55746200  1
  I  I68  1  0.48466300  0.85588700  0.38920900  1
  I  I69  1  0.98466300  0.14411300  0.61079100  1
  I  I70  1  0.98466300  0.35588700  0.11079100  1
  I  I71  1  0.48466300  0.64411300  0.88920900  1
  I  I72  1  0.50521600  0.14254600  0.27636100  1
  I  I73  1  0.00521600  0.85745400  0.72363900  1
  I  I74  1  0.00521600  0.64254600  0.22363900  1
  I  I75  1  0.50521600  0.35745400  0.77636100  1
  I  I76  1  0.49858200  0.15740300  0.94267000  1
  I  I77  1  0.99858200  0.84259700  0.05733000  1
  I  I78  1  0.99858200  0.65740300  0.55733000  1
  I  I79  1  0.49858200  0.34259700  0.44267000  1
  I  I80  1  0.48995800  0.16151500  0.60763300  1
  I  I81  1  0.98995800  0.83848500  0.39236700  1
  I  I82  1  0.98995800  0.66151500  0.89236700  1
  I  I83  1  0.48995800  0.33848500  0.10763300  1
