# generated using pymatgen
data_LiBF4
_symmetry_space_group_name_H-M   'P 1'
_cell_length_a   4.99485584
_cell_length_b   4.99485584
_cell_length_c   11.23342500
_cell_angle_alpha   90.00000000
_cell_angle_beta   90.00000000
_cell_angle_gamma   119.99999789
_symmetry_Int_Tables_number   1
_chemical_formula_structural   LiBF4
_chemical_formula_sum   'Li3 B3 F12'
_cell_volume   242.71060211
_cell_formula_units_Z   3
loop_
 _symmetry_equiv_pos_site_id
 _symmetry_equiv_pos_as_xyz
  1  'x, y, z'
loop_
 _atom_site_type_symbol
 _atom_site_label
 _atom_site_symmetry_multiplicity
 _atom_site_fract_x
 _atom_site_fract_y
 _atom_site_fract_z
 _atom_site_occupancy
  Li  Li0  1  0.00000000  0.46284800  0.66666700  1
  Li  Li1  1  0.46284800  0.00000000  0.33333300  1
  Li  Li2  1  0.53715200  0.53715200  0.00000000  1
  B  B3  1  0.53868900  0.53868900  0.50000000  1
  B  B4  1  0.00000000  0.46131100  0.16666700  1
  B  B5  1  0.46131100  0.00000000  0.83333300  1
  F  F6  1  0.57495600  0.89888200  0.92855100  1
  F  F7  1  0.10111800  0.67607400  0.26188400  1
  F  F8  1  0.32392600  0.42504400  0.59521700  1
  F  F9  1  0.67607400  0.10111800  0.73811600  1
  F  F10  1  0.42504400  0.32392600  0.40478300  1
  F  F11  1  0.89888200  0.57495600  0.07144900  1
  F  F12  1  0.24644600  0.42047700  0.12710200  1
  F  F13  1  0.57952300  0.82596900  0.46043500  1
  F  F14  1  0.17403100  0.75355400  0.79376800  1
  F  F15  1  0.82596900  0.57952300  0.53956500  1
  F  F16  1  0.75355400  0.17403100  0.20623200  1
  F  F17  1  0.42047700  0.24644600  0.87289800  1
