# generated using pymatgen
data_Sm(Al4Co)2
_symmetry_space_group_name_H-M   'P 1'
_cell_length_a   3.97462600
_cell_length_b   12.60502600
_cell_length_c   14.24898600
_cell_angle_alpha   90.00000000
_cell_angle_beta   90.00000000
_cell_angle_gamma   90.00000000
_symmetry_Int_Tables_number   1
_chemical_formula_structural   Sm(Al4Co)2
_chemical_formula_sum   'Sm4 Al32 Co8'
_cell_volume   713.87796133
_cell_formula_units_Z   4
loop_
 _symmetry_equiv_pos_site_id
 _symmetry_equiv_pos_as_xyz
  1  'x, y, z'
loop_
 _atom_site_type_symbol
 _atom_site_label
 _atom_site_symmetry_multiplicity
 _atom_site_fract_x
 _atom_site_fract_y
 _atom_site_fract_z
 _atom_site_occupancy
  Sm  Sm0  1  0.00000000  0.83788200  0.18014000  1
  Sm  Sm1  1  0.00000000  0.16211800  0.81986000  1
  Sm  Sm2  1  0.00000000  0.33788200  0.31986000  1
  Sm  Sm3  1  0.00000000  0.66211800  0.68014000  1
  Al  Al4  1  0.00000000  0.50000000  0.50000000  1
  Al  Al5  1  0.00000000  0.00000000  0.00000000  1
  Al  Al6  1  0.50000000  0.50000000  0.00000000  1
  Al  Al7  1  0.50000000  0.00000000  0.50000000  1
  Al  Al8  1  0.50000000  0.73438900  0.32964400  1
  Al  Al9  1  0.50000000  0.26561100  0.67035600  1
  Al  Al10  1  0.50000000  0.23438900  0.17035600  1
  Al  Al11  1  0.50000000  0.76561100  0.82964400  1
  Al  Al12  1  0.50000000  0.95253100  0.32013900  1
  Al  Al13  1  0.50000000  0.04746900  0.67986100  1
  Al  Al14  1  0.50000000  0.45253100  0.17986100  1
  Al  Al15  1  0.50000000  0.54746900  0.82013900  1
  Al  Al16  1  0.50000000  0.65838600  0.12155500  1
  Al  Al17  1  0.50000000  0.34161400  0.87844500  1
  Al  Al18  1  0.50000000  0.15838600  0.37844500  1
  Al  Al19  1  0.50000000  0.84161400  0.62155500  1
  Al  Al20  1  0.00000000  0.84024200  0.45717700  1
  Al  Al21  1  0.00000000  0.15975800  0.54282300  1
  Al  Al22  1  0.00000000  0.34024200  0.04282300  1
  Al  Al23  1  0.00000000  0.65975800  0.95717700  1
  Al  Al24  1  0.00000000  0.59514600  0.24885700  1
  Al  Al25  1  0.00000000  0.40485400  0.75114300  1
  Al  Al26  1  0.00000000  0.09514600  0.25114300  1
  Al  Al27  1  0.00000000  0.90485400  0.74885700  1
  Al  Al28  1  0.50000000  0.83195700  0.01078200  1
  Al  Al29  1  0.50000000  0.16804300  0.98921800  1
  Al  Al30  1  0.50000000  0.33195700  0.48921800  1
  Al  Al31  1  0.50000000  0.66804300  0.51078200  1
  Al  Al32  1  0.50000000  0.52543400  0.36921600  1
  Al  Al33  1  0.50000000  0.47456600  0.63078400  1
  Al  Al34  1  0.50000000  0.02543400  0.13078400  1
  Al  Al35  1  0.50000000  0.97456600  0.86921600  1
  Co  Co36  1  0.00000000  0.65372900  0.40637400  1
  Co  Co37  1  0.00000000  0.34627100  0.59362600  1
  Co  Co38  1  0.00000000  0.15372900  0.09362600  1
  Co  Co39  1  0.00000000  0.84627100  0.90637400  1
  Co  Co40  1  0.00000000  0.53548800  0.09409200  1
  Co  Co41  1  0.00000000  0.46451200  0.90590800  1
  Co  Co42  1  0.00000000  0.03548800  0.40590800  1
  Co  Co43  1  0.00000000  0.96451200  0.59409200  1
