# generated using pymatgen
data_Lu6Mn23
_symmetry_space_group_name_H-M   'P 1'
_cell_length_a   8.37732173
_cell_length_b   8.37732173
_cell_length_c   8.37732173
_cell_angle_alpha   60.00000000
_cell_angle_beta   60.00000000
_cell_angle_gamma   60.00000000
_symmetry_Int_Tables_number   1
_chemical_formula_structural   Lu6Mn23
_chemical_formula_sum   'Lu6 Mn23'
_cell_volume   415.71968139
_cell_formula_units_Z   1
loop_
 _symmetry_equiv_pos_site_id
 _symmetry_equiv_pos_as_xyz
  1  'x, y, z'
loop_
 _atom_site_type_symbol
 _atom_site_label
 _atom_site_symmetry_multiplicity
 _atom_site_fract_x
 _atom_site_fract_y
 _atom_site_fract_z
 _atom_site_occupancy
  Lu  Lu0  1  0.70368500  0.70368500  0.29631500  1
  Lu  Lu1  1  0.29631500  0.70368500  0.29631500  1
  Lu  Lu2  1  0.70368500  0.29631500  0.29631500  1
  Lu  Lu3  1  0.29631500  0.29631500  0.70368500  1
  Lu  Lu4  1  0.70368500  0.29631500  0.70368500  1
  Lu  Lu5  1  0.29631500  0.70368500  0.70368500  1
  Mn  Mn6  1  0.00000000  0.00000000  0.00000000  1
  Mn  Mn7  1  0.00000000  0.00000000  0.50000000  1
  Mn  Mn8  1  0.50000000  0.00000000  0.50000000  1
  Mn  Mn9  1  0.00000000  0.50000000  0.50000000  1
  Mn  Mn10  1  0.50000000  0.50000000  0.00000000  1
  Mn  Mn11  1  0.00000000  0.50000000  0.00000000  1
  Mn  Mn12  1  0.50000000  0.00000000  0.00000000  1
  Mn  Mn13  1  0.87855600  0.87855600  0.36433200  1
  Mn  Mn14  1  0.87855600  0.36433200  0.87855600  1
  Mn  Mn15  1  0.36433200  0.87855600  0.87855600  1
  Mn  Mn16  1  0.87855600  0.87855600  0.87855600  1
  Mn  Mn17  1  0.12144400  0.12144400  0.63566800  1
  Mn  Mn18  1  0.12144400  0.63566800  0.12144400  1
  Mn  Mn19  1  0.63566800  0.12144400  0.12144400  1
  Mn  Mn20  1  0.12144400  0.12144400  0.12144400  1
  Mn  Mn21  1  0.67651100  0.67651100  0.97046700  1
  Mn  Mn22  1  0.67651100  0.97046700  0.67651100  1
  Mn  Mn23  1  0.97046700  0.67651100  0.67651100  1
  Mn  Mn24  1  0.67651100  0.67651100  0.67651100  1
  Mn  Mn25  1  0.32348900  0.32348900  0.02953300  1
  Mn  Mn26  1  0.32348900  0.02953300  0.32348900  1
  Mn  Mn27  1  0.02953300  0.32348900  0.32348900  1
  Mn  Mn28  1  0.32348900  0.32348900  0.32348900  1
