# generated using pymatgen
data_Tb3TlF10
_symmetry_space_group_name_H-M   'P 1'
_cell_length_a   8.33954540
_cell_length_b   8.33954540
_cell_length_c   13.59956600
_cell_angle_alpha   90.00000000
_cell_angle_beta   90.00000000
_cell_angle_gamma   119.99999525
_symmetry_Int_Tables_number   1
_chemical_formula_structural   Tb3TlF10
_chemical_formula_sum   'Tb12 Tl4 F40'
_cell_volume   819.10665831
_cell_formula_units_Z   4
loop_
 _symmetry_equiv_pos_site_id
 _symmetry_equiv_pos_as_xyz
  1  'x, y, z'
loop_
 _atom_site_type_symbol
 _atom_site_label
 _atom_site_symmetry_multiplicity
 _atom_site_fract_x
 _atom_site_fract_y
 _atom_site_fract_z
 _atom_site_occupancy
  Tb  Tb0  1  0.17398900  0.34797800  0.72671200  1
  Tb  Tb1  1  0.17398900  0.82601100  0.72671200  1
  Tb  Tb2  1  0.82601100  0.65202200  0.22671200  1
  Tb  Tb3  1  0.65202200  0.82601100  0.72671200  1
  Tb  Tb4  1  0.82601100  0.17398900  0.22671200  1
  Tb  Tb5  1  0.34797800  0.17398900  0.22671200  1
  Tb  Tb6  1  0.50589100  0.01178200  0.98510400  1
  Tb  Tb7  1  0.50589100  0.49410900  0.98510400  1
  Tb  Tb8  1  0.49410900  0.98821800  0.48510400  1
  Tb  Tb9  1  0.98821800  0.49410900  0.98510400  1
  Tb  Tb10  1  0.49410900  0.50589100  0.48510400  1
  Tb  Tb11  1  0.01178200  0.50589100  0.48510400  1
  Tl  Tl12  1  0.66666700  0.33333300  0.73148200  1
  Tl  Tl13  1  0.33333300  0.66666700  0.23148200  1
  Tl  Tl14  1  0.00000000  0.00000000  0.99361800  1
  Tl  Tl15  1  0.00000000  0.00000000  0.49361800  1
  F  F16  1  0.18550400  0.37100700  0.54949400  1
  F  F17  1  0.18550400  0.81449600  0.54949400  1
  F  F18  1  0.81449600  0.62899300  0.04949400  1
  F  F19  1  0.62899300  0.81449600  0.54949400  1
  F  F20  1  0.81449600  0.18550400  0.04949400  1
  F  F21  1  0.37100700  0.18550400  0.04949400  1
  F  F22  1  0.66666700  0.33333300  0.94076100  1
  F  F23  1  0.33333300  0.66666700  0.44076100  1
  F  F24  1  0.66666700  0.33333300  0.27454800  1
  F  F25  1  0.33333300  0.66666700  0.77454800  1
  F  F26  1  0.77681700  0.55363400  0.52018300  1
  F  F27  1  0.77681700  0.22318300  0.52018300  1
  F  F28  1  0.22318300  0.44636600  0.02018300  1
  F  F29  1  0.44636600  0.22318300  0.52018300  1
  F  F30  1  0.22318300  0.77681700  0.02018300  1
  F  F31  1  0.55363400  0.77681700  0.02018300  1
  F  F32  1  0.89119500  0.78238900  0.69139700  1
  F  F33  1  0.89119500  0.10880500  0.69139700  1
  F  F34  1  0.10880500  0.21761100  0.19139700  1
  F  F35  1  0.21761100  0.10880500  0.69139700  1
  F  F36  1  0.10880500  0.89119500  0.19139700  1
  F  F37  1  0.78238900  0.89119500  0.19139700  1
  F  F38  1  0.66020000  0.66344700  0.85437700  1
  F  F39  1  0.00324700  0.33980000  0.85437700  1
  F  F40  1  0.33980000  0.33655300  0.35437700  1
  F  F41  1  0.00324700  0.66344700  0.85437700  1
  F  F42  1  0.33655300  0.99675300  0.85437700  1
  F  F43  1  0.99675300  0.66020000  0.35437700  1
  F  F44  1  0.33655300  0.33980000  0.85437700  1
  F  F45  1  0.99675300  0.33655300  0.35437700  1
  F  F46  1  0.66344700  0.00324700  0.35437700  1
  F  F47  1  0.66344700  0.66020000  0.35437700  1
  F  F48  1  0.66020000  0.99675300  0.85437700  1
  F  F49  1  0.33980000  0.00324700  0.35437700  1
  F  F50  1  0.47798900  0.95597700  0.65985300  1
  F  F51  1  0.47798900  0.52201100  0.65985300  1
  F  F52  1  0.52201100  0.04402300  0.15985300  1
  F  F53  1  0.04402300  0.52201100  0.65985300  1
  F  F54  1  0.52201100  0.47798900  0.15985300  1
  F  F55  1  0.95597700  0.47798900  0.15985300  1
