# generated using pymatgen
data_Hg3(PO4)2
_symmetry_space_group_name_H-M   'P 1'
_cell_length_a   11.69084000
_cell_length_b   6.52886300
_cell_length_c   10.12748471
_cell_angle_alpha   80.56399254
_cell_angle_beta   90.00000000
_cell_angle_gamma   90.00000000
_symmetry_Int_Tables_number   1
_chemical_formula_structural   Hg3(PO4)2
_chemical_formula_sum   'Hg12 P8 O32'
_cell_volume   762.55022476
_cell_formula_units_Z   4
loop_
 _symmetry_equiv_pos_site_id
 _symmetry_equiv_pos_as_xyz
  1  'x, y, z'
loop_
 _atom_site_type_symbol
 _atom_site_label
 _atom_site_symmetry_multiplicity
 _atom_site_fract_x
 _atom_site_fract_y
 _atom_site_fract_z
 _atom_site_occupancy
  Hg  Hg0  1  0.17059600  0.07993000  0.65291600  1
  Hg  Hg1  1  0.67059600  0.42007000  0.34708400  1
  Hg  Hg2  1  0.82940400  0.92007000  0.34708400  1
  Hg  Hg3  1  0.32940400  0.57993000  0.65291600  1
  Hg  Hg4  1  0.90022500  0.66857900  0.69475500  1
  Hg  Hg5  1  0.40022500  0.83142100  0.30524500  1
  Hg  Hg6  1  0.09977500  0.33142100  0.30524500  1
  Hg  Hg7  1  0.59977500  0.16857900  0.69475500  1
  Hg  Hg8  1  0.11933800  0.82042900  0.03904500  1
  Hg  Hg9  1  0.61933800  0.67957100  0.96095500  1
  Hg  Hg10  1  0.88066200  0.17957100  0.96095500  1
  Hg  Hg11  1  0.38066200  0.32042900  0.03904500  1
  P  P12  1  0.36636300  0.90010500  0.89363600  1
  P  P13  1  0.86636300  0.59989500  0.10636400  1
  P  P14  1  0.63363700  0.09989500  0.10636400  1
  P  P15  1  0.13363700  0.40010500  0.89363600  1
  P  P16  1  0.90125500  0.18813700  0.61149100  1
  P  P17  1  0.40125500  0.31186300  0.38850900  1
  P  P18  1  0.09874500  0.81186300  0.38850900  1
  P  P19  1  0.59874500  0.68813700  0.61149100  1
  O  O20  1  0.43878000  0.09719200  0.86201800  1
  O  O21  1  0.93878000  0.40280800  0.13798200  1
  O  O22  1  0.56122000  0.90280800  0.13798200  1
  O  O23  1  0.06122000  0.59719200  0.86201800  1
  O  O24  1  0.43954900  0.69552800  0.91579300  1
  O  O25  1  0.93954900  0.80447200  0.08420700  1
  O  O26  1  0.56045100  0.30447200  0.08420700  1
  O  O27  1  0.06045100  0.19552800  0.91579300  1
  O  O28  1  0.28336700  0.86644600  0.77684400  1
  O  O29  1  0.78336700  0.63355400  0.22315600  1
  O  O30  1  0.71663300  0.13355400  0.22315600  1
  O  O31  1  0.21663300  0.36644600  0.77684400  1
  O  O32  1  0.29396800  0.91415400  0.02324600  1
  O  O33  1  0.79396800  0.58584600  0.97675400  1
  O  O34  1  0.70603200  0.08584600  0.97675400  1
  O  O35  1  0.20603200  0.41415400  0.02324600  1
  O  O36  1  0.81371600  0.18170600  0.49918800  1
  O  O37  1  0.31371600  0.31829400  0.50081200  1
  O  O38  1  0.18628400  0.81829400  0.50081200  1
  O  O39  1  0.68628400  0.68170600  0.49918800  1
  O  O40  1  0.47639400  0.74002300  0.55124800  1
  O  O41  1  0.97639400  0.75997700  0.44875200  1
  O  O42  1  0.52360600  0.25997700  0.44875200  1
  O  O43  1  0.02360600  0.24002300  0.55124800  1
  O  O44  1  0.59328800  0.48300000  0.71650300  1
  O  O45  1  0.09328800  0.01700000  0.28349700  1
  O  O46  1  0.40671200  0.51700000  0.28349700  1
  O  O47  1  0.90671200  0.98300000  0.71650300  1
  O  O48  1  0.63679800  0.85074900  0.70200700  1
  O  O49  1  0.13679800  0.64925100  0.29799300  1
  O  O50  1  0.36320200  0.14925100  0.29799300  1
  O  O51  1  0.86320200  0.35074900  0.70200700  1
