# generated using pymatgen
data_Re4Si7
_symmetry_space_group_name_H-M   'P 1'
_cell_length_a   3.15890000
_cell_length_b   8.34377293
_cell_length_c   11.75621982
_cell_angle_alpha   92.82834520
_cell_angle_beta   97.72104441
_cell_angle_gamma   90.00000000
_symmetry_Int_Tables_number   1
_chemical_formula_structural   Re4Si7
_chemical_formula_sum   'Re8 Si14'
_cell_volume   306.67024893
_cell_formula_units_Z   2
loop_
 _symmetry_equiv_pos_site_id
 _symmetry_equiv_pos_as_xyz
  1  'x, y, z'
loop_
 _atom_site_type_symbol
 _atom_site_label
 _atom_site_symmetry_multiplicity
 _atom_site_fract_x
 _atom_site_fract_y
 _atom_site_fract_z
 _atom_site_occupancy
  Re  Re0  1  0.14910300  0.58871500  0.29820600  1
  Re  Re1  1  0.27428100  0.47987600  0.54856200  1
  Re  Re2  1  0.39832900  0.36661400  0.79665700  1
  Re  Re3  1  0.52284200  0.22369100  0.04568400  1
  Re  Re4  1  0.65236600  0.10969600  0.30473200  1
  Re  Re5  1  0.76856400  0.96996900  0.53712900  1
  Re  Re6  1  0.89846300  0.85008800  0.79692600  1
  Re  Re7  1  0.02376500  0.71598600  0.04753100  1
  Si  Si8  1  0.18296700  0.88946100  0.36593500  1
  Si  Si9  1  0.31627900  0.78811400  0.63255700  1
  Si  Si10  1  0.44199700  0.65522800  0.88399400  1
  Si  Si11  1  0.56770400  0.52363200  0.13540900  1
  Si  Si12  1  0.69019900  0.39445100  0.38039700  1
  Si  Si13  1  0.82654600  0.23494600  0.65309100  1
  Si  Si14  1  0.99563600  0.00023100  0.99127100  1
  Si  Si15  1  0.10490100  0.29412000  0.20980100  1
  Si  Si16  1  0.23474400  0.18422300  0.46948700  1
  Si  Si17  1  0.73007300  0.68476400  0.46014700  1
  Si  Si18  1  0.85552300  0.56036500  0.71104600  1
  Si  Si19  1  0.98086300  0.42154600  0.96172600  1
  Si  Si20  1  0.57844600  0.89682500  0.15689200  1
  Si  Si21  1  0.41427900  0.08085500  0.82855800  1
