# generated using pymatgen
data_U2Mn12P7
_symmetry_space_group_name_H-M   'P 1'
_cell_length_a   9.25752627
_cell_length_b   9.25752627
_cell_length_c   3.57767800
_cell_angle_alpha   90.00000000
_cell_angle_beta   90.00000000
_cell_angle_gamma   120.00000191
_symmetry_Int_Tables_number   1
_chemical_formula_structural   U2Mn12P7
_chemical_formula_sum   'U2 Mn12 P7'
_cell_volume   265.53500391
_cell_formula_units_Z   1
loop_
 _symmetry_equiv_pos_site_id
 _symmetry_equiv_pos_as_xyz
  1  'x, y, z'
loop_
 _atom_site_type_symbol
 _atom_site_label
 _atom_site_symmetry_multiplicity
 _atom_site_fract_x
 _atom_site_fract_y
 _atom_site_fract_z
 _atom_site_occupancy
  U  U0  1  0.66666700  0.33333300  0.50000000  1
  U  U1  1  0.33333300  0.66666700  0.00000000  1
  Mn  Mn2  1  0.12311700  0.84663800  0.00000000  1
  Mn  Mn3  1  0.38616900  0.44056300  0.50000000  1
  Mn  Mn4  1  0.72352200  0.87688300  0.00000000  1
  Mn  Mn5  1  0.55943700  0.94560600  0.50000000  1
  Mn  Mn6  1  0.23058600  0.10769500  0.50000000  1
  Mn  Mn7  1  0.87710900  0.76941400  0.50000000  1
  Mn  Mn8  1  0.89230500  0.12289100  0.50000000  1
  Mn  Mn9  1  0.94048600  0.37301000  0.00000000  1
  Mn  Mn10  1  0.62699000  0.56747700  0.00000000  1
  Mn  Mn11  1  0.43252300  0.05951400  0.00000000  1
  Mn  Mn12  1  0.05439400  0.61383100  0.50000000  1
  Mn  Mn13  1  0.15336200  0.27647800  0.00000000  1
  P  P14  1  0.00000000  0.00000000  0.00000000  1
  P  P15  1  0.59546600  0.71426400  0.50000000  1
  P  P16  1  0.70614300  0.11306600  0.00000000  1
  P  P17  1  0.88693400  0.59307800  0.00000000  1
  P  P18  1  0.40692200  0.29385700  0.00000000  1
  P  P19  1  0.28573600  0.88120100  0.50000000  1
  P  P20  1  0.11879900  0.40453400  0.50000000  1
