# generated using pymatgen
data_AlTlSi3O8
_symmetry_space_group_name_H-M   'P 1'
_cell_length_a   7.36388500
_cell_length_b   7.78209725
_cell_length_c   8.11550518
_cell_angle_alpha   111.10229566
_cell_angle_beta   105.80689159
_cell_angle_gamma   103.46441917
_symmetry_Int_Tables_number   1
_chemical_formula_structural   AlTlSi3O8
_chemical_formula_sum   'Al2 Tl2 Si6 O16'
_cell_volume   388.07384402
_cell_formula_units_Z   2
loop_
 _symmetry_equiv_pos_site_id
 _symmetry_equiv_pos_as_xyz
  1  'x, y, z'
loop_
 _atom_site_type_symbol
 _atom_site_label
 _atom_site_symmetry_multiplicity
 _atom_site_fract_x
 _atom_site_fract_y
 _atom_site_fract_z
 _atom_site_occupancy
  Al  Al0  1  0.21817400  0.81506100  0.20243700  1
  Al  Al1  1  0.78182600  0.18493900  0.79756300  1
  Tl  Tl2  1  0.15498200  0.29591300  0.29158900  1
  Tl  Tl3  1  0.84501800  0.70408700  0.70841100  1
  Si  Si4  1  0.33929000  0.60384800  0.84712200  1
  Si  Si5  1  0.34669100  0.84031000  0.60479900  1
  Si  Si6  1  0.66071000  0.39615200  0.15287800  1
  Si  Si7  1  0.65330900  0.15969000  0.39520100  1
  Si  Si8  1  0.22812800  0.20103600  0.82240000  1
  Si  Si9  1  0.77187200  0.79896400  0.17760000  1
  O  O10  1  0.22020400  0.66300400  0.98416500  1
  O  O11  1  0.23268100  0.99502600  0.67455700  1
  O  O12  1  0.77979600  0.33699600  0.01583500  1
  O  O13  1  0.76731900  0.00497400  0.32544300  1
  O  O14  1  0.25378700  0.72247000  0.37193600  1
  O  O15  1  0.26685900  0.36042500  0.73405300  1
  O  O16  1  0.74621300  0.27753000  0.62806400  1
  O  O17  1  0.73314100  0.63957500  0.26594700  1
  O  O18  1  0.98288600  0.84717800  0.14912700  1
  O  O19  1  0.01711400  0.15282200  0.85087300  1
  O  O20  1  0.28195600  0.66785600  0.67376700  1
  O  O21  1  0.71804400  0.33214400  0.32623300  1
  O  O22  1  0.40924900  0.04915300  0.29803900  1
  O  O23  1  0.41204200  0.29836400  0.03681200  1
  O  O24  1  0.59075100  0.95084700  0.70196100  1
  O  O25  1  0.58795800  0.70163600  0.96318800  1
