# generated using pymatgen
data_Tb
_symmetry_space_group_name_H-M   'P 1'
_cell_length_a   8.89897176
_cell_length_b   8.89897176
_cell_length_c   8.89897106
_cell_angle_alpha   23.22832518
_cell_angle_beta   23.22832518
_cell_angle_gamma   23.22831938
_symmetry_Int_Tables_number   1
_chemical_formula_structural   Tb
_chemical_formula_sum   Tb3
_cell_volume   96.23222434
_cell_formula_units_Z   3
loop_
 _symmetry_equiv_pos_site_id
 _symmetry_equiv_pos_as_xyz
  1  'x, y, z'
loop_
 _atom_site_type_symbol
 _atom_site_label
 _atom_site_symmetry_multiplicity
 _atom_site_fract_x
 _atom_site_fract_y
 _atom_site_fract_z
 _atom_site_occupancy
  Tb  Tb0  1  0.00000000  0.00000000  0.00000000  1
  Tb  Tb1  1  0.77773600  0.77773600  0.77773600  1
  Tb  Tb2  1  0.22226400  0.22226400  0.22226400  1
