# generated using pymatgen
data_Cd43Pd8
_symmetry_space_group_name_H-M   'P 1'
_cell_length_a   10.18920795
_cell_length_b   10.18920795
_cell_length_c   10.18920800
_cell_angle_alpha   89.91385871
_cell_angle_beta   89.91385871
_cell_angle_gamma   89.91385980
_symmetry_Int_Tables_number   1
_chemical_formula_structural   Cd43Pd8
_chemical_formula_sum   'Cd43 Pd8'
_cell_volume   1057.83956963
_cell_formula_units_Z   1
loop_
 _symmetry_equiv_pos_site_id
 _symmetry_equiv_pos_as_xyz
  1  'x, y, z'
loop_
 _atom_site_type_symbol
 _atom_site_label
 _atom_site_symmetry_multiplicity
 _atom_site_fract_x
 _atom_site_fract_y
 _atom_site_fract_z
 _atom_site_occupancy
  Cd  Cd0  1  0.60514500  0.60514500  0.60514500  1
  Cd  Cd1  1  0.60548700  0.39413100  0.39413100  1
  Cd  Cd2  1  0.39413100  0.39413100  0.60548700  1
  Cd  Cd3  1  0.39413100  0.60548700  0.39413100  1
  Cd  Cd4  1  0.50017400  0.85756600  0.50017400  1
  Cd  Cd5  1  0.50017400  0.50017400  0.85756600  1
  Cd  Cd6  1  0.85756600  0.50017400  0.50017400  1
  Cd  Cd7  1  0.49878600  0.14149100  0.49878600  1
  Cd  Cd8  1  0.49878600  0.49878600  0.14149100  1
  Cd  Cd9  1  0.14149100  0.49878600  0.49878600  1
  Cd  Cd10  1  0.05241600  0.29403100  0.29403100  1
  Cd  Cd11  1  0.29403100  0.05241600  0.29403100  1
  Cd  Cd12  1  0.29403100  0.29403100  0.05241600  1
  Cd  Cd13  1  0.04715800  0.69623400  0.69623400  1
  Cd  Cd14  1  0.30462700  0.95418200  0.69448100  1
  Cd  Cd15  1  0.30462700  0.69448100  0.95418200  1
  Cd  Cd16  1  0.95418200  0.69448100  0.30462700  1
  Cd  Cd17  1  0.69448100  0.95418200  0.30462700  1
  Cd  Cd18  1  0.69623400  0.69623400  0.04715800  1
  Cd  Cd19  1  0.95418200  0.30462700  0.69448100  1
  Cd  Cd20  1  0.69623400  0.04715800  0.69623400  1
  Cd  Cd21  1  0.69448100  0.30462700  0.95418200  1
  Cd  Cd22  1  0.54594200  0.80697800  0.80697800  1
  Cd  Cd23  1  0.80697800  0.54594300  0.80697800  1
  Cd  Cd24  1  0.80697800  0.80697800  0.54594200  1
  Cd  Cd25  1  0.54214400  0.19323800  0.19323800  1
  Cd  Cd26  1  0.80757600  0.45478300  0.19251000  1
  Cd  Cd27  1  0.80757600  0.19251000  0.45478300  1
  Cd  Cd28  1  0.45478300  0.19251000  0.80757600  1
  Cd  Cd29  1  0.19251000  0.45478300  0.80757600  1
  Cd  Cd30  1  0.19323800  0.19323800  0.54214400  1
  Cd  Cd31  1  0.45478300  0.80757600  0.19251000  1
  Cd  Cd32  1  0.19323800  0.54214400  0.19323800  1
  Cd  Cd33  1  0.19251000  0.80757600  0.45478300  1
  Cd  Cd34  1  0.00734700  0.34554500  0.00734700  1
  Cd  Cd35  1  0.00734700  0.00734700  0.34554500  1
  Cd  Cd36  1  0.34554500  0.00734700  0.00734700  1
  Cd  Cd37  1  0.99931800  0.64262900  0.99931800  1
  Cd  Cd38  1  0.99931800  0.99931800  0.64262900  1
  Cd  Cd39  1  0.64262900  0.99931800  0.99931800  1
  Cd  Cd40  1  0.10554000  0.90305700  0.90305700  1
  Cd  Cd41  1  0.90305700  0.90305700  0.10554000  1
  Cd  Cd42  1  0.90305700  0.10554000  0.90305700  1
  Pd  Pd43  1  0.82912400  0.82912400  0.82912400  1
  Pd  Pd44  1  0.82330300  0.17350500  0.17350500  1
  Pd  Pd45  1  0.17350500  0.17350500  0.82330300  1
  Pd  Pd46  1  0.17350500  0.82330300  0.17350500  1
  Pd  Pd47  1  0.32957800  0.32957800  0.32957800  1
  Pd  Pd48  1  0.32855400  0.67182800  0.67182800  1
  Pd  Pd49  1  0.67182800  0.67182800  0.32855400  1
  Pd  Pd50  1  0.67182800  0.32855400  0.67182800  1
