# generated using pymatgen
data_Mg2GeS4
_symmetry_space_group_name_H-M   'P 1'
_cell_length_a   6.05960300
_cell_length_b   7.52192200
_cell_length_c   12.93076000
_cell_angle_alpha   90.00000000
_cell_angle_beta   90.00000000
_cell_angle_gamma   90.00000000
_symmetry_Int_Tables_number   1
_chemical_formula_structural   Mg2GeS4
_chemical_formula_sum   'Mg8 Ge4 S16'
_cell_volume   589.38224494
_cell_formula_units_Z   4
loop_
 _symmetry_equiv_pos_site_id
 _symmetry_equiv_pos_as_xyz
  1  'x, y, z'
loop_
 _atom_site_type_symbol
 _atom_site_label
 _atom_site_symmetry_multiplicity
 _atom_site_fract_x
 _atom_site_fract_y
 _atom_site_fract_z
 _atom_site_occupancy
  Mg  Mg0  1  0.00000000  0.00000000  0.00000000  1
  Mg  Mg1  1  0.50000000  0.00000000  0.50000000  1
  Mg  Mg2  1  0.00000000  0.50000000  0.00000000  1
  Mg  Mg3  1  0.50000000  0.50000000  0.50000000  1
  Mg  Mg4  1  0.49722100  0.75000000  0.23062100  1
  Mg  Mg5  1  0.99722100  0.25000000  0.26937900  1
  Mg  Mg6  1  0.50277900  0.25000000  0.76937900  1
  Mg  Mg7  1  0.00277900  0.75000000  0.73062100  1
  Ge  Ge8  1  0.91379700  0.75000000  0.41062100  1
  Ge  Ge9  1  0.58620300  0.75000000  0.91062100  1
  Ge  Ge10  1  0.08620300  0.25000000  0.58937900  1
  Ge  Ge11  1  0.41379700  0.25000000  0.08937900  1
  S  S12  1  0.25529700  0.25000000  0.93163500  1
  S  S13  1  0.74470300  0.75000000  0.06836500  1
  S  S14  1  0.24470300  0.25000000  0.43163500  1
  S  S15  1  0.25123500  0.48210800  0.66708900  1
  S  S16  1  0.74876500  0.98210800  0.33291100  1
  S  S17  1  0.24876500  0.01789200  0.16708900  1
  S  S18  1  0.74876500  0.51789200  0.33291100  1
  S  S19  1  0.75123500  0.51789200  0.83291100  1
  S  S20  1  0.25123500  0.01789200  0.66708900  1
  S  S21  1  0.75123500  0.98210800  0.83291100  1
  S  S22  1  0.22134400  0.75000000  0.90699700  1
  S  S23  1  0.24876500  0.48210800  0.16708900  1
  S  S24  1  0.27865600  0.75000000  0.40699700  1
  S  S25  1  0.77865600  0.25000000  0.09300300  1
  S  S26  1  0.72134400  0.25000000  0.59300300  1
  S  S27  1  0.75529700  0.75000000  0.56836500  1
