# generated using pymatgen
data_Zr4O
_symmetry_space_group_name_H-M   'P 1'
_cell_length_a   10.94826006
_cell_length_b   10.94826006
_cell_length_c   10.94825963
_cell_angle_alpha   29.96447455
_cell_angle_beta   29.96447455
_cell_angle_gamma   29.96447916
_symmetry_Int_Tables_number   1
_chemical_formula_structural   Zr4O
_chemical_formula_sum   'Zr12 O3'
_cell_volume   289.96517866
_cell_formula_units_Z   3
loop_
 _symmetry_equiv_pos_site_id
 _symmetry_equiv_pos_as_xyz
  1  'x, y, z'
loop_
 _atom_site_type_symbol
 _atom_site_label
 _atom_site_symmetry_multiplicity
 _atom_site_fract_x
 _atom_site_fract_y
 _atom_site_fract_z
 _atom_site_occupancy
  Zr  Zr0  1  0.87708200  0.53886400  0.20667500  1
  Zr  Zr1  1  0.37651100  0.03477400  0.71321900  1
  Zr  Zr2  1  0.53886400  0.20667500  0.87708200  1
  Zr  Zr3  1  0.03477400  0.71321900  0.37651100  1
  Zr  Zr4  1  0.20667500  0.87708200  0.53886400  1
  Zr  Zr5  1  0.71321900  0.37651100  0.03477400  1
  Zr  Zr6  1  0.46113600  0.79332500  0.12291800  1
  Zr  Zr7  1  0.96522600  0.28678100  0.62348900  1
  Zr  Zr8  1  0.12291800  0.46113600  0.79332500  1
  Zr  Zr9  1  0.62348900  0.96522600  0.28678100  1
  Zr  Zr10  1  0.79332500  0.12291800  0.46113600  1
  Zr  Zr11  1  0.28678100  0.62348900  0.96522600  1
  O  O12  1  0.00000000  0.00000000  0.00000000  1
  O  O13  1  0.24976900  0.24976900  0.24976900  1
  O  O14  1  0.75023100  0.75023100  0.75023100  1
