# generated using pymatgen
data_YbFe5P3
_symmetry_space_group_name_H-M   'P 1'
_cell_length_a   3.64420300
_cell_length_b   10.28067800
_cell_length_c   11.82258200
_cell_angle_alpha   90.00000000
_cell_angle_beta   90.00000000
_cell_angle_gamma   90.00000000
_symmetry_Int_Tables_number   1
_chemical_formula_structural   YbFe5P3
_chemical_formula_sum   'Yb4 Fe20 P12'
_cell_volume   442.93158766
_cell_formula_units_Z   4
loop_
 _symmetry_equiv_pos_site_id
 _symmetry_equiv_pos_as_xyz
  1  'x, y, z'
loop_
 _atom_site_type_symbol
 _atom_site_label
 _atom_site_symmetry_multiplicity
 _atom_site_fract_x
 _atom_site_fract_y
 _atom_site_fract_z
 _atom_site_occupancy
  Yb  Yb0  1  0.25000000  0.58127700  0.70534000  1
  Yb  Yb1  1  0.25000000  0.91872300  0.20534000  1
  Yb  Yb2  1  0.75000000  0.41872300  0.29466000  1
  Yb  Yb3  1  0.75000000  0.08127700  0.79466000  1
  Fe  Fe4  1  0.25000000  0.70760400  0.98752900  1
  Fe  Fe5  1  0.25000000  0.79239600  0.48752900  1
  Fe  Fe6  1  0.75000000  0.29239600  0.01247100  1
  Fe  Fe7  1  0.75000000  0.20760400  0.51247100  1
  Fe  Fe8  1  0.25000000  0.40640400  0.49149700  1
  Fe  Fe9  1  0.25000000  0.09359600  0.99149700  1
  Fe  Fe10  1  0.75000000  0.59359600  0.50850300  1
  Fe  Fe11  1  0.75000000  0.90640400  0.00850300  1
  Fe  Fe12  1  0.25000000  0.21722600  0.17851700  1
  Fe  Fe13  1  0.25000000  0.28277400  0.67851700  1
  Fe  Fe14  1  0.75000000  0.78277400  0.82148300  1
  Fe  Fe15  1  0.75000000  0.71722600  0.32148300  1
  Fe  Fe16  1  0.25000000  0.87509100  0.70217400  1
  Fe  Fe17  1  0.25000000  0.62490900  0.20217400  1
  Fe  Fe18  1  0.75000000  0.12490900  0.29782600  1
  Fe  Fe19  1  0.75000000  0.37509100  0.79782600  1
  Fe  Fe20  1  0.25000000  0.46360700  0.93272100  1
  Fe  Fe21  1  0.25000000  0.03639300  0.43272100  1
  Fe  Fe22  1  0.75000000  0.53639300  0.06727900  1
  Fe  Fe23  1  0.75000000  0.96360700  0.56727900  1
  P  P24  1  0.25000000  0.42092500  0.11312800  1
  P  P25  1  0.25000000  0.07907500  0.61312800  1
  P  P26  1  0.75000000  0.57907500  0.88687200  1
  P  P27  1  0.75000000  0.92092500  0.38687200  1
  P  P28  1  0.25000000  0.26401500  0.87348800  1
  P  P29  1  0.25000000  0.23598500  0.37348800  1
  P  P30  1  0.75000000  0.73598500  0.12651200  1
  P  P31  1  0.75000000  0.76401500  0.62651200  1
  P  P32  1  0.25000000  0.59916600  0.39644400  1
  P  P33  1  0.25000000  0.90083400  0.89644400  1
  P  P34  1  0.75000000  0.40083400  0.60355600  1
  P  P35  1  0.75000000  0.09916600  0.10355600  1
