# generated using pymatgen
data_Ca2GaPd2
_symmetry_space_group_name_H-M   'P 1'
_cell_length_a   5.74027845
_cell_length_b   5.74027845
_cell_length_c   7.87958090
_cell_angle_alpha   78.64223501
_cell_angle_beta   78.64223501
_cell_angle_gamma   60.10471992
_symmetry_Int_Tables_number   1
_chemical_formula_structural   Ca2GaPd2
_chemical_formula_sum   'Ca4 Ga2 Pd4'
_cell_volume   219.18701245
_cell_formula_units_Z   2
loop_
 _symmetry_equiv_pos_site_id
 _symmetry_equiv_pos_as_xyz
  1  'x, y, z'
loop_
 _atom_site_type_symbol
 _atom_site_label
 _atom_site_symmetry_multiplicity
 _atom_site_fract_x
 _atom_site_fract_y
 _atom_site_fract_z
 _atom_site_occupancy
  Ca  Ca0  1  0.78400500  0.51646100  0.35007600  1
  Ca  Ca1  1  0.48353900  0.21599500  0.14992400  1
  Ca  Ca2  1  0.21599500  0.48353900  0.64992400  1
  Ca  Ca3  1  0.51646100  0.78400500  0.85007600  1
  Ga  Ga4  1  0.13395000  0.86605000  0.25000000  1
  Ga  Ga5  1  0.86605000  0.13395000  0.75000000  1
  Pd  Pd6  1  0.00370400  0.74027600  0.00262600  1
  Pd  Pd7  1  0.25972400  0.99629600  0.49737400  1
  Pd  Pd8  1  0.99629600  0.25972400  0.99737400  1
  Pd  Pd9  1  0.74027600  0.00370400  0.50262600  1
