# generated using pymatgen
data_Sm5Ru2
_symmetry_space_group_name_H-M   'P 1'
_cell_length_a   8.70824075
_cell_length_b   8.70824075
_cell_length_c   7.36948987
_cell_angle_alpha   83.81292674
_cell_angle_beta   83.81292674
_cell_angle_gamma   43.90643912
_symmetry_Int_Tables_number   1
_chemical_formula_structural   Sm5Ru2
_chemical_formula_sum   'Sm10 Ru4'
_cell_volume   384.93015982
_cell_formula_units_Z   2
loop_
 _symmetry_equiv_pos_site_id
 _symmetry_equiv_pos_as_xyz
  1  'x, y, z'
loop_
 _atom_site_type_symbol
 _atom_site_label
 _atom_site_symmetry_multiplicity
 _atom_site_fract_x
 _atom_site_fract_y
 _atom_site_fract_z
 _atom_site_occupancy
  Sm  Sm0  1  0.02075400  0.79271800  0.91571200  1
  Sm  Sm1  1  0.20728200  0.97924600  0.58428800  1
  Sm  Sm2  1  0.97924600  0.20728200  0.08428800  1
  Sm  Sm3  1  0.79271800  0.02075400  0.41571200  1
  Sm  Sm4  1  0.35843400  0.20713000  0.81424200  1
  Sm  Sm5  1  0.79287000  0.64156600  0.68575800  1
  Sm  Sm6  1  0.64156600  0.79287000  0.18575800  1
  Sm  Sm7  1  0.20713000  0.35843400  0.31424200  1
  Sm  Sm8  1  0.57740100  0.42259900  0.75000000  1
  Sm  Sm9  1  0.42259900  0.57740100  0.25000000  1
  Ru  Ru10  1  0.17584700  0.60333900  0.57435600  1
  Ru  Ru11  1  0.39666100  0.82415300  0.92564400  1
  Ru  Ru12  1  0.82415300  0.39666100  0.42564400  1
  Ru  Ru13  1  0.60333900  0.17584700  0.07435600  1
