# generated using pymatgen
data_EuCdAg
_symmetry_space_group_name_H-M   'P 1'
_cell_length_a   6.10872281
_cell_length_b   6.10872281
_cell_length_c   7.64018676
_cell_angle_alpha   53.96489480
_cell_angle_beta   53.96489480
_cell_angle_gamma   47.69872954
_symmetry_Int_Tables_number   1
_chemical_formula_structural   EuCdAg
_chemical_formula_sum   'Eu2 Cd2 Ag2'
_cell_volume   161.46094199
_cell_formula_units_Z   2
loop_
 _symmetry_equiv_pos_site_id
 _symmetry_equiv_pos_as_xyz
  1  'x, y, z'
loop_
 _atom_site_type_symbol
 _atom_site_label
 _atom_site_symmetry_multiplicity
 _atom_site_fract_x
 _atom_site_fract_y
 _atom_site_fract_z
 _atom_site_occupancy
  Eu  Eu0  1  0.54892500  0.54892500  0.69969700  1
  Eu  Eu1  1  0.45107500  0.45107500  0.30030300  1
  Cd  Cd2  1  0.82991600  0.82991600  0.11006800  1
  Cd  Cd3  1  0.17008400  0.17008400  0.88993200  1
  Ag  Ag4  1  0.15879900  0.15879900  0.29432400  1
  Ag  Ag5  1  0.84120100  0.84120100  0.70567600  1
