# generated using pymatgen
data_Ho(Ni2P)2
_symmetry_space_group_name_H-M   'P 1'
_cell_length_a   7.04369900
_cell_length_b   7.04369900
_cell_length_c   3.59421600
_cell_angle_alpha   90.00000000
_cell_angle_beta   90.00000000
_cell_angle_gamma   90.00000000
_symmetry_Int_Tables_number   1
_chemical_formula_structural   Ho(Ni2P)2
_chemical_formula_sum   'Ho2 Ni8 P4'
_cell_volume   178.32233855
_cell_formula_units_Z   2
loop_
 _symmetry_equiv_pos_site_id
 _symmetry_equiv_pos_as_xyz
  1  'x, y, z'
loop_
 _atom_site_type_symbol
 _atom_site_label
 _atom_site_symmetry_multiplicity
 _atom_site_fract_x
 _atom_site_fract_y
 _atom_site_fract_z
 _atom_site_occupancy
  Ho  Ho0  1  0.50000000  0.50000000  0.00000000  1
  Ho  Ho1  1  0.00000000  0.00000000  0.50000000  1
  Ni  Ni2  1  0.58589800  0.16251900  0.50000000  1
  Ni  Ni3  1  0.41410200  0.83748100  0.50000000  1
  Ni  Ni4  1  0.08589800  0.33748100  0.00000000  1
  Ni  Ni5  1  0.91410200  0.66251900  0.00000000  1
  Ni  Ni6  1  0.16251900  0.58589800  0.50000000  1
  Ni  Ni7  1  0.83748100  0.41410200  0.50000000  1
  Ni  Ni8  1  0.33748100  0.08589800  0.00000000  1
  Ni  Ni9  1  0.66251900  0.91410200  0.00000000  1
  P  P10  1  0.71952200  0.71952200  0.50000000  1
  P  P11  1  0.28047800  0.28047800  0.50000000  1
  P  P12  1  0.21952200  0.78047800  0.00000000  1
  P  P13  1  0.78047800  0.21952200  0.00000000  1
