# generated using pymatgen
data_Sc57Ru13
_symmetry_space_group_name_H-M   'P 1'
_cell_length_a   14.41344849
_cell_length_b   14.41344849
_cell_length_c   14.41344849
_cell_angle_alpha   90.00000000
_cell_angle_beta   90.00000000
_cell_angle_gamma   90.00000000
_symmetry_Int_Tables_number   1
_chemical_formula_structural   Sc57Ru13
_chemical_formula_sum   'Sc114 Ru26'
_cell_volume   2994.35785232
_cell_formula_units_Z   2
loop_
 _symmetry_equiv_pos_site_id
 _symmetry_equiv_pos_as_xyz
  1  'x, y, z'
loop_
 _atom_site_type_symbol
 _atom_site_label
 _atom_site_symmetry_multiplicity
 _atom_site_fract_x
 _atom_site_fract_y
 _atom_site_fract_z
 _atom_site_occupancy
  Sc  Sc0  1  0.20239636  0.38795834  0.30992656  1
  Sc  Sc1  1  0.79760364  0.61204166  0.69007344  1
  Sc  Sc2  1  0.79760364  0.61204166  0.30992656  1
  Sc  Sc3  1  0.79760364  0.38795834  0.69007344  1
  Sc  Sc4  1  0.30992656  0.20239636  0.38795834  1
  Sc  Sc5  1  0.20239636  0.38795834  0.69007344  1
  Sc  Sc6  1  0.20239636  0.61204166  0.30992656  1
  Sc  Sc7  1  0.69007344  0.79760364  0.61204166  1
  Sc  Sc8  1  0.20239636  0.61204166  0.69007344  1
  Sc  Sc9  1  0.30992656  0.79760364  0.61204166  1
  Sc  Sc10  1  0.79760364  0.38795834  0.30992656  1
  Sc  Sc11  1  0.69007344  0.20239636  0.38795834  1
  Sc  Sc12  1  0.69007344  0.79760364  0.38795834  1
  Sc  Sc13  1  0.30992656  0.20239636  0.61204166  1
  Sc  Sc14  1  0.69007344  0.20239636  0.61204166  1
  Sc  Sc15  1  0.30992656  0.79760364  0.38795834  1
  Sc  Sc16  1  0.38795834  0.30992656  0.20239636  1
  Sc  Sc17  1  0.61204166  0.69007344  0.79760364  1
  Sc  Sc18  1  0.38795834  0.69007344  0.79760364  1
  Sc  Sc19  1  0.61204166  0.30992656  0.20239636  1
  Sc  Sc20  1  0.61204166  0.69007344  0.20239636  1
  Sc  Sc21  1  0.38795834  0.30992656  0.79760364  1
  Sc  Sc22  1  0.61204166  0.30992656  0.79760364  1
  Sc  Sc23  1  0.38795834  0.69007344  0.20239636  1
  Sc  Sc24  1  0.27207929  0.00000000  0.50000000  1
  Sc  Sc25  1  0.72792071  -0.00000000  0.50000000  1
  Sc  Sc26  1  0.50000000  0.27207929  -0.00000000  1
  Sc  Sc27  1  0.50000000  0.72792071  -0.00000000  1
  Sc  Sc28  1  0.00000000  0.50000000  0.27207929  1
  Sc  Sc29  1  0.00000000  0.50000000  0.72792071  1
  Sc  Sc30  1  0.50000000  0.32143116  0.39174134  1
  Sc  Sc31  1  0.50000000  0.67856884  0.60825866  1
  Sc  Sc32  1  0.50000000  0.67856884  0.39174134  1
  Sc  Sc33  1  0.50000000  0.32143116  0.60825866  1
  Sc  Sc34  1  0.39174134  0.50000000  0.32143116  1
  Sc  Sc35  1  0.60825866  0.50000000  0.67856884  1
  Sc  Sc36  1  0.39174134  0.50000000  0.67856884  1
  Sc  Sc37  1  0.60825866  0.50000000  0.32143116  1
  Sc  Sc38  1  0.32143116  0.39174134  0.50000000  1
  Sc  Sc39  1  0.67856884  0.60825866  0.50000000  1
  Sc  Sc40  1  0.32143116  0.60825866  0.50000000  1
  Sc  Sc41  1  0.67856884  0.39174134  0.50000000  1
  Sc  Sc42  1  0.50000000  0.10830959  0.13308906  1
  Sc  Sc43  1  0.50000000  0.89169041  0.86691094  1
  Sc  Sc44  1  0.50000000  0.89169041  0.13308906  1
  Sc  Sc45  1  0.50000000  0.10830959  0.86691094  1
  Sc  Sc46  1  0.13308906  0.50000000  0.10830959  1
  Sc  Sc47  1  0.86691094  0.50000000  0.89169041  1
  Sc  Sc48  1  0.13308906  0.50000000  0.89169041  1
  Sc  Sc49  1  0.86691094  0.50000000  0.10830959  1
  Sc  Sc50  1  0.10830959  0.13308906  0.50000000  1
  Sc  Sc51  1  0.89169041  0.86691094  0.50000000  1
  Sc  Sc52  1  0.10830959  0.86691094  0.50000000  1
  Sc  Sc53  1  0.89169041  0.13308906  0.50000000  1
  Sc  Sc54  1  0.11468319  0.18003679  0.29179170  1
  Sc  Sc55  1  0.88531681  0.81996321  0.70820830  1
  Sc  Sc56  1  0.88531681  0.81996321  0.29179170  1
  Sc  Sc57  1  0.88531681  0.18003679  0.70820830  1
  Sc  Sc58  1  0.29179170  0.11468319  0.18003679  1
  Sc  Sc59  1  0.11468319  0.18003679  0.70820830  1
  Sc  Sc60  1  0.11468319  0.81996321  0.29179170  1
  Sc  Sc61  1  0.70820830  0.88531681  0.81996321  1
  Sc  Sc62  1  0.11468319  0.81996321  0.70820830  1
  Sc  Sc63  1  0.29179170  0.88531681  0.81996321  1
  Sc  Sc64  1  0.88531681  0.18003679  0.29179170  1
  Sc  Sc65  1  0.70820830  0.11468319  0.18003679  1
  Sc  Sc66  1  0.70820830  0.88531681  0.18003679  1
  Sc  Sc67  1  0.29179170  0.11468319  0.81996321  1
  Sc  Sc68  1  0.70820830  0.11468319  0.81996321  1
  Sc  Sc69  1  0.29179170  0.88531681  0.18003679  1
  Sc  Sc70  1  0.18003679  0.29179170  0.11468319  1
  Sc  Sc71  1  0.81996321  0.70820830  0.88531681  1
  Sc  Sc72  1  0.18003679  0.70820830  0.88531681  1
  Sc  Sc73  1  0.81996321  0.29179170  0.11468319  1
  Sc  Sc74  1  0.81996321  0.70820830  0.11468319  1
  Sc  Sc75  1  0.18003679  0.29179170  0.88531681  1
  Sc  Sc76  1  0.81996321  0.29179170  0.88531681  1
  Sc  Sc77  1  0.18003679  0.70820830  0.11468319  1
  Sc  Sc78  1  0.00000000  0.32371829  0.39679794  1
  Sc  Sc79  1  0.00000000  0.67628171  0.60320206  1
  Sc  Sc80  1  0.00000000  0.67628171  0.39679794  1
  Sc  Sc81  1  0.00000000  0.32371829  0.60320206  1
  Sc  Sc82  1  0.39679794  -0.00000000  0.32371829  1
  Sc  Sc83  1  0.60320206  0.00000000  0.67628171  1
  Sc  Sc84  1  0.39679794  0.00000000  0.67628171  1
  Sc  Sc85  1  0.60320206  -0.00000000  0.32371829  1
  Sc  Sc86  1  0.32371829  0.39679794  0.00000000  1
  Sc  Sc87  1  0.67628171  0.60320206  -0.00000000  1
  Sc  Sc88  1  0.32371829  0.60320206  0.00000000  1
  Sc  Sc89  1  0.67628171  0.39679794  -0.00000000  1
  Sc  Sc90  1  0.12651605  0.50000000  0.50000000  1
  Sc  Sc91  1  0.87348395  0.50000000  0.50000000  1
  Sc  Sc92  1  0.50000000  0.12651605  0.50000000  1
  Sc  Sc93  1  0.50000000  0.87348395  0.50000000  1
  Sc  Sc94  1  0.50000000  0.50000000  0.12651605  1
  Sc  Sc95  1  0.50000000  0.50000000  0.87348395  1
  Sc  Sc96  1  0.00000000  0.17525247  0.10957694  1
  Sc  Sc97  1  0.00000000  0.82474753  0.89042306  1
  Sc  Sc98  1  0.00000000  0.82474753  0.10957694  1
  Sc  Sc99  1  0.00000000  0.17525247  0.89042306  1
  Sc  Sc100  1  0.10957694  0.00000000  0.17525247  1
  Sc  Sc101  1  0.89042306  0.00000000  0.82474753  1
  Sc  Sc102  1  0.10957694  0.00000000  0.82474753  1
  Sc  Sc103  1  0.89042306  -0.00000000  0.17525247  1
  Sc  Sc104  1  0.17525247  0.10957694  -0.00000000  1
  Sc  Sc105  1  0.82474753  0.89042306  0.00000000  1
  Sc  Sc106  1  0.17525247  0.89042306  -0.00000000  1
  Sc  Sc107  1  0.82474753  0.10957694  -0.00000000  1
  Sc  Sc108  1  0.36250903  -0.00000000  0.00000000  1
  Sc  Sc109  1  0.63749097  0.00000000  0.00000000  1
  Sc  Sc110  1  0.00000000  0.36250903  0.00000000  1
  Sc  Sc111  1  0.00000000  0.63749097  -0.00000000  1
  Sc  Sc112  1  0.00000000  0.00000000  0.36250903  1
  Sc  Sc113  1  0.00000000  -0.00000000  0.63749097  1
  Ru  Ru114  1  0.00000000  0.33315800  0.20284568  1
  Ru  Ru115  1  0.00000000  0.66684200  0.79715432  1
  Ru  Ru116  1  0.00000000  0.66684200  0.20284568  1
  Ru  Ru117  1  0.00000000  0.33315800  0.79715432  1
  Ru  Ru118  1  0.20284568  0.00000000  0.33315800  1
  Ru  Ru119  1  0.79715432  -0.00000000  0.66684200  1
  Ru  Ru120  1  0.20284568  -0.00000000  0.66684200  1
  Ru  Ru121  1  0.79715432  0.00000000  0.33315800  1
  Ru  Ru122  1  0.33315800  0.20284568  0.00000000  1
  Ru  Ru123  1  0.66684200  0.79715432  0.00000000  1
  Ru  Ru124  1  0.33315800  0.79715432  -0.00000000  1
  Ru  Ru125  1  0.66684200  0.20284568  0.00000000  1
  Ru  Ru126  1  0.50000000  0.50000000  0.50000000  1
  Ru  Ru127  1  0.50000000  0.16678632  0.29980874  1
  Ru  Ru128  1  0.50000000  0.83321368  0.70019126  1
  Ru  Ru129  1  0.50000000  0.83321368  0.29980874  1
  Ru  Ru130  1  0.50000000  0.16678632  0.70019126  1
  Ru  Ru131  1  0.29980874  0.50000000  0.16678632  1
  Ru  Ru132  1  0.70019126  0.50000000  0.83321368  1
  Ru  Ru133  1  0.29980874  0.50000000  0.83321368  1
  Ru  Ru134  1  0.70019126  0.50000000  0.16678632  1
  Ru  Ru135  1  0.16678632  0.29980874  0.50000000  1
  Ru  Ru136  1  0.83321368  0.70019126  0.50000000  1
  Ru  Ru137  1  0.16678632  0.70019126  0.50000000  1
  Ru  Ru138  1  0.83321368  0.29980874  0.50000000  1
  Ru  Ru139  1  0.00000000  -0.00000000  -0.00000000  1
