# generated using pymatgen
data_Zn4P3H7(NO6)2
_symmetry_space_group_name_H-M   'P 1'
_cell_length_a   5.31267000
_cell_length_b   8.19616091
_cell_length_c   16.14735823
_cell_angle_alpha   94.45177046
_cell_angle_beta   92.21980823
_cell_angle_gamma   108.46891706
_symmetry_Int_Tables_number   1
_chemical_formula_structural   Zn4P3H7(NO6)2
_chemical_formula_sum   'Zn8 P6 H14 N4 O24'
_cell_volume   663.39473192
_cell_formula_units_Z   2
loop_
 _symmetry_equiv_pos_site_id
 _symmetry_equiv_pos_as_xyz
  1  'x, y, z'
loop_
 _atom_site_type_symbol
 _atom_site_label
 _atom_site_symmetry_multiplicity
 _atom_site_fract_x
 _atom_site_fract_y
 _atom_site_fract_z
 _atom_site_occupancy
  Zn  Zn0  1  0.21342700  0.33490600  0.04377400  1
  Zn  Zn1  1  0.78657300  0.66509400  0.95622600  1
  Zn  Zn2  1  0.61350200  0.13301900  0.12949900  1
  Zn  Zn3  1  0.38649800  0.86698100  0.87050100  1
  Zn  Zn4  1  0.18969300  0.49801600  0.39329600  1
  Zn  Zn5  1  0.81030700  0.50198400  0.60670400  1
  Zn  Zn6  1  0.92082400  0.07664400  0.38638000  1
  Zn  Zn7  1  0.07917600  0.92335600  0.61362000  1
  P  P8  1  0.63654000  0.25894200  0.94150600  1
  P  P9  1  0.36346000  0.74105800  0.05849400  1
  P  P10  1  0.17535600  0.25380000  0.22733400  1
  P  P11  1  0.82464400  0.74620000  0.77266600  1
  P  P12  1  0.79366400  0.70253400  0.44717100  1
  P  P13  1  0.20633600  0.29746600  0.55282900  1
  H  H14  1  0.55150000  0.18443100  0.43724100  1
  H  H15  1  0.44850000  0.81556900  0.56275900  1
  H  H16  1  0.49925200  0.13026400  0.33534600  1
  H  H17  1  0.50074800  0.86973600  0.66465400  1
  H  H18  1  0.41763500  0.97810000  0.40087500  1
  H  H19  1  0.58236500  0.02190000  0.59912500  1
  H  H20  1  0.96883000  0.65030300  0.17614800  1
  H  H21  1  0.03117000  0.34969700  0.82385200  1
  H  H22  1  0.84352300  0.59344900  0.26861000  1
  H  H23  1  0.15647700  0.40655100  0.73139000  1
  H  H24  1  0.64795200  0.61870200  0.18694100  1
  H  H25  1  0.35204800  0.38129800  0.81305900  1
  H  H26  1  0.88166600  0.79329700  0.23798200  1
  H  H27  1  0.11833400  0.20670300  0.76201800  1
  N  N28  1  0.55557800  0.09308800  0.39047300  1
  N  N29  1  0.44442200  0.90691200  0.60952700  1
  N  N30  1  0.83550000  0.66349400  0.21874300  1
  N  N31  1  0.16450000  0.33650600  0.78125700  1
  O  O32  1  0.49300400  0.21678800  0.02536400  1
  O  O33  1  0.50699600  0.78321200  0.97463600  1
  O  O34  1  0.58612600  0.42496000  0.91527300  1
  O  O35  1  0.41387400  0.57504000  0.08472700  1
  O  O36  1  0.93635400  0.28479200  0.95437400  1
  O  O37  1  0.06364600  0.71520800  0.04562600  1
  O  O38  1  0.50638300  0.11462100  0.87167900  1
  O  O39  1  0.49361700  0.88537900  0.12832100  1
  O  O40  1  0.01089700  0.23473400  0.14057000  1
  O  O41  1  0.98910300  0.76526600  0.85943000  1
  O  O42  1  0.03281000  0.09300000  0.27221300  1
  O  O43  1  0.96719000  0.90700000  0.72778700  1
  O  O44  1  0.18199100  0.42589000  0.27491600  1
  O  O45  1  0.81800900  0.57411000  0.72508400  1
  O  O46  1  0.46203900  0.25996200  0.21007500  1
  O  O47  1  0.53796100  0.74003800  0.78992500  1
  O  O48  1  0.84887500  0.70951300  0.54489400  1
  O  O49  1  0.15112500  0.29048700  0.45510600  1
  O  O50  1  0.98453300  0.86990300  0.41847800  1
  O  O51  1  0.01546700  0.13009700  0.58152200  1
  O  O52  1  0.50024500  0.69315300  0.43179100  1
  O  O53  1  0.49975500  0.30684700  0.56820900  1
  O  O54  1  0.84804900  0.54390900  0.40369400  1
  O  O55  1  0.15195100  0.45609100  0.59630600  1
