# generated using pymatgen
data_Nd3(AgGe)4
_symmetry_space_group_name_H-M   'P 1'
_cell_length_a   4.46531000
_cell_length_b   7.22582500
_cell_length_c   8.54077732
_cell_angle_alpha   115.02535106
_cell_angle_beta   105.15381530
_cell_angle_gamma   90.00000000
_symmetry_Int_Tables_number   1
_chemical_formula_structural   Nd3(AgGe)4
_chemical_formula_sum   'Nd3 Ag4 Ge4'
_cell_volume   239.08529544
_cell_formula_units_Z   1
loop_
 _symmetry_equiv_pos_site_id
 _symmetry_equiv_pos_as_xyz
  1  'x, y, z'
loop_
 _atom_site_type_symbol
 _atom_site_label
 _atom_site_symmetry_multiplicity
 _atom_site_fract_x
 _atom_site_fract_y
 _atom_site_fract_z
 _atom_site_occupancy
  Nd  Nd0  1  0.87239900  0.37239900  0.74479700  1
  Nd  Nd1  1  0.12760100  0.62760100  0.25520300  1
  Nd  Nd2  1  0.00000000  0.00000000  0.00000000  1
  Ag  Ag3  1  0.33139500  0.63649300  0.66279100  1
  Ag  Ag4  1  0.66860500  0.36350700  0.33720900  1
  Ag  Ag5  1  0.33139500  0.02629800  0.66279100  1
  Ag  Ag6  1  0.66860500  0.97370200  0.33720900  1
  Ge  Ge7  1  0.21662700  0.21662700  0.43325300  1
  Ge  Ge8  1  0.78337300  0.78337300  0.56674700  1
  Ge  Ge9  1  0.50000000  0.68157300  0.00000000  1
  Ge  Ge10  1  0.50000000  0.31842700  0.00000000  1
