# generated using pymatgen
data_U2(PdRh)3
_symmetry_space_group_name_H-M   'P 1'
_cell_length_a   3.95514900
_cell_length_b   4.07266100
_cell_length_c   8.38963800
_cell_angle_alpha   90.00000000
_cell_angle_beta   90.00000000
_cell_angle_gamma   90.00000000
_symmetry_Int_Tables_number   1
_chemical_formula_structural   U2(PdRh)3
_chemical_formula_sum   'U2 Pd3 Rh3'
_cell_volume   135.14013018
_cell_formula_units_Z   1
loop_
 _symmetry_equiv_pos_site_id
 _symmetry_equiv_pos_as_xyz
  1  'x, y, z'
loop_
 _atom_site_type_symbol
 _atom_site_label
 _atom_site_symmetry_multiplicity
 _atom_site_fract_x
 _atom_site_fract_y
 _atom_site_fract_z
 _atom_site_occupancy
  U  U0  1  0.00000000  0.00000000  0.75695400  1
  U  U1  1  0.00000000  0.00000000  0.24304600  1
  Pd  Pd2  1  0.50000000  0.00000000  0.50000000  1
  Pd  Pd3  1  0.00000000  0.50000000  0.00000000  1
  Pd  Pd4  1  0.00000000  0.50000000  0.50000000  1
  Rh  Rh5  1  0.50000000  0.50000000  0.74988200  1
  Rh  Rh6  1  0.50000000  0.50000000  0.25011800  1
  Rh  Rh7  1  0.50000000  0.00000000  0.00000000  1
