# generated using pymatgen
data_Nd26Ga7Co10
_symmetry_space_group_name_H-M   'P 1'
_cell_length_a   11.95075000
_cell_length_b   11.95075000
_cell_length_c   15.43004400
_cell_angle_alpha   90.00000000
_cell_angle_beta   90.00000000
_cell_angle_gamma   90.00000000
_symmetry_Int_Tables_number   1
_chemical_formula_structural   Nd26Ga7Co10
_chemical_formula_sum   'Nd52 Ga14 Co20'
_cell_volume   2203.72545053
_cell_formula_units_Z   2
loop_
 _symmetry_equiv_pos_site_id
 _symmetry_equiv_pos_as_xyz
  1  'x, y, z'
loop_
 _atom_site_type_symbol
 _atom_site_label
 _atom_site_symmetry_multiplicity
 _atom_site_fract_x
 _atom_site_fract_y
 _atom_site_fract_z
 _atom_site_occupancy
  Nd  Nd0  1  0.57441300  0.70638800  0.88165900  1
  Nd  Nd1  1  0.42558700  0.29361200  0.88165900  1
  Nd  Nd2  1  0.92558700  0.20638800  0.88165900  1
  Nd  Nd3  1  0.07441300  0.79361200  0.88165900  1
  Nd  Nd4  1  0.70638800  0.42558700  0.88165900  1
  Nd  Nd5  1  0.29361200  0.57441300  0.88165900  1
  Nd  Nd6  1  0.20638800  0.07441300  0.88165900  1
  Nd  Nd7  1  0.79361200  0.92558700  0.88165900  1
  Nd  Nd8  1  0.42558700  0.29361200  0.11834100  1
  Nd  Nd9  1  0.57441300  0.70638800  0.11834100  1
  Nd  Nd10  1  0.07441300  0.79361200  0.11834100  1
  Nd  Nd11  1  0.92558700  0.20638800  0.11834100  1
  Nd  Nd12  1  0.29361200  0.57441300  0.11834100  1
  Nd  Nd13  1  0.70638800  0.42558700  0.11834100  1
  Nd  Nd14  1  0.79361200  0.92558700  0.11834100  1
  Nd  Nd15  1  0.20638800  0.07441300  0.11834100  1
  Nd  Nd16  1  0.70620700  0.58062200  0.68743400  1
  Nd  Nd17  1  0.29379300  0.41937800  0.68743400  1
  Nd  Nd18  1  0.79379300  0.08062200  0.68743400  1
  Nd  Nd19  1  0.20620700  0.91937800  0.68743400  1
  Nd  Nd20  1  0.58062200  0.29379300  0.68743400  1
  Nd  Nd21  1  0.41937800  0.70620700  0.68743400  1
  Nd  Nd22  1  0.08062200  0.20620700  0.68743400  1
  Nd  Nd23  1  0.91937800  0.79379300  0.68743400  1
  Nd  Nd24  1  0.29379300  0.41937800  0.31256600  1
  Nd  Nd25  1  0.70620700  0.58062200  0.31256600  1
  Nd  Nd26  1  0.20620700  0.91937800  0.31256600  1
  Nd  Nd27  1  0.79379300  0.08062200  0.31256600  1
  Nd  Nd28  1  0.41937800  0.70620700  0.31256600  1
  Nd  Nd29  1  0.58062200  0.29379300  0.31256600  1
  Nd  Nd30  1  0.91937800  0.79379300  0.31256600  1
  Nd  Nd31  1  0.08062200  0.20620700  0.31256600  1
  Nd  Nd32  1  0.58578400  0.70444100  0.50000000  1
  Nd  Nd33  1  0.41421600  0.29555900  0.50000000  1
  Nd  Nd34  1  0.91421600  0.20444100  0.50000000  1
  Nd  Nd35  1  0.08578400  0.79555900  0.50000000  1
  Nd  Nd36  1  0.70444100  0.41421600  0.50000000  1
  Nd  Nd37  1  0.29555900  0.58578400  0.50000000  1
  Nd  Nd38  1  0.20444100  0.08578400  0.50000000  1
  Nd  Nd39  1  0.79555900  0.91421600  0.50000000  1
  Nd  Nd40  1  0.34103100  0.84103100  0.00000000  1
  Nd  Nd41  1  0.65896900  0.15896900  0.00000000  1
  Nd  Nd42  1  0.15896900  0.34103100  0.00000000  1
  Nd  Nd43  1  0.84103100  0.65896900  0.00000000  1
  Nd  Nd44  1  0.00000000  0.50000000  0.61529200  1
  Nd  Nd45  1  0.50000000  0.00000000  0.61529200  1
  Nd  Nd46  1  0.00000000  0.50000000  0.38470800  1
  Nd  Nd47  1  0.50000000  0.00000000  0.38470800  1
  Nd  Nd48  1  0.00000000  0.50000000  0.84270400  1
  Nd  Nd49  1  0.50000000  0.00000000  0.84270400  1
  Nd  Nd50  1  0.00000000  0.50000000  0.15729600  1
  Nd  Nd51  1  0.50000000  0.00000000  0.15729600  1
  Ga  Ga52  1  0.16224600  0.66224600  0.70705500  1
  Ga  Ga53  1  0.83775400  0.33775400  0.70705500  1
  Ga  Ga54  1  0.33775400  0.16224600  0.70705500  1
  Ga  Ga55  1  0.66224600  0.83775400  0.70705500  1
  Ga  Ga56  1  0.83775400  0.33775400  0.29294500  1
  Ga  Ga57  1  0.16224600  0.66224600  0.29294500  1
  Ga  Ga58  1  0.66224600  0.83775400  0.29294500  1
  Ga  Ga59  1  0.33775400  0.16224600  0.29294500  1
  Ga  Ga60  1  0.34752000  0.84752000  0.50000000  1
  Ga  Ga61  1  0.65248000  0.15248000  0.50000000  1
  Ga  Ga62  1  0.15248000  0.34752000  0.50000000  1
  Ga  Ga63  1  0.84752000  0.65248000  0.50000000  1
  Ga  Ga64  1  0.50000000  0.50000000  0.00000000  1
  Ga  Ga65  1  0.00000000  0.00000000  0.00000000  1
  Co  Co66  1  0.30503000  0.80503000  0.82030600  1
  Co  Co67  1  0.69497000  0.19497000  0.82030600  1
  Co  Co68  1  0.19497000  0.30503000  0.82030600  1
  Co  Co69  1  0.80503000  0.69497000  0.82030600  1
  Co  Co70  1  0.69497000  0.19497000  0.17969400  1
  Co  Co71  1  0.30503000  0.80503000  0.17969400  1
  Co  Co72  1  0.80503000  0.69497000  0.17969400  1
  Co  Co73  1  0.19497000  0.30503000  0.17969400  1
  Co  Co74  1  0.09239800  0.59239800  0.00000000  1
  Co  Co75  1  0.90760200  0.40760200  0.00000000  1
  Co  Co76  1  0.40760200  0.09239800  0.00000000  1
  Co  Co77  1  0.59239800  0.90760200  0.00000000  1
  Co  Co78  1  0.50000000  0.50000000  0.59168000  1
  Co  Co79  1  0.00000000  0.00000000  0.59168000  1
  Co  Co80  1  0.50000000  0.50000000  0.40832000  1
  Co  Co81  1  0.00000000  0.00000000  0.40832000  1
  Co  Co82  1  0.50000000  0.50000000  0.77182100  1
  Co  Co83  1  0.00000000  0.00000000  0.77182100  1
  Co  Co84  1  0.50000000  0.50000000  0.22817900  1
  Co  Co85  1  0.00000000  0.00000000  0.22817900  1
