# generated using pymatgen
data_Nd6Ni20P13
_symmetry_space_group_name_H-M   'P 1'
_cell_length_a   12.79450134
_cell_length_b   12.79450134
_cell_length_c   3.83241700
_cell_angle_alpha   90.00000000
_cell_angle_beta   90.00000000
_cell_angle_gamma   119.99999659
_symmetry_Int_Tables_number   1
_chemical_formula_structural   Nd6Ni20P13
_chemical_formula_sum   'Nd6 Ni20 P13'
_cell_volume   543.31304534
_cell_formula_units_Z   1
loop_
 _symmetry_equiv_pos_site_id
 _symmetry_equiv_pos_as_xyz
  1  'x, y, z'
loop_
 _atom_site_type_symbol
 _atom_site_label
 _atom_site_symmetry_multiplicity
 _atom_site_fract_x
 _atom_site_fract_y
 _atom_site_fract_z
 _atom_site_occupancy
  Nd  Nd0  1  0.80202000  0.94802500  0.00000000  1
  Nd  Nd1  1  0.05197500  0.85399600  0.00000000  1
  Nd  Nd2  1  0.14600400  0.19798000  0.00000000  1
  Nd  Nd3  1  0.51981600  0.13442000  0.50000000  1
  Nd  Nd4  1  0.86558000  0.38539600  0.50000000  1
  Nd  Nd5  1  0.61460400  0.48018400  0.50000000  1
  Ni  Ni6  1  0.52624400  0.77021800  0.00000000  1
  Ni  Ni7  1  0.22978200  0.75602600  0.00000000  1
  Ni  Ni8  1  0.24397400  0.47375600  0.00000000  1
  Ni  Ni9  1  0.00000000  0.00000000  0.50000000  1
  Ni  Ni10  1  0.40572400  0.81935500  0.50000000  1
  Ni  Ni11  1  0.18064500  0.58636800  0.50000000  1
  Ni  Ni12  1  0.41363200  0.59427600  0.50000000  1
  Ni  Ni13  1  0.66666700  0.33333300  0.00000000  1
  Ni  Ni14  1  0.77128100  0.68913700  0.00000000  1
  Ni  Ni15  1  0.31086300  0.08214500  0.00000000  1
  Ni  Ni16  1  0.91785500  0.22871900  0.00000000  1
  Ni  Ni17  1  0.64709000  0.73617800  0.50000000  1
  Ni  Ni18  1  0.26382200  0.91091200  0.50000000  1
  Ni  Ni19  1  0.08908800  0.35291000  0.50000000  1
  Ni  Ni20  1  0.35636600  0.25606600  0.50000000  1
  Ni  Ni21  1  0.74393400  0.10030000  0.50000000  1
  Ni  Ni22  1  0.89970000  0.64363400  0.50000000  1
  Ni  Ni23  1  0.57417100  0.98389900  0.00000000  1
  Ni  Ni24  1  0.01610100  0.59027200  0.00000000  1
  Ni  Ni25  1  0.40972800  0.42582900  0.00000000  1
  P  P26  1  0.85383500  0.79951100  0.50000000  1
  P  P27  1  0.20048900  0.05432400  0.50000000  1
  P  P28  1  0.94567600  0.14616500  0.50000000  1
  P  P29  1  0.60777600  0.89745700  0.50000000  1
  P  P30  1  0.10254300  0.71031900  0.50000000  1
  P  P31  1  0.28968100  0.39222400  0.50000000  1
  P  P32  1  0.46710500  0.28080500  0.00000000  1
  P  P33  1  0.71919500  0.18630000  0.00000000  1
  P  P34  1  0.81370000  0.53289500  0.00000000  1
  P  P35  1  0.37821600  0.94580700  0.00000000  1
  P  P36  1  0.05419300  0.43240900  0.00000000  1
  P  P37  1  0.56759100  0.62178400  0.00000000  1
  P  P38  1  0.33333300  0.66666700  0.00000000  1
