# generated using pymatgen
data_Ba2US6
_symmetry_space_group_name_H-M   'P 1'
_cell_length_a   5.46849800
_cell_length_b   5.46849800
_cell_length_c   16.06086000
_cell_angle_alpha   90.00000000
_cell_angle_beta   90.00000000
_cell_angle_gamma   90.00000000
_symmetry_Int_Tables_number   1
_chemical_formula_structural   Ba2US6
_chemical_formula_sum   'Ba4 U2 S12'
_cell_volume   480.29151208
_cell_formula_units_Z   2
loop_
 _symmetry_equiv_pos_site_id
 _symmetry_equiv_pos_as_xyz
  1  'x, y, z'
loop_
 _atom_site_type_symbol
 _atom_site_label
 _atom_site_symmetry_multiplicity
 _atom_site_fract_x
 _atom_site_fract_y
 _atom_site_fract_z
 _atom_site_occupancy
  Ba  Ba0  1  0.00000000  0.00000000  0.13560100  1
  Ba  Ba1  1  0.50000000  0.50000000  0.63560100  1
  Ba  Ba2  1  0.50000000  0.50000000  0.36439900  1
  Ba  Ba3  1  0.00000000  0.00000000  0.86439900  1
  U  U4  1  0.00000000  0.00000000  0.50000000  1
  U  U5  1  0.50000000  0.50000000  0.00000000  1
  S  S6  1  0.30919200  0.50000000  0.16382500  1
  S  S7  1  0.69080800  0.50000000  0.16382500  1
  S  S8  1  0.00000000  0.80919200  0.66382500  1
  S  S9  1  0.00000000  0.19080800  0.66382500  1
  S  S10  1  0.19080800  0.00000000  0.33617500  1
  S  S11  1  0.80919200  0.00000000  0.33617500  1
  S  S12  1  0.50000000  0.69080800  0.83617500  1
  S  S13  1  0.50000000  0.30919200  0.83617500  1
  S  S14  1  0.00000000  0.50000000  0.97989000  1
  S  S15  1  0.00000000  0.50000000  0.47989000  1
  S  S16  1  0.50000000  0.00000000  0.52011000  1
  S  S17  1  0.50000000  0.00000000  0.02011000  1
