# generated using pymatgen
data_Ba2EuMoO6
_symmetry_space_group_name_H-M   'P 1'
_cell_length_a   6.11596878
_cell_length_b   6.11596878
_cell_length_c   6.11596878
_cell_angle_alpha   60.00000000
_cell_angle_beta   60.00000000
_cell_angle_gamma   60.00000000
_symmetry_Int_Tables_number   1
_chemical_formula_structural   Ba2EuMoO6
_chemical_formula_sum   'Ba2 Eu1 Mo1 O6'
_cell_volume   161.76359211
_cell_formula_units_Z   1
loop_
 _symmetry_equiv_pos_site_id
 _symmetry_equiv_pos_as_xyz
  1  'x, y, z'
loop_
 _atom_site_type_symbol
 _atom_site_label
 _atom_site_symmetry_multiplicity
 _atom_site_fract_x
 _atom_site_fract_y
 _atom_site_fract_z
 _atom_site_occupancy
  Ba  Ba0  1  0.25000000  0.25000000  0.25000000  1
  Ba  Ba1  1  0.75000000  0.75000000  0.75000000  1
  Eu  Eu2  1  0.50000000  0.50000000  0.50000000  1
  Mo  Mo3  1  0.00000000  0.00000000  0.00000000  1
  O  O4  1  0.77167800  0.22832200  0.22832200  1
  O  O5  1  0.22832200  0.77167800  0.77167800  1
  O  O6  1  0.22832200  0.77167800  0.22832200  1
  O  O7  1  0.77167800  0.22832200  0.77167800  1
  O  O8  1  0.22832200  0.22832200  0.77167800  1
  O  O9  1  0.77167800  0.77167800  0.22832200  1
