# generated using pymatgen
data_SmSbIr
_symmetry_space_group_name_H-M   'P 1'
_cell_length_a   4.57203300
_cell_length_b   7.32776100
_cell_length_c   7.98952900
_cell_angle_alpha   90.00000000
_cell_angle_beta   90.00000000
_cell_angle_gamma   90.00000000
_symmetry_Int_Tables_number   1
_chemical_formula_structural   SmSbIr
_chemical_formula_sum   'Sm4 Sb4 Ir4'
_cell_volume   267.67131341
_cell_formula_units_Z   4
loop_
 _symmetry_equiv_pos_site_id
 _symmetry_equiv_pos_as_xyz
  1  'x, y, z'
loop_
 _atom_site_type_symbol
 _atom_site_label
 _atom_site_symmetry_multiplicity
 _atom_site_fract_x
 _atom_site_fract_y
 _atom_site_fract_z
 _atom_site_occupancy
  Sm  Sm0  1  0.75000000  0.48727700  0.80725000  1
  Sm  Sm1  1  0.25000000  0.01272300  0.30725000  1
  Sm  Sm2  1  0.75000000  0.98727700  0.69275000  1
  Sm  Sm3  1  0.25000000  0.51272300  0.19275000  1
  Sb  Sb4  1  0.25000000  0.67738400  0.58751900  1
  Sb  Sb5  1  0.25000000  0.17738400  0.91248100  1
  Sb  Sb6  1  0.75000000  0.32261600  0.41248100  1
  Sb  Sb7  1  0.75000000  0.82261600  0.08751900  1
  Ir  Ir8  1  0.25000000  0.79494500  0.91077100  1
  Ir  Ir9  1  0.25000000  0.29494500  0.58922900  1
  Ir  Ir10  1  0.75000000  0.70505500  0.41077100  1
  Ir  Ir11  1  0.75000000  0.20505500  0.08922900  1
