# generated using pymatgen
data_EuAlGe
_symmetry_space_group_name_H-M   'P 1'
_cell_length_a   8.06537341
_cell_length_b   8.06537341
_cell_length_c   8.06537341
_cell_angle_alpha   148.64742563
_cell_angle_beta   148.64742563
_cell_angle_gamma   44.93053733
_symmetry_Int_Tables_number   1
_chemical_formula_structural   EuAlGe
_chemical_formula_sum   'Eu2 Al2 Ge2'
_cell_volume   141.59073453
_cell_formula_units_Z   2
loop_
 _symmetry_equiv_pos_site_id
 _symmetry_equiv_pos_as_xyz
  1  'x, y, z'
loop_
 _atom_site_type_symbol
 _atom_site_label
 _atom_site_symmetry_multiplicity
 _atom_site_fract_x
 _atom_site_fract_y
 _atom_site_fract_z
 _atom_site_occupancy
  Eu  Eu0  1  0.58229600  0.58229600  0.00000000  1
  Eu  Eu1  1  0.33229600  0.83229600  0.50000000  1
  Al  Al2  1  0.16558500  0.16558500  0.00000000  1
  Al  Al3  1  0.91558500  0.41558500  0.50000000  1
  Ge  Ge4  1  0.99911900  0.99911900  0.00000000  1
  Ge  Ge5  1  0.74911900  0.24911900  0.50000000  1
