# generated using pymatgen
data_Cs3P6N11
_symmetry_space_group_name_H-M   'P 1'
_cell_length_a   10.76828200
_cell_length_b   10.76828200
_cell_length_c   10.76828200
_cell_angle_alpha   90.00000000
_cell_angle_beta   90.00000000
_cell_angle_gamma   90.00000000
_symmetry_Int_Tables_number   1
_chemical_formula_structural   Cs3P6N11
_chemical_formula_sum   'Cs12 P24 N44'
_cell_volume   1248.64580095
_cell_formula_units_Z   4
loop_
 _symmetry_equiv_pos_site_id
 _symmetry_equiv_pos_as_xyz
  1  'x, y, z'
loop_
 _atom_site_type_symbol
 _atom_site_label
 _atom_site_symmetry_multiplicity
 _atom_site_fract_x
 _atom_site_fract_y
 _atom_site_fract_z
 _atom_site_occupancy
  Cs  Cs0  1  0.98021300  0.98021300  0.98021300  1
  Cs  Cs1  1  0.23021300  0.26978700  0.73021300  1
  Cs  Cs2  1  0.26978700  0.73021300  0.23021300  1
  Cs  Cs3  1  0.73021300  0.23021300  0.26978700  1
  Cs  Cs4  1  0.48021300  0.51978700  0.01978700  1
  Cs  Cs5  1  0.51978700  0.01978700  0.48021300  1
  Cs  Cs6  1  0.01978700  0.48021300  0.51978700  1
  Cs  Cs7  1  0.76978700  0.76978700  0.76978700  1
  Cs  Cs8  1  0.87500000  0.12500000  0.62500000  1
  Cs  Cs9  1  0.12500000  0.62500000  0.87500000  1
  Cs  Cs10  1  0.62500000  0.87500000  0.12500000  1
  Cs  Cs11  1  0.37500000  0.37500000  0.37500000  1
  P  P12  1  0.68161600  0.45796700  0.55086100  1
  P  P13  1  0.18161600  0.04203300  0.44913900  1
  P  P14  1  0.45796700  0.55086100  0.68161600  1
  P  P15  1  0.54203300  0.05086100  0.81838400  1
  P  P16  1  0.55086100  0.68161600  0.45796700  1
  P  P17  1  0.94913900  0.31838400  0.95796700  1
  P  P18  1  0.43161600  0.80086100  0.79203300  1
  P  P19  1  0.93161600  0.69913900  0.20796700  1
  P  P20  1  0.56838400  0.30086100  0.70796700  1
  P  P21  1  0.69913900  0.20796700  0.93161600  1
  P  P22  1  0.70796700  0.56838400  0.30086100  1
  P  P23  1  0.20796700  0.93161600  0.69913900  1
  P  P24  1  0.80086100  0.79203300  0.43161600  1
  P  P25  1  0.79203300  0.43161600  0.80086100  1
  P  P26  1  0.30086100  0.70796700  0.56838400  1
  P  P27  1  0.19913900  0.29203300  0.06838400  1
  P  P28  1  0.29203300  0.06838400  0.19913900  1
  P  P29  1  0.44913900  0.18161600  0.04203300  1
  P  P30  1  0.05086100  0.81838400  0.54203300  1
  P  P31  1  0.95796700  0.94913900  0.31838400  1
  P  P32  1  0.04203300  0.44913900  0.18161600  1
  P  P33  1  0.81838400  0.54203300  0.05086100  1
  P  P34  1  0.31838400  0.95796700  0.94913900  1
  P  P35  1  0.06838400  0.19913900  0.29203300  1
  N  N36  1  0.55781400  0.55781400  0.55781400  1
  N  N37  1  0.80781400  0.69218600  0.30781400  1
  N  N38  1  0.69218600  0.30781400  0.80781400  1
  N  N39  1  0.30781400  0.80781400  0.69218600  1
  N  N40  1  0.05781400  0.94218600  0.44218600  1
  N  N41  1  0.94218600  0.44218600  0.05781400  1
  N  N42  1  0.44218600  0.05781400  0.94218600  1
  N  N43  1  0.19218600  0.19218600  0.19218600  1
  N  N44  1  0.62500000  0.31769400  0.56769400  1
  N  N45  1  0.68230600  0.06769400  0.87500000  1
  N  N46  1  0.56769400  0.62500000  0.31769400  1
  N  N47  1  0.93230600  0.37500000  0.81769400  1
  N  N48  1  0.31769400  0.56769400  0.62500000  1
  N  N49  1  0.43230600  0.12500000  0.18230600  1
  N  N50  1  0.06769400  0.87500000  0.68230600  1
  N  N51  1  0.81769400  0.93230600  0.37500000  1
  N  N52  1  0.18230600  0.43230600  0.12500000  1
  N  N53  1  0.87500000  0.68230600  0.06769400  1
  N  N54  1  0.37500000  0.81769400  0.93230600  1
  N  N55  1  0.27468900  0.00762700  0.33429500  1
  N  N56  1  0.12500000  0.18230600  0.43230600  1
  N  N57  1  0.24237300  0.02468900  0.58429500  1
  N  N58  1  0.47531100  0.41570500  0.74237300  1
  N  N59  1  0.52468900  0.91570500  0.75762700  1
  N  N60  1  0.41570500  0.74237300  0.47531100  1
  N  N61  1  0.08429500  0.25762700  0.97531100  1
  N  N62  1  0.49237300  0.66570500  0.77468900  1
  N  N63  1  0.99237300  0.83429500  0.22531100  1
  N  N64  1  0.50762700  0.16570500  0.72531100  1
  N  N65  1  0.83429500  0.22531100  0.99237300  1
  N  N66  1  0.72531100  0.50762700  0.16570500  1
  N  N67  1  0.22531100  0.99237300  0.83429500  1
  N  N68  1  0.66570500  0.77468900  0.49237300  1
  N  N69  1  0.77468900  0.49237300  0.66570500  1
  N  N70  1  0.16570500  0.72531100  0.50762700  1
  N  N71  1  0.33429500  0.27468900  0.00762700  1
  N  N72  1  0.00762700  0.33429500  0.27468900  1
  N  N73  1  0.25762700  0.97531100  0.08429500  1
  N  N74  1  0.75762700  0.52468900  0.91570500  1
  N  N75  1  0.02468900  0.58429500  0.24237300  1
  N  N76  1  0.97531100  0.08429500  0.25762700  1
  N  N77  1  0.91570500  0.75762700  0.52468900  1
  N  N78  1  0.58429500  0.24237300  0.02468900  1
  N  N79  1  0.74237300  0.47531100  0.41570500  1
