# generated using pymatgen
data_Eu2Cu(GeO4)2
_symmetry_space_group_name_H-M   'P 1'
_cell_length_a   9.15850281
_cell_length_b   9.15850281
_cell_length_c   5.22457808
_cell_angle_alpha   74.42005791
_cell_angle_beta   74.42005791
_cell_angle_gamma   112.86653501
_symmetry_Int_Tables_number   1
_chemical_formula_structural   Eu2Cu(GeO4)2
_chemical_formula_sum   'Eu4 Cu2 Ge4 O16'
_cell_volume   352.94782169
_cell_formula_units_Z   2
loop_
 _symmetry_equiv_pos_site_id
 _symmetry_equiv_pos_as_xyz
  1  'x, y, z'
loop_
 _atom_site_type_symbol
 _atom_site_label
 _atom_site_symmetry_multiplicity
 _atom_site_fract_x
 _atom_site_fract_y
 _atom_site_fract_z
 _atom_site_occupancy
  Eu  Eu0  1  0.45820800  0.69863700  0.19291000  1
  Eu  Eu1  1  0.69863700  0.45820800  0.19291000  1
  Eu  Eu2  1  0.20039600  0.95891400  0.67582200  1
  Eu  Eu3  1  0.95891400  0.20039600  0.67582200  1
  Cu  Cu4  1  0.66446500  0.07759900  0.36204900  1
  Cu  Cu5  1  0.07759900  0.66446500  0.36204900  1
  Ge  Ge6  1  0.84254500  0.84254500  0.35250900  1
  Ge  Ge7  1  0.52779200  0.10559700  0.91854400  1
  Ge  Ge8  1  0.10559700  0.52779200  0.91854400  1
  Ge  Ge9  1  0.33349800  0.33349800  0.98848300  1
  O  O10  1  0.37554000  0.90707500  0.93465200  1
  O  O11  1  0.90707500  0.37554000  0.93465200  1
  O  O12  1  0.75615300  0.94785100  0.55028800  1
  O  O13  1  0.94785100  0.75615300  0.55028800  1
  O  O14  1  0.49969400  0.49969400  0.01929400  1
  O  O15  1  0.71684000  0.22606300  0.56424400  1
  O  O16  1  0.22606300  0.71684000  0.56424400  1
  O  O17  1  0.42766600  0.24124200  0.77282300  1
  O  O18  1  0.24124200  0.42766600  0.77282300  1
  O  O19  1  0.67234000  0.67234000  0.33560700  1
  O  O20  1  0.17563400  0.17563400  0.34373700  1
  O  O21  1  0.51572900  0.15662100  0.24174300  1
  O  O22  1  0.15662100  0.51572900  0.24174300  1
  O  O23  1  0.99831000  0.99831000  0.99233900  1
  O  O24  1  0.65518700  0.99600300  0.07854000  1
  O  O25  1  0.99600300  0.65518700  0.07854000  1
