# generated using pymatgen
data_Rb2Mg2(SO4)3
_symmetry_space_group_name_H-M   'P 1'
_cell_length_a   10.14991800
_cell_length_b   10.14991800
_cell_length_c   10.14991800
_cell_angle_alpha   90.00000000
_cell_angle_beta   90.00000000
_cell_angle_gamma   90.00000000
_symmetry_Int_Tables_number   1
_chemical_formula_structural   Rb2Mg2(SO4)3
_chemical_formula_sum   'Rb8 Mg8 S12 O48'
_cell_volume   1045.65303167
_cell_formula_units_Z   4
loop_
 _symmetry_equiv_pos_site_id
 _symmetry_equiv_pos_as_xyz
  1  'x, y, z'
loop_
 _atom_site_type_symbol
 _atom_site_label
 _atom_site_symmetry_multiplicity
 _atom_site_fract_x
 _atom_site_fract_y
 _atom_site_fract_z
 _atom_site_occupancy
  Rb  Rb0  1  0.04787100  0.04787100  0.04787100  1
  Rb  Rb1  1  0.45212900  0.95212900  0.54787100  1
  Rb  Rb2  1  0.95212900  0.54787100  0.45212900  1
  Rb  Rb3  1  0.54787100  0.45212900  0.95212900  1
  Rb  Rb4  1  0.81670000  0.81670000  0.81670000  1
  Rb  Rb5  1  0.68330000  0.18330000  0.31670000  1
  Rb  Rb6  1  0.18330000  0.31670000  0.68330000  1
  Rb  Rb7  1  0.31670000  0.68330000  0.18330000  1
  Mg  Mg8  1  0.33504300  0.33504300  0.33504300  1
  Mg  Mg9  1  0.16495700  0.66495700  0.83504300  1
  Mg  Mg10  1  0.66495700  0.83504300  0.16495700  1
  Mg  Mg11  1  0.83504300  0.16495700  0.66495700  1
  Mg  Mg12  1  0.59865700  0.59865700  0.59865700  1
  Mg  Mg13  1  0.90134300  0.40134300  0.09865700  1
  Mg  Mg14  1  0.40134300  0.09865700  0.90134300  1
  Mg  Mg15  1  0.09865700  0.90134300  0.40134300  1
  S  S16  1  0.01845100  0.21590300  0.37581900  1
  S  S17  1  0.48154900  0.78409700  0.87581900  1
  S  S18  1  0.98154900  0.71590300  0.12418100  1
  S  S19  1  0.37581900  0.01845100  0.21590300  1
  S  S20  1  0.51845100  0.28409700  0.62418100  1
  S  S21  1  0.87581900  0.48154900  0.78409700  1
  S  S22  1  0.12418100  0.98154900  0.71590300  1
  S  S23  1  0.62418100  0.51845100  0.28409700  1
  S  S24  1  0.21590300  0.37581900  0.01845100  1
  S  S25  1  0.71590300  0.12418100  0.98154900  1
  S  S26  1  0.28409700  0.62418100  0.51845100  1
  S  S27  1  0.78409700  0.87581900  0.48154900  1
  O  O28  1  0.01040000  0.07634200  0.33133800  1
  O  O29  1  0.48960000  0.92365800  0.83133800  1
  O  O30  1  0.98960000  0.57634200  0.16866200  1
  O  O31  1  0.33133800  0.01040000  0.07634200  1
  O  O32  1  0.51040000  0.42365800  0.66866200  1
  O  O33  1  0.83133800  0.48960000  0.92365800  1
  O  O34  1  0.16866200  0.98960000  0.57634200  1
  O  O35  1  0.66866200  0.51040000  0.42365800  1
  O  O36  1  0.07634200  0.33133800  0.01040000  1
  O  O37  1  0.57634200  0.16866200  0.98960000  1
  O  O38  1  0.42365800  0.66866200  0.51040000  1
  O  O39  1  0.92365800  0.83133800  0.48960000  1
  O  O40  1  0.26623600  0.50040800  0.44146300  1
  O  O41  1  0.23376400  0.49959200  0.94146300  1
  O  O42  1  0.73376400  0.00040800  0.05853700  1
  O  O43  1  0.44146300  0.26623600  0.50040800  1
  O  O44  1  0.76623600  0.99959200  0.55853700  1
  O  O45  1  0.94146300  0.23376400  0.49959200  1
  O  O46  1  0.05853700  0.73376400  0.00040800  1
  O  O47  1  0.55853700  0.76623600  0.99959200  1
  O  O48  1  0.50040800  0.44146300  0.26623600  1
  O  O49  1  0.00040800  0.05853700  0.73376400  1
  O  O50  1  0.99959200  0.55853700  0.76623600  1
  O  O51  1  0.49959200  0.94146300  0.23376400  1
  O  O52  1  0.04124200  0.80258500  0.22602000  1
  O  O53  1  0.45875800  0.19741500  0.72602000  1
  O  O54  1  0.95875800  0.30258500  0.27398000  1
  O  O55  1  0.22602000  0.04124200  0.80258500  1
  O  O56  1  0.54124200  0.69741500  0.77398000  1
  O  O57  1  0.72602000  0.45875800  0.19741500  1
  O  O58  1  0.27398000  0.95875800  0.30258500  1
  O  O59  1  0.77398000  0.54124200  0.69741500  1
  O  O60  1  0.80258500  0.22602000  0.04124200  1
  O  O61  1  0.30258500  0.27398000  0.95875800  1
  O  O62  1  0.69741500  0.77398000  0.54124200  1
  O  O63  1  0.19741500  0.72602000  0.45875800  1
  O  O64  1  0.15722900  0.25384700  0.40056000  1
  O  O65  1  0.34277100  0.74615300  0.90056000  1
  O  O66  1  0.84277100  0.75384700  0.09944000  1
  O  O67  1  0.40056000  0.15722900  0.25384700  1
  O  O68  1  0.65722900  0.24615300  0.59944000  1
  O  O69  1  0.90056000  0.34277100  0.74615300  1
  O  O70  1  0.09944000  0.84277100  0.75384700  1
  O  O71  1  0.59944000  0.65722900  0.24615300  1
  O  O72  1  0.25384700  0.40056000  0.15722900  1
  O  O73  1  0.75384700  0.09944000  0.84277100  1
  O  O74  1  0.24615300  0.59944000  0.65722900  1
  O  O75  1  0.74615300  0.90056000  0.34277100  1
