# generated using pymatgen
data_S7N
_symmetry_space_group_name_H-M   'P 1'
_cell_length_a   8.13411600
_cell_length_b   8.65530800
_cell_length_c   13.83084100
_cell_angle_alpha   90.00000000
_cell_angle_beta   90.00000000
_cell_angle_gamma   90.00000000
_symmetry_Int_Tables_number   1
_chemical_formula_structural   S7N
_chemical_formula_sum   'S28 N4'
_cell_volume   973.73656171
_cell_formula_units_Z   4
loop_
 _symmetry_equiv_pos_site_id
 _symmetry_equiv_pos_as_xyz
  1  'x, y, z'
loop_
 _atom_site_type_symbol
 _atom_site_label
 _atom_site_symmetry_multiplicity
 _atom_site_fract_x
 _atom_site_fract_y
 _atom_site_fract_z
 _atom_site_occupancy
  S  S0  1  0.24531500  0.68015600  0.14076800  1
  S  S1  1  0.25468500  0.18015600  0.35923200  1
  S  S2  1  0.75468500  0.31984400  0.64076800  1
  S  S3  1  0.74531500  0.81984400  0.85923200  1
  S  S4  1  0.75468500  0.31984400  0.85923200  1
  S  S5  1  0.74531500  0.81984400  0.64076800  1
  S  S6  1  0.24531500  0.68015600  0.35923200  1
  S  S7  1  0.25468500  0.18015600  0.14076800  1
  S  S8  1  0.00698800  0.72441500  0.09045100  1
  S  S9  1  0.49301200  0.22441500  0.40954900  1
  S  S10  1  0.99301200  0.27558500  0.59045100  1
  S  S11  1  0.50698800  0.77558500  0.90954900  1
  S  S12  1  0.99301200  0.27558500  0.90954900  1
  S  S13  1  0.50698800  0.77558500  0.59045100  1
  S  S14  1  0.00698800  0.72441500  0.40954900  1
  S  S15  1  0.49301200  0.22441500  0.09045100  1
  S  S16  1  0.84765000  0.54939000  0.13031300  1
  S  S17  1  0.65235000  0.04939000  0.36968700  1
  S  S18  1  0.15235000  0.45061000  0.63031300  1
  S  S19  1  0.34765000  0.95061000  0.86968700  1
  S  S20  1  0.15235000  0.45061000  0.86968700  1
  S  S21  1  0.34765000  0.95061000  0.63031300  1
  S  S22  1  0.84765000  0.54939000  0.36968700  1
  S  S23  1  0.65235000  0.04939000  0.13031300  1
  S  S24  1  0.72264400  0.62581200  0.25000000  1
  S  S25  1  0.77735600  0.12581200  0.25000000  1
  S  S26  1  0.27735600  0.37418800  0.75000000  1
  S  S27  1  0.22264400  0.87418800  0.75000000  1
  N  N28  1  0.28885200  0.72963000  0.25000000  1
  N  N29  1  0.21114800  0.22963000  0.25000000  1
  N  N30  1  0.71114800  0.27037000  0.75000000  1
  N  N31  1  0.78885200  0.77037000  0.75000000  1
