# generated using pymatgen
data_TbGePd2
_symmetry_space_group_name_H-M   'P 1'
_cell_length_a   5.63518500
_cell_length_b   7.11984200
_cell_length_c   7.46478200
_cell_angle_alpha   90.00000000
_cell_angle_beta   90.00000000
_cell_angle_gamma   90.00000000
_symmetry_Int_Tables_number   1
_chemical_formula_structural   TbGePd2
_chemical_formula_sum   'Tb4 Ge4 Pd8'
_cell_volume   299.49919785
_cell_formula_units_Z   4
loop_
 _symmetry_equiv_pos_site_id
 _symmetry_equiv_pos_as_xyz
  1  'x, y, z'
loop_
 _atom_site_type_symbol
 _atom_site_label
 _atom_site_symmetry_multiplicity
 _atom_site_fract_x
 _atom_site_fract_y
 _atom_site_fract_z
 _atom_site_occupancy
  Tb  Tb0  1  0.14642300  0.75000000  0.52838500  1
  Tb  Tb1  1  0.85357700  0.25000000  0.47161500  1
  Tb  Tb2  1  0.64642300  0.25000000  0.97161500  1
  Tb  Tb3  1  0.35357700  0.75000000  0.02838500  1
  Ge  Ge4  1  0.85475000  0.75000000  0.87916200  1
  Ge  Ge5  1  0.14525000  0.25000000  0.12083800  1
  Ge  Ge6  1  0.35475000  0.25000000  0.62083800  1
  Ge  Ge7  1  0.64525000  0.75000000  0.37916200  1
  Pd  Pd8  1  0.59021000  0.55152600  0.68034900  1
  Pd  Pd9  1  0.40979000  0.44847400  0.31965100  1
  Pd  Pd10  1  0.09021000  0.44847400  0.81965100  1
  Pd  Pd11  1  0.40979000  0.05152600  0.31965100  1
  Pd  Pd12  1  0.90979000  0.55152600  0.18034900  1
  Pd  Pd13  1  0.59021000  0.94847400  0.68034900  1
  Pd  Pd14  1  0.90979000  0.94847400  0.18034900  1
  Pd  Pd15  1  0.09021000  0.05152600  0.81965100  1
