# generated using pymatgen
data_ZnH2N2O7
_symmetry_space_group_name_H-M   'P 1'
_cell_length_a   6.23678000
_cell_length_b   18.15295200
_cell_length_c   10.04087600
_cell_angle_alpha   90.00000000
_cell_angle_beta   90.00000000
_cell_angle_gamma   90.00000000
_symmetry_Int_Tables_number   1
_chemical_formula_structural   ZnH2N2O7
_chemical_formula_sum   'Zn8 H16 N16 O56'
_cell_volume   1136.78749565
_cell_formula_units_Z   8
loop_
 _symmetry_equiv_pos_site_id
 _symmetry_equiv_pos_as_xyz
  1  'x, y, z'
loop_
 _atom_site_type_symbol
 _atom_site_label
 _atom_site_symmetry_multiplicity
 _atom_site_fract_x
 _atom_site_fract_y
 _atom_site_fract_z
 _atom_site_occupancy
  Zn  Zn0  1  0.53903600  0.34915800  0.09547200  1
  Zn  Zn1  1  0.96096400  0.65084200  0.59547200  1
  Zn  Zn2  1  0.03903600  0.15084200  0.90452800  1
  Zn  Zn3  1  0.46096400  0.84915800  0.40452800  1
  Zn  Zn4  1  0.46096400  0.65084200  0.90452800  1
  Zn  Zn5  1  0.03903600  0.34915800  0.40452800  1
  Zn  Zn6  1  0.96096400  0.84915800  0.09547200  1
  Zn  Zn7  1  0.53903600  0.15084200  0.59547200  1
  H  H8  1  0.28556900  0.43667100  0.96924400  1
  H  H9  1  0.21443100  0.56332900  0.46924400  1
  H  H10  1  0.78556900  0.06332900  0.03075600  1
  H  H11  1  0.71443100  0.93667100  0.53075600  1
  H  H12  1  0.71443100  0.56332900  0.03075600  1
  H  H13  1  0.78556900  0.43667100  0.53075600  1
  H  H14  1  0.21443100  0.93667100  0.96924400  1
  H  H15  1  0.28556900  0.06332900  0.46924400  1
  H  H16  1  0.30116900  0.36432400  0.88244300  1
  H  H17  1  0.19883100  0.63567600  0.38244300  1
  H  H18  1  0.80116900  0.13567600  0.11755700  1
  H  H19  1  0.69883100  0.86432400  0.61755700  1
  H  H20  1  0.69883100  0.63567600  0.11755700  1
  H  H21  1  0.80116900  0.36432400  0.61755700  1
  H  H22  1  0.19883100  0.86432400  0.88244300  1
  H  H23  1  0.30116900  0.13567600  0.38244300  1
  N  N24  1  0.81981800  0.20472400  0.37078800  1
  N  N25  1  0.68018200  0.79527600  0.87078800  1
  N  N26  1  0.31981800  0.29527600  0.62921200  1
  N  N27  1  0.18018200  0.70472400  0.12921200  1
  N  N28  1  0.18018200  0.79527600  0.62921200  1
  N  N29  1  0.31981800  0.20472400  0.12921200  1
  N  N30  1  0.68018200  0.70472400  0.37078800  1
  N  N31  1  0.81981800  0.29527600  0.87078800  1
  N  N32  1  0.84222900  0.44547000  0.16173400  1
  N  N33  1  0.65777100  0.55453000  0.66173400  1
  N  N34  1  0.34222900  0.05453000  0.83826600  1
  N  N35  1  0.15777100  0.94547000  0.33826600  1
  N  N36  1  0.15777100  0.55453000  0.83826600  1
  N  N37  1  0.34222900  0.44547000  0.33826600  1
  N  N38  1  0.65777100  0.94547000  0.16173400  1
  N  N39  1  0.84222900  0.05453000  0.66173400  1
  O  O40  1  0.76383400  0.14853800  0.31017000  1
  O  O41  1  0.73616600  0.85146200  0.81017000  1
  O  O42  1  0.26383400  0.35146200  0.68983000  1
  O  O43  1  0.23616600  0.64853800  0.18983000  1
  O  O44  1  0.23616600  0.85146200  0.68983000  1
  O  O45  1  0.26383400  0.14853800  0.18983000  1
  O  O46  1  0.73616600  0.64853800  0.31017000  1
  O  O47  1  0.76383400  0.35146200  0.81017000  1
  O  O48  1  0.75822700  0.21809100  0.49023400  1
  O  O49  1  0.74177300  0.78190900  0.99023400  1
  O  O50  1  0.25822700  0.28190900  0.50976600  1
  O  O51  1  0.24177300  0.71809100  0.00976600  1
  O  O52  1  0.24177300  0.78190900  0.50976600  1
  O  O53  1  0.25822700  0.21809100  0.00976600  1
  O  O54  1  0.74177300  0.71809100  0.49023400  1
  O  O55  1  0.75822700  0.28190900  0.99023400  1
  O  O56  1  0.94265100  0.25200200  0.31418600  1
  O  O57  1  0.55734900  0.74799800  0.81418600  1
  O  O58  1  0.44265100  0.24799800  0.68581400  1
  O  O59  1  0.05734900  0.75200200  0.18581400  1
  O  O60  1  0.05734900  0.74799800  0.68581400  1
  O  O61  1  0.44265100  0.25200200  0.18581400  1
  O  O62  1  0.55734900  0.75200200  0.31418600  1
  O  O63  1  0.94265100  0.24799800  0.81418600  1
  O  O64  1  0.97582900  0.49296700  0.18523300  1
  O  O65  1  0.52417100  0.50703300  0.68523300  1
  O  O66  1  0.47582900  0.00703300  0.81476700  1
  O  O67  1  0.02417100  0.99296700  0.31476700  1
  O  O68  1  0.02417100  0.50703300  0.81476700  1
  O  O69  1  0.47582900  0.49296700  0.31476700  1
  O  O70  1  0.52417100  0.99296700  0.18523300  1
  O  O71  1  0.97582900  0.00703300  0.68523300  1
  O  O72  1  0.70204200  0.45262500  0.06822700  1
  O  O73  1  0.79795800  0.54737500  0.56822700  1
  O  O74  1  0.20204200  0.04737500  0.93177300  1
  O  O75  1  0.29795800  0.95262500  0.43177300  1
  O  O76  1  0.29795800  0.54737500  0.93177300  1
  O  O77  1  0.20204200  0.45262500  0.43177300  1
  O  O78  1  0.79795800  0.95262500  0.06822700  1
  O  O79  1  0.70204200  0.04737500  0.56822700  1
  O  O80  1  0.82889400  0.38416300  0.22788700  1
  O  O81  1  0.67110600  0.61583700  0.72788700  1
  O  O82  1  0.32889400  0.11583700  0.77211300  1
  O  O83  1  0.17110600  0.88416300  0.27211300  1
  O  O84  1  0.17110600  0.61583700  0.77211300  1
  O  O85  1  0.32889400  0.38416300  0.27211300  1
  O  O86  1  0.67110600  0.88416300  0.22788700  1
  O  O87  1  0.82889400  0.11583700  0.72788700  1
  O  O88  1  0.29694600  0.38265800  0.97505400  1
  O  O89  1  0.20305400  0.61734200  0.47505400  1
  O  O90  1  0.79694600  0.11734200  0.02494600  1
  O  O91  1  0.70305400  0.88265800  0.52494600  1
  O  O92  1  0.70305400  0.61734200  0.02494600  1
  O  O93  1  0.79694600  0.38265800  0.52494600  1
  O  O94  1  0.20305400  0.88265800  0.97505400  1
  O  O95  1  0.29694600  0.11734200  0.47505400  1
