# generated using pymatgen
data_NaMn8O16
_symmetry_space_group_name_H-M   'P 1'
_cell_length_a   5.89134109
_cell_length_b   9.92409988
_cell_length_c   10.01858877
_cell_angle_alpha   89.33548213
_cell_angle_beta   90.10846843
_cell_angle_gamma   90.10252254
_symmetry_Int_Tables_number   1
_chemical_formula_structural   NaMn8O16
_chemical_formula_sum   'Na2 Mn16 O32'
_cell_volume   585.70803039
_cell_formula_units_Z   2
loop_
 _symmetry_equiv_pos_site_id
 _symmetry_equiv_pos_as_xyz
  1  'x, y, z'
loop_
 _atom_site_type_symbol
 _atom_site_label
 _atom_site_symmetry_multiplicity
 _atom_site_fract_x
 _atom_site_fract_y
 _atom_site_fract_z
 _atom_site_occupancy
  Na  Na0  1  0.25041400  0.49292400  0.50087200  1
  Na  Na1  1  0.50027000  0.99381500  0.00119900  1
  Mn  Mn2  1  0.49937400  0.34137300  0.83550800  1
  Mn  Mn3  1  0.99690700  0.34101500  0.83513800  1
  Mn  Mn4  1  0.50070400  0.82362800  0.64869100  1
  Mn  Mn5  1  0.99944800  0.82385900  0.65103200  1
  Mn  Mn6  1  0.00264400  0.15907100  0.35055700  1
  Mn  Mn7  1  0.50241100  0.15999800  0.35164800  1
  Mn  Mn8  1  0.99872300  0.64538000  0.16500800  1
  Mn  Mn9  1  0.50005800  0.64401400  0.16660800  1
  Mn  Mn10  1  0.75106700  0.84192500  0.33510300  1
  Mn  Mn11  1  0.24870000  0.84257800  0.33492300  1
  Mn  Mn12  1  0.75120100  0.32260800  0.15062300  1
  Mn  Mn13  1  0.24930100  0.32292400  0.14869400  1
  Mn  Mn14  1  0.74948100  0.65946500  0.85079100  1
  Mn  Mn15  1  0.25018200  0.65902100  0.85148400  1
  Mn  Mn16  1  0.75123300  0.14535900  0.66535100  1
  Mn  Mn17  1  0.25012400  0.14444000  0.66682000  1
  O  O18  1  0.74667100  0.66407600  0.04289000  1
  O  O19  1  0.25185200  0.66456500  0.04340000  1
  O  O20  1  0.75035400  0.03625500  0.34494600  1
  O  O21  1  0.25303900  0.03627300  0.34178700  1
  O  O22  1  0.75053800  0.94778200  0.65973400  1
  O  O23  1  0.25045000  0.94952300  0.66213700  1
  O  O24  1  0.74833000  0.31947500  0.95776000  1
  O  O25  1  0.24881800  0.32359100  0.95714600  1
  O  O26  1  0.00567000  0.16474000  0.54201900  1
  O  O27  1  0.49971900  0.16480400  0.54454000  1
  O  O28  1  0.99940600  0.53555800  0.84286400  1
  O  O29  1  0.49961700  0.53569000  0.84154600  1
  O  O30  1  0.50057500  0.44923000  0.16119900  1
  O  O31  1  0.00012800  0.44618900  0.15943400  1
  O  O32  1  0.49937100  0.82191700  0.45719200  1
  O  O33  1  0.00076300  0.82184200  0.45811800  1
  O  O34  1  0.49958100  0.84109100  0.20390900  1
  O  O35  1  0.99949100  0.85017500  0.21071300  1
  O  O36  1  0.99953900  0.19257800  0.15685300  1
  O  O37  1  0.50129500  0.18844100  0.15807200  1
  O  O38  1  0.99900400  0.14803500  0.79444500  1
  O  O39  1  0.49304200  0.14769000  0.80063100  1
  O  O40  1  0.50052800  0.79140300  0.84356000  1
  O  O41  1  0.00058000  0.78864100  0.84375100  1
  O  O42  1  0.74793000  0.34548400  0.70972000  1
  O  O43  1  0.24916200  0.34098100  0.70417900  1
  O  O44  1  0.75045500  0.69357900  0.65812000  1
  O  O45  1  0.24841700  0.68928000  0.65762600  1
  O  O46  1  0.74856100  0.64941600  0.29578300  1
  O  O47  1  0.25090000  0.64811000  0.29792300  1
  O  O48  1  0.75229600  0.28905300  0.34328200  1
  O  O49  1  0.25167300  0.29134400  0.34335100  1
