# generated using pymatgen
data_Tb2(Al3Rh)3
_symmetry_space_group_name_H-M   'P 1'
_cell_length_a   7.56040079
_cell_length_b   7.56040079
_cell_length_c   9.49742500
_cell_angle_alpha   90.00000000
_cell_angle_beta   90.00000000
_cell_angle_gamma   119.37694990
_symmetry_Int_Tables_number   1
_chemical_formula_structural   Tb2(Al3Rh)3
_chemical_formula_sum   'Tb4 Al18 Rh6'
_cell_volume   473.06265366
_cell_formula_units_Z   2
loop_
 _symmetry_equiv_pos_site_id
 _symmetry_equiv_pos_as_xyz
  1  'x, y, z'
loop_
 _atom_site_type_symbol
 _atom_site_label
 _atom_site_symmetry_multiplicity
 _atom_site_fract_x
 _atom_site_fract_y
 _atom_site_fract_z
 _atom_site_occupancy
  Tb  Tb0  1  0.99467200  0.67021200  0.25000000  1
  Tb  Tb1  1  0.00532800  0.32978800  0.75000000  1
  Tb  Tb2  1  0.67021200  0.99467200  0.25000000  1
  Tb  Tb3  1  0.32978800  0.00532800  0.75000000  1
  Al  Al4  1  0.12775500  0.12775500  0.25000000  1
  Al  Al5  1  0.87224500  0.87224500  0.75000000  1
  Al  Al6  1  0.00151100  0.33508500  0.07389200  1
  Al  Al7  1  0.99848900  0.66491500  0.92610800  1
  Al  Al8  1  0.99848900  0.66491500  0.57389200  1
  Al  Al9  1  0.33508500  0.00151100  0.42610800  1
  Al  Al10  1  0.00151100  0.33508500  0.42610800  1
  Al  Al11  1  0.66491500  0.99848900  0.57389200  1
  Al  Al12  1  0.66491500  0.99848900  0.92610800  1
  Al  Al13  1  0.33508500  0.00151100  0.07389200  1
  Al  Al14  1  0.33332100  0.33332100  0.55018800  1
  Al  Al15  1  0.66667900  0.66667900  0.44981200  1
  Al  Al16  1  0.66667900  0.66667900  0.05018800  1
  Al  Al17  1  0.33332100  0.33332100  0.94981200  1
  Al  Al18  1  0.33876800  0.54807400  0.25000000  1
  Al  Al19  1  0.66123200  0.45192600  0.75000000  1
  Al  Al20  1  0.54807400  0.33876800  0.25000000  1
  Al  Al21  1  0.45192600  0.66123200  0.75000000  1
  Rh  Rh22  1  0.67191000  0.32809000  0.00000000  1
  Rh  Rh23  1  0.32809000  0.67191000  0.00000000  1
  Rh  Rh24  1  0.32809000  0.67191000  0.50000000  1
  Rh  Rh25  1  0.67191000  0.32809000  0.50000000  1
  Rh  Rh26  1  0.00000000  0.00000000  0.00000000  1
  Rh  Rh27  1  0.00000000  0.00000000  0.50000000  1
