# generated using pymatgen
data_Nd6Ge3Se14
_symmetry_space_group_name_H-M   'P 1'
_cell_length_a   10.70615594
_cell_length_b   10.70615594
_cell_length_c   6.09826300
_cell_angle_alpha   90.00000000
_cell_angle_beta   90.00000000
_cell_angle_gamma   119.99999961
_symmetry_Int_Tables_number   1
_chemical_formula_structural   Nd6Ge3Se14
_chemical_formula_sum   'Nd6 Ge3 Se14'
_cell_volume   605.34632890
_cell_formula_units_Z   1
loop_
 _symmetry_equiv_pos_site_id
 _symmetry_equiv_pos_as_xyz
  1  'x, y, z'
loop_
 _atom_site_type_symbol
 _atom_site_label
 _atom_site_symmetry_multiplicity
 _atom_site_fract_x
 _atom_site_fract_y
 _atom_site_fract_z
 _atom_site_occupancy
  Nd  Nd0  1  0.89380100  0.69068000  0.24671700  1
  Nd  Nd1  1  0.30932000  0.20312000  0.24671700  1
  Nd  Nd2  1  0.79688000  0.10619900  0.24671700  1
  Nd  Nd3  1  0.43908900  0.97544400  0.74870500  1
  Nd  Nd4  1  0.02455600  0.46364500  0.74870500  1
  Nd  Nd5  1  0.53635500  0.56091100  0.74870500  1
  Ge  Ge6  1  0.00000000  0.00000000  0.82832100  1
  Ge  Ge7  1  0.33333300  0.66666700  0.33078700  1
  Ge  Ge8  1  0.66666700  0.33333300  0.48311500  1
  Se  Se9  1  0.00000000  0.00000000  0.44346200  1
  Se  Se10  1  0.33333300  0.66666700  0.94585200  1
  Se  Se11  1  0.76604800  0.85015200  0.99038900  1
  Se  Se12  1  0.14984800  0.91589600  0.99038900  1
  Se  Se13  1  0.08410400  0.23395200  0.99038900  1
  Se  Se14  1  0.56696800  0.81646300  0.49291500  1
  Se  Se15  1  0.18353700  0.75050600  0.49291500  1
  Se  Se16  1  0.24949400  0.43303200  0.49291500  1
  Se  Se17  1  0.82802600  0.59024200  0.72317300  1
  Se  Se18  1  0.40975800  0.23778400  0.72317300  1
  Se  Se19  1  0.76221600  0.17197400  0.72317300  1
  Se  Se20  1  0.50237500  0.07589100  0.23294000  1
  Se  Se21  1  0.92410900  0.42648300  0.23294000  1
  Se  Se22  1  0.57351700  0.49762500  0.23294000  1
