# generated using pymatgen
data_PmMg149
_symmetry_space_group_name_H-M   'P 1'
_cell_length_a   15.98027172
_cell_length_b   15.98025498
_cell_length_c   15.61536987
_cell_angle_alpha   90.00000000
_cell_angle_beta   90.00000000
_cell_angle_gamma   120.00006114
_symmetry_Int_Tables_number   1
_chemical_formula_structural   PmMg149
_chemical_formula_sum   'Pm1 Mg149'
_cell_volume   3453.42877787
_cell_formula_units_Z   1
loop_
 _symmetry_equiv_pos_site_id
 _symmetry_equiv_pos_as_xyz
  1  'x, y, z'
loop_
 _atom_site_type_symbol
 _atom_site_label
 _atom_site_symmetry_multiplicity
 _atom_site_fract_x
 _atom_site_fract_y
 _atom_site_fract_z
 _atom_site_occupancy
  Pm  Pm0  1  0.00000119  0.00000238  -0.00000000  1
  Mg  Mg1  1  0.60006124  0.20012148  -0.00000000  1
  Mg  Mg2  1  0.40137435  0.20068682  -0.00000000  1
  Mg  Mg3  1  0.79931247  0.20068682  -0.00000000  1
  Mg  Mg4  1  0.00332363  0.20594670  -0.00000000  1
  Mg  Mg5  1  0.20262306  0.20594670  -0.00000000  1
  Mg  Mg6  1  0.60006207  0.39993891  -0.00000000  1
  Mg  Mg7  1  0.79987684  0.39993891  -0.00000000  1
  Mg  Mg8  1  0.00017804  0.40034857  -0.00000000  1
  Mg  Mg9  1  0.40017052  0.40034957  -0.00000000  1
  Mg  Mg10  1  0.20175680  0.40351460  -0.00000000  1
  Mg  Mg11  1  0.79931370  0.59862740  -0.00000000  1
  Mg  Mg12  1  0.00017691  0.59982840  -0.00000000  1
  Mg  Mg13  1  0.59965150  0.59982940  -0.00000000  1
  Mg  Mg14  1  0.20060216  0.60030035  -0.00000000  1
  Mg  Mg15  1  0.39969919  0.60030035  -0.00000000  1
  Mg  Mg16  1  0.79405155  0.79737548  -0.00000000  1
  Mg  Mg17  1  0.00332393  0.79737548  -0.00000000  1
  Mg  Mg18  1  0.59648732  0.79824376  -0.00000000  1
  Mg  Mg19  1  0.20175643  0.79824376  -0.00000000  1
  Mg  Mg20  1  0.39969970  0.79939941  -0.00000000  1
  Mg  Mg21  1  0.79405273  0.99667637  -0.00000000  1
  Mg  Mg22  1  0.20262363  0.99667637  -0.00000000  1
  Mg  Mg23  1  0.40017111  0.99982146  -0.00000000  1
  Mg  Mg24  1  0.59965035  0.99982146  -0.00000000  1
  Mg  Mg25  1  0.26324217  0.13162056  0.16441596  1
  Mg  Mg26  1  0.86837939  0.13162156  0.16441596  1
  Mg  Mg27  1  0.86837945  0.73675790  0.16441524  1
  Mg  Mg28  1  0.66666713  0.33333326  0.16615418  1
  Mg  Mg29  1  0.46546305  0.13289463  0.16650368  1
  Mg  Mg30  1  0.66743158  0.13289463  0.16650368  1
  Mg  Mg31  1  0.46546333  0.33256820  0.16650348  1
  Mg  Mg32  1  0.86710486  0.33256820  0.16650348  1
  Mg  Mg33  1  0.86710420  0.53453626  0.16650407  1
  Mg  Mg34  1  0.66743206  0.53453626  0.16650407  1
  Mg  Mg35  1  0.06670032  0.53334972  0.16733708  1
  Mg  Mg36  1  0.46664940  0.53334972  0.16733708  1
  Mg  Mg37  1  0.46664991  0.93330082  0.16733744  1
  Mg  Mg38  1  0.26718961  0.53437923  0.16741222  1
  Mg  Mg39  1  0.46561976  0.73280924  0.16741151  1
  Mg  Mg40  1  0.26718948  0.73280924  0.16741151  1
  Mg  Mg41  1  0.06809424  0.33598118  0.16781480  1
  Mg  Mg42  1  0.26788795  0.33598118  0.16781480  1
  Mg  Mg43  1  0.66401829  0.73211269  0.16781467  1
  Mg  Mg44  1  0.06809440  0.73211269  0.16781467  1
  Mg  Mg45  1  0.26788866  0.93190633  0.16781500  1
  Mg  Mg46  1  0.66401867  0.93190733  0.16781500  1
  Mg  Mg47  1  0.06824057  0.13648215  0.17037663  1
  Mg  Mg48  1  0.06824025  0.93175894  0.17037605  1
  Mg  Mg49  1  0.86351869  0.93175994  0.17037605  1
  Mg  Mg50  1  0.39974118  0.19987124  0.33279002  1
  Mg  Mg51  1  0.80013006  0.19987124  0.33279002  1
  Mg  Mg52  1  0.80013025  0.60025949  0.33278917  1
  Mg  Mg53  1  0.60001793  0.20003587  0.33280716  1
  Mg  Mg54  1  0.79996469  0.39998176  0.33280730  1
  Mg  Mg55  1  0.60001808  0.39998276  0.33280730  1
  Mg  Mg56  1  0.79936602  0.00006589  0.33362675  1
  Mg  Mg57  1  0.20069987  0.00006589  0.33362675  1
  Mg  Mg58  1  0.20069998  0.20063405  0.33362616  1
  Mg  Mg59  1  0.99993507  0.20063405  0.33362616  1
  Mg  Mg60  1  0.79936613  0.79930076  0.33362629  1
  Mg  Mg61  1  0.99993563  0.79930076  0.33362629  1
  Mg  Mg62  1  0.40048800  0.00018740  0.33377252  1
  Mg  Mg63  1  0.59970040  0.00018840  0.33377252  1
  Mg  Mg64  1  0.99981201  0.40029921  0.33377280  1
  Mg  Mg65  1  0.40048820  0.40030021  0.33377280  1
  Mg  Mg66  1  0.59970087  0.59951215  0.33377265  1
  Mg  Mg67  1  0.99981227  0.59951215  0.33377265  1
  Mg  Mg68  1  0.40003011  0.59997052  0.33376528  1
  Mg  Mg69  1  0.19994041  0.59997052  0.33376528  1
  Mg  Mg70  1  0.40003000  0.80006001  0.33376554  1
  Mg  Mg71  1  0.20025144  0.40050387  0.33418220  1
  Mg  Mg72  1  0.59949594  0.79974755  0.33418142  1
  Mg  Mg73  1  0.20025161  0.79974855  0.33418142  1
  Mg  Mg74  1  0.00000015  0.00000029  0.33460533  1
  Mg  Mg75  1  0.26713184  0.13356570  0.50000000  1
  Mg  Mg76  1  0.86643386  0.13356570  0.50000000  1
  Mg  Mg77  1  0.06678955  0.13357811  0.50000000  1
  Mg  Mg78  1  0.46708709  0.13424643  0.50000000  1
  Mg  Mg79  1  0.66716034  0.13424643  0.50000000  1
  Mg  Mg80  1  0.46708738  0.33284041  0.50000000  1
  Mg  Mg81  1  0.86575403  0.33284041  0.50000000  1
  Mg  Mg82  1  0.66666712  0.33333323  0.50000000  1
  Mg  Mg83  1  0.26680629  0.33366048  0.50000000  1
  Mg  Mg84  1  0.06685419  0.33366048  0.50000000  1
  Mg  Mg85  1  0.86575254  0.53291171  0.50000000  1
  Mg  Mg86  1  0.66715917  0.53291171  0.50000000  1
  Mg  Mg87  1  0.06612340  0.53306196  0.50000000  1
  Mg  Mg88  1  0.46693856  0.53306196  0.50000000  1
  Mg  Mg89  1  0.26677468  0.53354936  0.50000000  1
  Mg  Mg90  1  0.86643354  0.73286708  0.50000000  1
  Mg  Mg91  1  0.06685415  0.73319393  0.50000000  1
  Mg  Mg92  1  0.66633978  0.73319393  0.50000000  1
  Mg  Mg93  1  0.46645012  0.73322430  0.50000000  1
  Mg  Mg94  1  0.26677419  0.73322530  0.50000000  1
  Mg  Mg95  1  0.86642266  0.93321090  0.50000000  1
  Mg  Mg96  1  0.06678924  0.93321090  0.50000000  1
  Mg  Mg97  1  0.26680583  0.93314606  0.50000000  1
  Mg  Mg98  1  0.66634023  0.93314606  0.50000000  1
  Mg  Mg99  1  0.46693832  0.93387663  0.50000000  1
  Mg  Mg100  1  0.00000015  0.00000029  0.66539567  1
  Mg  Mg101  1  0.20025144  0.40050387  0.66581780  1
  Mg  Mg102  1  0.59949594  0.79974755  0.66581858  1
  Mg  Mg103  1  0.20025161  0.79974855  0.66581858  1
  Mg  Mg104  1  0.40003011  0.59997052  0.66623472  1
  Mg  Mg105  1  0.19994041  0.59997052  0.66623472  1
  Mg  Mg106  1  0.40003000  0.80006001  0.66623446  1
  Mg  Mg107  1  0.40048800  0.00018740  0.66622748  1
  Mg  Mg108  1  0.59970040  0.00018840  0.66622748  1
  Mg  Mg109  1  0.99981201  0.40029921  0.66622720  1
  Mg  Mg110  1  0.40048820  0.40030021  0.66622720  1
  Mg  Mg111  1  0.59970087  0.59951215  0.66622735  1
  Mg  Mg112  1  0.99981227  0.59951215  0.66622735  1
  Mg  Mg113  1  0.79936602  0.00006589  0.66637325  1
  Mg  Mg114  1  0.20069987  0.00006589  0.66637325  1
  Mg  Mg115  1  0.20069998  0.20063405  0.66637384  1
  Mg  Mg116  1  0.99993507  0.20063405  0.66637384  1
  Mg  Mg117  1  0.79936613  0.79930076  0.66637371  1
  Mg  Mg118  1  0.99993563  0.79930076  0.66637371  1
  Mg  Mg119  1  0.60001793  0.20003587  0.66719284  1
  Mg  Mg120  1  0.79996469  0.39998176  0.66719270  1
  Mg  Mg121  1  0.60001808  0.39998276  0.66719270  1
  Mg  Mg122  1  0.39974118  0.19987124  0.66720998  1
  Mg  Mg123  1  0.80013006  0.19987124  0.66720998  1
  Mg  Mg124  1  0.80013025  0.60025949  0.66721083  1
  Mg  Mg125  1  0.06824057  0.13648215  0.82962237  1
  Mg  Mg126  1  0.06824025  0.93175894  0.82962295  1
  Mg  Mg127  1  0.86351869  0.93175994  0.82962295  1
  Mg  Mg128  1  0.06809424  0.33598118  0.83218620  1
  Mg  Mg129  1  0.26788795  0.33598118  0.83218620  1
  Mg  Mg130  1  0.66401829  0.73211269  0.83218633  1
  Mg  Mg131  1  0.06809440  0.73211269  0.83218633  1
  Mg  Mg132  1  0.26788866  0.93190633  0.83218600  1
  Mg  Mg133  1  0.66401867  0.93190733  0.83218600  1
  Mg  Mg134  1  0.26718961  0.53437923  0.83258878  1
  Mg  Mg135  1  0.46561976  0.73280924  0.83258949  1
  Mg  Mg136  1  0.26718948  0.73280924  0.83258949  1
  Mg  Mg137  1  0.06670032  0.53334972  0.83266292  1
  Mg  Mg138  1  0.46664940  0.53334972  0.83266292  1
  Mg  Mg139  1  0.46664991  0.93330082  0.83266256  1
  Mg  Mg140  1  0.46546305  0.13289463  0.83349632  1
  Mg  Mg141  1  0.66743158  0.13289463  0.83349632  1
  Mg  Mg142  1  0.46546333  0.33256820  0.83349652  1
  Mg  Mg143  1  0.86710486  0.33256820  0.83349652  1
  Mg  Mg144  1  0.86710420  0.53453626  0.83349593  1
  Mg  Mg145  1  0.66743206  0.53453626  0.83349593  1
  Mg  Mg146  1  0.66666713  0.33333326  0.83384582  1
  Mg  Mg147  1  0.26324217  0.13162056  0.83558404  1
  Mg  Mg148  1  0.86837939  0.13162156  0.83558404  1
  Mg  Mg149  1  0.86837945  0.73675790  0.83558476  1
