# generated using pymatgen
data_In2HgTe4
_symmetry_space_group_name_H-M   'P 1'
_cell_length_a   7.81043216
_cell_length_b   7.81043216
_cell_length_c   7.81043216
_cell_angle_alpha   131.51840371
_cell_angle_beta   131.51840371
_cell_angle_gamma   70.99072773
_symmetry_Int_Tables_number   1
_chemical_formula_structural   In2HgTe4
_chemical_formula_sum   'In2 Hg1 Te4'
_cell_volume   261.56270368
_cell_formula_units_Z   1
loop_
 _symmetry_equiv_pos_site_id
 _symmetry_equiv_pos_as_xyz
  1  'x, y, z'
loop_
 _atom_site_type_symbol
 _atom_site_label
 _atom_site_symmetry_multiplicity
 _atom_site_fract_x
 _atom_site_fract_y
 _atom_site_fract_z
 _atom_site_occupancy
  In  In0  1  0.25000000  0.75000000  0.50000000  1
  In  In1  1  0.50000000  0.50000000  0.00000000  1
  Hg  Hg2  1  0.00000000  0.00000000  0.00000000  1
  Te  Te3  1  0.09285400  0.58699100  0.95461100  1
  Te  Te4  1  0.63238000  0.13824300  0.04538900  1
  Te  Te5  1  0.41300900  0.36762000  0.50586300  1
  Te  Te6  1  0.86175700  0.90714600  0.49413700  1
