# generated using pymatgen
data_CeTlF5
_symmetry_space_group_name_H-M   'P 1'
_cell_length_a   8.42093345
_cell_length_b   8.25641122
_cell_length_c   13.93867700
_cell_angle_alpha   90.00000000
_cell_angle_beta   90.00000000
_cell_angle_gamma   102.98871835
_symmetry_Int_Tables_number   1
_chemical_formula_structural   CeTlF5
_chemical_formula_sum   'Ce8 Tl8 F40'
_cell_volume   944.31474469
_cell_formula_units_Z   8
loop_
 _symmetry_equiv_pos_site_id
 _symmetry_equiv_pos_as_xyz
  1  'x, y, z'
loop_
 _atom_site_type_symbol
 _atom_site_label
 _atom_site_symmetry_multiplicity
 _atom_site_fract_x
 _atom_site_fract_y
 _atom_site_fract_z
 _atom_site_occupancy
  Ce  Ce0  1  0.03862300  0.05528000  0.74631900  1
  Ce  Ce1  1  0.96137700  0.94472000  0.25368100  1
  Ce  Ce2  1  0.46137700  0.94472000  0.24631900  1
  Ce  Ce3  1  0.53862300  0.05528000  0.75368100  1
  Ce  Ce4  1  0.09652000  0.51713100  0.25538100  1
  Ce  Ce5  1  0.90348000  0.48286900  0.74461900  1
  Ce  Ce6  1  0.40348000  0.48286900  0.75538100  1
  Ce  Ce7  1  0.59652000  0.51713100  0.24461900  1
  Tl  Tl8  1  0.29745300  0.22413400  0.48269900  1
  Tl  Tl9  1  0.70254700  0.77586600  0.51730100  1
  Tl  Tl10  1  0.20254700  0.77586600  0.98269900  1
  Tl  Tl11  1  0.79745300  0.22413400  0.01730100  1
  Tl  Tl12  1  0.27997900  0.26965200  0.02294600  1
  Tl  Tl13  1  0.72002100  0.73034800  0.97705400  1
  Tl  Tl14  1  0.22002100  0.73034800  0.52294600  1
  Tl  Tl15  1  0.77997900  0.26965200  0.47705400  1
  F  F16  1  0.06534600  0.47908700  0.10114400  1
  F  F17  1  0.93465400  0.52091300  0.89885600  1
  F  F18  1  0.43465400  0.52091300  0.60114400  1
  F  F19  1  0.56534600  0.47908700  0.39885600  1
  F  F20  1  0.01870300  0.72660800  0.34876600  1
  F  F21  1  0.98129700  0.27339200  0.65123400  1
  F  F22  1  0.48129700  0.27339200  0.84876600  1
  F  F23  1  0.51870300  0.72660800  0.15123400  1
  F  F24  1  0.11141200  0.43350400  0.40411000  1
  F  F25  1  0.88858800  0.56649600  0.59589000  1
  F  F26  1  0.38858800  0.56649600  0.90411000  1
  F  F27  1  0.61141200  0.43350400  0.09589000  1
  F  F28  1  0.30913500  0.22035700  0.68649700  1
  F  F29  1  0.69086500  0.77964300  0.31350300  1
  F  F30  1  0.19086500  0.77964300  0.18649700  1
  F  F31  1  0.80913500  0.22035700  0.81350300  1
  F  F32  1  0.02830600  0.23084200  0.23923400  1
  F  F33  1  0.97169400  0.76915800  0.76076600  1
  F  F34  1  0.47169400  0.76915800  0.73923400  1
  F  F35  1  0.52830600  0.23084200  0.26076600  1
  F  F36  1  0.35505600  0.68079600  0.31954500  1
  F  F37  1  0.64494400  0.31920400  0.68045500  1
  F  F38  1  0.14494400  0.31920400  0.81954500  1
  F  F39  1  0.85505600  0.68079600  0.18045500  1
  F  F40  1  0.48577400  0.01329500  0.60281000  1
  F  F41  1  0.51422600  0.98670500  0.39719000  1
  F  F42  1  0.01422600  0.98670500  0.10281000  1
  F  F43  1  0.98577400  0.01329500  0.89719000  1
  F  F44  1  0.42209500  0.02924100  0.10248800  1
  F  F45  1  0.57790500  0.97075900  0.89751200  1
  F  F46  1  0.07790500  0.97075900  0.60248800  1
  F  F47  1  0.92209500  0.02924100  0.39751200  1
  F  F48  1  0.32394300  0.42125800  0.21017600  1
  F  F49  1  0.67605700  0.57874200  0.78982400  1
  F  F50  1  0.17605700  0.57874200  0.71017600  1
  F  F51  1  0.82394300  0.42125800  0.28982400  1
  F  F52  1  0.23102200  0.03056700  0.30170600  1
  F  F53  1  0.76897800  0.96943300  0.69829400  1
  F  F54  1  0.26897800  0.96943300  0.80170600  1
  F  F55  1  0.73102200  0.03056700  0.19829400  1
