# generated using pymatgen
data_TbBiRh
_symmetry_space_group_name_H-M   'P 1'
_cell_length_a   7.70892175
_cell_length_b   7.70892175
_cell_length_c   3.99845800
_cell_angle_alpha   90.00000000
_cell_angle_beta   90.00000000
_cell_angle_gamma   119.99999786
_symmetry_Int_Tables_number   1
_chemical_formula_structural   TbBiRh
_chemical_formula_sum   'Tb3 Bi3 Rh3'
_cell_volume   205.78345493
_cell_formula_units_Z   3
loop_
 _symmetry_equiv_pos_site_id
 _symmetry_equiv_pos_as_xyz
  1  'x, y, z'
loop_
 _atom_site_type_symbol
 _atom_site_label
 _atom_site_symmetry_multiplicity
 _atom_site_fract_x
 _atom_site_fract_y
 _atom_site_fract_z
 _atom_site_occupancy
  Tb  Tb0  1  0.59768800  0.00000000  0.00000000  1
  Tb  Tb1  1  0.00000000  0.59768800  0.00000000  1
  Tb  Tb2  1  0.40231200  0.40231200  0.00000000  1
  Bi  Bi3  1  0.26378500  0.00000000  0.50000000  1
  Bi  Bi4  1  0.00000000  0.26378500  0.50000000  1
  Bi  Bi5  1  0.73621500  0.73621500  0.50000000  1
  Rh  Rh6  1  0.33333300  0.66666700  0.50000000  1
  Rh  Rh7  1  0.66666700  0.33333300  0.50000000  1
  Rh  Rh8  1  0.00000000  0.00000000  0.00000000  1
