# generated using pymatgen
data_Dy3CrS6
_symmetry_space_group_name_H-M   'P 1'
_cell_length_a   3.78190300
_cell_length_b   13.27130100
_cell_length_c   15.97521000
_cell_angle_alpha   90.00000000
_cell_angle_beta   90.00000000
_cell_angle_gamma   90.00000000
_symmetry_Int_Tables_number   1
_chemical_formula_structural   Dy3CrS6
_chemical_formula_sum   'Dy12 Cr4 S24'
_cell_volume   801.80813979
_cell_formula_units_Z   4
loop_
 _symmetry_equiv_pos_site_id
 _symmetry_equiv_pos_as_xyz
  1  'x, y, z'
loop_
 _atom_site_type_symbol
 _atom_site_label
 _atom_site_symmetry_multiplicity
 _atom_site_fract_x
 _atom_site_fract_y
 _atom_site_fract_z
 _atom_site_occupancy
  Dy  Dy0  1  0.00000000  0.55002900  0.28059100  1
  Dy  Dy1  1  0.00000000  0.44997100  0.71940900  1
  Dy  Dy2  1  0.50000000  0.94997100  0.78059100  1
  Dy  Dy3  1  0.50000000  0.05002900  0.21940900  1
  Dy  Dy4  1  0.00000000  0.75443000  0.09745900  1
  Dy  Dy5  1  0.00000000  0.24557000  0.90254100  1
  Dy  Dy6  1  0.50000000  0.74557000  0.59745900  1
  Dy  Dy7  1  0.50000000  0.25443000  0.40254100  1
  Dy  Dy8  1  0.00000000  0.31960700  0.14842200  1
  Dy  Dy9  1  0.00000000  0.68039300  0.85157800  1
  Dy  Dy10  1  0.50000000  0.18039300  0.64842200  1
  Dy  Dy11  1  0.50000000  0.81960700  0.35157800  1
  Cr  Cr12  1  0.00000000  0.00000000  0.50000000  1
  Cr  Cr13  1  0.50000000  0.50000000  0.00000000  1
  Cr  Cr14  1  0.00000000  0.00000000  0.00000000  1
  Cr  Cr15  1  0.50000000  0.50000000  0.50000000  1
  S  S16  1  0.00000000  0.12076500  0.10743600  1
  S  S17  1  0.00000000  0.87923500  0.89256400  1
  S  S18  1  0.50000000  0.37923500  0.60743600  1
  S  S19  1  0.50000000  0.62076500  0.39256400  1
  S  S20  1  0.00000000  0.18748600  0.28943700  1
  S  S21  1  0.00000000  0.81251400  0.71056300  1
  S  S22  1  0.50000000  0.31251400  0.78943700  1
  S  S23  1  0.50000000  0.68748600  0.21056300  1
  S  S24  1  0.00000000  0.17993100  0.52140300  1
  S  S25  1  0.00000000  0.82006900  0.47859700  1
  S  S26  1  0.50000000  0.32006900  0.02140300  1
  S  S27  1  0.50000000  0.67993100  0.97859700  1
  S  S28  1  0.00000000  0.52388900  0.09716900  1
  S  S29  1  0.00000000  0.47611100  0.90283100  1
  S  S30  1  0.50000000  0.97611100  0.59716900  1
  S  S31  1  0.50000000  0.02388900  0.40283100  1
  S  S32  1  0.00000000  0.10361100  0.75453600  1
  S  S33  1  0.00000000  0.89638900  0.24546400  1
  S  S34  1  0.50000000  0.39638900  0.25453600  1
  S  S35  1  0.50000000  0.60361100  0.74546400  1
  S  S36  1  0.00000000  0.41732000  0.42536600  1
  S  S37  1  0.00000000  0.58268000  0.57463400  1
  S  S38  1  0.50000000  0.08268000  0.92536600  1
  S  S39  1  0.50000000  0.91732000  0.07463400  1
