# generated using pymatgen
data_SbTeRh
_symmetry_space_group_name_H-M   'P 1'
_cell_length_a   6.48489200
_cell_length_b   6.48489200
_cell_length_c   6.48489200
_cell_angle_alpha   90.00000000
_cell_angle_beta   90.00000000
_cell_angle_gamma   90.00000000
_symmetry_Int_Tables_number   1
_chemical_formula_structural   SbTeRh
_chemical_formula_sum   'Sb4 Te4 Rh4'
_cell_volume   272.71450846
_cell_formula_units_Z   4
loop_
 _symmetry_equiv_pos_site_id
 _symmetry_equiv_pos_as_xyz
  1  'x, y, z'
loop_
 _atom_site_type_symbol
 _atom_site_label
 _atom_site_symmetry_multiplicity
 _atom_site_fract_x
 _atom_site_fract_y
 _atom_site_fract_z
 _atom_site_occupancy
  Sb  Sb0  1  0.12745300  0.87254700  0.37254700  1
  Sb  Sb1  1  0.87254700  0.37254700  0.12745300  1
  Sb  Sb2  1  0.37254700  0.12745300  0.87254700  1
  Sb  Sb3  1  0.62745300  0.62745300  0.62745300  1
  Te  Te4  1  0.87375000  0.12625000  0.62625000  1
  Te  Te5  1  0.12625000  0.62625000  0.87375000  1
  Te  Te6  1  0.62625000  0.87375000  0.12625000  1
  Te  Te7  1  0.37375000  0.37375000  0.37375000  1
  Rh  Rh8  1  0.50299000  0.49701000  0.99701000  1
  Rh  Rh9  1  0.49701000  0.99701000  0.50299000  1
  Rh  Rh10  1  0.99701000  0.50299000  0.49701000  1
  Rh  Rh11  1  0.00299000  0.00299000  0.00299000  1
