# generated using pymatgen
data_CsMoPO6
_symmetry_space_group_name_H-M   'P 1'
_cell_length_a   8.57345220
_cell_length_b   8.57345281
_cell_length_c   9.91000476
_cell_angle_alpha   111.65296363
_cell_angle_beta   111.65296751
_cell_angle_gamma   98.45237067
_symmetry_Int_Tables_number   1
_chemical_formula_structural   CsMoPO6
_chemical_formula_sum   'Cs4 Mo4 P4 O24'
_cell_volume   594.49197699
_cell_formula_units_Z   4
loop_
 _symmetry_equiv_pos_site_id
 _symmetry_equiv_pos_as_xyz
  1  'x, y, z'
loop_
 _atom_site_type_symbol
 _atom_site_label
 _atom_site_symmetry_multiplicity
 _atom_site_fract_x
 _atom_site_fract_y
 _atom_site_fract_z
 _atom_site_occupancy
  Cs  Cs0  1  0.06778200  0.31778100  0.25000000  1
  Cs  Cs1  1  0.68221900  0.93221800  0.25000000  1
  Cs  Cs2  1  0.93221800  0.68221800  0.74999900  1
  Cs  Cs3  1  0.31778100  0.06778100  0.75000000  1
  Mo  Mo4  1  0.59142600  0.40857400  0.25000000  1
  Mo  Mo5  1  0.15857500  0.84142600  0.25000000  1
  Mo  Mo6  1  0.84142600  0.15857500  0.75000000  1
  Mo  Mo7  1  0.40857400  0.59142500  0.75000000  1
  P  P8  1  0.50518500  0.75518500  0.51036900  1
  P  P9  1  0.24481500  0.49481500  0.98963100  1
  P  P10  1  0.49481600  0.24481600  0.48963100  1
  P  P11  1  0.75518500  0.50518400  0.01036900  1
  O  O12  1  0.59782300  0.67686700  0.40804600  1
  O  O13  1  0.26882100  0.68977800  0.09195500  1
  O  O14  1  0.32313400  0.40217700  0.09195400  1
  O  O15  1  0.31022200  0.73117900  0.40804600  1
  O  O16  1  0.40217600  0.32313400  0.59195400  1
  O  O17  1  0.73117900  0.31022300  0.90804500  1
  O  O18  1  0.67686600  0.59782300  0.90804600  1
  O  O19  1  0.68977800  0.26882100  0.59195500  1
  O  O20  1  0.66672300  0.51955600  0.12590900  1
  O  O21  1  0.39364700  0.04081400  0.37409100  1
  O  O22  1  0.48044400  0.33327700  0.37409100  1
  O  O23  1  0.95918600  0.60635300  0.12590900  1
  O  O24  1  0.92004200  0.06647000  0.61117500  1
  O  O25  1  0.45529500  0.80886800  0.88882600  1
  O  O26  1  0.93353000  0.07995900  0.88882500  1
  O  O27  1  0.19113300  0.54470600  0.61117600  1
  O  O28  1  0.07995900  0.93353000  0.38882600  1
  O  O29  1  0.54470600  0.19113300  0.11117500  1
  O  O30  1  0.33327700  0.48044400  0.87409100  1
  O  O31  1  0.80886700  0.45529500  0.38882500  1
  O  O32  1  0.04081400  0.39364600  0.87409100  1
  O  O33  1  0.51955600  0.66672300  0.62591000  1
  O  O34  1  0.60635300  0.95918500  0.62590900  1
  O  O35  1  0.06646900  0.92004200  0.11117500  1
