# generated using pymatgen
data_YbCdAg
_symmetry_space_group_name_H-M   'P 1'
_cell_length_a   5.90848898
_cell_length_b   5.90848898
_cell_length_c   9.34380600
_cell_angle_alpha   90.00000000
_cell_angle_beta   90.00000000
_cell_angle_gamma   119.59779668
_symmetry_Int_Tables_number   1
_chemical_formula_structural   YbCdAg
_chemical_formula_sum   'Yb4 Cd4 Ag4'
_cell_volume   283.63068510
_cell_formula_units_Z   4
loop_
 _symmetry_equiv_pos_site_id
 _symmetry_equiv_pos_as_xyz
  1  'x, y, z'
loop_
 _atom_site_type_symbol
 _atom_site_label
 _atom_site_symmetry_multiplicity
 _atom_site_fract_x
 _atom_site_fract_y
 _atom_site_fract_z
 _atom_site_occupancy
  Yb  Yb0  1  0.33536000  0.66464000  0.30038100  1
  Yb  Yb1  1  0.66777700  0.33222300  0.18377300  1
  Yb  Yb2  1  0.66777700  0.33222300  0.81622700  1
  Yb  Yb3  1  0.33536000  0.66464000  0.69961900  1
  Cd  Cd4  1  0.83141600  0.16858400  0.50000000  1
  Cd  Cd5  1  0.33678500  0.16842500  0.50000000  1
  Cd  Cd6  1  0.83157500  0.66321500  0.50000000  1
  Cd  Cd7  1  0.16723700  0.83276300  0.00000000  1
  Ag  Ag8  1  0.65781800  0.83046800  0.00000000  1
  Ag  Ag9  1  0.16953200  0.34218200  0.00000000  1
  Ag  Ag10  1  0.99967700  0.00032300  0.24671800  1
  Ag  Ag11  1  0.99967700  0.00032300  0.75328200  1
