# generated using pymatgen
data_Be3Co
_symmetry_space_group_name_H-M   'P 1'
_cell_length_a   4.59451773
_cell_length_b   4.59451773
_cell_length_c   3.63085700
_cell_angle_alpha   90.00000000
_cell_angle_beta   90.00000000
_cell_angle_gamma   119.99999618
_symmetry_Int_Tables_number   1
_chemical_formula_structural   Be3Co
_chemical_formula_sum   'Be6 Co2'
_cell_volume   66.37731143
_cell_formula_units_Z   2
loop_
 _symmetry_equiv_pos_site_id
 _symmetry_equiv_pos_as_xyz
  1  'x, y, z'
loop_
 _atom_site_type_symbol
 _atom_site_label
 _atom_site_symmetry_multiplicity
 _atom_site_fract_x
 _atom_site_fract_y
 _atom_site_fract_z
 _atom_site_occupancy
  Be  Be0  1  0.16598000  0.33196100  0.25000000  1
  Be  Be1  1  0.66803900  0.83402000  0.25000000  1
  Be  Be2  1  0.16598000  0.83402000  0.25000000  1
  Be  Be3  1  0.83402000  0.66803900  0.75000000  1
  Be  Be4  1  0.33196100  0.16598000  0.75000000  1
  Be  Be5  1  0.83402000  0.16598000  0.75000000  1
  Co  Co6  1  0.33333300  0.66666700  0.75000000  1
  Co  Co7  1  0.66666700  0.33333300  0.25000000  1
