# generated using pymatgen
data_NdCd2Pd
_symmetry_space_group_name_H-M   'P 1'
_cell_length_a   5.53433712
_cell_length_b   5.53433712
_cell_length_c   8.46293800
_cell_angle_alpha   90.00000000
_cell_angle_beta   90.00000000
_cell_angle_gamma   134.22173717
_symmetry_Int_Tables_number   1
_chemical_formula_structural   NdCd2Pd
_chemical_formula_sum   'Nd2 Cd4 Pd2'
_cell_volume   185.76209400
_cell_formula_units_Z   2
loop_
 _symmetry_equiv_pos_site_id
 _symmetry_equiv_pos_as_xyz
  1  'x, y, z'
loop_
 _atom_site_type_symbol
 _atom_site_label
 _atom_site_symmetry_multiplicity
 _atom_site_fract_x
 _atom_site_fract_y
 _atom_site_fract_z
 _atom_site_occupancy
  Nd  Nd0  1  0.93484100  0.06515900  0.25000000  1
  Nd  Nd1  1  0.06515900  0.93484100  0.75000000  1
  Cd  Cd2  1  0.64379700  0.35620300  0.45098000  1
  Cd  Cd3  1  0.35620300  0.64379700  0.54902000  1
  Cd  Cd4  1  0.64379700  0.35620300  0.04902000  1
  Cd  Cd5  1  0.35620300  0.64379700  0.95098000  1
  Pd  Pd6  1  0.22355100  0.77644900  0.25000000  1
  Pd  Pd7  1  0.77644900  0.22355100  0.75000000  1
