# generated using pymatgen
data_Nb6Pd2Se15
_symmetry_space_group_name_H-M   'P 1'
_cell_length_a   8.37742300
_cell_length_b   8.37924982
_cell_length_c   15.80149972
_cell_angle_alpha   76.66427085
_cell_angle_beta   84.27459354
_cell_angle_gamma   75.76111778
_symmetry_Int_Tables_number   1
_chemical_formula_structural   Nb6Pd2Se15
_chemical_formula_sum   'Nb12 Pd4 Se30'
_cell_volume   1045.05387855
_cell_formula_units_Z   2
loop_
 _symmetry_equiv_pos_site_id
 _symmetry_equiv_pos_as_xyz
  1  'x, y, z'
loop_
 _atom_site_type_symbol
 _atom_site_label
 _atom_site_symmetry_multiplicity
 _atom_site_fract_x
 _atom_site_fract_y
 _atom_site_fract_z
 _atom_site_occupancy
  Nb  Nb0  1  0.02883000  0.40001200  0.87765300  1
  Nb  Nb1  1  0.35907200  0.06934000  0.87788400  1
  Nb  Nb2  1  0.69380800  0.73424200  0.87957000  1
  Nb  Nb3  1  0.30619200  0.26575800  0.12043000  1
  Nb  Nb4  1  0.64092800  0.93066000  0.12211600  1
  Nb  Nb5  1  0.97117000  0.59998800  0.12234700  1
  Nb  Nb6  1  0.18247200  0.28949000  0.68175100  1
  Nb  Nb7  1  0.51476700  0.95720800  0.68005100  1
  Nb  Nb8  1  0.85077200  0.62152300  0.68034700  1
  Nb  Nb9  1  0.14922800  0.37847700  0.31965300  1
  Nb  Nb10  1  0.48523300  0.04279200  0.31994900  1
  Nb  Nb11  1  0.81752800  0.71051000  0.31824900  1
  Pd  Pd12  1  0.00000000  0.50000000  0.50000000  1
  Pd  Pd13  1  0.33289200  0.16682600  0.50025900  1
  Pd  Pd14  1  0.66710800  0.83317400  0.49974100  1
  Pd  Pd15  1  0.50000000  0.50000000  0.00000000  1
  Se  Se16  1  0.13969400  0.60647900  0.59933800  1
  Se  Se17  1  0.47238600  0.27338900  0.59941400  1
  Se  Se18  1  0.80570900  0.93927300  0.59951000  1
  Se  Se19  1  0.19429100  0.06072700  0.40049000  1
  Se  Se20  1  0.52761400  0.72661100  0.40058600  1
  Se  Se21  1  0.86030600  0.39352100  0.40066200  1
  Se  Se22  1  0.54970800  0.67281200  0.63192600  1
  Se  Se23  1  0.88235200  0.33862000  0.63218600  1
  Se  Se24  1  0.21506000  0.00593900  0.63223000  1
  Se  Se25  1  0.78494000  0.99406100  0.36777000  1
  Se  Se26  1  0.11764800  0.66138000  0.36781400  1
  Se  Se27  1  0.45029200  0.32718800  0.36807400  1
  Se  Se28  1  0.32020300  0.38823000  0.79562800  1
  Se  Se29  1  0.65192500  0.05407800  0.79706500  1
  Se  Se30  1  0.98662100  0.72002700  0.79716000  1
  Se  Se31  1  0.01337900  0.27997300  0.20284000  1
  Se  Se32  1  0.34807500  0.94592200  0.20293500  1
  Se  Se33  1  0.67979700  0.61177000  0.20437200  1
  Se  Se34  1  0.18406200  0.52524700  0.99010600  1
  Se  Se35  1  0.52312700  0.18647100  0.99005100  1
  Se  Se36  1  0.85183500  0.85452100  0.99087800  1
  Se  Se37  1  0.14816500  0.14547900  0.00912200  1
  Se  Se38  1  0.47687300  0.81352900  0.00994900  1
  Se  Se39  1  0.81593800  0.47475300  0.00989400  1
  Se  Se40  1  0.06161100  0.12000200  0.82365800  1
  Se  Se41  1  0.39511800  0.79042700  0.82261800  1
  Se  Se42  1  0.73148600  0.45371900  0.82279500  1
  Se  Se43  1  0.26851400  0.54628100  0.17720500  1
  Se  Se44  1  0.60488200  0.20957300  0.17738200  1
  Se  Se45  1  0.93838900  0.87999800  0.17634200  1
