# generated using pymatgen
data_CeSb2
_symmetry_space_group_name_H-M   'P 1'
_cell_length_a   4.42375360
_cell_length_b   4.42375360
_cell_length_c   17.78795700
_cell_angle_alpha   90.00000000
_cell_angle_beta   90.00000000
_cell_angle_gamma   90.89622585
_symmetry_Int_Tables_number   1
_chemical_formula_structural   CeSb2
_chemical_formula_sum   'Ce4 Sb8'
_cell_volume   348.06054555
_cell_formula_units_Z   4
loop_
 _symmetry_equiv_pos_site_id
 _symmetry_equiv_pos_as_xyz
  1  'x, y, z'
loop_
 _atom_site_type_symbol
 _atom_site_label
 _atom_site_symmetry_multiplicity
 _atom_site_fract_x
 _atom_site_fract_y
 _atom_site_fract_z
 _atom_site_occupancy
  Ce  Ce0  1  0.36289100  0.36289100  0.88863900  1
  Ce  Ce1  1  0.63710900  0.63710900  0.11136100  1
  Ce  Ce2  1  0.13710900  0.13710900  0.38863900  1
  Ce  Ce3  1  0.86289100  0.86289100  0.61136100  1
  Sb  Sb4  1  0.36183600  0.36183600  0.56777500  1
  Sb  Sb5  1  0.63816400  0.63816400  0.43222500  1
  Sb  Sb6  1  0.13816400  0.13816400  0.06777500  1
  Sb  Sb7  1  0.86183600  0.86183600  0.93222500  1
  Sb  Sb8  1  0.37226300  0.87226300  0.75000000  1
  Sb  Sb9  1  0.12773700  0.62773700  0.25000000  1
  Sb  Sb10  1  0.62773700  0.12773700  0.25000000  1
  Sb  Sb11  1  0.87226300  0.37226300  0.75000000  1
