# generated using pymatgen
data_CaMoF6
_symmetry_space_group_name_H-M   'P 1'
_cell_length_a   6.01033465
_cell_length_b   6.01033465
_cell_length_c   6.01033470
_cell_angle_alpha   56.51442414
_cell_angle_beta   56.51442414
_cell_angle_gamma   56.51442395
_symmetry_Int_Tables_number   1
_chemical_formula_structural   CaMoF6
_chemical_formula_sum   'Ca1 Mo1 F6'
_cell_volume   141.15784715
_cell_formula_units_Z   1
loop_
 _symmetry_equiv_pos_site_id
 _symmetry_equiv_pos_as_xyz
  1  'x, y, z'
loop_
 _atom_site_type_symbol
 _atom_site_label
 _atom_site_symmetry_multiplicity
 _atom_site_fract_x
 _atom_site_fract_y
 _atom_site_fract_z
 _atom_site_occupancy
  Ca  Ca0  1  0.50000000  0.50000000  0.50000000  1
  Mo  Mo1  1  0.00000000  0.00000000  0.00000000  1
  F  F2  1  0.86487400  0.22777300  0.66997000  1
  F  F3  1  0.22777300  0.66997000  0.86487400  1
  F  F4  1  0.33003000  0.13512600  0.77222700  1
  F  F5  1  0.77222700  0.33003000  0.13512600  1
  F  F6  1  0.13512600  0.77222700  0.33003000  1
  F  F7  1  0.66997000  0.86487400  0.22777300  1
