# generated using pymatgen
data_CsSi2HO5
_symmetry_space_group_name_H-M   'P 1'
_cell_length_a   5.04642400
_cell_length_b   9.07446200
_cell_length_c   13.20443700
_cell_angle_alpha   90.00000000
_cell_angle_beta   90.00000000
_cell_angle_gamma   90.00000000
_symmetry_Int_Tables_number   1
_chemical_formula_structural   CsSi2HO5
_chemical_formula_sum   'Cs4 Si8 H4 O20'
_cell_volume   604.67847940
_cell_formula_units_Z   4
loop_
 _symmetry_equiv_pos_site_id
 _symmetry_equiv_pos_as_xyz
  1  'x, y, z'
loop_
 _atom_site_type_symbol
 _atom_site_label
 _atom_site_symmetry_multiplicity
 _atom_site_fract_x
 _atom_site_fract_y
 _atom_site_fract_z
 _atom_site_occupancy
  Cs  Cs0  1  0.56659100  0.24608800  0.80980600  1
  Cs  Cs1  1  0.06659100  0.25391200  0.19019400  1
  Cs  Cs2  1  0.43340900  0.74608800  0.69019400  1
  Cs  Cs3  1  0.93340900  0.75391200  0.30980600  1
  Si  Si4  1  0.03003900  0.57618100  0.93481700  1
  Si  Si5  1  0.53003900  0.92381900  0.06518300  1
  Si  Si6  1  0.96996100  0.07618100  0.56518300  1
  Si  Si7  1  0.46996100  0.42381900  0.43481700  1
  Si  Si8  1  0.96873100  0.42882500  0.57104600  1
  Si  Si9  1  0.46873100  0.07117500  0.42895400  1
  Si  Si10  1  0.03126900  0.92882500  0.92895400  1
  Si  Si11  1  0.53126900  0.57117500  0.07104600  1
  H  H12  1  0.01311000  0.49866300  0.76337600  1
  H  H13  1  0.51311000  0.00133700  0.23662400  1
  H  H14  1  0.98689000  0.99866300  0.73662400  1
  H  H15  1  0.48689000  0.50133700  0.26337600  1
  O  O16  1  0.94934600  0.25074700  0.59566400  1
  O  O17  1  0.44934600  0.24925300  0.40433600  1
  O  O18  1  0.05065400  0.75074700  0.90433600  1
  O  O19  1  0.55065400  0.74925300  0.09566400  1
  O  O20  1  0.72934400  0.53661100  0.97390900  1
  O  O21  1  0.22934400  0.96338900  0.02609100  1
  O  O22  1  0.27065600  0.03661100  0.52609100  1
  O  O23  1  0.77065600  0.46338900  0.47390900  1
  O  O24  1  0.26989700  0.46502300  0.52854700  1
  O  O25  1  0.76989700  0.03497700  0.47145300  1
  O  O26  1  0.73010300  0.96502300  0.97145300  1
  O  O27  1  0.23010300  0.53497700  0.02854700  1
  O  O28  1  0.10468200  0.47769900  0.83646800  1
  O  O29  1  0.60468200  0.02230100  0.16353200  1
  O  O30  1  0.89531800  0.97769900  0.66353200  1
  O  O31  1  0.39531800  0.52230100  0.33646800  1
  O  O32  1  0.90308400  0.52363800  0.66950100  1
  O  O33  1  0.40308400  0.97636200  0.33049900  1
  O  O34  1  0.09691600  0.02363800  0.83049900  1
  O  O35  1  0.59691600  0.47636200  0.16950100  1
