# generated using pymatgen
data_Sm2Ge5Pd3
_symmetry_space_group_name_H-M   'P 1'
_cell_length_a   6.17839200
_cell_length_b   8.52087692
_cell_length_c   8.52087692
_cell_angle_alpha   74.65489438
_cell_angle_beta   68.74346271
_cell_angle_gamma   68.74346271
_symmetry_Int_Tables_number   1
_chemical_formula_structural   Sm2Ge5Pd3
_chemical_formula_sum   'Sm4 Ge10 Pd6'
_cell_volume   385.01457919
_cell_formula_units_Z   2
loop_
 _symmetry_equiv_pos_site_id
 _symmetry_equiv_pos_as_xyz
  1  'x, y, z'
loop_
 _atom_site_type_symbol
 _atom_site_label
 _atom_site_symmetry_multiplicity
 _atom_site_fract_x
 _atom_site_fract_y
 _atom_site_fract_z
 _atom_site_occupancy
  Sm  Sm0  1  0.63044200  0.10200400  0.63711200  1
  Sm  Sm1  1  0.36955800  0.89799600  0.36288800  1
  Sm  Sm2  1  0.13044200  0.63711200  0.10200400  1
  Sm  Sm3  1  0.86955800  0.36288800  0.89799600  1
  Ge  Ge4  1  0.47726500  0.27273500  0.27273500  1
  Ge  Ge5  1  0.52273500  0.72726500  0.72726500  1
  Ge  Ge6  1  0.02273500  0.72726500  0.72726500  1
  Ge  Ge7  1  0.97726500  0.27273500  0.27273500  1
  Ge  Ge8  1  0.89363500  0.76260900  0.45012100  1
  Ge  Ge9  1  0.10636500  0.23739100  0.54987900  1
  Ge  Ge10  1  0.39363500  0.45012100  0.76260900  1
  Ge  Ge11  1  0.60636500  0.54987900  0.23739100  1
  Ge  Ge12  1  0.75000000  0.00000000  0.00000000  1
  Ge  Ge13  1  0.25000000  0.00000000  0.00000000  1
  Pd  Pd14  1  0.86056900  0.02779100  0.25107100  1
  Pd  Pd15  1  0.13943100  0.97220900  0.74892900  1
  Pd  Pd16  1  0.36056900  0.25107100  0.02779100  1
  Pd  Pd17  1  0.63943100  0.74892900  0.97220900  1
  Pd  Pd18  1  0.75000000  0.50000000  0.50000000  1
  Pd  Pd19  1  0.25000000  0.50000000  0.50000000  1
