# generated using pymatgen
data_Cs2Hg3S4
_symmetry_space_group_name_H-M   'P 1'
_cell_length_a   6.46149800
_cell_length_b   9.99407612
_cell_length_c   9.99407612
_cell_angle_alpha   73.31980530
_cell_angle_beta   71.13942166
_cell_angle_gamma   71.13942166
_symmetry_Int_Tables_number   1
_chemical_formula_structural   Cs2Hg3S4
_chemical_formula_sum   'Cs4 Hg6 S8'
_cell_volume   565.80810313
_cell_formula_units_Z   2
loop_
 _symmetry_equiv_pos_site_id
 _symmetry_equiv_pos_as_xyz
  1  'x, y, z'
loop_
 _atom_site_type_symbol
 _atom_site_label
 _atom_site_symmetry_multiplicity
 _atom_site_fract_x
 _atom_site_fract_y
 _atom_site_fract_z
 _atom_site_occupancy
  Cs  Cs0  1  0.74217400  0.62169100  0.37830900  1
  Cs  Cs1  1  0.25782600  0.37830900  0.62169100  1
  Cs  Cs2  1  0.75782600  0.12169100  0.87830900  1
  Cs  Cs3  1  0.24217400  0.87830900  0.12169100  1
  Hg  Hg4  1  0.75000000  0.75000000  0.75000000  1
  Hg  Hg5  1  0.25000000  0.25000000  0.25000000  1
  Hg  Hg6  1  0.25000000  0.90678400  0.59321600  1
  Hg  Hg7  1  0.25000000  0.59321600  0.90678400  1
  Hg  Hg8  1  0.75000000  0.09321600  0.40678400  1
  Hg  Hg9  1  0.75000000  0.40678400  0.09321600  1
  S  S10  1  0.07905700  0.77610900  0.51259200  1
  S  S11  1  0.63224300  0.51259200  0.77610900  1
  S  S12  1  0.42094300  0.98740800  0.72389100  1
  S  S13  1  0.86775700  0.72389100  0.98740800  1
  S  S14  1  0.92094300  0.22389100  0.48740800  1
  S  S15  1  0.36775700  0.48740800  0.22389100  1
  S  S16  1  0.57905700  0.01259200  0.27610900  1
  S  S17  1  0.13224300  0.27610900  0.01259200  1
