# generated using pymatgen
data_K2CeF6
_symmetry_space_group_name_H-M   'P 1'
_cell_length_a   3.76416400
_cell_length_b   6.63236202
_cell_length_c   6.63236202
_cell_angle_alpha   120.00000018
_cell_angle_beta   90.00000000
_cell_angle_gamma   90.00000000
_symmetry_Int_Tables_number   1
_chemical_formula_structural   K2CeF6
_chemical_formula_sum   'K2 Ce1 F6'
_cell_volume   143.39553044
_cell_formula_units_Z   1
loop_
 _symmetry_equiv_pos_site_id
 _symmetry_equiv_pos_as_xyz
  1  'x, y, z'
loop_
 _atom_site_type_symbol
 _atom_site_label
 _atom_site_symmetry_multiplicity
 _atom_site_fract_x
 _atom_site_fract_y
 _atom_site_fract_z
 _atom_site_occupancy
  K  K0  1  0.50000000  0.66666700  0.33333300  1
  K  K1  1  0.50000000  0.33333300  0.66666700  1
  Ce  Ce2  1  0.00000000  0.00000000  0.00000000  1
  F  F3  1  0.50000000  0.77229800  0.77229800  1
  F  F4  1  0.50000000  0.00000000  0.22770200  1
  F  F5  1  0.50000000  0.22770200  0.00000000  1
  F  F6  1  0.00000000  0.33749300  0.33749300  1
  F  F7  1  0.00000000  0.00000000  0.66250700  1
  F  F8  1  0.00000000  0.66250700  0.00000000  1
