# generated using pymatgen
data_Tb(Al5Re)2
_symmetry_space_group_name_H-M   'P 1'
_cell_length_a   6.97004936
_cell_length_b   6.97004936
_cell_length_c   18.04389400
_cell_angle_alpha   90.00000000
_cell_angle_beta   90.00000000
_cell_angle_gamma   96.18840036
_symmetry_Int_Tables_number   1
_chemical_formula_structural   Tb(Al5Re)2
_chemical_formula_sum   'Tb4 Al40 Re8'
_cell_volume   871.49290315
_cell_formula_units_Z   4
loop_
 _symmetry_equiv_pos_site_id
 _symmetry_equiv_pos_as_xyz
  1  'x, y, z'
loop_
 _atom_site_type_symbol
 _atom_site_label
 _atom_site_symmetry_multiplicity
 _atom_site_fract_x
 _atom_site_fract_y
 _atom_site_fract_z
 _atom_site_occupancy
  Tb  Tb0  1  0.25737200  0.74262800  0.75000000  1
  Tb  Tb1  1  0.74262800  0.25737200  0.25000000  1
  Tb  Tb2  1  0.00000000  0.00000000  0.50000000  1
  Tb  Tb3  1  0.00000000  0.00000000  0.00000000  1
  Al  Al4  1  0.35105900  0.35105900  0.50000000  1
  Al  Al5  1  0.64894100  0.64894100  0.50000000  1
  Al  Al6  1  0.64894100  0.64894100  0.00000000  1
  Al  Al7  1  0.35105900  0.35105900  0.00000000  1
  Al  Al8  1  0.90784800  0.65147400  0.63131400  1
  Al  Al9  1  0.09215200  0.34852600  0.36868600  1
  Al  Al10  1  0.09215200  0.34852600  0.13131400  1
  Al  Al11  1  0.34852600  0.09215200  0.86868600  1
  Al  Al12  1  0.90784800  0.65147400  0.86868600  1
  Al  Al13  1  0.65147400  0.90784800  0.13131400  1
  Al  Al14  1  0.65147400  0.90784800  0.36868600  1
  Al  Al15  1  0.34852600  0.09215200  0.63131400  1
  Al  Al16  1  0.91122300  0.38604700  0.75000000  1
  Al  Al17  1  0.08877700  0.61395300  0.25000000  1
  Al  Al18  1  0.61395300  0.08877700  0.75000000  1
  Al  Al19  1  0.38604700  0.91122300  0.25000000  1
  Al  Al20  1  0.71838400  0.28161600  0.07458800  1
  Al  Al21  1  0.28161600  0.71838400  0.92541200  1
  Al  Al22  1  0.28161600  0.71838400  0.57458800  1
  Al  Al23  1  0.71838400  0.28161600  0.42541200  1
  Al  Al24  1  0.96721200  0.03278800  0.67427000  1
  Al  Al25  1  0.03278800  0.96721200  0.32573000  1
  Al  Al26  1  0.03278800  0.96721200  0.17427000  1
  Al  Al27  1  0.96721200  0.03278800  0.82573000  1
  Al  Al28  1  0.00000000  0.50000000  0.50000000  1
  Al  Al29  1  0.00000000  0.50000000  0.00000000  1
  Al  Al30  1  0.50000000  0.00000000  0.00000000  1
  Al  Al31  1  0.50000000  0.00000000  0.50000000  1
  Al  Al32  1  0.75187800  0.24812200  0.59273600  1
  Al  Al33  1  0.24812200  0.75187800  0.40726400  1
  Al  Al34  1  0.24812200  0.75187800  0.09273600  1
  Al  Al35  1  0.75187800  0.24812200  0.90726400  1
  Al  Al36  1  0.27207900  0.29792700  0.75000000  1
  Al  Al37  1  0.72792100  0.70207300  0.25000000  1
  Al  Al38  1  0.70207300  0.72792100  0.75000000  1
  Al  Al39  1  0.29792700  0.27207900  0.25000000  1
  Al  Al40  1  0.50564400  0.49435600  0.64280200  1
  Al  Al41  1  0.49435600  0.50564400  0.35719800  1
  Al  Al42  1  0.49435600  0.50564400  0.14280200  1
  Al  Al43  1  0.50564400  0.49435600  0.85719800  1
  Re  Re44  1  0.13017100  0.37366300  0.62080100  1
  Re  Re45  1  0.86982900  0.62633700  0.37919900  1
  Re  Re46  1  0.86982900  0.62633700  0.12080100  1
  Re  Re47  1  0.62633700  0.86982900  0.87919900  1
  Re  Re48  1  0.13017100  0.37366300  0.87919900  1
  Re  Re49  1  0.37366300  0.13017100  0.12080100  1
  Re  Re50  1  0.37366300  0.13017100  0.37919900  1
  Re  Re51  1  0.62633700  0.86982900  0.62080100  1
