# generated using pymatgen
data_Sm4MgRu
_symmetry_space_group_name_H-M   'P 1'
_cell_length_a   9.86951785
_cell_length_b   9.86951785
_cell_length_c   9.86951785
_cell_angle_alpha   60.00000000
_cell_angle_beta   60.00000000
_cell_angle_gamma   60.00000000
_symmetry_Int_Tables_number   1
_chemical_formula_structural   Sm4MgRu
_chemical_formula_sum   'Sm16 Mg4 Ru4'
_cell_volume   679.78693409
_cell_formula_units_Z   4
loop_
 _symmetry_equiv_pos_site_id
 _symmetry_equiv_pos_as_xyz
  1  'x, y, z'
loop_
 _atom_site_type_symbol
 _atom_site_label
 _atom_site_symmetry_multiplicity
 _atom_site_fract_x
 _atom_site_fract_y
 _atom_site_fract_z
 _atom_site_occupancy
  Sm  Sm0  1  0.93745100  0.56254900  0.56254900  1
  Sm  Sm1  1  0.56254900  0.93745100  0.93745100  1
  Sm  Sm2  1  0.56254900  0.93745100  0.56254900  1
  Sm  Sm3  1  0.93745100  0.56254900  0.93745100  1
  Sm  Sm4  1  0.56254900  0.56254900  0.93745100  1
  Sm  Sm5  1  0.93745100  0.93745100  0.56254900  1
  Sm  Sm6  1  0.81226700  0.18773300  0.18773300  1
  Sm  Sm7  1  0.18773300  0.81226700  0.81226700  1
  Sm  Sm8  1  0.18773300  0.81226700  0.18773300  1
  Sm  Sm9  1  0.81226700  0.18773300  0.81226700  1
  Sm  Sm10  1  0.18773300  0.18773300  0.81226700  1
  Sm  Sm11  1  0.81226700  0.81226700  0.18773300  1
  Sm  Sm12  1  0.34319900  0.34319900  0.34319900  1
  Sm  Sm13  1  0.34319900  0.34319900  0.97040200  1
  Sm  Sm14  1  0.34319900  0.97040200  0.34319900  1
  Sm  Sm15  1  0.97040200  0.34319900  0.34319900  1
  Mg  Mg16  1  0.57882900  0.57882900  0.57882900  1
  Mg  Mg17  1  0.57882900  0.57882900  0.26351400  1
  Mg  Mg18  1  0.57882900  0.26351400  0.57882900  1
  Mg  Mg19  1  0.26351400  0.57882900  0.57882900  1
  Ru  Ru20  1  0.13830100  0.13830100  0.13830100  1
  Ru  Ru21  1  0.13830100  0.13830100  0.58509600  1
  Ru  Ru22  1  0.13830100  0.58509600  0.13830100  1
  Ru  Ru23  1  0.58509600  0.13830100  0.13830100  1
