# generated using pymatgen
data_La3SiI3
_symmetry_space_group_name_H-M   'P 1'
_cell_length_a   11.00173558
_cell_length_b   11.00173558
_cell_length_c   11.00173558
_cell_angle_alpha   109.47122063
_cell_angle_beta   109.47122063
_cell_angle_gamma   109.47122063
_symmetry_Int_Tables_number   1
_chemical_formula_structural   La3SiI3
_chemical_formula_sum   'La12 Si4 I12'
_cell_volume   1025.08934108
_cell_formula_units_Z   4
loop_
 _symmetry_equiv_pos_site_id
 _symmetry_equiv_pos_as_xyz
  1  'x, y, z'
loop_
 _atom_site_type_symbol
 _atom_site_label
 _atom_site_symmetry_multiplicity
 _atom_site_fract_x
 _atom_site_fract_y
 _atom_site_fract_z
 _atom_site_occupancy
  La  La0  1  0.46882600  0.48441300  0.23441300  1
  La  La1  1  0.75000000  0.23441300  0.26558700  1
  La  La2  1  0.75000000  0.01558700  0.48441300  1
  La  La3  1  0.23441300  0.46882600  0.48441300  1
  La  La4  1  0.26558700  0.75000000  0.23441300  1
  La  La5  1  0.03117400  0.26558700  0.01558700  1
  La  La6  1  0.01558700  0.03117400  0.26558700  1
  La  La7  1  0.48441300  0.75000000  0.01558700  1
  La  La8  1  0.48441300  0.23441300  0.46882600  1
  La  La9  1  0.01558700  0.48441300  0.75000000  1
  La  La10  1  0.26558700  0.01558700  0.03117400  1
  La  La11  1  0.23441300  0.26558700  0.75000000  1
  Si  Si12  1  0.25000000  0.25000000  0.25000000  1
  Si  Si13  1  0.50000000  0.00000000  0.25000000  1
  Si  Si14  1  0.00000000  0.25000000  0.50000000  1
  Si  Si15  1  0.25000000  0.50000000  0.00000000  1
  I  I16  1  0.25000000  0.75907600  0.74092400  1
  I  I17  1  0.51815200  0.50907600  0.75907600  1
  I  I18  1  0.98184800  0.74092400  0.99092400  1
  I  I19  1  0.74092400  0.25000000  0.75907600  1
  I  I20  1  0.99092400  0.98184800  0.74092400  1
  I  I21  1  0.25000000  0.99092400  0.50907600  1
  I  I22  1  0.75907600  0.51815200  0.50907600  1
  I  I23  1  0.50907600  0.25000000  0.99092400  1
  I  I24  1  0.75907600  0.74092400  0.25000000  1
  I  I25  1  0.74092400  0.99092400  0.98184800  1
  I  I26  1  0.99092400  0.50907600  0.25000000  1
  I  I27  1  0.50907600  0.75907600  0.51815200  1
