# generated using pymatgen
data_BiBPbO4
_symmetry_space_group_name_H-M   'P 1'
_cell_length_a   7.71329799
_cell_length_b   7.71329799
_cell_length_c   7.57766300
_cell_angle_alpha   90.00000000
_cell_angle_beta   90.00000000
_cell_angle_gamma   92.82030895
_symmetry_Int_Tables_number   1
_chemical_formula_structural   BiBPbO4
_chemical_formula_sum   'Bi4 B4 Pb4 O16'
_cell_volume   450.28673476
_cell_formula_units_Z   4
loop_
 _symmetry_equiv_pos_site_id
 _symmetry_equiv_pos_as_xyz
  1  'x, y, z'
loop_
 _atom_site_type_symbol
 _atom_site_label
 _atom_site_symmetry_multiplicity
 _atom_site_fract_x
 _atom_site_fract_y
 _atom_site_fract_z
 _atom_site_occupancy
  Bi  Bi0  1  0.65831200  0.34168800  0.50000000  1
  Bi  Bi1  1  0.15831200  0.84168800  0.00000000  1
  Bi  Bi2  1  0.34168800  0.65831200  0.50000000  1
  Bi  Bi3  1  0.84168800  0.15831200  0.00000000  1
  B  B4  1  0.51201000  0.01201000  0.25000000  1
  B  B5  1  0.98799000  0.48799000  0.75000000  1
  B  B6  1  0.48799000  0.98799000  0.75000000  1
  B  B7  1  0.01201000  0.51201000  0.25000000  1
  Pb  Pb8  1  0.18321500  0.18321500  0.39119700  1
  Pb  Pb9  1  0.81678500  0.81678500  0.60880300  1
  Pb  Pb10  1  0.31678500  0.31678500  0.89119700  1
  Pb  Pb11  1  0.68321500  0.68321500  0.10880300  1
  O  O12  1  0.47458500  0.18237300  0.29438400  1
  O  O13  1  0.81762700  0.52541500  0.70561600  1
  O  O14  1  0.31762700  0.02541500  0.79438400  1
  O  O15  1  0.97458500  0.68237300  0.20561600  1
  O  O16  1  0.52541500  0.81762700  0.70561600  1
  O  O17  1  0.18237300  0.47458500  0.29438400  1
  O  O18  1  0.68237300  0.97458500  0.20561600  1
  O  O19  1  0.02541500  0.31762700  0.79438400  1
  O  O20  1  0.39853300  0.39853300  0.60567800  1
  O  O21  1  0.60146700  0.60146700  0.39432200  1
  O  O22  1  0.10146700  0.10146700  0.10567800  1
  O  O23  1  0.89853300  0.89853300  0.89432200  1
  O  O24  1  0.38255900  0.88255900  0.25000000  1
  O  O25  1  0.11744100  0.61744100  0.75000000  1
  O  O26  1  0.61744100  0.11744100  0.75000000  1
  O  O27  1  0.88255900  0.38255900  0.25000000  1
