# generated using pymatgen
data_Ba2CaWO6
_symmetry_space_group_name_H-M   'P 1'
_cell_length_a   6.04663723
_cell_length_b   6.02740740
_cell_length_c   6.02740760
_cell_angle_alpha   59.90927099
_cell_angle_beta   59.82072981
_cell_angle_gamma   59.82073993
_symmetry_Int_Tables_number   1
_chemical_formula_structural   Ba2CaWO6
_chemical_formula_sum   'Ba2 Ca1 W1 O6'
_cell_volume   154.80353803
_cell_formula_units_Z   1
loop_
 _symmetry_equiv_pos_site_id
 _symmetry_equiv_pos_as_xyz
  1  'x, y, z'
loop_
 _atom_site_type_symbol
 _atom_site_label
 _atom_site_symmetry_multiplicity
 _atom_site_fract_x
 _atom_site_fract_y
 _atom_site_fract_z
 _atom_site_occupancy
  Ba  Ba0  1  0.25151500  0.75026400  0.75026400  1
  Ba  Ba1  1  0.74848400  0.24973700  0.24973600  1
  Ca  Ca2  1  0.49999900  0.99999900  0.00000100  1
  W  W3  1  0.00000000  0.49999900  0.50000100  1
  O  O4  1  0.74977400  0.75210700  0.29193100  1
  O  O5  1  0.25022600  0.70806900  0.24789300  1
  O  O6  1  0.25022600  0.24789400  0.70806900  1
  O  O7  1  0.74977300  0.29193000  0.75210700  1
  O  O8  1  0.18596000  0.27128200  0.27128300  1
  O  O9  1  0.81404100  0.72871700  0.72871900  1
