# generated using pymatgen
data_K2ZnTe2
_symmetry_space_group_name_H-M   'P 1'
_cell_length_a   8.74000669
_cell_length_b   8.74000669
_cell_length_c   8.74000669
_cell_angle_alpha   132.43951259
_cell_angle_beta   130.11260264
_cell_angle_gamma   71.39129211
_symmetry_Int_Tables_number   1
_chemical_formula_structural   K2ZnTe2
_chemical_formula_sum   'K4 Zn2 Te4'
_cell_volume   368.81128665
_cell_formula_units_Z   2
loop_
 _symmetry_equiv_pos_site_id
 _symmetry_equiv_pos_as_xyz
  1  'x, y, z'
loop_
 _atom_site_type_symbol
 _atom_site_label
 _atom_site_symmetry_multiplicity
 _atom_site_fract_x
 _atom_site_fract_y
 _atom_site_fract_z
 _atom_site_occupancy
  K  K0  1  0.17636200  0.85944800  0.31691400  1
  K  K1  1  0.82363800  0.14055200  0.68308600  1
  K  K2  1  0.45746600  0.64055200  0.81691400  1
  K  K3  1  0.54253400  0.35944800  0.18308600  1
  Zn  Zn4  1  0.00000000  0.25000000  0.25000000  1
  Zn  Zn5  1  0.00000000  0.75000000  0.75000000  1
  Te  Te6  1  0.91346900  0.60676800  0.30670200  1
  Te  Te7  1  0.08653100  0.39323200  0.69329800  1
  Te  Te8  1  0.69993400  0.89323200  0.80670200  1
  Te  Te9  1  0.30006600  0.10676800  0.19329800  1
