# generated using pymatgen
data_KSbWO6
_symmetry_space_group_name_H-M   'P 1'
_cell_length_a   7.36586329
_cell_length_b   7.36586329
_cell_length_c   7.36586329
_cell_angle_alpha   120.74413774
_cell_angle_beta   119.67283617
_cell_angle_gamma   89.64178739
_symmetry_Int_Tables_number   1
_chemical_formula_structural   KSbWO6
_chemical_formula_sum   'K2 Sb2 W2 O12'
_cell_volume   281.66196384
_cell_formula_units_Z   2
loop_
 _symmetry_equiv_pos_site_id
 _symmetry_equiv_pos_as_xyz
  1  'x, y, z'
loop_
 _atom_site_type_symbol
 _atom_site_label
 _atom_site_symmetry_multiplicity
 _atom_site_fract_x
 _atom_site_fract_y
 _atom_site_fract_z
 _atom_site_occupancy
  K  K0  1  0.59482200  0.90298800  0.19183400  1
  K  K1  1  0.28884600  0.09701200  0.69183400  1
  Sb  Sb2  1  0.99877600  0.50000000  0.49877600  1
  Sb  Sb3  1  0.99877600  0.00000000  0.99877600  1
  W  W4  1  0.99563400  0.49869900  0.99693500  1
  W  W5  1  0.49823500  0.50130100  0.49693500  1
  O  O6  1  0.07851600  0.82558800  0.75292900  1
  O  O7  1  0.69058800  0.44103000  0.74955800  1
  O  O8  1  0.67950500  0.81234900  0.74798600  1
  O  O9  1  0.06672300  0.43355300  0.75365700  1
  O  O10  1  0.06672300  0.81306600  0.13317100  1
  O  O11  1  0.67950500  0.43151900  0.36715500  1
  O  O12  1  0.92734100  0.17441200  0.25292900  1
  O  O13  1  0.30852800  0.55897000  0.24955800  1
  O  O14  1  0.32010400  0.18693400  0.25365700  1
  O  O15  1  0.93563600  0.56848100  0.24798600  1
  O  O16  1  0.93563600  0.18765100  0.86715500  1
  O  O17  1  0.32010400  0.56644700  0.63317100  1
