# generated using pymatgen
data_LaGa4Os
_symmetry_space_group_name_H-M   'P 1'
_cell_length_a   7.76102500
_cell_length_b   8.91218900
_cell_length_c   9.79077800
_cell_angle_alpha   90.00000000
_cell_angle_beta   90.00000000
_cell_angle_gamma   90.00000000
_symmetry_Int_Tables_number   1
_chemical_formula_structural   LaGa4Os
_chemical_formula_sum   'La6 Ga24 Os6'
_cell_volume   677.20580728
_cell_formula_units_Z   6
loop_
 _symmetry_equiv_pos_site_id
 _symmetry_equiv_pos_as_xyz
  1  'x, y, z'
loop_
 _atom_site_type_symbol
 _atom_site_label
 _atom_site_symmetry_multiplicity
 _atom_site_fract_x
 _atom_site_fract_y
 _atom_site_fract_z
 _atom_site_occupancy
  La  La0  1  0.32153100  0.50000000  0.75000000  1
  La  La1  1  0.67846900  0.50000000  0.25000000  1
  La  La2  1  0.83879000  0.24891500  0.75000000  1
  La  La3  1  0.16121000  0.75108500  0.25000000  1
  La  La4  1  0.83879000  0.75108500  0.75000000  1
  La  La5  1  0.16121000  0.24891500  0.25000000  1
  Ga  Ga6  1  0.17933000  0.23554400  0.57524000  1
  Ga  Ga7  1  0.82067000  0.76445600  0.42476000  1
  Ga  Ga8  1  0.17933000  0.76445600  0.92476000  1
  Ga  Ga9  1  0.82067000  0.23554400  0.42476000  1
  Ga  Ga10  1  0.82067000  0.23554400  0.07524000  1
  Ga  Ga11  1  0.17933000  0.76445600  0.57524000  1
  Ga  Ga12  1  0.82067000  0.76445600  0.07524000  1
  Ga  Ga13  1  0.17933000  0.23554400  0.92476000  1
  Ga  Ga14  1  0.13049300  0.00000000  0.75000000  1
  Ga  Ga15  1  0.86950700  0.00000000  0.25000000  1
  Ga  Ga16  1  0.33847600  0.00000000  0.06026700  1
  Ga  Ga17  1  0.66152400  0.00000000  0.93973300  1
  Ga  Ga18  1  0.33847600  0.00000000  0.43973300  1
  Ga  Ga19  1  0.66152400  0.00000000  0.56026700  1
  Ga  Ga20  1  0.45208000  0.15622000  0.75000000  1
  Ga  Ga21  1  0.54792000  0.84378000  0.25000000  1
  Ga  Ga22  1  0.45208000  0.84378000  0.75000000  1
  Ga  Ga23  1  0.54792000  0.15622000  0.25000000  1
  Ga  Ga24  1  0.65609800  0.50000000  0.58485500  1
  Ga  Ga25  1  0.34390200  0.50000000  0.41514500  1
  Ga  Ga26  1  0.65609800  0.50000000  0.91514500  1
  Ga  Ga27  1  0.34390200  0.50000000  0.08485500  1
  Ga  Ga28  1  0.00000000  0.50000000  0.50000000  1
  Ga  Ga29  1  0.00000000  0.50000000  0.00000000  1
  Os  Os30  1  0.50000000  0.25846600  0.50000000  1
  Os  Os31  1  0.50000000  0.74153400  0.50000000  1
  Os  Os32  1  0.50000000  0.74153400  0.00000000  1
  Os  Os33  1  0.50000000  0.25846600  0.00000000  1
  Os  Os34  1  0.00000000  0.00000000  0.50000000  1
  Os  Os35  1  0.00000000  0.00000000  0.00000000  1
