# generated using pymatgen
data_Gd3SOF5
_symmetry_space_group_name_H-M   'P 1'
_cell_length_a   3.75180100
_cell_length_b   9.53397200
_cell_length_c   9.59498912
_cell_angle_alpha   60.49330150
_cell_angle_beta   90.00000000
_cell_angle_gamma   90.00000000
_symmetry_Int_Tables_number   1
_chemical_formula_structural   Gd3SOF5
_chemical_formula_sum   'Gd6 S2 O2 F10'
_cell_volume   298.69379401
_cell_formula_units_Z   2
loop_
 _symmetry_equiv_pos_site_id
 _symmetry_equiv_pos_as_xyz
  1  'x, y, z'
loop_
 _atom_site_type_symbol
 _atom_site_label
 _atom_site_symmetry_multiplicity
 _atom_site_fract_x
 _atom_site_fract_y
 _atom_site_fract_z
 _atom_site_occupancy
  Gd  Gd0  1  0.00000000  0.41817900  0.86530100  1
  Gd  Gd1  1  0.00000000  0.86629100  0.72902800  1
  Gd  Gd2  1  0.00000000  0.70136000  0.41565000  1
  Gd  Gd3  1  0.50000000  0.59481400  0.10391500  1
  Gd  Gd4  1  0.50000000  0.12347000  0.28515200  1
  Gd  Gd5  1  0.50000000  0.29560700  0.59688400  1
  S  S6  1  0.00000000  0.32908900  0.33255500  1
  S  S7  1  0.50000000  0.67265500  0.66209400  1
  O  O8  1  0.00000000  0.43623300  0.61261600  1
  O  O9  1  0.00000000  0.61663300  0.94797100  1
  F  F10  1  0.00000000  0.15888100  0.11987700  1
  F  F11  1  0.00000000  0.11250200  0.72677000  1
  F  F12  1  0.00000000  0.72465600  0.16251000  1
  F  F13  1  0.50000000  0.85454100  0.88208300  1
  F  F14  1  0.50000000  0.87921800  0.28381900  1
  F  F15  1  0.50000000  0.27189200  0.85059300  1
  F  F16  1  0.00000000  0.95183300  0.43398800  1
  F  F17  1  0.50000000  0.56888300  0.37513800  1
  F  F18  1  0.50000000  0.37834600  0.04713100  1
  F  F19  1  0.50000000  0.04491700  0.56692800  1
