# generated using pymatgen
data_Cs(ThTe3)2
_symmetry_space_group_name_H-M   'P 1'
_cell_length_a   12.77826359
_cell_length_b   12.77826359
_cell_length_c   6.27526200
_cell_angle_alpha   90.00000000
_cell_angle_beta   90.00000000
_cell_angle_gamma   159.83259294
_symmetry_Int_Tables_number   1
_chemical_formula_structural   Cs(ThTe3)2
_chemical_formula_sum   'Cs1 Th2 Te6'
_cell_volume   353.26272000
_cell_formula_units_Z   1
loop_
 _symmetry_equiv_pos_site_id
 _symmetry_equiv_pos_as_xyz
  1  'x, y, z'
loop_
 _atom_site_type_symbol
 _atom_site_label
 _atom_site_symmetry_multiplicity
 _atom_site_fract_x
 _atom_site_fract_y
 _atom_site_fract_z
 _atom_site_occupancy
  Cs  Cs0  1  0.49668700  0.50331300  0.00000000  1
  Th  Th1  1  0.68216100  0.31783900  0.00000000  1
  Th  Th2  1  0.31795200  0.68204800  0.50000000  1
  Te  Te3  1  0.27327900  0.72672100  0.00000000  1
  Te  Te4  1  0.72708900  0.27291100  0.50000000  1
  Te  Te5  1  0.11280600  0.88719400  0.24559200  1
  Te  Te6  1  0.88696000  0.11304000  0.25742000  1
  Te  Te7  1  0.11280600  0.88719400  0.75440800  1
  Te  Te8  1  0.88696000  0.11304000  0.74258000  1
