# generated using pymatgen
data_Dy8Ga3Co
_symmetry_space_group_name_H-M   'P 1'
_cell_length_a   10.02619339
_cell_length_b   10.02619339
_cell_length_c   6.91805100
_cell_angle_alpha   90.00000000
_cell_angle_beta   90.00000000
_cell_angle_gamma   119.99999596
_symmetry_Int_Tables_number   1
_chemical_formula_structural   Dy8Ga3Co
_chemical_formula_sum   'Dy16 Ga6 Co2'
_cell_volume   602.26352673
_cell_formula_units_Z   2
loop_
 _symmetry_equiv_pos_site_id
 _symmetry_equiv_pos_as_xyz
  1  'x, y, z'
loop_
 _atom_site_type_symbol
 _atom_site_label
 _atom_site_symmetry_multiplicity
 _atom_site_fract_x
 _atom_site_fract_y
 _atom_site_fract_z
 _atom_site_occupancy
  Dy  Dy0  1  0.17265900  0.82734100  0.51037500  1
  Dy  Dy1  1  0.65468200  0.82734100  0.51037500  1
  Dy  Dy2  1  0.17265900  0.34531800  0.51037500  1
  Dy  Dy3  1  0.82734100  0.17265900  0.01037500  1
  Dy  Dy4  1  0.34531800  0.17265900  0.01037500  1
  Dy  Dy5  1  0.82734100  0.65468200  0.01037500  1
  Dy  Dy6  1  0.33333300  0.66666700  0.82761400  1
  Dy  Dy7  1  0.66666700  0.33333300  0.32761400  1
  Dy  Dy8  1  0.46339400  0.53660600  0.20737800  1
  Dy  Dy9  1  0.07321100  0.53660600  0.20737800  1
  Dy  Dy10  1  0.46339400  0.92678900  0.20737800  1
  Dy  Dy11  1  0.53660600  0.46339400  0.70737800  1
  Dy  Dy12  1  0.92678900  0.46339400  0.70737800  1
  Dy  Dy13  1  0.53660600  0.07321100  0.70737800  1
  Dy  Dy14  1  0.00000000  0.00000000  0.23142900  1
  Dy  Dy15  1  0.00000000  0.00000000  0.73142900  1
  Ga  Ga16  1  0.16338800  0.83661200  0.96021100  1
  Ga  Ga17  1  0.67322400  0.83661200  0.96021100  1
  Ga  Ga18  1  0.16338800  0.32677600  0.96021100  1
  Ga  Ga19  1  0.83661200  0.16338800  0.46021100  1
  Ga  Ga20  1  0.32677600  0.16338800  0.46021100  1
  Ga  Ga21  1  0.83661200  0.67322400  0.46021100  1
  Co  Co22  1  0.33333300  0.66666700  0.44448300  1
  Co  Co23  1  0.66666700  0.33333300  0.94448300  1
