# generated using pymatgen
data_Pr2TeO2
_symmetry_space_group_name_H-M   'P 1'
_cell_length_a   7.16718096
_cell_length_b   7.16718096
_cell_length_c   7.16718096
_cell_angle_alpha   146.71650947
_cell_angle_beta   146.71650947
_cell_angle_gamma   47.78372037
_symmetry_Int_Tables_number   1
_chemical_formula_structural   Pr2TeO2
_chemical_formula_sum   'Pr2 Te1 O2'
_cell_volume   110.43441212
_cell_formula_units_Z   1
loop_
 _symmetry_equiv_pos_site_id
 _symmetry_equiv_pos_as_xyz
  1  'x, y, z'
loop_
 _atom_site_type_symbol
 _atom_site_label
 _atom_site_symmetry_multiplicity
 _atom_site_fract_x
 _atom_site_fract_y
 _atom_site_fract_z
 _atom_site_occupancy
  Pr  Pr0  1  0.65967700  0.65967700  0.00000000  1
  Pr  Pr1  1  0.34032300  0.34032300  0.00000000  1
  Te  Te2  1  0.00000000  0.00000000  0.00000000  1
  O  O3  1  0.75000000  0.25000000  0.50000000  1
  O  O4  1  0.25000000  0.75000000  0.50000000  1
