# generated using pymatgen
data_BeSnAs2
_symmetry_space_group_name_H-M   'P 1'
_cell_length_a   6.94635010
_cell_length_b   6.94635010
_cell_length_c   6.94635010
_cell_angle_alpha   131.95382418
_cell_angle_beta   131.95382418
_cell_angle_gamma   70.30196635
_symmetry_Int_Tables_number   1
_chemical_formula_structural   BeSnAs2
_chemical_formula_sum   'Be2 Sn2 As4'
_cell_volume   181.67837115
_cell_formula_units_Z   2
loop_
 _symmetry_equiv_pos_site_id
 _symmetry_equiv_pos_as_xyz
  1  'x, y, z'
loop_
 _atom_site_type_symbol
 _atom_site_label
 _atom_site_symmetry_multiplicity
 _atom_site_fract_x
 _atom_site_fract_y
 _atom_site_fract_z
 _atom_site_occupancy
  Be  Be0  1  0.25000000  0.75000000  0.50000000  1
  Be  Be1  1  0.50000000  0.50000000  0.00000000  1
  Sn  Sn2  1  0.00000000  0.00000000  0.00000000  1
  Sn  Sn3  1  0.75000000  0.25000000  0.50000000  1
  As  As4  1  0.18040500  0.12500000  0.55540500  1
  As  As5  1  0.37500000  0.81959500  0.94459500  1
  As  As6  1  0.56959500  0.62500000  0.44459500  1
  As  As7  1  0.87500000  0.43040500  0.05540500  1
