# generated using pymatgen
data_TmAl2Ni
_symmetry_space_group_name_H-M   'P 1'
_cell_length_a   5.38585669
_cell_length_b   5.38585669
_cell_length_c   6.85429100
_cell_angle_alpha   90.00000000
_cell_angle_beta   90.00000000
_cell_angle_gamma   135.86743510
_symmetry_Int_Tables_number   1
_chemical_formula_structural   TmAl2Ni
_chemical_formula_sum   'Tm2 Al4 Ni2'
_cell_volume   138.44635303
_cell_formula_units_Z   2
loop_
 _symmetry_equiv_pos_site_id
 _symmetry_equiv_pos_as_xyz
  1  'x, y, z'
loop_
 _atom_site_type_symbol
 _atom_site_label
 _atom_site_symmetry_multiplicity
 _atom_site_fract_x
 _atom_site_fract_y
 _atom_site_fract_z
 _atom_site_occupancy
  Tm  Tm0  1  0.93687600  0.06312400  0.75000000  1
  Tm  Tm1  1  0.06312400  0.93687600  0.25000000  1
  Al  Al2  1  0.65303400  0.34696600  0.55361800  1
  Al  Al3  1  0.34696600  0.65303400  0.44638200  1
  Al  Al4  1  0.65303400  0.34696600  0.94638200  1
  Al  Al5  1  0.34696600  0.65303400  0.05361800  1
  Ni  Ni6  1  0.78504500  0.21495500  0.25000000  1
  Ni  Ni7  1  0.21495500  0.78504500  0.75000000  1
