# generated using pymatgen
data_NaCoSO4F
_symmetry_space_group_name_H-M   'P 1'
_cell_length_a   6.76787429
_cell_length_b   7.91925919
_cell_length_c   7.91893683
_cell_angle_alpha   66.56088566
_cell_angle_beta   92.47315429
_cell_angle_gamma   92.47306941
_symmetry_Int_Tables_number   1
_chemical_formula_structural   NaCoSO4F
_chemical_formula_sum   'Na4 Co4 S4 O16 F4'
_cell_volume   388.88625085
_cell_formula_units_Z   4
loop_
 _symmetry_equiv_pos_site_id
 _symmetry_equiv_pos_as_xyz
  1  'x, y, z'
loop_
 _atom_site_type_symbol
 _atom_site_label
 _atom_site_symmetry_multiplicity
 _atom_site_fract_x
 _atom_site_fract_y
 _atom_site_fract_z
 _atom_site_occupancy
  Na  Na0  1  0.62498900  0.96081700  0.28918100  1
  Na  Na1  1  0.12498900  0.46075200  0.78924800  1
  Na  Na2  1  0.87496700  0.53918500  0.21076200  1
  Na  Na3  1  0.37505400  0.03923700  0.71081400  1
  Co  Co4  1  0.74981600  0.74969300  0.75046100  1
  Co  Co5  1  0.50018200  0.49954000  0.50030700  1
  Co  Co6  1  0.24986800  0.24977600  0.25031700  1
  Co  Co7  1  0.00013200  0.99968000  0.00022600  1
  S  S8  1  0.62497200  0.30610500  0.94390900  1
  S  S9  1  0.12497200  0.80619800  0.44381500  1
  S  S10  1  0.87506500  0.19379900  0.55618900  1
  S  S11  1  0.37499100  0.69379800  0.05618700  1
  O  O12  1  0.78050500  0.45704100  0.89852200  1
  O  O13  1  0.28064400  0.95708900  0.39868200  1
  O  O14  1  0.46945500  0.35149300  0.79295400  1
  O  O15  1  0.96931400  0.85133200  0.29290500  1
  O  O16  1  0.71949400  0.04299000  0.60147700  1
  O  O17  1  0.21934600  0.54298400  0.10131600  1
  O  O18  1  0.03069600  0.14866800  0.70702200  1
  O  O19  1  0.53054600  0.64850700  0.20701500  1
  O  O20  1  0.53457900  0.27964900  0.12175800  1
  O  O21  1  0.03440500  0.77986800  0.62151300  1
  O  O22  1  0.71544100  0.12830200  0.97034700  1
  O  O23  1  0.21561700  0.62854700  0.47012700  1
  O  O24  1  0.96557600  0.22038500  0.37829800  1
  O  O25  1  0.46560800  0.72024900  0.87843400  1
  O  O26  1  0.78437000  0.37150400  0.52975500  1
  O  O27  1  0.28440400  0.87164100  0.02961900  1
  F  F28  1  0.62504600  0.71035900  0.53957600  1
  F  F29  1  0.12504500  0.21051200  0.03942600  1
  F  F30  1  0.87476300  0.79008600  0.95985800  1
  F  F31  1  0.37515000  0.29021400  0.45997900  1
