# generated using pymatgen
data_SiAs
_symmetry_space_group_name_H-M   'P 1'
_cell_length_a   9.05702109
_cell_length_b   9.05702109
_cell_length_c   10.22790168
_cell_angle_alpha   68.15296989
_cell_angle_beta   68.15296989
_cell_angle_gamma   23.54875256
_symmetry_Int_Tables_number   1
_chemical_formula_structural   SiAs
_chemical_formula_sum   'Si6 As6'
_cell_volume   310.03914302
_cell_formula_units_Z   6
loop_
 _symmetry_equiv_pos_site_id
 _symmetry_equiv_pos_as_xyz
  1  'x, y, z'
loop_
 _atom_site_type_symbol
 _atom_site_label
 _atom_site_symmetry_multiplicity
 _atom_site_fract_x
 _atom_site_fract_y
 _atom_site_fract_z
 _atom_site_occupancy
  Si  Si0  1  0.13687600  0.13687600  0.59020500  1
  Si  Si1  1  0.86312400  0.86312400  0.40979500  1
  Si  Si2  1  0.23109400  0.23109400  0.70073000  1
  Si  Si3  1  0.76890600  0.76890600  0.29927000  1
  Si  Si4  1  0.56503600  0.56503600  0.90818200  1
  Si  Si5  1  0.43496400  0.43496400  0.09181800  1
  As  As6  1  0.14239500  0.14239500  0.94552500  1
  As  As7  1  0.85760500  0.85760500  0.05447500  1
  As  As8  1  0.17601400  0.17601400  0.33804000  1
  As  As9  1  0.82398600  0.82398600  0.66196000  1
  As  As10  1  0.54520900  0.54520900  0.68586500  1
  As  As11  1  0.45479100  0.45479100  0.31413500  1
