# generated using pymatgen
data_Li2Pr2Si3
_symmetry_space_group_name_H-M   'P 1'
_cell_length_a   9.59091019
_cell_length_b   9.59091019
_cell_length_c   6.86060400
_cell_angle_alpha   90.00000000
_cell_angle_beta   90.00000000
_cell_angle_gamma   153.18917094
_symmetry_Int_Tables_number   1
_chemical_formula_structural   Li2Pr2Si3
_chemical_formula_sum   'Li4 Pr4 Si6'
_cell_volume   284.64467392
_cell_formula_units_Z   2
loop_
 _symmetry_equiv_pos_site_id
 _symmetry_equiv_pos_as_xyz
  1  'x, y, z'
loop_
 _atom_site_type_symbol
 _atom_site_label
 _atom_site_symmetry_multiplicity
 _atom_site_fract_x
 _atom_site_fract_y
 _atom_site_fract_z
 _atom_site_occupancy
  Li  Li0  1  0.81050700  0.18949300  0.55963000  1
  Li  Li1  1  0.18949300  0.81050700  0.44037000  1
  Li  Li2  1  0.18949300  0.81050700  0.05963000  1
  Li  Li3  1  0.81050700  0.18949300  0.94037000  1
  Pr  Pr4  1  0.55260600  0.44739400  0.25000000  1
  Pr  Pr5  1  0.44739400  0.55260600  0.75000000  1
  Pr  Pr6  1  0.34207500  0.65792500  0.25000000  1
  Pr  Pr7  1  0.65792500  0.34207500  0.75000000  1
  Si  Si8  1  0.94205900  0.05794100  0.07472700  1
  Si  Si9  1  0.05794100  0.94205900  0.92527300  1
  Si  Si10  1  0.05794100  0.94205900  0.57472700  1
  Si  Si11  1  0.94205900  0.05794100  0.42527300  1
  Si  Si12  1  0.71950600  0.28049400  0.25000000  1
  Si  Si13  1  0.28049400  0.71950600  0.75000000  1
