# generated using pymatgen
data_ThGaNi
_symmetry_space_group_name_H-M   'P 1'
_cell_length_a   7.04090647
_cell_length_b   7.04090647
_cell_length_c   4.03301600
_cell_angle_alpha   90.00000000
_cell_angle_beta   90.00000000
_cell_angle_gamma   120.00000438
_symmetry_Int_Tables_number   1
_chemical_formula_structural   ThGaNi
_chemical_formula_sum   'Th3 Ga3 Ni3'
_cell_volume   173.14809095
_cell_formula_units_Z   3
loop_
 _symmetry_equiv_pos_site_id
 _symmetry_equiv_pos_as_xyz
  1  'x, y, z'
loop_
 _atom_site_type_symbol
 _atom_site_label
 _atom_site_symmetry_multiplicity
 _atom_site_fract_x
 _atom_site_fract_y
 _atom_site_fract_z
 _atom_site_occupancy
  Th  Th0  1  0.00000000  0.41801700  0.50000000  1
  Th  Th1  1  0.58198300  0.58198300  0.50000000  1
  Th  Th2  1  0.41801700  0.00000000  0.50000000  1
  Ga  Ga3  1  0.00000000  0.76334200  0.00000000  1
  Ga  Ga4  1  0.23665800  0.23665800  0.00000000  1
  Ga  Ga5  1  0.76334200  0.00000000  0.00000000  1
  Ni  Ni6  1  0.33333300  0.66666700  0.00000000  1
  Ni  Ni7  1  0.66666700  0.33333300  0.00000000  1
  Ni  Ni8  1  0.00000000  0.00000000  0.50000000  1
