# generated using pymatgen
data_Yb2(Al3Ir)3
_symmetry_space_group_name_H-M   'P 1'
_cell_length_a   7.53815225
_cell_length_b   7.53815225
_cell_length_c   9.64154800
_cell_angle_alpha   90.00000000
_cell_angle_beta   90.00000000
_cell_angle_gamma   119.39767665
_symmetry_Int_Tables_number   1
_chemical_formula_structural   Yb2(Al3Ir)3
_chemical_formula_sum   'Yb4 Al18 Ir6'
_cell_volume   477.32177983
_cell_formula_units_Z   2
loop_
 _symmetry_equiv_pos_site_id
 _symmetry_equiv_pos_as_xyz
  1  'x, y, z'
loop_
 _atom_site_type_symbol
 _atom_site_label
 _atom_site_symmetry_multiplicity
 _atom_site_fract_x
 _atom_site_fract_y
 _atom_site_fract_z
 _atom_site_occupancy
  Yb  Yb0  1  0.99597100  0.67084100  0.25000000  1
  Yb  Yb1  1  0.00402900  0.32915900  0.75000000  1
  Yb  Yb2  1  0.67084100  0.99597100  0.25000000  1
  Yb  Yb3  1  0.32915900  0.00402900  0.75000000  1
  Al  Al4  1  0.12918200  0.12918200  0.25000000  1
  Al  Al5  1  0.87081800  0.87081800  0.75000000  1
  Al  Al6  1  0.00231400  0.33476500  0.06957900  1
  Al  Al7  1  0.99768600  0.66523500  0.93042100  1
  Al  Al8  1  0.99768600  0.66523500  0.56957900  1
  Al  Al9  1  0.33476500  0.00231400  0.43042100  1
  Al  Al10  1  0.00231400  0.33476500  0.43042100  1
  Al  Al11  1  0.66523500  0.99768600  0.56957900  1
  Al  Al12  1  0.66523500  0.99768600  0.93042100  1
  Al  Al13  1  0.33476500  0.00231400  0.06957900  1
  Al  Al14  1  0.33494100  0.33494100  0.55012900  1
  Al  Al15  1  0.66505900  0.66505900  0.44987100  1
  Al  Al16  1  0.66505900  0.66505900  0.05012900  1
  Al  Al17  1  0.33494100  0.33494100  0.94987100  1
  Al  Al18  1  0.33629600  0.54659000  0.25000000  1
  Al  Al19  1  0.66370400  0.45341000  0.75000000  1
  Al  Al20  1  0.54659000  0.33629600  0.25000000  1
  Al  Al21  1  0.45341000  0.66370400  0.75000000  1
  Ir  Ir22  1  0.67181000  0.32819000  0.00000000  1
  Ir  Ir23  1  0.32819000  0.67181000  0.00000000  1
  Ir  Ir24  1  0.32819000  0.67181000  0.50000000  1
  Ir  Ir25  1  0.67181000  0.32819000  0.50000000  1
  Ir  Ir26  1  0.00000000  0.00000000  0.00000000  1
  Ir  Ir27  1  0.00000000  0.00000000  0.50000000  1
