# generated using pymatgen
data_Hf4C3N
_symmetry_space_group_name_H-M   'P 1'
_cell_length_a   10.83665293
_cell_length_b   10.83665293
_cell_length_c   10.83665296
_cell_angle_alpha   17.37279472
_cell_angle_beta   17.37279472
_cell_angle_gamma   17.37279656
_symmetry_Int_Tables_number   1
_chemical_formula_structural   Hf4C3N
_chemical_formula_sum   'Hf4 C3 N1'
_cell_volume   99.00885119
_cell_formula_units_Z   1
loop_
 _symmetry_equiv_pos_site_id
 _symmetry_equiv_pos_as_xyz
  1  'x, y, z'
loop_
 _atom_site_type_symbol
 _atom_site_label
 _atom_site_symmetry_multiplicity
 _atom_site_fract_x
 _atom_site_fract_y
 _atom_site_fract_z
 _atom_site_occupancy
  Hf  Hf0  1  0.87445200  0.87445200  0.87445200  1
  Hf  Hf1  1  0.12554800  0.12554800  0.12554800  1
  Hf  Hf2  1  0.37631200  0.37631200  0.37631200  1
  Hf  Hf3  1  0.62368800  0.62368800  0.62368800  1
  C  C4  1  0.25164200  0.25164200  0.25164200  1
  C  C5  1  0.50000000  0.50000000  0.50000000  1
  C  C6  1  0.74835800  0.74835800  0.74835800  1
  N  N7  1  0.00000000  0.00000000  0.00000000  1
