# generated using pymatgen
data_ThRh
_symmetry_space_group_name_H-M   'P 1'
_cell_length_a   6.07142169
_cell_length_b   6.07142169
_cell_length_c   4.18803200
_cell_angle_alpha   90.00000000
_cell_angle_beta   90.00000000
_cell_angle_gamma   142.49682173
_symmetry_Int_Tables_number   1
_chemical_formula_structural   ThRh
_chemical_formula_sum   'Th2 Rh2'
_cell_volume   93.98732936
_cell_formula_units_Z   2
loop_
 _symmetry_equiv_pos_site_id
 _symmetry_equiv_pos_as_xyz
  1  'x, y, z'
loop_
 _atom_site_type_symbol
 _atom_site_label
 _atom_site_symmetry_multiplicity
 _atom_site_fract_x
 _atom_site_fract_y
 _atom_site_fract_z
 _atom_site_occupancy
  Th  Th0  1  0.86404600  0.13595400  0.25000000  1
  Th  Th1  1  0.13595400  0.86404600  0.75000000  1
  Rh  Rh2  1  0.59892500  0.40107500  0.25000000  1
  Rh  Rh3  1  0.40107500  0.59892500  0.75000000  1
