# generated using pymatgen
data_Eu(Ga4Ir)2
_symmetry_space_group_name_H-M   'P 1'
_cell_length_a   12.73049300
_cell_length_b   14.69225600
_cell_length_c   4.17501300
_cell_angle_alpha   90.00000000
_cell_angle_beta   90.00000000
_cell_angle_gamma   90.00000000
_symmetry_Int_Tables_number   1
_chemical_formula_structural   Eu(Ga4Ir)2
_chemical_formula_sum   'Eu4 Ga32 Ir8'
_cell_volume   780.89302104
_cell_formula_units_Z   4
loop_
 _symmetry_equiv_pos_site_id
 _symmetry_equiv_pos_as_xyz
  1  'x, y, z'
loop_
 _atom_site_type_symbol
 _atom_site_label
 _atom_site_symmetry_multiplicity
 _atom_site_fract_x
 _atom_site_fract_y
 _atom_site_fract_z
 _atom_site_occupancy
  Eu  Eu0  1  0.15675900  0.31963000  0.50000000  1
  Eu  Eu1  1  0.84324100  0.68037000  0.50000000  1
  Eu  Eu2  1  0.65675900  0.18037000  0.50000000  1
  Eu  Eu3  1  0.34324100  0.81963000  0.50000000  1
  Ga  Ga4  1  0.50000000  0.50000000  0.00000000  1
  Ga  Ga5  1  0.00000000  0.00000000  0.00000000  1
  Ga  Ga6  1  0.50000000  0.00000000  0.50000000  1
  Ga  Ga7  1  0.00000000  0.50000000  0.50000000  1
  Ga  Ga8  1  0.65907600  0.45647900  0.50000000  1
  Ga  Ga9  1  0.34092400  0.54352100  0.50000000  1
  Ga  Ga10  1  0.15907600  0.04352100  0.50000000  1
  Ga  Ga11  1  0.84092400  0.95647900  0.50000000  1
  Ga  Ga12  1  0.39909400  0.25147900  0.50000000  1
  Ga  Ga13  1  0.60090600  0.74852100  0.50000000  1
  Ga  Ga14  1  0.89909400  0.24852100  0.50000000  1
  Ga  Ga15  1  0.10090600  0.75147900  0.50000000  1
  Ga  Ga16  1  0.55074000  0.31510700  0.00000000  1
  Ga  Ga17  1  0.44926000  0.68489300  0.00000000  1
  Ga  Ga18  1  0.05074000  0.18489300  0.00000000  1
  Ga  Ga19  1  0.94926000  0.81510700  0.00000000  1
  Ga  Ga20  1  0.33231500  0.37649500  0.00000000  1
  Ga  Ga21  1  0.66768500  0.62350500  0.00000000  1
  Ga  Ga22  1  0.83231500  0.12350500  0.00000000  1
  Ga  Ga23  1  0.16768500  0.87649500  0.00000000  1
  Ga  Ga24  1  0.16998800  0.48685200  0.00000000  1
  Ga  Ga25  1  0.83001200  0.51314800  0.00000000  1
  Ga  Ga26  1  0.66998800  0.01314800  0.00000000  1
  Ga  Ga27  1  0.33001200  0.98685200  0.00000000  1
  Ga  Ga28  1  0.75829500  0.32292800  0.00000000  1
  Ga  Ga29  1  0.24170500  0.67707200  0.00000000  1
  Ga  Ga30  1  0.25829500  0.17707200  0.00000000  1
  Ga  Ga31  1  0.74170500  0.82292800  0.00000000  1
  Ga  Ga32  1  0.97955700  0.36686300  0.00000000  1
  Ga  Ga33  1  0.02044300  0.63313700  0.00000000  1
  Ga  Ga34  1  0.47955700  0.13313700  0.00000000  1
  Ga  Ga35  1  0.52044300  0.86686300  0.00000000  1
  Ir  Ir36  1  0.84415600  0.40511800  0.50000000  1
  Ir  Ir37  1  0.15584400  0.59488200  0.50000000  1
  Ir  Ir38  1  0.34415600  0.09488200  0.50000000  1
  Ir  Ir39  1  0.65584400  0.90511800  0.50000000  1
  Ir  Ir40  1  0.46415000  0.40299700  0.50000000  1
  Ir  Ir41  1  0.53585000  0.59700300  0.50000000  1
  Ir  Ir42  1  0.96415000  0.09700300  0.50000000  1
  Ir  Ir43  1  0.03585000  0.90299700  0.50000000  1
