# generated using pymatgen
data_Gd2Fe17
_symmetry_space_group_name_H-M   'P 1'
_cell_length_a   8.52575302
_cell_length_b   8.52575302
_cell_length_c   8.27977200
_cell_angle_alpha   90.00000000
_cell_angle_beta   90.00000000
_cell_angle_gamma   120.00000794
_symmetry_Int_Tables_number   1
_chemical_formula_structural   Gd2Fe17
_chemical_formula_sum   'Gd4 Fe34'
_cell_volume   521.21207697
_cell_formula_units_Z   2
loop_
 _symmetry_equiv_pos_site_id
 _symmetry_equiv_pos_as_xyz
  1  'x, y, z'
loop_
 _atom_site_type_symbol
 _atom_site_label
 _atom_site_symmetry_multiplicity
 _atom_site_fract_x
 _atom_site_fract_y
 _atom_site_fract_z
 _atom_site_occupancy
  Gd  Gd0  1  0.00000000  0.00000000  0.25000000  1
  Gd  Gd1  1  0.00000000  0.00000000  0.75000000  1
  Gd  Gd2  1  0.33333300  0.66666700  0.75000000  1
  Gd  Gd3  1  0.66666700  0.33333300  0.25000000  1
  Fe  Fe4  1  0.33333300  0.66666700  0.39226600  1
  Fe  Fe5  1  0.66666700  0.33333300  0.60773400  1
  Fe  Fe6  1  0.66666700  0.33333300  0.89226600  1
  Fe  Fe7  1  0.33333300  0.66666700  0.10773400  1
  Fe  Fe8  1  0.50000000  0.50000000  0.50000000  1
  Fe  Fe9  1  0.50000000  0.00000000  0.50000000  1
  Fe  Fe10  1  0.00000000  0.50000000  0.50000000  1
  Fe  Fe11  1  0.50000000  0.50000000  0.00000000  1
  Fe  Fe12  1  0.50000000  0.00000000  0.00000000  1
  Fe  Fe13  1  0.00000000  0.50000000  0.00000000  1
  Fe  Fe14  1  0.32912800  0.36770800  0.25000000  1
  Fe  Fe15  1  0.63229200  0.96142000  0.25000000  1
  Fe  Fe16  1  0.03858000  0.67087200  0.25000000  1
  Fe  Fe17  1  0.63229200  0.67087200  0.25000000  1
  Fe  Fe18  1  0.03858000  0.36770800  0.25000000  1
  Fe  Fe19  1  0.32912800  0.96142000  0.25000000  1
  Fe  Fe20  1  0.67087200  0.63229200  0.75000000  1
  Fe  Fe21  1  0.36770800  0.03858000  0.75000000  1
  Fe  Fe22  1  0.96142000  0.32912800  0.75000000  1
  Fe  Fe23  1  0.36770800  0.32912800  0.75000000  1
  Fe  Fe24  1  0.96142000  0.63229200  0.75000000  1
  Fe  Fe25  1  0.67087200  0.03858000  0.75000000  1
  Fe  Fe26  1  0.16588500  0.83411500  0.51321400  1
  Fe  Fe27  1  0.16588500  0.33176900  0.51321400  1
  Fe  Fe28  1  0.66823100  0.83411500  0.51321400  1
  Fe  Fe29  1  0.83411500  0.16588500  0.48678600  1
  Fe  Fe30  1  0.83411500  0.66823100  0.48678600  1
  Fe  Fe31  1  0.33176900  0.16588500  0.48678600  1
  Fe  Fe32  1  0.83411500  0.16588500  0.01321400  1
  Fe  Fe33  1  0.83411500  0.66823100  0.01321400  1
  Fe  Fe34  1  0.33176900  0.16588500  0.01321400  1
  Fe  Fe35  1  0.16588500  0.83411500  0.98678600  1
  Fe  Fe36  1  0.16588500  0.33176900  0.98678600  1
  Fe  Fe37  1  0.66823100  0.83411500  0.98678600  1
