# generated using pymatgen
data_Er11(In3Si2)2
_symmetry_space_group_name_H-M   'P 1'
_cell_length_a   11.37808413
_cell_length_b   11.37808413
_cell_length_c   11.37808413
_cell_angle_alpha   119.93572696
_cell_angle_beta   119.93572696
_cell_angle_gamma   90.11136026
_symmetry_Int_Tables_number   1
_chemical_formula_structural   Er11(In3Si2)2
_chemical_formula_sum   'Er22 In12 Si8'
_cell_volume   1042.58924938
_cell_formula_units_Z   2
loop_
 _symmetry_equiv_pos_site_id
 _symmetry_equiv_pos_as_xyz
  1  'x, y, z'
loop_
 _atom_site_type_symbol
 _atom_site_label
 _atom_site_symmetry_multiplicity
 _atom_site_fract_x
 _atom_site_fract_y
 _atom_site_fract_z
 _atom_site_occupancy
  Er  Er0  1  0.68365700  0.93387100  0.25021300  1
  Er  Er1  1  0.68365700  0.43344400  0.74978700  1
  Er  Er2  1  0.93387100  0.68365700  0.25021300  1
  Er  Er3  1  0.43344400  0.68365700  0.74978700  1
  Er  Er4  1  0.31634300  0.06612900  0.74978700  1
  Er  Er5  1  0.31634300  0.56655600  0.25021300  1
  Er  Er6  1  0.06612900  0.31634300  0.74978700  1
  Er  Er7  1  0.56655600  0.31634300  0.25021300  1
  Er  Er8  1  0.89820500  0.24564500  0.34744000  1
  Er  Er9  1  0.89820500  0.55076400  0.65256000  1
  Er  Er10  1  0.24564500  0.89820500  0.34744000  1
  Er  Er11  1  0.55076400  0.89820500  0.65256000  1
  Er  Er12  1  0.10179500  0.75435500  0.65256000  1
  Er  Er13  1  0.10179500  0.44923600  0.34744000  1
  Er  Er14  1  0.75435500  0.10179500  0.65256000  1
  Er  Er15  1  0.44923600  0.10179500  0.34744000  1
  Er  Er16  1  0.33181500  0.33181500  0.66362900  1
  Er  Er17  1  0.66818500  0.66818500  0.33637100  1
  Er  Er18  1  0.33181500  0.66818500  0.00000000  1
  Er  Er19  1  0.66818500  0.33181500  0.00000000  1
  Er  Er20  1  0.82940100  0.82940100  0.00000000  1
  Er  Er21  1  0.17059900  0.17059900  0.00000000  1
  In  In22  1  0.03402100  0.03402100  0.41053700  1
  In  In23  1  0.62348400  0.62348400  0.58946300  1
  In  In24  1  0.03402100  0.62348400  0.00000000  1
  In  In25  1  0.62348400  0.03402100  0.00000000  1
  In  In26  1  0.96597900  0.96597900  0.58946300  1
  In  In27  1  0.37651600  0.37651600  0.41053700  1
  In  In28  1  0.96597900  0.37651600  0.00000000  1
  In  In29  1  0.37651600  0.96597900  0.00000000  1
  In  In30  1  0.12877500  0.12877500  0.25755100  1
  In  In31  1  0.87122500  0.87122500  0.74244900  1
  In  In32  1  0.12877500  0.87122500  0.00000000  1
  In  In33  1  0.87122500  0.12877500  0.00000000  1
  Si  Si34  1  0.15225100  0.50000000  0.65225100  1
  Si  Si35  1  0.84774900  0.50000000  0.34774900  1
  Si  Si36  1  0.50000000  0.84774900  0.34774900  1
  Si  Si37  1  0.50000000  0.15225100  0.65225100  1
  Si  Si38  1  0.61520900  0.61520900  0.00000000  1
  Si  Si39  1  0.38479100  0.38479100  0.00000000  1
  Si  Si40  1  0.75000000  0.25000000  0.50000000  1
  Si  Si41  1  0.25000000  0.75000000  0.50000000  1
