# generated using pymatgen
data_YbNiO3
_symmetry_space_group_name_H-M   'P 1'
_cell_length_a   5.18781100
_cell_length_b   5.39532800
_cell_length_c   7.39559800
_cell_angle_alpha   90.00000000
_cell_angle_beta   90.00000000
_cell_angle_gamma   90.00000000
_symmetry_Int_Tables_number   1
_chemical_formula_structural   YbNiO3
_chemical_formula_sum   'Yb4 Ni4 O12'
_cell_volume   207.00235868
_cell_formula_units_Z   4
loop_
 _symmetry_equiv_pos_site_id
 _symmetry_equiv_pos_as_xyz
  1  'x, y, z'
loop_
 _atom_site_type_symbol
 _atom_site_label
 _atom_site_symmetry_multiplicity
 _atom_site_fract_x
 _atom_site_fract_y
 _atom_site_fract_z
 _atom_site_occupancy
  Yb  Yb0  1  0.51920600  0.93237200  0.75000000  1
  Yb  Yb1  1  0.01920600  0.56762800  0.25000000  1
  Yb  Yb2  1  0.98079400  0.43237200  0.75000000  1
  Yb  Yb3  1  0.48079400  0.06762800  0.25000000  1
  Ni  Ni4  1  0.50000000  0.50000000  0.50000000  1
  Ni  Ni5  1  0.00000000  0.00000000  0.50000000  1
  Ni  Ni6  1  0.00000000  0.00000000  0.00000000  1
  Ni  Ni7  1  0.50000000  0.50000000  0.00000000  1
  O  O8  1  0.19619400  0.29717200  0.45747200  1
  O  O9  1  0.69619400  0.20282800  0.54252800  1
  O  O10  1  0.30380600  0.79717200  0.04252800  1
  O  O11  1  0.80380600  0.70282800  0.95747200  1
  O  O12  1  0.80380600  0.70282800  0.54252800  1
  O  O13  1  0.30380600  0.79717200  0.45747200  1
  O  O14  1  0.69619400  0.20282800  0.95747200  1
  O  O15  1  0.19619400  0.29717200  0.04252800  1
  O  O16  1  0.58645800  0.48590400  0.25000000  1
  O  O17  1  0.08645800  0.01409600  0.75000000  1
  O  O18  1  0.91354200  0.98590400  0.25000000  1
  O  O19  1  0.41354200  0.51409600  0.75000000  1
