# generated using pymatgen
data_SmMn2O5
_symmetry_space_group_name_H-M   'P 1'
_cell_length_a   5.81419900
_cell_length_b   7.50549600
_cell_length_c   8.67377000
_cell_angle_alpha   90.00000000
_cell_angle_beta   90.00000000
_cell_angle_gamma   90.00000000
_symmetry_Int_Tables_number   1
_chemical_formula_structural   SmMn2O5
_chemical_formula_sum   'Sm4 Mn8 O20'
_cell_volume   378.50985536
_cell_formula_units_Z   4
loop_
 _symmetry_equiv_pos_site_id
 _symmetry_equiv_pos_as_xyz
  1  'x, y, z'
loop_
 _atom_site_type_symbol
 _atom_site_label
 _atom_site_symmetry_multiplicity
 _atom_site_fract_x
 _atom_site_fract_y
 _atom_site_fract_z
 _atom_site_occupancy
  Sm  Sm0  1  0.00000000  0.36039600  0.67149600  1
  Sm  Sm1  1  0.00000000  0.63960400  0.32850400  1
  Sm  Sm2  1  0.00000000  0.86039600  0.82850400  1
  Sm  Sm3  1  0.00000000  0.13960400  0.17149600  1
  Mn  Mn4  1  0.50000000  0.08974500  0.84978900  1
  Mn  Mn5  1  0.50000000  0.91025500  0.15021100  1
  Mn  Mn6  1  0.50000000  0.58974500  0.65021100  1
  Mn  Mn7  1  0.50000000  0.41025500  0.34978900  1
  Mn  Mn8  1  0.25548100  0.50000000  0.00000000  1
  Mn  Mn9  1  0.74451900  0.00000000  0.50000000  1
  Mn  Mn10  1  0.74451900  0.50000000  0.00000000  1
  Mn  Mn11  1  0.25548100  0.00000000  0.50000000  1
  O  O12  1  0.24449200  0.89779200  0.29315600  1
  O  O13  1  0.24449200  0.10220800  0.70684400  1
  O  O14  1  0.75550800  0.39779200  0.20684400  1
  O  O15  1  0.75550800  0.60220800  0.79315600  1
  O  O16  1  0.75550800  0.10220800  0.70684400  1
  O  O17  1  0.75550800  0.89779200  0.29315600  1
  O  O18  1  0.24449200  0.60220800  0.79315600  1
  O  O19  1  0.24449200  0.39779200  0.20684400  1
  O  O20  1  0.50000000  0.34839100  0.93355300  1
  O  O21  1  0.50000000  0.65160900  0.06644700  1
  O  O22  1  0.50000000  0.84839100  0.56644700  1
  O  O23  1  0.50000000  0.15160900  0.43355300  1
  O  O24  1  0.27423200  0.00000000  0.00000000  1
  O  O25  1  0.72576800  0.50000000  0.50000000  1
  O  O26  1  0.72576800  0.00000000  0.00000000  1
  O  O27  1  0.27423200  0.50000000  0.50000000  1
  O  O28  1  0.00000000  0.16031500  0.44558800  1
  O  O29  1  0.00000000  0.83968500  0.55441200  1
  O  O30  1  0.00000000  0.66031500  0.05441200  1
  O  O31  1  0.00000000  0.33968500  0.94558800  1
