# generated using pymatgen
data_NaEuTi8(PO4)12
_symmetry_space_group_name_H-M   'P 1'
_cell_length_a   8.52750079
_cell_length_b   12.28270880
_cell_length_c   8.83764579
_cell_angle_alpha   87.20494525
_cell_angle_beta   89.95098449
_cell_angle_gamma   90.01265638
_symmetry_Int_Tables_number   1
_chemical_formula_structural   NaEuTi8(PO4)12
_chemical_formula_sum   'Na1 Eu1 Ti8 P12 O48'
_cell_volume   924.56058596
_cell_formula_units_Z   1
loop_
 _symmetry_equiv_pos_site_id
 _symmetry_equiv_pos_as_xyz
  1  'x, y, z'
loop_
 _atom_site_type_symbol
 _atom_site_label
 _atom_site_symmetry_multiplicity
 _atom_site_fract_x
 _atom_site_fract_y
 _atom_site_fract_z
 _atom_site_occupancy
  Na  Na0  1  0.99967800  0.99978200  0.00010600  1
  Eu  Eu1  1  0.50017400  0.50003800  0.49997900  1
  Ti  Ti2  1  0.00060200  0.36141300  0.72431000  1
  Ti  Ti3  1  0.49961800  0.86284300  0.22517200  1
  Ti  Ti4  1  0.99951100  0.63848900  0.27575900  1
  Ti  Ti5  1  0.50034600  0.13719800  0.77492500  1
  Ti  Ti6  1  0.49921400  0.34914700  0.19967300  1
  Ti  Ti7  1  0.00078600  0.85579100  0.70973300  1
  Ti  Ti8  1  0.50072100  0.65088400  0.80031900  1
  Ti  Ti9  1  0.99928100  0.14420600  0.28997400  1
  P  P10  1  0.21405700  0.24347500  0.99676300  1
  P  P11  1  0.71689000  0.74436800  0.49863800  1
  P  P12  1  0.63860800  0.39108700  0.84891600  1
  P  P13  1  0.13608700  0.89135100  0.35215600  1
  P  P14  1  0.14662600  0.60715500  0.63555700  1
  P  P15  1  0.64809700  0.10592700  0.13385700  1
  P  P16  1  0.78586700  0.75659100  0.00335200  1
  P  P17  1  0.28300200  0.25568700  0.50138600  1
  P  P18  1  0.36162800  0.60894900  0.15114900  1
  P  P19  1  0.86384100  0.10865800  0.64754500  1
  P  P20  1  0.85339400  0.39274100  0.36442500  1
  P  P21  1  0.35183600  0.89409000  0.86625200  1
  O  O22  1  0.95397400  0.48469900  0.28927100  1
  O  O23  1  0.45494600  0.98429000  0.79002200  1
  O  O24  1  0.86289900  0.66699600  0.10698900  1
  O  O25  1  0.36240700  0.16763400  0.60528200  1
  O  O26  1  0.18229600  0.62114400  0.15122200  1
  O  O27  1  0.68330300  0.12235900  0.65217400  1
  O  O28  1  0.04608900  0.51528100  0.71081000  1
  O  O29  1  0.54517200  0.01570900  0.21010500  1
  O  O30  1  0.13713700  0.33300200  0.89312400  1
  O  O31  1  0.63759100  0.83242600  0.39486300  1
  O  O32  1  0.81786900  0.37889800  0.84883000  1
  O  O33  1  0.31648600  0.87768200  0.34787500  1
  O  O34  1  0.91313300  0.82275700  0.91720500  1
  O  O35  1  0.41504100  0.32413400  0.41819900  1
  O  O36  1  0.40606900  0.50157500  0.24179000  1
  O  O37  1  0.90809800  0.00219900  0.73690600  1
  O  O38  1  0.67744000  0.41737000  0.32533000  1
  O  O39  1  0.17908200  0.91494200  0.82570200  1
  O  O40  1  0.08691000  0.17729200  0.08285200  1
  O  O41  1  0.58488500  0.67591900  0.58188600  1
  O  O42  1  0.59405600  0.49841600  0.75825500  1
  O  O43  1  0.09171700  0.99774600  0.26284700  1
  O  O44  1  0.32260900  0.58265700  0.67459900  1
  O  O45  1  0.82089100  0.08513100  0.17408600  1
  O  O46  1  0.31420700  0.30395900  0.11401400  1
  O  O47  1  0.81561100  0.80028400  0.61747100  1
  O  O48  1  0.58683600  0.40107900  0.01556300  1
  O  O49  1  0.08699500  0.90002600  0.51952000  1
  O  O50  1  0.10077300  0.71561000  0.70254500  1
  O  O51  1  0.59680300  0.21497200  0.20228800  1
  O  O52  1  0.68571300  0.69606900  0.88606300  1
  O  O53  1  0.18433700  0.19967100  0.38268300  1
  O  O54  1  0.41329000  0.59892900  0.98448500  1
  O  O55  1  0.91275700  0.09997400  0.48020400  1
  O  O56  1  0.89930900  0.28438900  0.29724000  1
  O  O57  1  0.40315100  0.78503900  0.79783200  1
  O  O58  1  0.63004500  0.11504300  0.96139900  1
  O  O59  1  0.13563100  0.61099800  0.46190600  1
  O  O60  1  0.31827400  0.16702600  0.90916100  1
  O  O61  1  0.81322800  0.66247400  0.41096800  1
  O  O62  1  0.55190100  0.29904500  0.77361400  1
  O  O63  1  0.05150000  0.79520500  0.28268800  1
  O  O64  1  0.36986000  0.88497700  0.03855700  1
  O  O65  1  0.86433900  0.38883500  0.53806400  1
  O  O66  1  0.68186300  0.83312000  0.09086600  1
  O  O67  1  0.18674200  0.33755900  0.58907500  1
  O  O68  1  0.44832400  0.70091200  0.22641900  1
  O  O69  1  0.94855000  0.20467700  0.71720900  1
