# generated using pymatgen
data_KMnSn3O8
_symmetry_space_group_name_H-M   'P 1'
_cell_length_a   6.47081754
_cell_length_b   7.65143406
_cell_length_c   7.58781425
_cell_angle_alpha   92.07896326
_cell_angle_beta   76.61813837
_cell_angle_gamma   100.20982448
_symmetry_Int_Tables_number   1
_chemical_formula_structural   KMnSn3O8
_chemical_formula_sum   'K2 Mn2 Sn6 O16'
_cell_volume   359.68877819
_cell_formula_units_Z   2
loop_
 _symmetry_equiv_pos_site_id
 _symmetry_equiv_pos_as_xyz
  1  'x, y, z'
loop_
 _atom_site_type_symbol
 _atom_site_label
 _atom_site_symmetry_multiplicity
 _atom_site_fract_x
 _atom_site_fract_y
 _atom_site_fract_z
 _atom_site_occupancy
  K  K0  1  0.25445800  0.98755800  0.97952300  1
  K  K1  1  0.75451400  0.98753800  0.97935500  1
  Mn  Mn2  1  0.32340000  0.81768500  0.51363100  1
  Mn  Mn3  1  0.82322200  0.81755900  0.51358800  1
  Sn  Sn4  1  0.17677800  0.17110100  0.48635800  1
  Sn  Sn5  1  0.67680700  0.17111500  0.48634300  1
  Sn  Sn6  1  0.91989400  0.49327100  0.81049200  1
  Sn  Sn7  1  0.41986200  0.49325000  0.81049100  1
  Sn  Sn8  1  0.57144300  0.52175800  0.19412100  1
  Sn  Sn9  1  0.07146200  0.52178200  0.19412300  1
  O  O10  1  0.22824600  0.62777600  0.70304700  1
  O  O11  1  0.72825000  0.62777100  0.70304300  1
  O  O12  1  0.26490000  0.37343400  0.29433200  1
  O  O13  1  0.76491500  0.37344200  0.29432900  1
  O  O14  1  0.91899400  0.29089900  0.62436500  1
  O  O15  1  0.41900300  0.29089700  0.62435600  1
  O  O16  1  0.56262000  0.71001800  0.38417700  1
  O  O17  1  0.06262300  0.71002900  0.38419000  1
  O  O18  1  0.93384400  0.04350000  0.35478600  1
  O  O19  1  0.43384500  0.04351600  0.35477700  1
  O  O20  1  0.60551200  0.94957400  0.65116100  1
  O  O21  1  0.10563900  0.94985100  0.65137100  1
  O  O22  1  0.38694500  0.64957600  0.05051600  1
  O  O23  1  0.88691300  0.64958600  0.05048200  1
  O  O24  1  0.10295400  0.36375600  0.95352400  1
  O  O25  1  0.60295900  0.36375400  0.95351800  1
