# generated using pymatgen
data_Tl2Mo2P2O11
_symmetry_space_group_name_H-M   'P 1'
_cell_length_a   10.38681600
_cell_length_b   10.13783800
_cell_length_c   10.14154323
_cell_angle_alpha   82.30742660
_cell_angle_beta   90.00000000
_cell_angle_gamma   90.00000000
_symmetry_Int_Tables_number   1
_chemical_formula_structural   Tl2Mo2P2O11
_chemical_formula_sum   'Tl8 Mo8 P8 O44'
_cell_volume   1058.29252980
_cell_formula_units_Z   4
loop_
 _symmetry_equiv_pos_site_id
 _symmetry_equiv_pos_as_xyz
  1  'x, y, z'
loop_
 _atom_site_type_symbol
 _atom_site_label
 _atom_site_symmetry_multiplicity
 _atom_site_fract_x
 _atom_site_fract_y
 _atom_site_fract_z
 _atom_site_occupancy
  Tl  Tl0  1  0.50000200  0.74983500  0.00047500  1
  Tl  Tl1  1  0.00000200  0.25016500  0.99952500  1
  Tl  Tl2  1  0.32045400  0.46936600  0.76015100  1
  Tl  Tl3  1  0.82045400  0.53063400  0.23984900  1
  Tl  Tl4  1  0.67553500  0.03980600  0.24278400  1
  Tl  Tl5  1  0.17553500  0.96019400  0.75721600  1
  Tl  Tl6  1  0.41937800  0.24291800  0.51766700  1
  Tl  Tl7  1  0.91937800  0.75708200  0.48233300  1
  Mo  Mo8  1  0.41473500  0.61544700  0.34643800  1
  Mo  Mo9  1  0.91473500  0.38455300  0.65356200  1
  Mo  Mo10  1  0.58450700  0.88589600  0.65428500  1
  Mo  Mo11  1  0.08450700  0.11410400  0.34571500  1
  Mo  Mo12  1  0.17730800  0.60209200  0.07725900  1
  Mo  Mo13  1  0.67730800  0.39790800  0.92274100  1
  Mo  Mo14  1  0.82248600  0.89794300  0.92322000  1
  Mo  Mo15  1  0.32248600  0.10205700  0.07678000  1
  P  P16  1  0.12475400  0.43500500  0.39530500  1
  P  P17  1  0.62475400  0.56499500  0.60469500  1
  P  P18  1  0.87572900  0.06529900  0.60498200  1
  P  P19  1  0.37572900  0.93470100  0.39501800  1
  P  P20  1  0.42355900  0.39669300  0.12624200  1
  P  P21  1  0.92355900  0.60330700  0.87375800  1
  P  P22  1  0.57638700  0.10316500  0.87451900  1
  P  P23  1  0.07638700  0.89683500  0.12548100  1
  O  O24  1  0.05450600  0.74499300  0.13309500  1
  O  O25  1  0.55450600  0.25500700  0.86690500  1
  O  O26  1  0.94525000  0.75522900  0.86669900  1
  O  O27  1  0.44525000  0.24477100  0.13330100  1
  O  O28  1  0.35060100  0.78279000  0.42410000  1
  O  O29  1  0.85060100  0.21721000  0.57590000  1
  O  O30  1  0.65120200  0.71817600  0.57571200  1
  O  O31  1  0.15120200  0.28182400  0.42428800  1
  O  O32  1  0.28566600  0.43205100  0.07229900  1
  O  O33  1  0.78566600  0.56794900  0.92770100  1
  O  O34  1  0.71439300  0.06808700  0.92746600  1
  O  O35  1  0.21439300  0.93191300  0.07253400  1
  O  O36  1  0.23383400  0.68022200  0.92379500  1
  O  O37  1  0.73383400  0.31977800  0.07620500  1
  O  O38  1  0.76629600  0.81956000  0.07645400  1
  O  O39  1  0.26629600  0.18044000  0.92354600  1
  O  O40  1  0.09251500  0.48029900  0.24654700  1
  O  O41  1  0.59251500  0.51970100  0.75345300  1
  O  O42  1  0.90780900  0.01964400  0.75373100  1
  O  O43  1  0.40780900  0.98035600  0.24626900  1
  O  O44  1  0.50101700  0.53062700  0.52785100  1
  O  O45  1  0.00101700  0.46937300  0.47214900  1
  O  O46  1  0.49918000  0.97175700  0.47245600  1
  O  O47  1  0.99918000  0.02824300  0.52754400  1
  O  O48  1  0.30191700  0.66616000  0.19637000  1
  O  O49  1  0.80191700  0.33384000  0.80363000  1
  O  O50  1  0.69819600  0.83408400  0.80323000  1
  O  O51  1  0.19819600  0.16591600  0.19677000  1
  O  O52  1  0.01946300  0.52672000  0.97480600  1
  O  O53  1  0.51946300  0.47328000  0.02519400  1
  O  O54  1  0.98080600  0.97318800  0.02403900  1
  O  O55  1  0.48080600  0.02681200  0.97596100  1
  O  O56  1  0.44567500  0.43327900  0.26860400  1
  O  O57  1  0.94567500  0.56672100  0.73139600  1
  O  O58  1  0.55304900  0.06543900  0.73266200  1
  O  O59  1  0.05304900  0.93456100  0.26733800  1
  O  O60  1  0.56161700  0.68192800  0.28850300  1
  O  O61  1  0.06161700  0.31807200  0.71149700  1
  O  O62  1  0.43857300  0.81652700  0.71117600  1
  O  O63  1  0.93857300  0.18347300  0.28882400  1
  O  O64  1  0.24485500  0.50641200  0.44181000  1
  O  O65  1  0.74485500  0.49358800  0.55819000  1
  O  O66  1  0.75894400  0.98816000  0.55805000  1
  O  O67  1  0.25894400  0.01184000  0.44195000  1
