# generated using pymatgen
data_Sn21H14(Cl4O5)4
_symmetry_space_group_name_H-M   'P 1'
_cell_length_a   16.05612549
_cell_length_b   16.05612549
_cell_length_c   16.05612604
_cell_angle_alpha   37.24357601
_cell_angle_beta   37.24357601
_cell_angle_gamma   37.24357512
_symmetry_Int_Tables_number   1
_chemical_formula_structural   Sn21H14(Cl4O5)4
_chemical_formula_sum   'Sn21 H14 Cl16 O20'
_cell_volume   1359.04202198
_cell_formula_units_Z   1
loop_
 _symmetry_equiv_pos_site_id
 _symmetry_equiv_pos_as_xyz
  1  'x, y, z'
loop_
 _atom_site_type_symbol
 _atom_site_label
 _atom_site_symmetry_multiplicity
 _atom_site_fract_x
 _atom_site_fract_y
 _atom_site_fract_z
 _atom_site_occupancy
  Sn  Sn0  1  0.69574700  0.69574700  0.69574700  1
  Sn  Sn1  1  0.30425300  0.30425300  0.30425300  1
  Sn  Sn2  1  0.93134100  0.93134100  0.93134100  1
  Sn  Sn3  1  0.06865900  0.06865900  0.06865900  1
  Sn  Sn4  1  0.41102400  0.41102400  0.41102400  1
  Sn  Sn5  1  0.58897600  0.58897600  0.58897600  1
  Sn  Sn6  1  0.00000000  0.26587400  0.73412600  1
  Sn  Sn7  1  0.26587400  0.73412600  0.00000000  1
  Sn  Sn8  1  0.73412600  0.00000000  0.26587400  1
  Sn  Sn9  1  0.76729200  0.50037000  0.01700300  1
  Sn  Sn10  1  0.50037000  0.01700300  0.76729200  1
  Sn  Sn11  1  0.01700300  0.76729200  0.50037000  1
  Sn  Sn12  1  0.23270800  0.98299700  0.49963000  1
  Sn  Sn13  1  0.49963000  0.23270800  0.98299700  1
  Sn  Sn14  1  0.98299700  0.49963000  0.23270800  1
  Sn  Sn15  1  0.31283200  0.91087400  0.16858100  1
  Sn  Sn16  1  0.91087400  0.16858100  0.31283200  1
  Sn  Sn17  1  0.16858100  0.31283200  0.91087400  1
  Sn  Sn18  1  0.68716800  0.83141900  0.08912600  1
  Sn  Sn19  1  0.08912600  0.68716800  0.83141900  1
  Sn  Sn20  1  0.83141900  0.08912600  0.68716800  1
  H  H21  1  0.82413700  0.82413700  0.82413700  1
  H  H22  1  0.17586300  0.17586300  0.17586300  1
  H  H23  1  0.46104300  0.15306000  0.43369500  1
  H  H24  1  0.15306000  0.43369500  0.46104300  1
  H  H25  1  0.43369500  0.46104300  0.15306000  1
  H  H26  1  0.53895700  0.56630500  0.84694000  1
  H  H27  1  0.84694000  0.53895700  0.56630500  1
  H  H28  1  0.56630500  0.84694000  0.53895700  1
  H  H29  1  0.47887800  0.30132800  0.60294300  1
  H  H30  1  0.30132800  0.60294300  0.47887800  1
  H  H31  1  0.60294300  0.47887800  0.30132800  1
  H  H32  1  0.52112200  0.39705700  0.69867200  1
  H  H33  1  0.69867200  0.52112200  0.39705700  1
  H  H34  1  0.39705700  0.69867200  0.52112200  1
  Cl  Cl35  1  0.50000000  0.50000000  0.50000000  1
  Cl  Cl36  1  0.50000000  0.12507600  0.87492400  1
  Cl  Cl37  1  0.12507600  0.87492400  0.50000000  1
  Cl  Cl38  1  0.87492400  0.50000000  0.12507600  1
  Cl  Cl39  1  0.04672900  0.70309300  0.37336800  1
  Cl  Cl40  1  0.70309300  0.37336800  0.04672900  1
  Cl  Cl41  1  0.37336800  0.04672900  0.70309300  1
  Cl  Cl42  1  0.95327100  0.62663200  0.29690700  1
  Cl  Cl43  1  0.29690700  0.95327100  0.62663200  1
  Cl  Cl44  1  0.62663200  0.29690700  0.95327100  1
  Cl  Cl45  1  0.39224200  0.74776400  0.05617000  1
  Cl  Cl46  1  0.74776400  0.05617000  0.39224200  1
  Cl  Cl47  1  0.05617000  0.39224200  0.74776400  1
  Cl  Cl48  1  0.60775800  0.94383000  0.25223600  1
  Cl  Cl49  1  0.25223600  0.60775800  0.94383000  1
  Cl  Cl50  1  0.94383000  0.25223600  0.60775800  1
  O  O51  1  0.84585500  0.84585500  0.84585500  1
  O  O52  1  0.15414500  0.15414500  0.15414500  1
  O  O53  1  0.91615000  0.72816900  0.04360400  1
  O  O54  1  0.72816900  0.04360400  0.91615000  1
  O  O55  1  0.04360400  0.91615000  0.72816900  1
  O  O56  1  0.08385000  0.95639600  0.27183100  1
  O  O57  1  0.27183100  0.08385000  0.95639600  1
  O  O58  1  0.95639600  0.27183100  0.08385000  1
  O  O59  1  0.43696300  0.26642200  0.61706600  1
  O  O60  1  0.26642200  0.61706600  0.43696300  1
  O  O61  1  0.61706600  0.43696300  0.26642200  1
  O  O62  1  0.56303700  0.38293400  0.73357800  1
  O  O63  1  0.73357800  0.56303700  0.38293400  1
  O  O64  1  0.38293400  0.73357800  0.56303700  1
  O  O65  1  0.66557000  0.82816700  0.49984200  1
  O  O66  1  0.82816700  0.49984200  0.66557000  1
  O  O67  1  0.49984200  0.66557000  0.82816700  1
  O  O68  1  0.33443000  0.50015800  0.17183300  1
  O  O69  1  0.17183300  0.33443000  0.50015800  1
  O  O70  1  0.50015800  0.17183300  0.33443000  1
