# generated using pymatgen
data_Cs3Cu5O4
_symmetry_space_group_name_H-M   'P 1'
_cell_length_a   7.65222200
_cell_length_b   10.43187600
_cell_length_c   14.90737965
_cell_angle_alpha   73.76047398
_cell_angle_beta   90.00000000
_cell_angle_gamma   90.00000000
_symmetry_Int_Tables_number   1
_chemical_formula_structural   Cs3Cu5O4
_chemical_formula_sum   'Cs12 Cu20 O16'
_cell_volume   1142.53156603
_cell_formula_units_Z   4
loop_
 _symmetry_equiv_pos_site_id
 _symmetry_equiv_pos_as_xyz
  1  'x, y, z'
loop_
 _atom_site_type_symbol
 _atom_site_label
 _atom_site_symmetry_multiplicity
 _atom_site_fract_x
 _atom_site_fract_y
 _atom_site_fract_z
 _atom_site_occupancy
  Cs  Cs0  1  0.09099100  0.32213100  0.10845500  1
  Cs  Cs1  1  0.59099100  0.67786900  0.39154500  1
  Cs  Cs2  1  0.90900900  0.67786900  0.89154500  1
  Cs  Cs3  1  0.40900900  0.32213100  0.60845500  1
  Cs  Cs4  1  0.70103600  0.27688900  0.91724400  1
  Cs  Cs5  1  0.20103600  0.72311100  0.58275600  1
  Cs  Cs6  1  0.29896400  0.72311100  0.08275600  1
  Cs  Cs7  1  0.79896400  0.27688900  0.41724400  1
  Cs  Cs8  1  0.17238500  0.10316200  0.90591700  1
  Cs  Cs9  1  0.67238500  0.89683800  0.59408300  1
  Cs  Cs10  1  0.82761500  0.89683800  0.09408300  1
  Cs  Cs11  1  0.32761500  0.10316200  0.40591700  1
  Cu  Cu12  1  0.07930600  0.06620000  0.62852200  1
  Cu  Cu13  1  0.04346600  0.42932700  0.76793100  1
  Cu  Cu14  1  0.95653400  0.57067300  0.23206900  1
  Cu  Cu15  1  0.45653400  0.42932700  0.26793100  1
  Cu  Cu16  1  0.67452400  0.06378100  0.25997200  1
  Cu  Cu17  1  0.17452400  0.93621900  0.24002800  1
  Cu  Cu18  1  0.32547600  0.93621900  0.74002800  1
  Cu  Cu19  1  0.82547600  0.06378100  0.75997200  1
  Cu  Cu20  1  0.79354500  0.52937000  0.62733900  1
  Cu  Cu21  1  0.29354500  0.47063000  0.87266100  1
  Cu  Cu22  1  0.20645500  0.47063000  0.37266100  1
  Cu  Cu23  1  0.70645500  0.52937000  0.12733900  1
  Cu  Cu24  1  0.93599800  0.29434700  0.64361100  1
  Cu  Cu25  1  0.43599800  0.70565300  0.85638900  1
  Cu  Cu26  1  0.06400200  0.70565300  0.35638900  1
  Cu  Cu27  1  0.56400200  0.29434700  0.14361100  1
  Cu  Cu28  1  0.92069400  0.93380000  0.37147800  1
  Cu  Cu29  1  0.42069400  0.06620000  0.12852200  1
  Cu  Cu30  1  0.54346600  0.57067300  0.73206900  1
  Cu  Cu31  1  0.57930600  0.93380000  0.87147800  1
  O  O32  1  0.42582800  0.39834600  0.39412100  1
  O  O33  1  0.92582800  0.60165400  0.10587900  1
  O  O34  1  0.57417200  0.60165400  0.60587900  1
  O  O35  1  0.07417200  0.39834600  0.89412100  1
  O  O36  1  0.29747100  0.00417200  0.61407400  1
  O  O37  1  0.79747100  0.99582800  0.88592600  1
  O  O38  1  0.70252900  0.99582800  0.38592600  1
  O  O39  1  0.20252900  0.00417200  0.11407400  1
  O  O40  1  0.85371800  0.13291500  0.63135200  1
  O  O41  1  0.35371800  0.86708500  0.86864800  1
  O  O42  1  0.14628200  0.86708500  0.36864800  1
  O  O43  1  0.64628200  0.13291500  0.13135200  1
  O  O44  1  0.52001300  0.53849500  0.85972500  1
  O  O45  1  0.02001300  0.46150500  0.64027500  1
  O  O46  1  0.47998700  0.46150500  0.14027500  1
  O  O47  1  0.97998700  0.53849500  0.35972500  1
