# generated using pymatgen
data_LuIn2Pd
_symmetry_space_group_name_H-M   'P 1'
_cell_length_a   10.74665436
_cell_length_b   10.74665436
_cell_length_c   10.74665436
_cell_angle_alpha   100.37659378
_cell_angle_beta   100.37659378
_cell_angle_gamma   129.77432434
_symmetry_Int_Tables_number   1
_chemical_formula_structural   LuIn2Pd
_chemical_formula_sum   'Lu10 In20 Pd10'
_cell_volume   863.73256341
_cell_formula_units_Z   10
loop_
 _symmetry_equiv_pos_site_id
 _symmetry_equiv_pos_as_xyz
  1  'x, y, z'
loop_
 _atom_site_type_symbol
 _atom_site_label
 _atom_site_symmetry_multiplicity
 _atom_site_fract_x
 _atom_site_fract_y
 _atom_site_fract_z
 _atom_site_occupancy
  Lu  Lu0  1  0.66987600  0.38924300  0.28063300  1
  Lu  Lu1  1  0.10861000  0.38924300  0.71936700  1
  Lu  Lu2  1  0.38924300  0.66987600  0.28063300  1
  Lu  Lu3  1  0.38924300  0.10861000  0.71936700  1
  Lu  Lu4  1  0.67667700  0.67667700  0.59710900  1
  Lu  Lu5  1  0.07956700  0.07956700  0.40289100  1
  Lu  Lu6  1  0.07956700  0.67667700  0.00000000  1
  Lu  Lu7  1  0.67667700  0.07956700  0.00000000  1
  Lu  Lu8  1  0.45664900  0.45664900  0.00000000  1
  Lu  Lu9  1  0.99505800  0.99505800  0.00000000  1
  In  In10  1  0.26868000  0.47688500  0.49283400  1
  In  In11  1  0.98405100  0.77584600  0.50716600  1
  In  In12  1  0.77584600  0.26868000  0.79179500  1
  In  In13  1  0.26868000  0.77584600  0.79179500  1
  In  In14  1  0.47688500  0.98405100  0.20820500  1
  In  In15  1  0.98405100  0.47688500  0.20820500  1
  In  In16  1  0.77584600  0.98405100  0.50716600  1
  In  In17  1  0.47688500  0.26868000  0.49283400  1
  In  In18  1  0.24826100  0.86551700  0.38274400  1
  In  In19  1  0.48277300  0.86551700  0.61725600  1
  In  In20  1  0.86551700  0.24826100  0.38274400  1
  In  In21  1  0.86551700  0.48277300  0.61725600  1
  In  In22  1  0.35779700  0.35779700  0.26348000  1
  In  In23  1  0.09431800  0.09431800  0.73652000  1
  In  In24  1  0.09431800  0.35779700  0.00000000  1
  In  In25  1  0.35779700  0.09431800  0.00000000  1
  In  In26  1  0.87993400  0.71940000  0.16053400  1
  In  In27  1  0.55886500  0.71940000  0.83946600  1
  In  In28  1  0.71940000  0.87993400  0.16053400  1
  In  In29  1  0.71940000  0.55886500  0.83946600  1
  Pd  Pd30  1  0.11493400  0.61493400  0.50000000  1
  Pd  Pd31  1  0.61493400  0.11493400  0.50000000  1
  Pd  Pd32  1  0.37066100  0.37066100  0.67763700  1
  Pd  Pd33  1  0.69302300  0.69302300  0.32236300  1
  Pd  Pd34  1  0.69302300  0.37066100  0.00000000  1
  Pd  Pd35  1  0.37066100  0.69302300  0.00000000  1
  Pd  Pd36  1  0.23658600  0.02496900  0.21161700  1
  Pd  Pd37  1  0.81335200  0.02496900  0.78838300  1
  Pd  Pd38  1  0.02496900  0.23658600  0.21161700  1
  Pd  Pd39  1  0.02496900  0.81335200  0.78838300  1
