# generated using pymatgen
data_La8Si5N14O
_symmetry_space_group_name_H-M   'P 1'
_cell_length_a   5.77478100
_cell_length_b   11.45035267
_cell_length_c   13.51545305
_cell_angle_alpha   112.19238216
_cell_angle_beta   89.98931702
_cell_angle_gamma   90.87841921
_symmetry_Int_Tables_number   1
_chemical_formula_structural   La8Si5N14O
_chemical_formula_sum   'La16 Si10 N28 O2'
_cell_volume   827.37012942
_cell_formula_units_Z   2
loop_
 _symmetry_equiv_pos_site_id
 _symmetry_equiv_pos_as_xyz
  1  'x, y, z'
loop_
 _atom_site_type_symbol
 _atom_site_label
 _atom_site_symmetry_multiplicity
 _atom_site_fract_x
 _atom_site_fract_y
 _atom_site_fract_z
 _atom_site_occupancy
  La  La0  1  0.75796500  0.78876600  0.79911600  1
  La  La1  1  0.24203500  0.21123400  0.20088400  1
  La  La2  1  0.31799200  0.89423300  0.58472100  1
  La  La3  1  0.68200800  0.10576700  0.41527900  1
  La  La4  1  0.76254600  0.41851000  0.67168200  1
  La  La5  1  0.23745400  0.58149000  0.32831800  1
  La  La6  1  0.75314300  0.61315700  0.51475700  1
  La  La7  1  0.24685700  0.38684300  0.48524300  1
  La  La8  1  0.20291400  0.31561900  0.95965900  1
  La  La9  1  0.79708600  0.68438100  0.04034100  1
  La  La10  1  0.25855500  0.58342800  0.84322200  1
  La  La11  1  0.74144500  0.41657200  0.15677800  1
  La  La12  1  0.80513300  0.09863000  0.72197700  1
  La  La13  1  0.19486700  0.90137000  0.27802300  1
  La  La14  1  0.25497400  0.00248400  0.90462600  1
  La  La15  1  0.74502600  0.99751600  0.09537400  1
  Si  Si16  1  0.66773800  0.40667400  0.89278500  1
  Si  Si17  1  0.33226200  0.59332600  0.10721500  1
  Si  Si18  1  0.26690400  0.66373300  0.65039900  1
  Si  Si19  1  0.73309600  0.33626700  0.34960100  1
  Si  Si20  1  0.80946400  0.87258800  0.48030500  1
  Si  Si21  1  0.19053600  0.12741200  0.51969500  1
  Si  Si22  1  0.30891800  0.22176800  0.70592700  1
  Si  Si23  1  0.69108200  0.77823200  0.29407300  1
  Si  Si24  1  0.73482500  0.16532100  0.96712300  1
  Si  Si25  1  0.26517500  0.83467900  0.03287700  1
  N  N26  1  0.88758500  0.49751100  0.86957100  1
  N  N27  1  0.11241500  0.50248900  0.13042900  1
  N  N28  1  0.45889900  0.12229400  0.58933300  1
  N  N29  1  0.54110100  0.87770600  0.41066700  1
  N  N30  1  0.91227400  0.74181300  0.37048300  1
  N  N31  1  0.08772600  0.25818700  0.62951700  1
  N  N32  1  0.46322000  0.35449800  0.78746300  1
  N  N33  1  0.53678000  0.64550200  0.21253700  1
  N  N34  1  0.48461900  0.19920900  0.04403000  1
  N  N35  1  0.51538100  0.80079100  0.95597000  1
  N  N36  1  0.72557200  0.01649600  0.86567500  1
  N  N37  1  0.27442800  0.98350400  0.13432500  1
  N  N38  1  0.77998500  0.28111000  0.91418500  1
  N  N39  1  0.22001500  0.71889000  0.08581500  1
  N  N40  1  0.50000000  0.50000000  0.00000000  1
  N  N41  1  0.21518100  0.12312000  0.77141000  1
  N  N42  1  0.78481900  0.87688000  0.22859000  1
  N  N43  1  0.75916300  0.85477000  0.59977300  1
  N  N44  1  0.24083700  0.14523000  0.40022700  1
  N  N45  1  0.97702900  0.17967300  0.04892800  1
  N  N46  1  0.02297100  0.82032700  0.95107200  1
  N  N47  1  0.00000000  0.00000000  0.50000000  1
  N  N48  1  0.01226700  0.58986700  0.66378200  1
  N  N49  1  0.98773300  0.41013300  0.33621800  1
  N  N50  1  0.69861100  0.34533000  0.47972500  1
  N  N51  1  0.30138900  0.65467000  0.52027500  1
  N  N52  1  0.49796300  0.59201800  0.68469800  1
  N  N53  1  0.50203700  0.40798200  0.31530200  1
  O  O54  1  0.26807800  0.81935600  0.73365000  1
  O  O55  1  0.73192200  0.18064400  0.26635000  1
