# generated using pymatgen
data_NaNbFe(PO4)3
_symmetry_space_group_name_H-M   'P 1'
_cell_length_a   9.02347768
_cell_length_b   9.02347768
_cell_length_c   9.02347753
_cell_angle_alpha   57.83306727
_cell_angle_beta   57.83306727
_cell_angle_gamma   57.83306418
_symmetry_Int_Tables_number   1
_chemical_formula_structural   NaNbFe(PO4)3
_chemical_formula_sum   'Na2 Nb2 Fe2 P6 O24'
_cell_volume   493.67834152
_cell_formula_units_Z   2
loop_
 _symmetry_equiv_pos_site_id
 _symmetry_equiv_pos_as_xyz
  1  'x, y, z'
loop_
 _atom_site_type_symbol
 _atom_site_label
 _atom_site_symmetry_multiplicity
 _atom_site_fract_x
 _atom_site_fract_y
 _atom_site_fract_z
 _atom_site_occupancy
  Na  Na0  1  0.62155300  0.62155300  0.62155300  1
  Na  Na1  1  0.12155300  0.12155300  0.12155300  1
  Nb  Nb2  1  0.97311300  0.97311300  0.97311300  1
  Nb  Nb3  1  0.47311300  0.47311300  0.47311300  1
  Fe  Fe4  1  0.76278300  0.76278300  0.76278300  1
  Fe  Fe5  1  0.26278300  0.26278300  0.26278300  1
  P  P6  1  0.07617200  0.37146600  0.64845900  1
  P  P7  1  0.64845900  0.07617200  0.37146600  1
  P  P8  1  0.37146600  0.64845900  0.07617200  1
  P  P9  1  0.14845900  0.87146600  0.57617200  1
  P  P10  1  0.57617100  0.14845900  0.87146600  1
  P  P11  1  0.87146600  0.57617200  0.14845900  1
  O  O12  1  0.10924900  0.33513200  0.48592700  1
  O  O13  1  0.48592700  0.10924900  0.33513200  1
  O  O14  1  0.33513200  0.48592700  0.10924900  1
  O  O15  1  0.98592700  0.83513200  0.60924900  1
  O  O16  1  0.60924900  0.98592700  0.83513200  1
  O  O17  1  0.83513200  0.60924900  0.98592700  1
  O  O18  1  0.89811600  0.53702400  0.68189700  1
  O  O19  1  0.68189700  0.89811600  0.53702400  1
  O  O20  1  0.53702400  0.68189700  0.89811600  1
  O  O21  1  0.18189700  0.03702400  0.39811600  1
  O  O22  1  0.39811600  0.18189700  0.03702400  1
  O  O23  1  0.03702400  0.39811600  0.18189700  1
  O  O24  1  0.05850400  0.19335700  0.83121600  1
  O  O25  1  0.83121600  0.05850400  0.19335700  1
  O  O26  1  0.19335700  0.83121600  0.05850400  1
  O  O27  1  0.33121600  0.69335700  0.55850400  1
  O  O28  1  0.55850400  0.33121600  0.69335700  1
  O  O29  1  0.69335700  0.55850400  0.33121600  1
  O  O30  1  0.24936100  0.39749700  0.62053500  1
  O  O31  1  0.62053500  0.24936100  0.39749700  1
  O  O32  1  0.39749700  0.62053500  0.24936100  1
  O  O33  1  0.12053500  0.89749700  0.74936100  1
  O  O34  1  0.74936100  0.12053500  0.89749700  1
  O  O35  1  0.89749700  0.74936100  0.12053500  1
