# generated using pymatgen
data_Er8Mn3Mo5O28
_symmetry_space_group_name_H-M   'P 1'
_cell_length_a   7.45812329
_cell_length_b   7.45812329
_cell_length_c   11.63295517
_cell_angle_alpha   81.03157157
_cell_angle_beta   81.03157157
_cell_angle_gamma   60.50767626
_symmetry_Int_Tables_number   1
_chemical_formula_structural   Er8Mn3Mo5O28
_chemical_formula_sum   'Er8 Mn3 Mo5 O28'
_cell_volume   553.97322799
_cell_formula_units_Z   1
loop_
 _symmetry_equiv_pos_site_id
 _symmetry_equiv_pos_as_xyz
  1  'x, y, z'
loop_
 _atom_site_type_symbol
 _atom_site_label
 _atom_site_symmetry_multiplicity
 _atom_site_fract_x
 _atom_site_fract_y
 _atom_site_fract_z
 _atom_site_occupancy
  Er  Er0  1  0.73856900  0.50649400  0.24301600  1
  Er  Er1  1  0.49350600  0.26143100  0.75698400  1
  Er  Er2  1  0.25438400  0.50525300  0.25024300  1
  Er  Er3  1  0.49474700  0.74561600  0.74975700  1
  Er  Er4  1  0.01255900  0.75241000  0.72575300  1
  Er  Er5  1  0.24759000  0.98744100  0.27424700  1
  Er  Er6  1  0.99631900  0.24350700  0.78521000  1
  Er  Er7  1  0.75649300  0.00368100  0.21479000  1
  Mn  Mn8  1  0.57826000  0.42174000  0.00000000  1
  Mn  Mn9  1  0.40940400  0.59059600  0.50000000  1
  Mn  Mn10  1  0.14034800  0.85965200  0.00000000  1
  Mo  Mo11  1  0.86368000  0.63492200  0.49554100  1
  Mo  Mo12  1  0.36507800  0.13632000  0.50445900  1
  Mo  Mo13  1  0.12790200  0.37057700  0.00974500  1
  Mo  Mo14  1  0.62942300  0.87209800  0.99025500  1
  Mo  Mo15  1  0.85899800  0.14100200  0.50000000  1
  O  O16  1  0.82640600  0.55919300  0.04205800  1
  O  O17  1  0.44080700  0.17359400  0.95794200  1
  O  O18  1  0.17415200  0.43936800  0.46048600  1
  O  O19  1  0.56063200  0.82584800  0.53951400  1
  O  O20  1  0.95249000  0.83292600  0.53037200  1
  O  O21  1  0.16707400  0.04751000  0.46962800  1
  O  O22  1  0.06023800  0.16700200  0.97802700  1
  O  O23  1  0.83299800  0.93976200  0.02197300  1
  O  O24  1  0.11781500  0.85275000  0.16910200  1
  O  O25  1  0.14725000  0.88218500  0.83089700  1
  O  O26  1  0.87325700  0.13494300  0.33379800  1
  O  O27  1  0.86505700  0.12674300  0.66620200  1
  O  O28  1  0.76184400  0.44510300  0.46266700  1
  O  O29  1  0.55489700  0.23815600  0.53733300  1
  O  O30  1  0.23800800  0.54452200  0.03821300  1
  O  O31  1  0.45547800  0.76199200  0.96178700  1
  O  O32  1  0.45300500  0.12307700  0.33966600  1
  O  O33  1  0.87692300  0.54699500  0.66033400  1
  O  O34  1  0.55531700  0.86649300  0.16621900  1
  O  O35  1  0.13350700  0.44468300  0.83378100  1
  O  O36  1  0.87745200  0.69291500  0.32320300  1
  O  O37  1  0.30708500  0.12254800  0.67679700  1
  O  O38  1  0.10942400  0.31412400  0.19084900  1
  O  O39  1  0.68587600  0.89057600  0.80915100  1
  O  O40  1  0.65159900  0.40844600  0.82904200  1
  O  O41  1  0.59155400  0.34840100  0.17095800  1
  O  O42  1  0.35387700  0.59128400  0.67225700  1
  O  O43  1  0.40871600  0.64612300  0.32774300  1
