# generated using pymatgen
data_Li2SnSe3
_symmetry_space_group_name_H-M   'P 1'
_cell_length_a   7.35718692
_cell_length_b   7.35718692
_cell_length_c   7.96406363
_cell_angle_alpha   63.35985615
_cell_angle_beta   63.35985615
_cell_angle_gamma   59.80063818
_symmetry_Int_Tables_number   1
_chemical_formula_structural   Li2SnSe3
_chemical_formula_sum   'Li4 Sn2 Se6'
_cell_volume   318.86595128
_cell_formula_units_Z   2
loop_
 _symmetry_equiv_pos_site_id
 _symmetry_equiv_pos_as_xyz
  1  'x, y, z'
loop_
 _atom_site_type_symbol
 _atom_site_label
 _atom_site_symmetry_multiplicity
 _atom_site_fract_x
 _atom_site_fract_y
 _atom_site_fract_z
 _atom_site_occupancy
  Li  Li0  1  0.37601600  0.50558600  0.65607700  1
  Li  Li1  1  0.50558600  0.37601600  0.15607700  1
  Li  Li2  1  0.03098900  0.21226800  0.61445300  1
  Li  Li3  1  0.21226800  0.03098900  0.11445300  1
  Sn  Sn4  1  0.67575500  0.84009300  0.65597100  1
  Sn  Sn5  1  0.84009300  0.67575500  0.15597100  1
  Se  Se6  1  0.97480600  0.82210200  0.76766300  1
  Se  Se7  1  0.82210200  0.97480600  0.26766300  1
  Se  Se8  1  0.66573300  0.46415000  0.77891200  1
  Se  Se9  1  0.46415000  0.66573300  0.27891200  1
  Se  Se10  1  0.32002000  0.15102200  0.74512400  1
  Se  Se11  1  0.15102200  0.32002000  0.24512400  1
