# generated using pymatgen
data_Nd2InAu2
_symmetry_space_group_name_H-M   'P 1'
_cell_length_a   8.18161100
_cell_length_b   8.18161100
_cell_length_c   3.85427800
_cell_angle_alpha   90.00000000
_cell_angle_beta   90.00000000
_cell_angle_gamma   90.00000000
_symmetry_Int_Tables_number   1
_chemical_formula_structural   Nd2InAu2
_chemical_formula_sum   'Nd4 In2 Au4'
_cell_volume   258.00058445
_cell_formula_units_Z   2
loop_
 _symmetry_equiv_pos_site_id
 _symmetry_equiv_pos_as_xyz
  1  'x, y, z'
loop_
 _atom_site_type_symbol
 _atom_site_label
 _atom_site_symmetry_multiplicity
 _atom_site_fract_x
 _atom_site_fract_y
 _atom_site_fract_z
 _atom_site_occupancy
  Nd  Nd0  1  0.67336700  0.17336700  0.50000000  1
  Nd  Nd1  1  0.32663300  0.82663300  0.50000000  1
  Nd  Nd2  1  0.17336700  0.32663300  0.50000000  1
  Nd  Nd3  1  0.82663300  0.67336700  0.50000000  1
  In  In4  1  0.00000000  0.00000000  0.00000000  1
  In  In5  1  0.50000000  0.50000000  0.00000000  1
  Au  Au6  1  0.12621700  0.62621700  0.00000000  1
  Au  Au7  1  0.87378300  0.37378300  0.00000000  1
  Au  Au8  1  0.62621700  0.87378300  0.00000000  1
  Au  Au9  1  0.37378300  0.12621700  0.00000000  1
