# generated using pymatgen
data_SmAlAu
_symmetry_space_group_name_H-M   'P 1'
_cell_length_a   4.56998900
_cell_length_b   7.42474100
_cell_length_c   7.78104900
_cell_angle_alpha   90.00000000
_cell_angle_beta   90.00000000
_cell_angle_gamma   90.00000000
_symmetry_Int_Tables_number   1
_chemical_formula_structural   SmAlAu
_chemical_formula_sum   'Sm4 Al4 Au4'
_cell_volume   264.01865455
_cell_formula_units_Z   4
loop_
 _symmetry_equiv_pos_site_id
 _symmetry_equiv_pos_as_xyz
  1  'x, y, z'
loop_
 _atom_site_type_symbol
 _atom_site_label
 _atom_site_symmetry_multiplicity
 _atom_site_fract_x
 _atom_site_fract_y
 _atom_site_fract_z
 _atom_site_occupancy
  Sm  Sm0  1  0.25000000  0.00773700  0.30375800  1
  Sm  Sm1  1  0.25000000  0.50773700  0.19624200  1
  Sm  Sm2  1  0.75000000  0.99226300  0.69624200  1
  Sm  Sm3  1  0.75000000  0.49226300  0.80375800  1
  Al  Al4  1  0.25000000  0.17128300  0.91910700  1
  Al  Al5  1  0.25000000  0.67128300  0.58089300  1
  Al  Al6  1  0.75000000  0.82871700  0.08089300  1
  Al  Al7  1  0.75000000  0.32871700  0.41910700  1
  Au  Au8  1  0.25000000  0.29348500  0.59116500  1
  Au  Au9  1  0.25000000  0.79348500  0.90883500  1
  Au  Au10  1  0.75000000  0.70651500  0.40883500  1
  Au  Au11  1  0.75000000  0.20651500  0.09116500  1
