# generated using pymatgen
data_HoGePd2
_symmetry_space_group_name_H-M   'P 1'
_cell_length_a   5.60126000
_cell_length_b   7.10873000
_cell_length_c   7.41525500
_cell_angle_alpha   90.00000000
_cell_angle_beta   90.00000000
_cell_angle_gamma   90.00000000
_symmetry_Int_Tables_number   1
_chemical_formula_structural   HoGePd2
_chemical_formula_sum   'Ho4 Ge4 Pd8'
_cell_volume   295.25947422
_cell_formula_units_Z   4
loop_
 _symmetry_equiv_pos_site_id
 _symmetry_equiv_pos_as_xyz
  1  'x, y, z'
loop_
 _atom_site_type_symbol
 _atom_site_label
 _atom_site_symmetry_multiplicity
 _atom_site_fract_x
 _atom_site_fract_y
 _atom_site_fract_z
 _atom_site_occupancy
  Ho  Ho0  1  0.14814100  0.75000000  0.52981700  1
  Ho  Ho1  1  0.85185900  0.25000000  0.47018300  1
  Ho  Ho2  1  0.64814100  0.25000000  0.97018300  1
  Ho  Ho3  1  0.35185900  0.75000000  0.02981700  1
  Ge  Ge4  1  0.85253500  0.75000000  0.88035100  1
  Ge  Ge5  1  0.14746500  0.25000000  0.11964900  1
  Ge  Ge6  1  0.35253500  0.25000000  0.61964900  1
  Ge  Ge7  1  0.64746500  0.75000000  0.38035100  1
  Pd  Pd8  1  0.58919500  0.55006000  0.68084800  1
  Pd  Pd9  1  0.41080500  0.44994000  0.31915200  1
  Pd  Pd10  1  0.08919500  0.44994000  0.81915200  1
  Pd  Pd11  1  0.41080500  0.05006000  0.31915200  1
  Pd  Pd12  1  0.91080500  0.55006000  0.18084800  1
  Pd  Pd13  1  0.58919500  0.94994000  0.68084800  1
  Pd  Pd14  1  0.91080500  0.94994000  0.18084800  1
  Pd  Pd15  1  0.08919500  0.05006000  0.81915200  1
