# generated using pymatgen
data_SiI3
_symmetry_space_group_name_H-M   'P 1'
_cell_length_a   9.21986000
_cell_length_b   9.21986000
_cell_length_c   9.21985995
_cell_angle_alpha   50.00835161
_cell_angle_beta   50.00835161
_cell_angle_gamma   50.00834892
_symmetry_Int_Tables_number   1
_chemical_formula_structural   SiI3
_chemical_formula_sum   'Si2 I6'
_cell_volume   423.36189063
_cell_formula_units_Z   2
loop_
 _symmetry_equiv_pos_site_id
 _symmetry_equiv_pos_as_xyz
  1  'x, y, z'
loop_
 _atom_site_type_symbol
 _atom_site_label
 _atom_site_symmetry_multiplicity
 _atom_site_fract_x
 _atom_site_fract_y
 _atom_site_fract_z
 _atom_site_occupancy
  Si  Si0  1  0.95091100  0.95091100  0.95091100  1
  Si  Si1  1  0.04908900  0.04908900  0.04908900  1
  I  I2  1  0.22243200  0.91178400  0.62281000  1
  I  I3  1  0.62281000  0.22243200  0.91178400  1
  I  I4  1  0.91178400  0.62281000  0.22243200  1
  I  I5  1  0.77756800  0.08821600  0.37719000  1
  I  I6  1  0.37719000  0.77756800  0.08821600  1
  I  I7  1  0.08821600  0.37719000  0.77756800  1
