# generated using pymatgen
data_CsY(NbBr3)6
_symmetry_space_group_name_H-M   'P 1'
_cell_length_a   9.97126096
_cell_length_b   9.97126096
_cell_length_c   18.60767100
_cell_angle_alpha   90.00000000
_cell_angle_beta   90.00000000
_cell_angle_gamma   119.99999311
_symmetry_Int_Tables_number   1
_chemical_formula_structural   CsY(NbBr3)6
_chemical_formula_sum   'Cs2 Y2 Nb12 Br36'
_cell_volume   1602.22257117
_cell_formula_units_Z   2
loop_
 _symmetry_equiv_pos_site_id
 _symmetry_equiv_pos_as_xyz
  1  'x, y, z'
loop_
 _atom_site_type_symbol
 _atom_site_label
 _atom_site_symmetry_multiplicity
 _atom_site_fract_x
 _atom_site_fract_y
 _atom_site_fract_z
 _atom_site_occupancy
  Cs  Cs0  1  0.33333300  0.66666700  0.75000000  1
  Cs  Cs1  1  0.66666700  0.33333300  0.25000000  1
  Y  Y2  1  0.66666700  0.33333300  0.75000000  1
  Y  Y3  1  0.33333300  0.66666700  0.25000000  1
  Nb  Nb4  1  0.85107400  0.03829800  0.56470100  1
  Nb  Nb5  1  0.14892600  0.96170200  0.43529900  1
  Nb  Nb6  1  0.96170200  0.81277600  0.56470100  1
  Nb  Nb7  1  0.85107400  0.81277600  0.93529900  1
  Nb  Nb8  1  0.03829800  0.18722400  0.43529900  1
  Nb  Nb9  1  0.14892600  0.18722400  0.06470100  1
  Nb  Nb10  1  0.18722400  0.14892600  0.56470100  1
  Nb  Nb11  1  0.96170200  0.14892600  0.93529900  1
  Nb  Nb12  1  0.81277600  0.85107400  0.43529900  1
  Nb  Nb13  1  0.03829800  0.85107400  0.06470100  1
  Nb  Nb14  1  0.18722400  0.03829800  0.93529900  1
  Nb  Nb15  1  0.81277600  0.96170200  0.06470100  1
  Br  Br16  1  0.63703500  0.08512500  0.66142800  1
  Br  Br17  1  0.36296500  0.91487500  0.33857200  1
  Br  Br18  1  0.91487500  0.55191000  0.66142800  1
  Br  Br19  1  0.63703500  0.55191000  0.83857200  1
  Br  Br20  1  0.08512500  0.44809000  0.33857200  1
  Br  Br21  1  0.36296500  0.44809000  0.16142800  1
  Br  Br22  1  0.44809000  0.36296500  0.66142800  1
  Br  Br23  1  0.91487500  0.36296500  0.83857200  1
  Br  Br24  1  0.55191000  0.63703500  0.33857200  1
  Br  Br25  1  0.08512500  0.63703500  0.16142800  1
  Br  Br26  1  0.44809000  0.08512500  0.83857200  1
  Br  Br27  1  0.55191000  0.91487500  0.16142800  1
  Br  Br28  1  0.04621500  0.23077200  0.65886800  1
  Br  Br29  1  0.95378500  0.76922800  0.34113200  1
  Br  Br30  1  0.76922800  0.81544300  0.65886800  1
  Br  Br31  1  0.04621500  0.81544300  0.84113200  1
  Br  Br32  1  0.23077200  0.18455700  0.34113200  1
  Br  Br33  1  0.95378500  0.18455700  0.15886800  1
  Br  Br34  1  0.18455700  0.95378500  0.65886800  1
  Br  Br35  1  0.76922800  0.95378500  0.84113200  1
  Br  Br36  1  0.81544300  0.04621500  0.34113200  1
  Br  Br37  1  0.23077200  0.04621500  0.15886800  1
  Br  Br38  1  0.18455700  0.23077200  0.84113200  1
  Br  Br39  1  0.81544300  0.76922800  0.15886800  1
  Br  Br40  1  0.27534100  0.41390800  0.50083200  1
  Br  Br41  1  0.72465900  0.58609200  0.49916800  1
  Br  Br42  1  0.58609200  0.86143200  0.50083200  1
  Br  Br43  1  0.27534100  0.86143200  0.99916800  1
  Br  Br44  1  0.41390800  0.13856800  0.49916800  1
  Br  Br45  1  0.72465900  0.13856800  0.00083200  1
  Br  Br46  1  0.13856800  0.72465900  0.50083200  1
  Br  Br47  1  0.58609200  0.72465900  0.99916800  1
  Br  Br48  1  0.86143200  0.27534100  0.49916800  1
  Br  Br49  1  0.41390800  0.27534100  0.00083200  1
  Br  Br50  1  0.13856800  0.41390800  0.99916800  1
  Br  Br51  1  0.86143200  0.58609200  0.00083200  1
