# generated using pymatgen
data_CsTb(MoO4)2
_symmetry_space_group_name_H-M   'P 1'
_cell_length_a   5.11651200
_cell_length_b   8.41468600
_cell_length_c   9.72434000
_cell_angle_alpha   90.00000000
_cell_angle_beta   90.00000000
_cell_angle_gamma   90.00000000
_symmetry_Int_Tables_number   1
_chemical_formula_structural   CsTb(MoO4)2
_chemical_formula_sum   'Cs2 Tb2 Mo4 O16'
_cell_volume   418.67019690
_cell_formula_units_Z   2
loop_
 _symmetry_equiv_pos_site_id
 _symmetry_equiv_pos_as_xyz
  1  'x, y, z'
loop_
 _atom_site_type_symbol
 _atom_site_label
 _atom_site_symmetry_multiplicity
 _atom_site_fract_x
 _atom_site_fract_y
 _atom_site_fract_z
 _atom_site_occupancy
  Cs  Cs0  1  0.00000000  0.25000000  0.50000000  1
  Cs  Cs1  1  0.00000000  0.75000000  0.50000000  1
  Tb  Tb2  1  0.00000000  0.25000000  0.00000000  1
  Tb  Tb3  1  0.00000000  0.75000000  0.00000000  1
  Mo  Mo4  1  0.52518500  0.00000000  0.19147800  1
  Mo  Mo5  1  0.47481500  0.00000000  0.80852200  1
  Mo  Mo6  1  0.47481500  0.50000000  0.19147800  1
  Mo  Mo7  1  0.52518500  0.50000000  0.80852200  1
  O  O8  1  0.24883500  0.00000000  0.06819700  1
  O  O9  1  0.75116500  0.00000000  0.93180300  1
  O  O10  1  0.75116500  0.50000000  0.06819700  1
  O  O11  1  0.24883500  0.50000000  0.93180300  1
  O  O12  1  0.26036900  0.32925900  0.17948900  1
  O  O13  1  0.73963100  0.67074100  0.82051100  1
  O  O14  1  0.73963100  0.32925900  0.82051100  1
  O  O15  1  0.73963100  0.17074100  0.17948900  1
  O  O16  1  0.26036900  0.67074100  0.17948900  1
  O  O17  1  0.26036900  0.82925900  0.82051100  1
  O  O18  1  0.26036900  0.17074100  0.82051100  1
  O  O19  1  0.73963100  0.82925900  0.17948900  1
  O  O20  1  0.38892700  0.00000000  0.35728600  1
  O  O21  1  0.61107300  0.00000000  0.64271400  1
  O  O22  1  0.61107300  0.50000000  0.35728600  1
  O  O23  1  0.38892700  0.50000000  0.64271400  1
