# generated using pymatgen
data_EuAg2
_symmetry_space_group_name_H-M   'P 1'
_cell_length_a   6.09502904
_cell_length_b   6.09502904
_cell_length_c   6.09502904
_cell_angle_alpha   133.36125364
_cell_angle_beta   104.01065413
_cell_angle_gamma   94.08875460
_symmetry_Int_Tables_number   1
_chemical_formula_structural   EuAg2
_chemical_formula_sum   'Eu2 Ag4'
_cell_volume   150.39632299
_cell_formula_units_Z   2
loop_
 _symmetry_equiv_pos_site_id
 _symmetry_equiv_pos_as_xyz
  1  'x, y, z'
loop_
 _atom_site_type_symbol
 _atom_site_label
 _atom_site_symmetry_multiplicity
 _atom_site_fract_x
 _atom_site_fract_y
 _atom_site_fract_z
 _atom_site_occupancy
  Eu  Eu0  1  0.29361200  0.54361200  0.75000000  1
  Eu  Eu1  1  0.70638800  0.45638800  0.25000000  1
  Ag  Ag2  1  0.11183900  0.16336800  0.94847100  1
  Ag  Ag3  1  0.88816100  0.83663200  0.05152900  1
  Ag  Ag4  1  0.28510300  0.83663200  0.44847100  1
  Ag  Ag5  1  0.71489700  0.16336800  0.55152900  1
