# generated using pymatgen
data_Ce4CoSi6Au
_symmetry_space_group_name_H-M   'P 1'
_cell_length_a   8.14658340
_cell_length_b   8.14658340
_cell_length_c   4.18910400
_cell_angle_alpha   90.00000000
_cell_angle_beta   90.00000000
_cell_angle_gamma   119.99999509
_symmetry_Int_Tables_number   1
_chemical_formula_structural   Ce4CoSi6Au
_chemical_formula_sum   'Ce4 Co1 Si6 Au1'
_cell_volume   240.77024294
_cell_formula_units_Z   1
loop_
 _symmetry_equiv_pos_site_id
 _symmetry_equiv_pos_as_xyz
  1  'x, y, z'
loop_
 _atom_site_type_symbol
 _atom_site_label
 _atom_site_symmetry_multiplicity
 _atom_site_fract_x
 _atom_site_fract_y
 _atom_site_fract_z
 _atom_site_occupancy
  Ce  Ce0  1  0.66666700  0.33333300  0.00000000  1
  Ce  Ce1  1  0.68423400  0.84211700  0.00000000  1
  Ce  Ce2  1  0.15788300  0.84211700  0.00000000  1
  Ce  Ce3  1  0.15788300  0.31576600  0.00000000  1
  Co  Co4  1  0.00000000  0.00000000  0.50000000  1
  Si  Si5  1  0.32265000  0.16132500  0.50000000  1
  Si  Si6  1  0.83867500  0.16132500  0.50000000  1
  Si  Si7  1  0.83867500  0.67735000  0.50000000  1
  Si  Si8  1  0.98926300  0.49463200  0.50000000  1
  Si  Si9  1  0.50536800  0.01073700  0.50000000  1
  Si  Si10  1  0.50536800  0.49463200  0.50000000  1
  Au  Au11  1  0.33333300  0.66666700  0.50000000  1
