# generated using pymatgen
data_CaCdPd
_symmetry_space_group_name_H-M   'P 1'
_cell_length_a   4.48045200
_cell_length_b   7.19599900
_cell_length_c   8.58319600
_cell_angle_alpha   90.00000000
_cell_angle_beta   90.00000000
_cell_angle_gamma   90.00000000
_symmetry_Int_Tables_number   1
_chemical_formula_structural   CaCdPd
_chemical_formula_sum   'Ca4 Cd4 Pd4'
_cell_volume   276.73363848
_cell_formula_units_Z   4
loop_
 _symmetry_equiv_pos_site_id
 _symmetry_equiv_pos_as_xyz
  1  'x, y, z'
loop_
 _atom_site_type_symbol
 _atom_site_label
 _atom_site_symmetry_multiplicity
 _atom_site_fract_x
 _atom_site_fract_y
 _atom_site_fract_z
 _atom_site_occupancy
  Ca  Ca0  1  0.25000000  0.03556600  0.32080200  1
  Ca  Ca1  1  0.25000000  0.53556600  0.17919800  1
  Ca  Ca2  1  0.75000000  0.96443400  0.67919800  1
  Ca  Ca3  1  0.75000000  0.46443400  0.82080200  1
  Cd  Cd4  1  0.25000000  0.14615900  0.93960700  1
  Cd  Cd5  1  0.25000000  0.64615900  0.56039300  1
  Cd  Cd6  1  0.75000000  0.85384100  0.06039300  1
  Cd  Cd7  1  0.75000000  0.35384100  0.43960700  1
  Pd  Pd8  1  0.25000000  0.25875300  0.62909700  1
  Pd  Pd9  1  0.25000000  0.75875300  0.87090300  1
  Pd  Pd10  1  0.75000000  0.74124700  0.37090300  1
  Pd  Pd11  1  0.75000000  0.24124700  0.12909700  1
