# generated using pymatgen
data_CsInCu(PO3)6
_symmetry_space_group_name_H-M   'P 1'
_cell_length_a   5.21882200
_cell_length_b   9.14068166
_cell_length_c   9.36498127
_cell_angle_alpha   86.67932527
_cell_angle_beta   105.39313973
_cell_angle_gamma   105.96968488
_symmetry_Int_Tables_number   1
_chemical_formula_structural   CsInCu(PO3)6
_chemical_formula_sum   'Cs1 In1 Cu1 P6 O18'
_cell_volume   414.03980429
_cell_formula_units_Z   1
loop_
 _symmetry_equiv_pos_site_id
 _symmetry_equiv_pos_as_xyz
  1  'x, y, z'
loop_
 _atom_site_type_symbol
 _atom_site_label
 _atom_site_symmetry_multiplicity
 _atom_site_fract_x
 _atom_site_fract_y
 _atom_site_fract_z
 _atom_site_occupancy
  Cs  Cs0  1  0.50717300  0.02145900  0.52296900  1
  In  In1  1  0.00083400  0.99968700  0.00156000  1
  Cu  Cu2  1  0.00071900  0.50115300  0.49980000  1
  P  P3  1  0.43643100  0.54139100  0.29528800  1
  P  P4  1  0.56337200  0.45909500  0.70503300  1
  P  P5  1  0.59565000  0.23737900  0.95636300  1
  P  P6  1  0.40431700  0.76272200  0.04392000  1
  P  P7  1  0.00209700  0.24505500  0.25305800  1
  P  P8  1  0.99792300  0.75486500  0.74720000  1
  O  O9  1  0.02807200  0.09092200  0.21653000  1
  O  O10  1  0.97282300  0.90930100  0.78421200  1
  O  O11  1  0.79088500  0.30022400  0.11498200  1
  O  O12  1  0.20800800  0.69928800  0.88534800  1
  O  O13  1  0.66746200  0.38861900  0.86592000  1
  O  O14  1  0.33220300  0.61161400  0.13438100  1
  O  O15  1  0.68245500  0.11201600  0.89853000  1
  O  O16  1  0.31896200  0.88866400  0.10105900  1
  O  O17  1  0.31785600  0.59697900  0.40481800  1
  O  O18  1  0.68239000  0.40243800  0.59603400  1
  O  O19  1  0.74347500  0.56677300  0.32764000  1
  O  O20  1  0.25611100  0.43291500  0.67212300  1
  O  O21  1  0.29281300  0.36406300  0.25135000  1
  O  O22  1  0.70647700  0.63606200  0.74842400  1
  O  O23  1  0.29874800  0.20104700  0.96083600  1
  O  O24  1  0.70059700  0.79831700  0.03825900  1
  O  O25  1  0.92318700  0.25849200  0.39219200  1
  O  O26  1  0.07796100  0.74155800  0.60847000  1
