# generated using pymatgen
data_K10NbInAs6
_symmetry_space_group_name_H-M   'P 1'
_cell_length_a   8.40710800
_cell_length_b   9.27829000
_cell_length_c   17.81294818
_cell_angle_alpha   59.98377572
_cell_angle_beta   90.00000000
_cell_angle_gamma   90.00000000
_symmetry_Int_Tables_number   1
_chemical_formula_structural   K10NbInAs6
_chemical_formula_sum   'K20 Nb2 In2 As12'
_cell_volume   1203.12286558
_cell_formula_units_Z   2
loop_
 _symmetry_equiv_pos_site_id
 _symmetry_equiv_pos_as_xyz
  1  'x, y, z'
loop_
 _atom_site_type_symbol
 _atom_site_label
 _atom_site_symmetry_multiplicity
 _atom_site_fract_x
 _atom_site_fract_y
 _atom_site_fract_z
 _atom_site_occupancy
  K  K0  1  0.74765600  0.90585900  0.41011300  1
  K  K1  1  0.25234400  0.90585900  0.91011300  1
  K  K2  1  0.76202400  0.09384000  0.59166800  1
  K  K3  1  0.23797600  0.09384000  0.09166800  1
  K  K4  1  0.58025300  0.16137900  0.75755000  1
  K  K5  1  0.41974700  0.16137900  0.25755000  1
  K  K6  1  0.92047800  0.84068100  0.24016300  1
  K  K7  1  0.07952200  0.84068100  0.74016300  1
  K  K8  1  0.73854500  0.54283500  0.75713300  1
  K  K9  1  0.26145500  0.54283500  0.25713300  1
  K  K10  1  0.77111200  0.45837800  0.23966200  1
  K  K11  1  0.22888800  0.45837800  0.73966200  1
  K  K12  1  0.07644100  0.15997100  0.41850300  1
  K  K13  1  0.92355900  0.15997100  0.91850300  1
  K  K14  1  0.42351000  0.84088300  0.58105400  1
  K  K15  1  0.57649000  0.84088300  0.08105400  1
  K  K16  1  0.25531900  0.26647700  0.57426900  1
  K  K17  1  0.74468100  0.26647700  0.07426900  1
  K  K18  1  0.22826800  0.73371700  0.42557300  1
  K  K19  1  0.77173200  0.73371700  0.92557300  1
  Nb  Nb20  1  0.62340100  0.50561900  0.42276200  1
  Nb  Nb21  1  0.37659900  0.50561900  0.92276200  1
  In  In22  1  0.88450300  0.49311700  0.58226100  1
  In  In23  1  0.11549700  0.49311700  0.08226100  1
  As  As24  1  0.92692000  0.48689900  0.42692300  1
  As  As25  1  0.07308000  0.48689900  0.92692300  1
  As  As26  1  0.55070700  0.51405200  0.56016000  1
  As  As27  1  0.44929300  0.51405200  0.06016000  1
  As  As28  1  0.96952400  0.19800000  0.72469600  1
  As  As29  1  0.03047600  0.19800000  0.22469600  1
  As  As30  1  0.53609100  0.76976700  0.28886800  1
  As  As31  1  0.46390900  0.76976700  0.78886800  1
  As  As32  1  0.99998700  0.77400700  0.57712500  1
  As  As33  1  0.00001300  0.77400700  0.07712500  1
  As  As34  1  0.50524800  0.25452200  0.42151700  1
  As  As35  1  0.49475200  0.25452200  0.92151700  1
