# generated using pymatgen
data_Fe2P3(O3F)3
_symmetry_space_group_name_H-M   'P 1'
_cell_length_a   14.63232597
_cell_length_b   14.63232597
_cell_length_c   7.47517600
_cell_angle_alpha   90.00000000
_cell_angle_beta   90.00000000
_cell_angle_gamma   119.99999987
_symmetry_Int_Tables_number   1
_chemical_formula_structural   Fe2P3(O3F)3
_chemical_formula_sum   'Fe12 P18 O54 F18'
_cell_volume   1386.04965734
_cell_formula_units_Z   6
loop_
 _symmetry_equiv_pos_site_id
 _symmetry_equiv_pos_as_xyz
  1  'x, y, z'
loop_
 _atom_site_type_symbol
 _atom_site_label
 _atom_site_symmetry_multiplicity
 _atom_site_fract_x
 _atom_site_fract_y
 _atom_site_fract_z
 _atom_site_occupancy
  Fe  Fe0  1  0.35235900  0.02654700  0.95272600  1
  Fe  Fe1  1  0.67418800  0.64764100  0.95272600  1
  Fe  Fe2  1  0.97345300  0.32581200  0.95272600  1
  Fe  Fe3  1  0.64764100  0.97345300  0.45272600  1
  Fe  Fe4  1  0.32581200  0.35235900  0.45272600  1
  Fe  Fe5  1  0.02654700  0.67418800  0.45272600  1
  Fe  Fe6  1  0.64764100  0.97345300  0.04727400  1
  Fe  Fe7  1  0.32581200  0.35235900  0.04727400  1
  Fe  Fe8  1  0.02654700  0.67418800  0.04727400  1
  Fe  Fe9  1  0.35235900  0.02654700  0.54727400  1
  Fe  Fe10  1  0.67418800  0.64764100  0.54727400  1
  Fe  Fe11  1  0.97345300  0.32581200  0.54727400  1
  P  P12  1  0.45741000  0.89557500  0.75000000  1
  P  P13  1  0.43816500  0.54259000  0.75000000  1
  P  P14  1  0.10442500  0.56183500  0.75000000  1
  P  P15  1  0.54259000  0.10442500  0.25000000  1
  P  P16  1  0.56183500  0.45741000  0.25000000  1
  P  P17  1  0.89557500  0.43816500  0.25000000  1
  P  P18  1  0.24487400  0.11618200  0.25000000  1
  P  P19  1  0.87130900  0.75512600  0.25000000  1
  P  P20  1  0.88381800  0.12869100  0.25000000  1
  P  P21  1  0.75512600  0.88381800  0.75000000  1
  P  P22  1  0.12869100  0.24487400  0.75000000  1
  P  P23  1  0.11618200  0.87130900  0.75000000  1
  P  P24  1  0.43215100  0.26123500  0.75000000  1
  P  P25  1  0.82908500  0.56784900  0.75000000  1
  P  P26  1  0.73876500  0.17091500  0.75000000  1
  P  P27  1  0.56784900  0.73876500  0.25000000  1
  P  P28  1  0.17091500  0.43215100  0.25000000  1
  P  P29  1  0.26123500  0.82908500  0.25000000  1
  O  O30  1  0.39109400  0.14104200  0.75000000  1
  O  O31  1  0.74994800  0.60890600  0.75000000  1
  O  O32  1  0.85895800  0.25005200  0.75000000  1
  O  O33  1  0.60890600  0.85895800  0.25000000  1
  O  O34  1  0.25005200  0.39109400  0.25000000  1
  O  O35  1  0.14104200  0.74994800  0.25000000  1
  O  O36  1  0.42630400  0.98246100  0.75000000  1
  O  O37  1  0.55615700  0.57369600  0.75000000  1
  O  O38  1  0.01753900  0.44384300  0.75000000  1
  O  O39  1  0.57369600  0.01753900  0.25000000  1
  O  O40  1  0.44384300  0.42630400  0.25000000  1
  O  O41  1  0.98246100  0.55615700  0.25000000  1
  O  O42  1  0.29786100  0.89330500  0.07909900  1
  O  O43  1  0.59544400  0.70213900  0.07909900  1
  O  O44  1  0.10669500  0.40455600  0.07909900  1
  O  O45  1  0.70213900  0.10669500  0.57909900  1
  O  O46  1  0.40455600  0.29786100  0.57909900  1
  O  O47  1  0.89330500  0.59544400  0.57909900  1
  O  O48  1  0.70213900  0.10669500  0.92090100  1
  O  O49  1  0.40455600  0.29786100  0.92090100  1
  O  O50  1  0.89330500  0.59544400  0.92090100  1
  O  O51  1  0.29786100  0.89330500  0.42090100  1
  O  O52  1  0.59544400  0.70213900  0.42090100  1
  O  O53  1  0.10669500  0.40455600  0.42090100  1
  O  O54  1  0.48653500  0.10434900  0.07875500  1
  O  O55  1  0.61781400  0.51346500  0.07875500  1
  O  O56  1  0.89565100  0.38218600  0.07875500  1
  O  O57  1  0.51346500  0.89565100  0.57875500  1
  O  O58  1  0.38218600  0.48653500  0.57875500  1
  O  O59  1  0.10434900  0.61781400  0.57875500  1
  O  O60  1  0.51346500  0.89565100  0.92124500  1
  O  O61  1  0.38218600  0.48653500  0.92124500  1
  O  O62  1  0.10434900  0.61781400  0.92124500  1
  O  O63  1  0.48653500  0.10434900  0.42124500  1
  O  O64  1  0.61781400  0.51346500  0.42124500  1
  O  O65  1  0.89565100  0.38218600  0.42124500  1
  O  O66  1  0.27175200  0.07887100  0.07863000  1
  O  O67  1  0.80711900  0.72824800  0.07863000  1
  O  O68  1  0.92112900  0.19288100  0.07863000  1
  O  O69  1  0.72824800  0.92112900  0.57863000  1
  O  O70  1  0.19288100  0.27175200  0.57863000  1
  O  O71  1  0.07887100  0.80711900  0.57863000  1
  O  O72  1  0.72824800  0.92112900  0.92137000  1
  O  O73  1  0.19288100  0.27175200  0.92137000  1
  O  O74  1  0.07887100  0.80711900  0.92137000  1
  O  O75  1  0.27175200  0.07887100  0.42137000  1
  O  O76  1  0.80711900  0.72824800  0.42137000  1
  O  O77  1  0.92112900  0.19288100  0.42137000  1
  O  O78  1  0.23617300  0.94913500  0.75000000  1
  O  O79  1  0.71296100  0.76382700  0.75000000  1
  O  O80  1  0.05086500  0.28703900  0.75000000  1
  O  O81  1  0.76382700  0.05086500  0.25000000  1
  O  O82  1  0.28703900  0.23617300  0.25000000  1
  O  O83  1  0.94913500  0.71296100  0.25000000  1
  F  F84  1  0.06635500  0.94377000  0.75000000  1
  F  F85  1  0.87741600  0.93364500  0.75000000  1
  F  F86  1  0.05623000  0.12258400  0.75000000  1
  F  F87  1  0.93364500  0.05623000  0.25000000  1
  F  F88  1  0.12258400  0.06635500  0.25000000  1
  F  F89  1  0.94377000  0.87741600  0.25000000  1
  F  F90  1  0.35008200  0.78897900  0.75000000  1
  F  F91  1  0.43889700  0.64991800  0.75000000  1
  F  F92  1  0.21102100  0.56110300  0.75000000  1
  F  F93  1  0.64991800  0.21102100  0.25000000  1
  F  F94  1  0.56110300  0.35008200  0.25000000  1
  F  F95  1  0.78897900  0.43889700  0.25000000  1
  F  F96  1  0.31215700  0.75798300  0.25000000  1
  F  F97  1  0.44582600  0.68784300  0.25000000  1
  F  F98  1  0.24201700  0.55417400  0.25000000  1
  F  F99  1  0.68784300  0.24201700  0.75000000  1
  F  F100  1  0.55417400  0.31215700  0.75000000  1
  F  F101  1  0.75798300  0.44582600  0.75000000  1
