# generated using pymatgen
data_Ba8U2PdSe16
_symmetry_space_group_name_H-M   'P 1'
_cell_length_a   9.62101000
_cell_length_b   12.41982400
_cell_length_c   14.07088700
_cell_angle_alpha   90.00000000
_cell_angle_beta   90.00000000
_cell_angle_gamma   90.00000000
_symmetry_Int_Tables_number   1
_chemical_formula_structural   Ba8U2PdSe16
_chemical_formula_sum   'Ba16 U4 Pd2 Se32'
_cell_volume   1681.34788893
_cell_formula_units_Z   2
loop_
 _symmetry_equiv_pos_site_id
 _symmetry_equiv_pos_as_xyz
  1  'x, y, z'
loop_
 _atom_site_type_symbol
 _atom_site_label
 _atom_site_symmetry_multiplicity
 _atom_site_fract_x
 _atom_site_fract_y
 _atom_site_fract_z
 _atom_site_occupancy
  Ba  Ba0  1  0.89138500  0.33841600  0.74477200  1
  Ba  Ba1  1  0.10861500  0.66158400  0.74477200  1
  Ba  Ba2  1  0.39138500  0.16158400  0.75522800  1
  Ba  Ba3  1  0.60861500  0.83841600  0.75522800  1
  Ba  Ba4  1  0.10861500  0.66158400  0.25522800  1
  Ba  Ba5  1  0.89138500  0.33841600  0.25522800  1
  Ba  Ba6  1  0.60861500  0.83841600  0.24477200  1
  Ba  Ba7  1  0.39138500  0.16158400  0.24477200  1
  Ba  Ba8  1  0.79141500  0.08632800  0.50000000  1
  Ba  Ba9  1  0.20858500  0.91367200  0.50000000  1
  Ba  Ba10  1  0.29141500  0.41367200  0.00000000  1
  Ba  Ba11  1  0.70858500  0.58632800  0.00000000  1
  Ba  Ba12  1  0.23645900  0.34243300  0.50000000  1
  Ba  Ba13  1  0.76354000  0.65756700  0.50000000  1
  Ba  Ba14  1  0.73646000  0.15756700  0.00000000  1
  Ba  Ba15  1  0.26354100  0.84243300  0.00000000  1
  U  U16  1  0.50000000  0.50000000  0.74409500  1
  U  U17  1  0.00000000  0.00000000  0.75590500  1
  U  U18  1  0.50000000  0.50000000  0.25590500  1
  U  U19  1  0.00000000  0.00000000  0.24409500  1
  Pd  Pd20  1  0.50000000  0.50000000  0.50000000  1
  Pd  Pd21  1  0.00000000  0.00000000  0.00000000  1
  Se  Se22  1  0.54174700  0.90787800  0.50000000  1
  Se  Se23  1  0.45825300  0.09212200  0.50000000  1
  Se  Se24  1  0.04174700  0.59212200  0.00000000  1
  Se  Se25  1  0.95825300  0.40787800  0.00000000  1
  Se  Se26  1  0.91539400  0.42661000  0.50000000  1
  Se  Se27  1  0.08460600  0.57339000  0.50000000  1
  Se  Se28  1  0.41539400  0.07339000  0.00000000  1
  Se  Se29  1  0.58460600  0.92661000  0.00000000  1
  Se  Se30  1  0.57808100  0.35038300  0.61232600  1
  Se  Se31  1  0.42191900  0.64961700  0.61232600  1
  Se  Se32  1  0.07808100  0.14961700  0.88767400  1
  Se  Se33  1  0.92191900  0.85038300  0.88767400  1
  Se  Se34  1  0.42191900  0.64961700  0.38767400  1
  Se  Se35  1  0.57808100  0.35038300  0.38767400  1
  Se  Se36  1  0.92191900  0.85038300  0.11232600  1
  Se  Se37  1  0.07808100  0.14961700  0.11232600  1
  Se  Se38  1  0.58642900  0.35119200  0.87403400  1
  Se  Se39  1  0.41357100  0.64880800  0.87403400  1
  Se  Se40  1  0.08642900  0.14880800  0.62596600  1
  Se  Se41  1  0.91357100  0.85119200  0.62596600  1
  Se  Se42  1  0.41357100  0.64880800  0.12596600  1
  Se  Se43  1  0.58642900  0.35119200  0.12596600  1
  Se  Se44  1  0.91357100  0.85119200  0.37403400  1
  Se  Se45  1  0.08642900  0.14880800  0.37403400  1
  Se  Se46  1  0.73067200  0.09158600  0.75054700  1
  Se  Se47  1  0.26932800  0.90841400  0.75054700  1
  Se  Se48  1  0.23067200  0.40841400  0.74945300  1
  Se  Se49  1  0.76932800  0.59158600  0.74945300  1
  Se  Se50  1  0.26932800  0.90841400  0.24945300  1
  Se  Se51  1  0.73067200  0.09158600  0.24945300  1
  Se  Se52  1  0.76932800  0.59158600  0.25054700  1
  Se  Se53  1  0.23067200  0.40841400  0.25054700  1
