# generated using pymatgen
data_Nd2Nb2S7O30
_symmetry_space_group_name_H-M   'P 1'
_cell_length_a   13.01871300
_cell_length_b   13.01871300
_cell_length_c   7.27783500
_cell_angle_alpha   90.00000000
_cell_angle_beta   90.00000000
_cell_angle_gamma   90.00000000
_symmetry_Int_Tables_number   1
_chemical_formula_structural   Nd2Nb2S7O30
_chemical_formula_sum   'Nd4 Nb4 S14 O60'
_cell_volume   1233.49760681
_cell_formula_units_Z   2
loop_
 _symmetry_equiv_pos_site_id
 _symmetry_equiv_pos_as_xyz
  1  'x, y, z'
loop_
 _atom_site_type_symbol
 _atom_site_label
 _atom_site_symmetry_multiplicity
 _atom_site_fract_x
 _atom_site_fract_y
 _atom_site_fract_z
 _atom_site_occupancy
  Nd  Nd0  1  0.19929900  0.30070100  0.40759400  1
  Nd  Nd1  1  0.30070100  0.80070100  0.59240600  1
  Nd  Nd2  1  0.80070100  0.69929900  0.40759400  1
  Nd  Nd3  1  0.69929900  0.19929900  0.59240600  1
  Nb  Nb4  1  0.36284800  0.13715200  0.01620200  1
  Nb  Nb5  1  0.13715200  0.63715200  0.98379800  1
  Nb  Nb6  1  0.63715200  0.86284800  0.01620200  1
  Nb  Nb7  1  0.86284800  0.36284800  0.98379800  1
  S  S8  1  0.50000000  0.00000000  0.65552800  1
  S  S9  1  0.00000000  0.50000000  0.34447200  1
  S  S10  1  0.62289400  0.12289400  0.10215800  1
  S  S11  1  0.87710600  0.62289400  0.89784200  1
  S  S12  1  0.37710600  0.87710600  0.10215800  1
  S  S13  1  0.12289400  0.37710600  0.89784200  1
  S  S14  1  0.43534100  0.32450300  0.70965300  1
  S  S15  1  0.06465900  0.82450300  0.29034700  1
  S  S16  1  0.56465900  0.67549700  0.70965300  1
  S  S17  1  0.93534100  0.17549700  0.29034700  1
  S  S18  1  0.32450300  0.56465900  0.29034700  1
  S  S19  1  0.17549700  0.06465900  0.70965300  1
  S  S20  1  0.67549700  0.43534100  0.29034700  1
  S  S21  1  0.82450300  0.93534100  0.70965300  1
  O  O22  1  0.30238700  0.19761300  0.20655300  1
  O  O23  1  0.19761300  0.69761300  0.79344700  1
  O  O24  1  0.69761300  0.80238700  0.20655300  1
  O  O25  1  0.80238700  0.30238700  0.79344700  1
  O  O26  1  0.43354800  0.93354800  0.54270800  1
  O  O27  1  0.06645200  0.43354800  0.45729200  1
  O  O28  1  0.56645200  0.06645200  0.54270800  1
  O  O29  1  0.93354800  0.56645200  0.45729200  1
  O  O30  1  0.43432900  0.06567100  0.77526900  1
  O  O31  1  0.06567100  0.56567100  0.22473100  1
  O  O32  1  0.56567100  0.93432900  0.77526900  1
  O  O33  1  0.93432900  0.43432900  0.22473100  1
  O  O34  1  0.65663600  0.15663600  0.92159900  1
  O  O35  1  0.84336400  0.65663600  0.07840100  1
  O  O36  1  0.34336400  0.84336400  0.92159900  1
  O  O37  1  0.15663600  0.34336400  0.07840100  1
  O  O38  1  0.67416000  0.17416000  0.25450300  1
  O  O39  1  0.82584000  0.67416000  0.74549700  1
  O  O40  1  0.32584000  0.82584000  0.25450300  1
  O  O41  1  0.17416000  0.32584000  0.74549700  1
  O  O42  1  0.50898300  0.14072100  0.12347400  1
  O  O43  1  0.99101700  0.64072100  0.87652600  1
  O  O44  1  0.49101700  0.85927900  0.12347400  1
  O  O45  1  0.00898300  0.35927900  0.87652600  1
  O  O46  1  0.14072100  0.49101700  0.87652600  1
  O  O47  1  0.35927900  0.99101700  0.12347400  1
  O  O48  1  0.85927900  0.50898300  0.87652600  1
  O  O49  1  0.64072100  0.00898300  0.12347400  1
  O  O50  1  0.37057700  0.29237700  0.55383800  1
  O  O51  1  0.12942300  0.79237700  0.44616200  1
  O  O52  1  0.62942300  0.70762300  0.55383800  1
  O  O53  1  0.87057700  0.20762300  0.44616200  1
  O  O54  1  0.29237700  0.62942300  0.44616200  1
  O  O55  1  0.20762300  0.12942300  0.55383800  1
  O  O56  1  0.70762300  0.37057700  0.44616200  1
  O  O57  1  0.79237700  0.87057700  0.55383800  1
  O  O58  1  0.54266400  0.29353000  0.68340700  1
  O  O59  1  0.95733600  0.79353000  0.31659300  1
  O  O60  1  0.45733600  0.70647000  0.68340700  1
  O  O61  1  0.04266400  0.20647000  0.31659300  1
  O  O62  1  0.29353000  0.45733600  0.31659300  1
  O  O63  1  0.20647000  0.95733600  0.68340700  1
  O  O64  1  0.70647000  0.54266400  0.31659300  1
  O  O65  1  0.79353000  0.04266400  0.68340700  1
  O  O66  1  0.42429400  0.43468500  0.74416100  1
  O  O67  1  0.07570600  0.93468500  0.25583900  1
  O  O68  1  0.57570600  0.56531500  0.74416100  1
  O  O69  1  0.92429400  0.06531500  0.25583900  1
  O  O70  1  0.43468500  0.57570600  0.25583900  1
  O  O71  1  0.06531500  0.07570600  0.74416100  1
  O  O72  1  0.56531500  0.42429400  0.25583900  1
  O  O73  1  0.93468500  0.92429400  0.74416100  1
  O  O74  1  0.39423000  0.26793600  0.88093500  1
  O  O75  1  0.10577000  0.76793600  0.11906500  1
  O  O76  1  0.60577000  0.73206400  0.88093500  1
  O  O77  1  0.89423000  0.23206400  0.11906500  1
  O  O78  1  0.26793600  0.60577000  0.11906500  1
  O  O79  1  0.23206400  0.10577000  0.88093500  1
  O  O80  1  0.73206400  0.39423000  0.11906500  1
  O  O81  1  0.76793600  0.89423000  0.88093500  1
