# generated using pymatgen
data_Dy5S7
_symmetry_space_group_name_H-M   'P 1'
_cell_length_a   6.70366502
_cell_length_b   6.70366502
_cell_length_c   11.61370186
_cell_angle_alpha   76.02798992
_cell_angle_beta   76.02798992
_cell_angle_gamma   33.06267540
_symmetry_Int_Tables_number   1
_chemical_formula_structural   Dy5S7
_chemical_formula_sum   'Dy5 S7'
_cell_volume   275.55239914
_cell_formula_units_Z   1
loop_
 _symmetry_equiv_pos_site_id
 _symmetry_equiv_pos_as_xyz
  1  'x, y, z'
loop_
 _atom_site_type_symbol
 _atom_site_label
 _atom_site_symmetry_multiplicity
 _atom_site_fract_x
 _atom_site_fract_y
 _atom_site_fract_z
 _atom_site_occupancy
  Dy  Dy0  1  0.00000000  0.00000000  0.00000000  1
  Dy  Dy1  1  0.11215400  0.11215400  0.57880000  1
  Dy  Dy2  1  0.88784600  0.88784600  0.42120000  1
  Dy  Dy3  1  0.30068900  0.30068900  0.81217900  1
  Dy  Dy4  1  0.69931100  0.69931100  0.18782100  1
  S  S5  1  0.50000000  0.50000000  0.50000000  1
  S  S6  1  0.65925500  0.65925500  0.94916800  1
  S  S7  1  0.34074500  0.34074500  0.05083200  1
  S  S8  1  0.95877700  0.95877700  0.78491700  1
  S  S9  1  0.04122300  0.04122300  0.21508300  1
  S  S10  1  0.25921000  0.25921000  0.35205300  1
  S  S11  1  0.74079000  0.74079000  0.64794700  1
