# generated using pymatgen
data_RbYb2Cl7
_symmetry_space_group_name_H-M   'P 1'
_cell_length_a   7.54207000
_cell_length_b   10.59684000
_cell_length_c   14.16209000
_cell_angle_alpha   90.00000000
_cell_angle_beta   90.00000000
_cell_angle_gamma   90.00000000
_symmetry_Int_Tables_number   1
_chemical_formula_structural   RbYb2Cl7
_chemical_formula_sum   'Rb4 Yb8 Cl28'
_cell_volume   1131.86410148
_cell_formula_units_Z   4
loop_
 _symmetry_equiv_pos_site_id
 _symmetry_equiv_pos_as_xyz
  1  'x, y, z'
loop_
 _atom_site_type_symbol
 _atom_site_label
 _atom_site_symmetry_multiplicity
 _atom_site_fract_x
 _atom_site_fract_y
 _atom_site_fract_z
 _atom_site_occupancy
  Rb  Rb0  1  0.75000000  0.92405800  0.22551900  1
  Rb  Rb1  1  0.25000000  0.07594200  0.77448100  1
  Rb  Rb2  1  0.25000000  0.57594200  0.72551900  1
  Rb  Rb3  1  0.75000000  0.42405800  0.27448100  1
  Yb  Yb4  1  0.75000000  0.76849600  0.57088100  1
  Yb  Yb5  1  0.25000000  0.23150400  0.42911900  1
  Yb  Yb6  1  0.25000000  0.73150400  0.07088100  1
  Yb  Yb7  1  0.75000000  0.26849600  0.92911900  1
  Yb  Yb8  1  0.75000000  0.79083800  0.82815800  1
  Yb  Yb9  1  0.25000000  0.20916200  0.17184200  1
  Yb  Yb10  1  0.25000000  0.70916200  0.32815800  1
  Yb  Yb11  1  0.75000000  0.29083800  0.67184200  1
  Cl  Cl12  1  0.00063700  0.83630400  0.69738300  1
  Cl  Cl13  1  0.99936300  0.16369600  0.30261700  1
  Cl  Cl14  1  0.99936300  0.66369600  0.19738300  1
  Cl  Cl15  1  0.50063700  0.16369600  0.30261700  1
  Cl  Cl16  1  0.00063700  0.33630400  0.80261700  1
  Cl  Cl17  1  0.49936300  0.83630400  0.69738300  1
  Cl  Cl18  1  0.49936300  0.33630400  0.80261700  1
  Cl  Cl19  1  0.50063700  0.66369600  0.19738300  1
  Cl  Cl20  1  0.00211800  0.84753800  0.43947700  1
  Cl  Cl21  1  0.99788200  0.15246200  0.56052300  1
  Cl  Cl22  1  0.99788200  0.65246200  0.93947700  1
  Cl  Cl23  1  0.50211800  0.15246200  0.56052300  1
  Cl  Cl24  1  0.00211800  0.34753800  0.06052300  1
  Cl  Cl25  1  0.49788200  0.84753800  0.43947700  1
  Cl  Cl26  1  0.49788200  0.34753800  0.06052300  1
  Cl  Cl27  1  0.50211800  0.65246200  0.93947700  1
  Cl  Cl28  1  0.99821300  0.89651300  0.97827700  1
  Cl  Cl29  1  0.00178700  0.10348700  0.02172300  1
  Cl  Cl30  1  0.00178700  0.60348700  0.47827700  1
  Cl  Cl31  1  0.49821300  0.10348700  0.02172300  1
  Cl  Cl32  1  0.99821300  0.39651300  0.52172300  1
  Cl  Cl33  1  0.50178700  0.89651300  0.97827700  1
  Cl  Cl34  1  0.50178700  0.39651300  0.52172300  1
  Cl  Cl35  1  0.49821300  0.60348700  0.47827700  1
  Cl  Cl36  1  0.75000000  0.56889500  0.69241900  1
  Cl  Cl37  1  0.25000000  0.43110500  0.30758100  1
  Cl  Cl38  1  0.25000000  0.93110500  0.19241900  1
  Cl  Cl39  1  0.75000000  0.06889500  0.80758100  1
