# generated using pymatgen
data_AsS2
_symmetry_space_group_name_H-M   'P 1'
_cell_length_a   10.39095600
_cell_length_b   7.36616400
_cell_length_c   8.14994013
_cell_angle_alpha   73.70040925
_cell_angle_beta   90.00000000
_cell_angle_gamma   90.00000000
_symmetry_Int_Tables_number   1
_chemical_formula_structural   AsS2
_chemical_formula_sum   'As8 S16'
_cell_volume   598.73597702
_cell_formula_units_Z   8
loop_
 _symmetry_equiv_pos_site_id
 _symmetry_equiv_pos_as_xyz
  1  'x, y, z'
loop_
 _atom_site_type_symbol
 _atom_site_label
 _atom_site_symmetry_multiplicity
 _atom_site_fract_x
 _atom_site_fract_y
 _atom_site_fract_z
 _atom_site_occupancy
  As  As0  1  0.53310400  0.40356700  0.03276600  1
  As  As1  1  0.03310400  0.59643300  0.96723400  1
  As  As2  1  0.53585900  0.26382600  0.56459000  1
  As  As3  1  0.03585900  0.73617400  0.43541000  1
  As  As4  1  0.32010800  0.11213900  0.34344800  1
  As  As5  1  0.82010800  0.88786100  0.65655200  1
  As  As6  1  0.83151400  0.03949400  0.12400300  1
  As  As7  1  0.33151400  0.96050600  0.87599700  1
  S  S8  1  0.03547900  0.36520200  0.81976400  1
  S  S9  1  0.53547900  0.63479800  0.18023600  1
  S  S10  1  0.82695600  0.27208700  0.27261100  1
  S  S11  1  0.32695600  0.72791300  0.72738900  1
  S  S12  1  0.85807400  0.23671600  0.84609300  1
  S  S13  1  0.35807400  0.76328400  0.15390700  1
  S  S14  1  0.00385900  0.40221400  0.24902100  1
  S  S15  1  0.50385900  0.59778600  0.75097900  1
  S  S16  1  0.53597200  0.05952800  0.38968900  1
  S  S17  1  0.03597200  0.94047200  0.61031100  1
  S  S18  1  0.32355400  0.31407900  0.06793000  1
  S  S19  1  0.82355400  0.68592100  0.93207000  1
  S  S20  1  0.54005300  0.04953600  0.83753000  1
  S  S21  1  0.04005300  0.95046400  0.16247000  1
  S  S22  1  0.32036400  0.31221400  0.52090800  1
  S  S23  1  0.82036400  0.68778600  0.47909200  1
