# generated using pymatgen
data_Ba(CoN)2
_symmetry_space_group_name_H-M   'P 1'
_cell_length_a   6.27733252
_cell_length_b   6.27733252
_cell_length_c   6.27733252
_cell_angle_alpha   121.98485069
_cell_angle_beta   121.98485069
_cell_angle_gamma   86.59519812
_symmetry_Int_Tables_number   1
_chemical_formula_structural   Ba(CoN)2
_chemical_formula_sum   'Ba2 Co4 N4'
_cell_volume   169.33546464
_cell_formula_units_Z   2
loop_
 _symmetry_equiv_pos_site_id
 _symmetry_equiv_pos_as_xyz
  1  'x, y, z'
loop_
 _atom_site_type_symbol
 _atom_site_label
 _atom_site_symmetry_multiplicity
 _atom_site_fract_x
 _atom_site_fract_y
 _atom_site_fract_z
 _atom_site_occupancy
  Ba  Ba0  1  0.25000000  0.25000000  0.00000000  1
  Ba  Ba1  1  0.75000000  0.75000000  0.00000000  1
  Co  Co2  1  0.86762800  0.36762800  0.23525500  1
  Co  Co3  1  0.13237200  0.63237200  0.76474500  1
  Co  Co4  1  0.36762800  0.13237200  0.50000000  1
  Co  Co5  1  0.63237200  0.86762800  0.50000000  1
  N  N6  1  0.33627200  0.83627200  0.17254300  1
  N  N7  1  0.66372800  0.16372800  0.82745700  1
  N  N8  1  0.83627200  0.66372800  0.50000000  1
  N  N9  1  0.16372800  0.33627200  0.50000000  1
