# generated using pymatgen
data_ScZn6
_symmetry_space_group_name_H-M   'P 1'
_cell_length_a   12.01563190
_cell_length_b   12.01563190
_cell_length_c   12.01563190
_cell_angle_alpha   110.11747974
_cell_angle_beta   109.66666870
_cell_angle_gamma   108.63307148
_symmetry_Int_Tables_number   1
_chemical_formula_structural   ScZn6
_chemical_formula_sum   'Sc12 Zn72'
_cell_volume   1335.18530251
_cell_formula_units_Z   12
loop_
 _symmetry_equiv_pos_site_id
 _symmetry_equiv_pos_as_xyz
  1  'x, y, z'
loop_
 _atom_site_type_symbol
 _atom_site_label
 _atom_site_symmetry_multiplicity
 _atom_site_fract_x
 _atom_site_fract_y
 _atom_site_fract_z
 _atom_site_occupancy
  Sc  Sc0  1  0.19203000  0.89390200  0.70187100  1
  Sc  Sc1  1  0.80797000  0.10609800  0.29812900  1
  Sc  Sc2  1  0.19203000  0.49015900  0.29812900  1
  Sc  Sc3  1  0.80797000  0.50984100  0.70187100  1
  Sc  Sc4  1  0.69929900  0.18941700  0.88871600  1
  Sc  Sc5  1  0.30070100  0.81058300  0.11128400  1
  Sc  Sc6  1  0.30070100  0.18941700  0.49011800  1
  Sc  Sc7  1  0.69929900  0.81058300  0.50988200  1
  Sc  Sc8  1  0.89080700  0.69821500  0.19259200  1
  Sc  Sc9  1  0.10919300  0.30178500  0.80740800  1
  Sc  Sc10  1  0.49437700  0.30178500  0.19259200  1
  Sc  Sc11  1  0.50562300  0.69821500  0.80740800  1
  Zn  Zn12  1  0.18937700  0.50000000  0.68937700  1
  Zn  Zn13  1  0.81062300  0.50000000  0.31062300  1
  Zn  Zn14  1  0.69224400  0.19224400  0.50000000  1
  Zn  Zn15  1  0.30775600  0.80775600  0.50000000  1
  Zn  Zn16  1  0.50000000  0.69130600  0.19130600  1
  Zn  Zn17  1  0.50000000  0.30869400  0.80869400  1
  Zn  Zn18  1  0.46253200  0.14175200  0.91855900  1
  Zn  Zn19  1  0.77680700  0.85824800  0.32078000  1
  Zn  Zn20  1  0.22319300  0.54397300  0.08144100  1
  Zn  Zn21  1  0.53746800  0.45602700  0.67922000  1
  Zn  Zn22  1  0.91826100  0.45812700  0.14163900  1
  Zn  Zn23  1  0.31648800  0.77662200  0.85836100  1
  Zn  Zn24  1  0.08173900  0.22337800  0.53986600  1
  Zn  Zn25  1  0.68351200  0.54187300  0.46013400  1
  Zn  Zn26  1  0.14073000  0.91653400  0.45755700  1
  Zn  Zn27  1  0.85927000  0.31682700  0.77580300  1
  Zn  Zn28  1  0.54102400  0.08346600  0.22419700  1
  Zn  Zn29  1  0.45897600  0.68317300  0.54244300  1
  Zn  Zn30  1  0.53746800  0.85824800  0.08144100  1
  Zn  Zn31  1  0.22319300  0.14175200  0.67922000  1
  Zn  Zn32  1  0.77680700  0.45602700  0.91855900  1
  Zn  Zn33  1  0.46253200  0.54397300  0.32078000  1
  Zn  Zn34  1  0.08173900  0.54187300  0.85836100  1
  Zn  Zn35  1  0.68351200  0.22337800  0.14163900  1
  Zn  Zn36  1  0.91826100  0.77662200  0.46013400  1
  Zn  Zn37  1  0.31648800  0.45812700  0.53986600  1
  Zn  Zn38  1  0.85927000  0.08346600  0.54244300  1
  Zn  Zn39  1  0.14073000  0.68317300  0.22419700  1
  Zn  Zn40  1  0.45897600  0.91653400  0.77580300  1
  Zn  Zn41  1  0.54102400  0.31682700  0.45755700  1
  Zn  Zn42  1  0.25665600  0.16313700  0.90648100  1
  Zn  Zn43  1  0.74334400  0.83686300  0.09351900  1
  Zn  Zn44  1  0.25665600  0.35017600  0.09351900  1
  Zn  Zn45  1  0.74334400  0.64982400  0.90648100  1
  Zn  Zn46  1  0.90606800  0.23952200  0.14558900  1
  Zn  Zn47  1  0.09393200  0.76047800  0.85441100  1
  Zn  Zn48  1  0.09393200  0.23952200  0.33345400  1
  Zn  Zn49  1  0.90606800  0.76047800  0.66654600  1
  Zn  Zn50  1  0.14429700  0.90922000  0.23507700  1
  Zn  Zn51  1  0.85570300  0.09078000  0.76492300  1
  Zn  Zn52  1  0.32585600  0.09078000  0.23507700  1
  Zn  Zn53  1  0.67414400  0.90922000  0.76492300  1
  Zn  Zn54  1  0.32437200  0.00130000  0.00107100  1
  Zn  Zn55  1  0.99977100  0.99870000  0.32307200  1
  Zn  Zn56  1  0.00022900  0.32330100  0.99892900  1
  Zn  Zn57  1  0.67562800  0.67669900  0.67692800  1
  Zn  Zn58  1  0.67562800  0.99870000  0.99892900  1
  Zn  Zn59  1  0.00022900  0.00130000  0.67692800  1
  Zn  Zn60  1  0.99977100  0.67669900  0.00107100  1
  Zn  Zn61  1  0.32437200  0.32330100  0.32307200  1
  Zn  Zn62  1  0.40420000  0.05706400  0.65286300  1
  Zn  Zn63  1  0.59580000  0.94293600  0.34713700  1
  Zn  Zn64  1  0.40420000  0.75133700  0.34713700  1
  Zn  Zn65  1  0.59580000  0.24866300  0.65286300  1
  Zn  Zn66  1  0.65411100  0.40442800  0.05853900  1
  Zn  Zn67  1  0.34588900  0.59557200  0.94146100  1
  Zn  Zn68  1  0.34588900  0.40442800  0.75031600  1
  Zn  Zn69  1  0.65411100  0.59557200  0.24968400  1
  Zn  Zn70  1  0.05809500  0.65292100  0.40517400  1
  Zn  Zn71  1  0.94190500  0.34707900  0.59482600  1
  Zn  Zn72  1  0.75225300  0.34707900  0.40517400  1
  Zn  Zn73  1  0.24774700  0.65292100  0.59482600  1
  Zn  Zn74  1  0.40626500  0.00000000  0.40626500  1
  Zn  Zn75  1  0.59373500  0.00000000  0.59373500  1
  Zn  Zn76  1  0.41004100  0.41004100  0.00000000  1
  Zn  Zn77  1  0.58995900  0.58995900  0.00000000  1
  Zn  Zn78  1  0.00000000  0.40512100  0.40512100  1
  Zn  Zn79  1  0.00000000  0.59487900  0.59487900  1
  Zn  Zn80  1  0.08435700  0.99397900  0.90962200  1
  Zn  Zn81  1  0.91564300  0.00602100  0.09037800  1
  Zn  Zn82  1  0.08435700  0.17473600  0.09037800  1
  Zn  Zn83  1  0.91564300  0.82526400  0.90962200  1
