# generated using pymatgen
data_Cs2PaF7
_symmetry_space_group_name_H-M   'P 1'
_cell_length_a   8.20922388
_cell_length_b   8.20922388
_cell_length_c   8.49343182
_cell_angle_alpha   61.26838835
_cell_angle_beta   61.26838835
_cell_angle_gamma   53.59742470
_symmetry_Int_Tables_number   1
_chemical_formula_structural   Cs2PaF7
_chemical_formula_sum   'Cs4 Pa2 F14'
_cell_volume   388.17699357
_cell_formula_units_Z   2
loop_
 _symmetry_equiv_pos_site_id
 _symmetry_equiv_pos_as_xyz
  1  'x, y, z'
loop_
 _atom_site_type_symbol
 _atom_site_label
 _atom_site_symmetry_multiplicity
 _atom_site_fract_x
 _atom_site_fract_y
 _atom_site_fract_z
 _atom_site_occupancy
  Cs  Cs0  1  0.84274800  0.81754000  0.61862400  1
  Cs  Cs1  1  0.18246000  0.15725200  0.88137600  1
  Cs  Cs2  1  0.15725200  0.18246000  0.38137600  1
  Cs  Cs3  1  0.81754000  0.84274800  0.11862400  1
  Pa  Pa4  1  0.46809500  0.53190500  0.75000000  1
  Pa  Pa5  1  0.53190500  0.46809500  0.25000000  1
  F  F6  1  0.55387200  0.30951400  0.07844200  1
  F  F7  1  0.69048600  0.44612800  0.42155800  1
  F  F8  1  0.44612800  0.69048600  0.92155800  1
  F  F9  1  0.30951400  0.55387200  0.57844200  1
  F  F10  1  0.59641000  0.19628200  0.78744100  1
  F  F11  1  0.80371800  0.40359000  0.71255900  1
  F  F12  1  0.40359000  0.80371800  0.21255900  1
  F  F13  1  0.19628200  0.59641000  0.28744100  1
  F  F14  1  0.54543600  0.77846500  0.52898300  1
  F  F15  1  0.22153500  0.45456400  0.97101700  1
  F  F16  1  0.45456400  0.22153500  0.47101700  1
  F  F17  1  0.77846500  0.54543600  0.02898300  1
  F  F18  1  0.16691700  0.83308300  0.75000000  1
  F  F19  1  0.83308300  0.16691700  0.25000000  1
