# generated using pymatgen
data_Tl2P4Pd3O14
_symmetry_space_group_name_H-M   'P 1'
_cell_length_a   10.10994594
_cell_length_b   10.10994594
_cell_length_c   10.10994594
_cell_angle_alpha   119.76875690
_cell_angle_beta   119.59497009
_cell_angle_gamma   90.55198278
_symmetry_Int_Tables_number   1
_chemical_formula_structural   Tl2P4Pd3O14
_chemical_formula_sum   'Tl4 P8 Pd6 O28'
_cell_volume   734.16183182
_cell_formula_units_Z   2
loop_
 _symmetry_equiv_pos_site_id
 _symmetry_equiv_pos_as_xyz
  1  'x, y, z'
loop_
 _atom_site_type_symbol
 _atom_site_label
 _atom_site_symmetry_multiplicity
 _atom_site_fract_x
 _atom_site_fract_y
 _atom_site_fract_z
 _atom_site_occupancy
  Tl  Tl0  1  0.28972600  0.97613300  0.31359200  1
  Tl  Tl1  1  0.71027400  0.02386700  0.68640800  1
  Tl  Tl2  1  0.16254100  0.47613300  0.68640800  1
  Tl  Tl3  1  0.83745900  0.52386700  0.31359200  1
  P  P4  1  0.17424400  0.36951600  0.24429200  1
  P  P5  1  0.82575600  0.07004800  0.19527200  1
  P  P6  1  0.62522400  0.86951600  0.19527200  1
  P  P7  1  0.37477600  0.57004800  0.24429200  1
  P  P8  1  0.82575600  0.63048400  0.75570800  1
  P  P9  1  0.17424400  0.92995200  0.80472800  1
  P  P10  1  0.37477600  0.13048400  0.80472800  1
  P  P11  1  0.62522400  0.42995200  0.75570800  1
  Pd  Pd12  1  0.30942000  0.75000000  0.55942000  1
  Pd  Pd13  1  0.69058000  0.25000000  0.44058000  1
  Pd  Pd14  1  0.00000000  0.00000000  0.00000000  1
  Pd  Pd15  1  0.50000000  0.50000000  0.00000000  1
  Pd  Pd16  1  0.00000000  0.50000000  0.00000000  1
  Pd  Pd17  1  0.00000000  0.00000000  0.50000000  1
  O  O18  1  0.33008000  0.41700500  0.24708400  1
  O  O19  1  0.66992000  0.91700500  0.08692500  1
  O  O20  1  0.66992000  0.58299500  0.75291600  1
  O  O21  1  0.33008000  0.08299500  0.91307500  1
  O  O22  1  0.17110400  0.21586200  0.23987300  1
  O  O23  1  0.82889600  0.06876900  0.04475800  1
  O  O24  1  0.47598900  0.71586200  0.04475800  1
  O  O25  1  0.52401100  0.56876900  0.23987300  1
  O  O26  1  0.82889600  0.78413800  0.76012700  1
  O  O27  1  0.17110400  0.93123100  0.95524200  1
  O  O28  1  0.52401100  0.28413800  0.95524200  1
  O  O29  1  0.47598900  0.43123100  0.76012700  1
  O  O30  1  0.20476700  0.50899800  0.42959500  1
  O  O31  1  0.79523300  0.22482800  0.30423100  1
  O  O32  1  0.57940300  0.00899800  0.30423100  1
  O  O33  1  0.42059700  0.72482800  0.42959500  1
  O  O34  1  0.79523300  0.49100200  0.57040500  1
  O  O35  1  0.20476700  0.77517200  0.69576900  1
  O  O36  1  0.42059700  0.99100200  0.69576900  1
  O  O37  1  0.57940300  0.27517200  0.57040500  1
  O  O38  1  0.02125700  0.33862800  0.06793700  1
  O  O39  1  0.97874300  0.04668000  0.31737000  1
  O  O40  1  0.77069100  0.83862800  0.31737000  1
  O  O41  1  0.22930900  0.54668000  0.06793700  1
  O  O42  1  0.97874300  0.66137200  0.93206300  1
  O  O43  1  0.02125700  0.95332000  0.68263000  1
  O  O44  1  0.22930900  0.16137200  0.68263000  1
  O  O45  1  0.77069100  0.45332000  0.93206300  1
