# generated using pymatgen
data_Y4MgPd
_symmetry_space_group_name_H-M   'P 1'
_cell_length_a   9.81067950
_cell_length_b   9.81067950
_cell_length_c   9.81067950
_cell_angle_alpha   60.00000000
_cell_angle_beta   60.00000000
_cell_angle_gamma   60.00000000
_symmetry_Int_Tables_number   1
_chemical_formula_structural   Y4MgPd
_chemical_formula_sum   'Y16 Mg4 Pd4'
_cell_volume   667.70136844
_cell_formula_units_Z   4
loop_
 _symmetry_equiv_pos_site_id
 _symmetry_equiv_pos_as_xyz
  1  'x, y, z'
loop_
 _atom_site_type_symbol
 _atom_site_label
 _atom_site_symmetry_multiplicity
 _atom_site_fract_x
 _atom_site_fract_y
 _atom_site_fract_z
 _atom_site_occupancy
  Y  Y0  1  0.35081000  0.35081000  0.35081000  1
  Y  Y1  1  0.35081000  0.35081000  0.94757000  1
  Y  Y2  1  0.35081000  0.94757000  0.35081000  1
  Y  Y3  1  0.94757000  0.35081000  0.35081000  1
  Y  Y4  1  0.81145400  0.18854600  0.18854600  1
  Y  Y5  1  0.18854600  0.81145400  0.81145400  1
  Y  Y6  1  0.18854600  0.81145400  0.18854600  1
  Y  Y7  1  0.81145400  0.18854600  0.81145400  1
  Y  Y8  1  0.18854600  0.18854600  0.81145400  1
  Y  Y9  1  0.81145400  0.81145400  0.18854600  1
  Y  Y10  1  0.93285400  0.56714600  0.56714600  1
  Y  Y11  1  0.56714600  0.93285400  0.93285400  1
  Y  Y12  1  0.56714600  0.93285400  0.56714600  1
  Y  Y13  1  0.93285400  0.56714600  0.93285400  1
  Y  Y14  1  0.56714600  0.56714600  0.93285400  1
  Y  Y15  1  0.93285400  0.93285400  0.56714600  1
  Mg  Mg16  1  0.58025700  0.58025700  0.58025700  1
  Mg  Mg17  1  0.58025700  0.58025700  0.25922800  1
  Mg  Mg18  1  0.58025700  0.25922800  0.58025700  1
  Mg  Mg19  1  0.25922800  0.58025700  0.58025700  1
  Pd  Pd20  1  0.14339800  0.14339800  0.14339800  1
  Pd  Pd21  1  0.14339800  0.14339800  0.56980500  1
  Pd  Pd22  1  0.14339800  0.56980500  0.14339800  1
  Pd  Pd23  1  0.56980500  0.14339800  0.14339800  1
