# generated using pymatgen
data_DyCoSi
_symmetry_space_group_name_H-M   'P 1'
_cell_length_a   4.19649800
_cell_length_b   6.83775700
_cell_length_c   6.94274600
_cell_angle_alpha   90.00000000
_cell_angle_beta   90.00000000
_cell_angle_gamma   90.00000000
_symmetry_Int_Tables_number   1
_chemical_formula_structural   DyCoSi
_chemical_formula_sum   'Dy4 Co4 Si4'
_cell_volume   199.21955247
_cell_formula_units_Z   4
loop_
 _symmetry_equiv_pos_site_id
 _symmetry_equiv_pos_as_xyz
  1  'x, y, z'
loop_
 _atom_site_type_symbol
 _atom_site_label
 _atom_site_symmetry_multiplicity
 _atom_site_fract_x
 _atom_site_fract_y
 _atom_site_fract_z
 _atom_site_occupancy
  Dy  Dy0  1  0.75000000  0.18608400  0.52008800  1
  Dy  Dy1  1  0.25000000  0.81391600  0.47991200  1
  Dy  Dy2  1  0.75000000  0.31391600  0.02008800  1
  Dy  Dy3  1  0.25000000  0.68608400  0.97991200  1
  Co  Co4  1  0.25000000  0.06613300  0.14303700  1
  Co  Co5  1  0.75000000  0.93386700  0.85696300  1
  Co  Co6  1  0.25000000  0.43386700  0.64303700  1
  Co  Co7  1  0.75000000  0.56613300  0.35696300  1
  Si  Si8  1  0.75000000  0.89248800  0.19369000  1
  Si  Si9  1  0.25000000  0.10751200  0.80631000  1
  Si  Si10  1  0.75000000  0.60751200  0.69369000  1
  Si  Si11  1  0.25000000  0.39248800  0.30631000  1
