# generated using pymatgen
data_Rb4U3(AsO8)2
_symmetry_space_group_name_H-M   'P 1'
_cell_length_a   17.65169900
_cell_length_b   7.16757500
_cell_length_c   7.22161743
_cell_angle_alpha   89.08124371
_cell_angle_beta   90.00000000
_cell_angle_gamma   90.00000000
_symmetry_Int_Tables_number   1
_chemical_formula_structural   Rb4U3(AsO8)2
_chemical_formula_sum   'Rb8 U6 As4 O32'
_cell_volume   913.56068024
_cell_formula_units_Z   2
loop_
 _symmetry_equiv_pos_site_id
 _symmetry_equiv_pos_as_xyz
  1  'x, y, z'
loop_
 _atom_site_type_symbol
 _atom_site_label
 _atom_site_symmetry_multiplicity
 _atom_site_fract_x
 _atom_site_fract_y
 _atom_site_fract_z
 _atom_site_occupancy
  Rb  Rb0  1  0.88464700  0.53653000  0.10562800  1
  Rb  Rb1  1  0.38464700  0.46347000  0.89437100  1
  Rb  Rb2  1  0.11535300  0.46347000  0.89437100  1
  Rb  Rb3  1  0.61535300  0.53653000  0.10562800  1
  Rb  Rb4  1  0.25000000  0.95764800  0.94748300  1
  Rb  Rb5  1  0.75000000  0.04235200  0.05251700  1
  Rb  Rb6  1  0.00000000  0.00000000  0.00000000  1
  Rb  Rb7  1  0.50000000  0.00000000  0.00000000  1
  U  U8  1  0.25000000  0.28247200  0.42123600  1
  U  U9  1  0.75000000  0.71752800  0.57876400  1
  U  U10  1  0.14442900  0.78089600  0.42281400  1
  U  U11  1  0.64442900  0.21910400  0.57718600  1
  U  U12  1  0.85557100  0.21910400  0.57718600  1
  U  U13  1  0.35557100  0.78089600  0.42281400  1
  As  As14  1  0.05404700  0.28407300  0.39973200  1
  As  As15  1  0.55404700  0.71592700  0.60026800  1
  As  As16  1  0.94595300  0.71592700  0.60026800  1
  As  As17  1  0.44595300  0.28407300  0.39973200  1
  O  O18  1  0.01659800  0.33345900  0.19039800  1
  O  O19  1  0.51659800  0.66654100  0.80960200  1
  O  O20  1  0.98340200  0.66654100  0.80960200  1
  O  O21  1  0.48340200  0.33345900  0.19039800  1
  O  O22  1  0.99015000  0.24092000  0.57582400  1
  O  O23  1  0.49015000  0.75908000  0.42417600  1
  O  O24  1  0.00985000  0.75908000  0.42417600  1
  O  O25  1  0.50985000  0.24092000  0.57582400  1
  O  O26  1  0.11840100  0.10151300  0.38028400  1
  O  O27  1  0.61840100  0.89848700  0.61971600  1
  O  O28  1  0.88159900  0.89848700  0.61971600  1
  O  O29  1  0.38159900  0.10151300  0.38028400  1
  O  O30  1  0.12144400  0.44615700  0.47115800  1
  O  O31  1  0.62144400  0.55384300  0.52884200  1
  O  O32  1  0.87855600  0.55384300  0.52884200  1
  O  O33  1  0.37855600  0.44615700  0.47115800  1
  O  O34  1  0.25000000  0.26009100  0.67685300  1
  O  O35  1  0.75000000  0.73990900  0.32314700  1
  O  O36  1  0.25000000  0.30577500  0.16586800  1
  O  O37  1  0.75000000  0.69422500  0.83413200  1
  O  O38  1  0.25000000  0.59871000  0.43094300  1
  O  O39  1  0.75000000  0.40129000  0.56905700  1
  O  O40  1  0.25000000  0.96321000  0.39893100  1
  O  O41  1  0.75000000  0.03679000  0.60106900  1
  O  O42  1  0.14533100  0.80543300  0.67797600  1
  O  O43  1  0.64533100  0.19456700  0.32202400  1
  O  O44  1  0.85466900  0.19456700  0.32202400  1
  O  O45  1  0.35466900  0.80543300  0.67797600  1
  O  O46  1  0.13747000  0.75995400  0.16686500  1
  O  O47  1  0.63747000  0.24004600  0.83313500  1
  O  O48  1  0.86253000  0.24004600  0.83313500  1
  O  O49  1  0.36253000  0.75995400  0.16686500  1
