# generated using pymatgen
data_UF5
_symmetry_space_group_name_H-M   'P 1'
_cell_length_a   5.36763907
_cell_length_b   5.36763907
_cell_length_c   5.36763907
_cell_angle_alpha   100.27984565
_cell_angle_beta   100.27984565
_cell_angle_gamma   130.02245431
_symmetry_Int_Tables_number   1
_chemical_formula_structural   UF5
_chemical_formula_sum   'U1 F5'
_cell_volume   107.34365874
_cell_formula_units_Z   1
loop_
 _symmetry_equiv_pos_site_id
 _symmetry_equiv_pos_as_xyz
  1  'x, y, z'
loop_
 _atom_site_type_symbol
 _atom_site_label
 _atom_site_symmetry_multiplicity
 _atom_site_fract_x
 _atom_site_fract_y
 _atom_site_fract_z
 _atom_site_occupancy
  U  U0  1  0.00000000  0.00000000  0.00000000  1
  F  F1  1  0.27575300  0.10431400  0.38006700  1
  F  F2  1  0.50000000  0.50000000  0.00000000  1
  F  F3  1  0.72424700  0.89568600  0.61993300  1
  F  F4  1  0.10431400  0.72424700  0.82856100  1
  F  F5  1  0.89568600  0.27575300  0.17143900  1
