# generated using pymatgen
data_Nd2(Al3Rh)3
_symmetry_space_group_name_H-M   'P 1'
_cell_length_a   7.63719632
_cell_length_b   7.63719632
_cell_length_c   9.63319700
_cell_angle_alpha   90.00000000
_cell_angle_beta   90.00000000
_cell_angle_gamma   119.39936590
_symmetry_Int_Tables_number   1
_chemical_formula_structural   Nd2(Al3Rh)3
_chemical_formula_sum   'Nd4 Al18 Rh6'
_cell_volume   489.51478197
_cell_formula_units_Z   2
loop_
 _symmetry_equiv_pos_site_id
 _symmetry_equiv_pos_as_xyz
  1  'x, y, z'
loop_
 _atom_site_type_symbol
 _atom_site_label
 _atom_site_symmetry_multiplicity
 _atom_site_fract_x
 _atom_site_fract_y
 _atom_site_fract_z
 _atom_site_occupancy
  Nd  Nd0  1  0.99541200  0.66903500  0.75000000  1
  Nd  Nd1  1  0.00458800  0.33096500  0.25000000  1
  Nd  Nd2  1  0.66903500  0.99541200  0.75000000  1
  Nd  Nd3  1  0.33096500  0.00458800  0.25000000  1
  Al  Al4  1  0.12775000  0.12775000  0.75000000  1
  Al  Al5  1  0.87225000  0.87225000  0.25000000  1
  Al  Al6  1  0.00342300  0.33466100  0.57243600  1
  Al  Al7  1  0.99657700  0.66533900  0.42756400  1
  Al  Al8  1  0.99657700  0.66533900  0.07243600  1
  Al  Al9  1  0.33466100  0.00342300  0.92756400  1
  Al  Al10  1  0.00342300  0.33466100  0.92756400  1
  Al  Al11  1  0.66533900  0.99657700  0.07243600  1
  Al  Al12  1  0.66533900  0.99657700  0.42756400  1
  Al  Al13  1  0.33466100  0.00342300  0.57243600  1
  Al  Al14  1  0.33491400  0.33491400  0.05086300  1
  Al  Al15  1  0.66508600  0.66508600  0.94913700  1
  Al  Al16  1  0.66508600  0.66508600  0.55086300  1
  Al  Al17  1  0.33491400  0.33491400  0.44913700  1
  Al  Al18  1  0.33747400  0.54571700  0.75000000  1
  Al  Al19  1  0.66252600  0.45428300  0.25000000  1
  Al  Al20  1  0.54571700  0.33747400  0.75000000  1
  Al  Al21  1  0.45428300  0.66252600  0.25000000  1
  Rh  Rh22  1  0.67116600  0.32883400  0.50000000  1
  Rh  Rh23  1  0.32883400  0.67116600  0.50000000  1
  Rh  Rh24  1  0.32883400  0.67116600  0.00000000  1
  Rh  Rh25  1  0.67116600  0.32883400  0.00000000  1
  Rh  Rh26  1  0.00000000  0.00000000  0.50000000  1
  Rh  Rh27  1  0.00000000  0.00000000  0.00000000  1
