# generated using pymatgen
data_Sr2Al5Pd4
_symmetry_space_group_name_H-M   'P 1'
_cell_length_a   4.32168200
_cell_length_b   11.13856100
_cell_length_c   18.30957400
_cell_angle_alpha   90.00000000
_cell_angle_beta   90.00000000
_cell_angle_gamma   90.00000000
_symmetry_Int_Tables_number   1
_chemical_formula_structural   Sr2Al5Pd4
_chemical_formula_sum   'Sr8 Al20 Pd16'
_cell_volume   881.37379669
_cell_formula_units_Z   4
loop_
 _symmetry_equiv_pos_site_id
 _symmetry_equiv_pos_as_xyz
  1  'x, y, z'
loop_
 _atom_site_type_symbol
 _atom_site_label
 _atom_site_symmetry_multiplicity
 _atom_site_fract_x
 _atom_site_fract_y
 _atom_site_fract_z
 _atom_site_occupancy
  Sr  Sr0  1  0.25000000  0.16617200  0.80653900  1
  Sr  Sr1  1  0.25000000  0.33382800  0.30653900  1
  Sr  Sr2  1  0.75000000  0.83382800  0.19346100  1
  Sr  Sr3  1  0.75000000  0.66617200  0.69346100  1
  Sr  Sr4  1  0.25000000  0.73932700  0.50773100  1
  Sr  Sr5  1  0.25000000  0.76067300  0.00773100  1
  Sr  Sr6  1  0.75000000  0.26067300  0.49226900  1
  Sr  Sr7  1  0.75000000  0.23932700  0.99226900  1
  Al  Al8  1  0.25000000  0.85796600  0.82664800  1
  Al  Al9  1  0.25000000  0.64203400  0.32664800  1
  Al  Al10  1  0.75000000  0.14203400  0.17335200  1
  Al  Al11  1  0.75000000  0.35796600  0.67335200  1
  Al  Al12  1  0.25000000  0.04437200  0.54654800  1
  Al  Al13  1  0.25000000  0.45562800  0.04654800  1
  Al  Al14  1  0.75000000  0.95562800  0.45345200  1
  Al  Al15  1  0.75000000  0.54437200  0.95345200  1
  Al  Al16  1  0.25000000  0.92876700  0.67756000  1
  Al  Al17  1  0.25000000  0.57123300  0.17756000  1
  Al  Al18  1  0.75000000  0.07123300  0.32244000  1
  Al  Al19  1  0.75000000  0.42876700  0.82244000  1
  Al  Al20  1  0.25000000  0.45252700  0.60115000  1
  Al  Al21  1  0.25000000  0.04747300  0.10115000  1
  Al  Al22  1  0.75000000  0.54747300  0.39885000  1
  Al  Al23  1  0.75000000  0.95252700  0.89885000  1
  Al  Al24  1  0.25000000  0.60898900  0.83727200  1
  Al  Al25  1  0.25000000  0.89101100  0.33727200  1
  Al  Al26  1  0.75000000  0.39101100  0.16272800  1
  Al  Al27  1  0.75000000  0.10898900  0.66272800  1
  Pd  Pd28  1  0.25000000  0.43530400  0.74432100  1
  Pd  Pd29  1  0.25000000  0.06469600  0.24432100  1
  Pd  Pd30  1  0.75000000  0.56469600  0.25567900  1
  Pd  Pd31  1  0.75000000  0.93530400  0.75567900  1
  Pd  Pd32  1  0.25000000  0.41994800  0.90922300  1
  Pd  Pd33  1  0.25000000  0.08005200  0.40922300  1
  Pd  Pd34  1  0.75000000  0.58005200  0.09077700  1
  Pd  Pd35  1  0.75000000  0.91994800  0.59077700  1
  Pd  Pd36  1  0.25000000  0.22498900  0.63588700  1
  Pd  Pd37  1  0.25000000  0.27501100  0.13588700  1
  Pd  Pd38  1  0.75000000  0.77501100  0.36411300  1
  Pd  Pd39  1  0.75000000  0.72498900  0.86411300  1
  Pd  Pd40  1  0.25000000  0.01507700  0.95154200  1
  Pd  Pd41  1  0.25000000  0.48492300  0.45154200  1
  Pd  Pd42  1  0.75000000  0.98492300  0.04845800  1
  Pd  Pd43  1  0.75000000  0.51507700  0.54845800  1
