# generated using pymatgen
data_CsEr3Se5
_symmetry_space_group_name_H-M   'P 1'
_cell_length_a   4.12487200
_cell_length_b   12.42991100
_cell_length_c   22.13008700
_cell_angle_alpha   90.00000000
_cell_angle_beta   90.00000000
_cell_angle_gamma   90.00000000
_symmetry_Int_Tables_number   1
_chemical_formula_structural   CsEr3Se5
_chemical_formula_sum   'Cs4 Er12 Se20'
_cell_volume   1134.64921421
_cell_formula_units_Z   4
loop_
 _symmetry_equiv_pos_site_id
 _symmetry_equiv_pos_as_xyz
  1  'x, y, z'
loop_
 _atom_site_type_symbol
 _atom_site_label
 _atom_site_symmetry_multiplicity
 _atom_site_fract_x
 _atom_site_fract_y
 _atom_site_fract_z
 _atom_site_occupancy
  Cs  Cs0  1  0.25000000  0.85337200  0.09238200  1
  Cs  Cs1  1  0.75000000  0.14662800  0.90761800  1
  Cs  Cs2  1  0.75000000  0.35337200  0.40761800  1
  Cs  Cs3  1  0.25000000  0.64662800  0.59238200  1
  Er  Er4  1  0.75000000  0.79702200  0.82525100  1
  Er  Er5  1  0.25000000  0.20297800  0.17474900  1
  Er  Er6  1  0.25000000  0.29702200  0.67474900  1
  Er  Er7  1  0.75000000  0.70297800  0.32525100  1
  Er  Er8  1  0.25000000  0.95711100  0.69783600  1
  Er  Er9  1  0.75000000  0.04288900  0.30216400  1
  Er  Er10  1  0.75000000  0.45711100  0.80216400  1
  Er  Er11  1  0.25000000  0.54288900  0.19783600  1
  Er  Er12  1  0.75000000  0.39187300  0.05403500  1
  Er  Er13  1  0.25000000  0.60812700  0.94596500  1
  Er  Er14  1  0.25000000  0.89187300  0.44596500  1
  Er  Er15  1  0.75000000  0.10812700  0.55403500  1
  Se  Se16  1  0.25000000  0.94843300  0.56896100  1
  Se  Se17  1  0.75000000  0.05156700  0.43103900  1
  Se  Se18  1  0.75000000  0.44843300  0.93103900  1
  Se  Se19  1  0.25000000  0.55156700  0.06896100  1
  Se  Se20  1  0.75000000  0.76402300  0.95217100  1
  Se  Se21  1  0.25000000  0.23597700  0.04782900  1
  Se  Se22  1  0.25000000  0.26402300  0.54782900  1
  Se  Se23  1  0.75000000  0.73597700  0.45217100  1
  Se  Se24  1  0.25000000  0.94911100  0.82534100  1
  Se  Se25  1  0.75000000  0.05088900  0.17465900  1
  Se  Se26  1  0.75000000  0.44911100  0.67465900  1
  Se  Se27  1  0.25000000  0.55088900  0.32534100  1
  Se  Se28  1  0.75000000  0.12599200  0.68463500  1
  Se  Se29  1  0.25000000  0.87400800  0.31536500  1
  Se  Se30  1  0.25000000  0.62599200  0.81536500  1
  Se  Se31  1  0.75000000  0.37400800  0.18463500  1
  Se  Se32  1  0.75000000  0.69347300  0.19777700  1
  Se  Se33  1  0.25000000  0.30652700  0.80222300  1
  Se  Se34  1  0.25000000  0.19347300  0.30222300  1
  Se  Se35  1  0.75000000  0.80652700  0.69777700  1
