# generated using pymatgen
data_Cs(FeP)2
_symmetry_space_group_name_H-M   'P 1'
_cell_length_a   7.64765624
_cell_length_b   7.64765624
_cell_length_c   7.64765624
_cell_angle_alpha   150.93793659
_cell_angle_beta   150.93793659
_cell_angle_gamma   41.56633285
_symmetry_Int_Tables_number   1
_chemical_formula_structural   Cs(FeP)2
_chemical_formula_sum   'Cs1 Fe2 P2'
_cell_volume   105.30292381
_cell_formula_units_Z   1
loop_
 _symmetry_equiv_pos_site_id
 _symmetry_equiv_pos_as_xyz
  1  'x, y, z'
loop_
 _atom_site_type_symbol
 _atom_site_label
 _atom_site_symmetry_multiplicity
 _atom_site_fract_x
 _atom_site_fract_y
 _atom_site_fract_z
 _atom_site_occupancy
  Cs  Cs0  1  0.00000000  0.00000000  0.00000000  1
  Fe  Fe1  1  0.75000000  0.25000000  0.50000000  1
  Fe  Fe2  1  0.25000000  0.75000000  0.50000000  1
  P  P3  1  0.32446700  0.32446700  0.00000000  1
  P  P4  1  0.67553300  0.67553300  0.00000000  1
