# generated using pymatgen
data_Ba2CePbO6
_symmetry_space_group_name_H-M   'P 1'
_cell_length_a   6.21166042
_cell_length_b   6.21166042
_cell_length_c   6.21166040
_cell_angle_alpha   60.33716780
_cell_angle_beta   60.33716780
_cell_angle_gamma   60.33716882
_symmetry_Int_Tables_number   1
_chemical_formula_structural   Ba2CePbO6
_chemical_formula_sum   'Ba2 Ce1 Pb1 O6'
_cell_volume   170.76873247
_cell_formula_units_Z   1
loop_
 _symmetry_equiv_pos_site_id
 _symmetry_equiv_pos_as_xyz
  1  'x, y, z'
loop_
 _atom_site_type_symbol
 _atom_site_label
 _atom_site_symmetry_multiplicity
 _atom_site_fract_x
 _atom_site_fract_y
 _atom_site_fract_z
 _atom_site_occupancy
  Ba  Ba0  1  0.24987000  0.24987000  0.24987000  1
  Ba  Ba1  1  0.75013000  0.75013000  0.75013000  1
  Ce  Ce2  1  0.50000000  0.50000000  0.50000000  1
  Pb  Pb3  1  0.00000000  0.00000000  0.00000000  1
  O  O4  1  0.24836100  0.80088700  0.70195300  1
  O  O5  1  0.70195300  0.24836100  0.80088700  1
  O  O6  1  0.80088700  0.70195300  0.24836100  1
  O  O7  1  0.75163900  0.19911300  0.29804700  1
  O  O8  1  0.29804700  0.75163900  0.19911300  1
  O  O9  1  0.19911300  0.29804700  0.75163900  1
