# generated using pymatgen
data_Nd3(Al3Ru)4
_symmetry_space_group_name_H-M   'P 1'
_cell_length_a   8.89169633
_cell_length_b   8.89169633
_cell_length_c   9.68019500
_cell_angle_alpha   90.00000000
_cell_angle_beta   90.00000000
_cell_angle_gamma   120.00000246
_symmetry_Int_Tables_number   1
_chemical_formula_structural   Nd3(Al3Ru)4
_chemical_formula_sum   'Nd6 Al24 Ru8'
_cell_volume   662.80224585
_cell_formula_units_Z   2
loop_
 _symmetry_equiv_pos_site_id
 _symmetry_equiv_pos_as_xyz
  1  'x, y, z'
loop_
 _atom_site_type_symbol
 _atom_site_label
 _atom_site_symmetry_multiplicity
 _atom_site_fract_x
 _atom_site_fract_y
 _atom_site_fract_z
 _atom_site_occupancy
  Nd  Nd0  1  0.19232100  0.38464100  0.25000000  1
  Nd  Nd1  1  0.80767900  0.61535900  0.75000000  1
  Nd  Nd2  1  0.61535900  0.80767900  0.25000000  1
  Nd  Nd3  1  0.38464100  0.19232100  0.75000000  1
  Nd  Nd4  1  0.19232100  0.80767900  0.25000000  1
  Nd  Nd5  1  0.80767900  0.19232100  0.75000000  1
  Al  Al6  1  0.33333300  0.66666700  0.01029700  1
  Al  Al7  1  0.66666700  0.33333300  0.98970300  1
  Al  Al8  1  0.66666700  0.33333300  0.51029700  1
  Al  Al9  1  0.33333300  0.66666700  0.48970300  1
  Al  Al10  1  0.16220400  0.32440800  0.57598000  1
  Al  Al11  1  0.83779600  0.67559200  0.42402000  1
  Al  Al12  1  0.67559200  0.83779600  0.57598000  1
  Al  Al13  1  0.83779600  0.67559200  0.07598000  1
  Al  Al14  1  0.32440800  0.16220400  0.42402000  1
  Al  Al15  1  0.16220400  0.32440800  0.92402000  1
  Al  Al16  1  0.16220400  0.83779600  0.57598000  1
  Al  Al17  1  0.32440800  0.16220400  0.07598000  1
  Al  Al18  1  0.83779600  0.16220400  0.42402000  1
  Al  Al19  1  0.67559200  0.83779600  0.92402000  1
  Al  Al20  1  0.83779600  0.16220400  0.07598000  1
  Al  Al21  1  0.16220400  0.83779600  0.92402000  1
  Al  Al22  1  0.56229000  0.12458000  0.25000000  1
  Al  Al23  1  0.43771000  0.87542000  0.75000000  1
  Al  Al24  1  0.87542000  0.43771000  0.25000000  1
  Al  Al25  1  0.12458000  0.56229000  0.75000000  1
  Al  Al26  1  0.56229000  0.43771000  0.25000000  1
  Al  Al27  1  0.43771000  0.56229000  0.75000000  1
  Al  Al28  1  0.00000000  0.00000000  0.25000000  1
  Al  Al29  1  0.00000000  0.00000000  0.75000000  1
  Ru  Ru30  1  0.50000000  0.00000000  0.00000000  1
  Ru  Ru31  1  0.00000000  0.50000000  0.00000000  1
  Ru  Ru32  1  0.50000000  0.00000000  0.50000000  1
  Ru  Ru33  1  0.50000000  0.50000000  0.00000000  1
  Ru  Ru34  1  0.00000000  0.50000000  0.50000000  1
  Ru  Ru35  1  0.50000000  0.50000000  0.50000000  1
  Ru  Ru36  1  0.00000000  0.00000000  0.00000000  1
  Ru  Ru37  1  0.00000000  0.00000000  0.50000000  1
