# generated using pymatgen
data_TmAu
_symmetry_space_group_name_H-M   'P 1'
_cell_length_a   5.77018632
_cell_length_b   5.77018632
_cell_length_c   4.63862700
_cell_angle_alpha   90.00000000
_cell_angle_beta   90.00000000
_cell_angle_gamma   143.15055646
_symmetry_Int_Tables_number   1
_chemical_formula_structural   TmAu
_chemical_formula_sum   'Tm2 Au2'
_cell_volume   92.62187729
_cell_formula_units_Z   2
loop_
 _symmetry_equiv_pos_site_id
 _symmetry_equiv_pos_as_xyz
  1  'x, y, z'
loop_
 _atom_site_type_symbol
 _atom_site_label
 _atom_site_symmetry_multiplicity
 _atom_site_fract_x
 _atom_site_fract_y
 _atom_site_fract_z
 _atom_site_occupancy
  Tm  Tm0  1  0.86003300  0.13996700  0.75000000  1
  Tm  Tm1  1  0.13996700  0.86003300  0.25000000  1
  Au  Au2  1  0.58902500  0.41097500  0.75000000  1
  Au  Au3  1  0.41097500  0.58902500  0.25000000  1
