# generated using pymatgen
data_RbCrP2O7
_symmetry_space_group_name_H-M   'P 1'
_cell_length_a   10.06723200
_cell_length_b   7.59864600
_cell_length_c   8.37257530
_cell_angle_alpha   74.01150062
_cell_angle_beta   90.00000000
_cell_angle_gamma   90.00000000
_symmetry_Int_Tables_number   1
_chemical_formula_structural   RbCrP2O7
_chemical_formula_sum   'Rb4 Cr4 P8 O28'
_cell_volume   615.70400092
_cell_formula_units_Z   4
loop_
 _symmetry_equiv_pos_site_id
 _symmetry_equiv_pos_as_xyz
  1  'x, y, z'
loop_
 _atom_site_type_symbol
 _atom_site_label
 _atom_site_symmetry_multiplicity
 _atom_site_fract_x
 _atom_site_fract_y
 _atom_site_fract_z
 _atom_site_occupancy
  Rb  Rb0  1  0.31159800  0.18631300  0.45057100  1
  Rb  Rb1  1  0.81159800  0.81368700  0.04942900  1
  Rb  Rb2  1  0.68840200  0.81368700  0.54942900  1
  Rb  Rb3  1  0.18840200  0.18631300  0.95057100  1
  Cr  Cr4  1  0.39895100  0.76203600  0.26039500  1
  Cr  Cr5  1  0.89895100  0.23796400  0.23960500  1
  Cr  Cr6  1  0.60104900  0.23796400  0.73960500  1
  Cr  Cr7  1  0.10104900  0.76203600  0.76039500  1
  P  P8  1  0.59589600  0.13134900  0.16775700  1
  P  P9  1  0.09589600  0.86865100  0.33224300  1
  P  P10  1  0.40410400  0.86865100  0.83224300  1
  P  P11  1  0.90410400  0.13134900  0.66775700  1
  P  P12  1  0.63268800  0.43338000  0.31222400  1
  P  P13  1  0.13268800  0.56662000  0.18777600  1
  P  P14  1  0.36731200  0.56662000  0.68777600  1
  P  P15  1  0.86731200  0.43338000  0.81222400  1
  O  O16  1  0.27992200  0.55540400  0.24065200  1
  O  O17  1  0.77992200  0.44459600  0.25934800  1
  O  O18  1  0.72007800  0.44459600  0.75934800  1
  O  O19  1  0.22007800  0.55540400  0.74065200  1
  O  O20  1  0.49873300  0.99134100  0.27365800  1
  O  O21  1  0.99873300  0.00865900  0.22634200  1
  O  O22  1  0.50126700  0.00865900  0.72634200  1
  O  O23  1  0.00126700  0.99134100  0.77365800  1
  O  O24  1  0.57549400  0.62744200  0.26773000  1
  O  O25  1  0.07549400  0.37255800  0.23227000  1
  O  O26  1  0.42450600  0.37255800  0.73227000  1
  O  O27  1  0.92450600  0.62744200  0.76773000  1
  O  O28  1  0.23614300  0.91343100  0.25809500  1
  O  O29  1  0.73614300  0.08656900  0.24190500  1
  O  O30  1  0.76385700  0.08656900  0.74190500  1
  O  O31  1  0.26385700  0.91343100  0.75809500  1
  O  O32  1  0.39494000  0.67965900  0.51097600  1
  O  O33  1  0.89494000  0.32034100  0.98902400  1
  O  O34  1  0.60506000  0.32034100  0.48902400  1
  O  O35  1  0.10506000  0.67965900  0.01097600  1
  O  O36  1  0.55351100  0.32860400  0.19359500  1
  O  O37  1  0.05351100  0.67139600  0.30640500  1
  O  O38  1  0.44648900  0.67139600  0.80640500  1
  O  O39  1  0.94648900  0.32860400  0.69359500  1
  O  O40  1  0.58891000  0.14707700  0.98498000  1
  O  O41  1  0.08891000  0.85292300  0.51502000  1
  O  O42  1  0.41109000  0.85292300  0.01502000  1
  O  O43  1  0.91109000  0.14707700  0.48498000  1
