# generated using pymatgen
data_Sc2B6Ir
_symmetry_space_group_name_H-M   'P 1'
_cell_length_a   3.47035300
_cell_length_b   8.92722700
_cell_length_c   11.21558200
_cell_angle_alpha   90.00000000
_cell_angle_beta   90.00000000
_cell_angle_gamma   90.00000000
_symmetry_Int_Tables_number   1
_chemical_formula_structural   Sc2B6Ir
_chemical_formula_sum   'Sc8 B24 Ir4'
_cell_volume   347.46578497
_cell_formula_units_Z   4
loop_
 _symmetry_equiv_pos_site_id
 _symmetry_equiv_pos_as_xyz
  1  'x, y, z'
loop_
 _atom_site_type_symbol
 _atom_site_label
 _atom_site_symmetry_multiplicity
 _atom_site_fract_x
 _atom_site_fract_y
 _atom_site_fract_z
 _atom_site_occupancy
  Sc  Sc0  1  0.50000000  0.31767300  0.41372300  1
  Sc  Sc1  1  0.50000000  0.68232700  0.58627700  1
  Sc  Sc2  1  0.50000000  0.18232700  0.91372300  1
  Sc  Sc3  1  0.50000000  0.81767300  0.08627700  1
  Sc  Sc4  1  0.50000000  0.44505900  0.12454600  1
  Sc  Sc5  1  0.50000000  0.55494100  0.87545400  1
  Sc  Sc6  1  0.50000000  0.05494100  0.62454600  1
  Sc  Sc7  1  0.50000000  0.94505900  0.37545400  1
  B  B8  1  0.00000000  0.10380800  0.47151500  1
  B  B9  1  0.00000000  0.89619200  0.52848500  1
  B  B10  1  0.00000000  0.39619200  0.97151500  1
  B  B11  1  0.00000000  0.60380800  0.02848500  1
  B  B12  1  0.00000000  0.13205600  0.31853700  1
  B  B13  1  0.00000000  0.86794400  0.68146300  1
  B  B14  1  0.00000000  0.36794400  0.81853700  1
  B  B15  1  0.00000000  0.63205600  0.18146300  1
  B  B16  1  0.00000000  0.05425600  0.06350000  1
  B  B17  1  0.00000000  0.94574400  0.93650000  1
  B  B18  1  0.00000000  0.44574400  0.56350000  1
  B  B19  1  0.00000000  0.55425600  0.43650000  1
  B  B20  1  0.00000000  0.48054500  0.28664700  1
  B  B21  1  0.00000000  0.51945500  0.71335300  1
  B  B22  1  0.00000000  0.01945500  0.78664700  1
  B  B23  1  0.00000000  0.98054500  0.21335300  1
  B  B24  1  0.00000000  0.25332200  0.07719200  1
  B  B25  1  0.00000000  0.74667800  0.92280800  1
  B  B26  1  0.00000000  0.24667800  0.57719200  1
  B  B27  1  0.00000000  0.75332200  0.42280800  1
  B  B28  1  0.00000000  0.29680100  0.23619900  1
  B  B29  1  0.00000000  0.70319900  0.76380100  1
  B  B30  1  0.00000000  0.20319900  0.73619900  1
  B  B31  1  0.00000000  0.79680100  0.26380100  1
  Ir  Ir32  1  0.50000000  0.14072200  0.17949500  1
  Ir  Ir33  1  0.50000000  0.85927800  0.82050500  1
  Ir  Ir34  1  0.50000000  0.35927800  0.67949500  1
  Ir  Ir35  1  0.50000000  0.64072200  0.32050500  1
