# generated using pymatgen
data_SmZnRh
_symmetry_space_group_name_H-M   'P 1'
_cell_length_a   4.11861900
_cell_length_b   7.05329700
_cell_length_c   8.21794700
_cell_angle_alpha   90.00000000
_cell_angle_beta   90.00000000
_cell_angle_gamma   90.00000000
_symmetry_Int_Tables_number   1
_chemical_formula_structural   SmZnRh
_chemical_formula_sum   'Sm4 Zn4 Rh4'
_cell_volume   238.73007044
_cell_formula_units_Z   4
loop_
 _symmetry_equiv_pos_site_id
 _symmetry_equiv_pos_as_xyz
  1  'x, y, z'
loop_
 _atom_site_type_symbol
 _atom_site_label
 _atom_site_symmetry_multiplicity
 _atom_site_fract_x
 _atom_site_fract_y
 _atom_site_fract_z
 _atom_site_occupancy
  Sm  Sm0  1  0.25000000  0.53759200  0.18636400  1
  Sm  Sm1  1  0.75000000  0.46240800  0.81363600  1
  Sm  Sm2  1  0.25000000  0.03759200  0.31363600  1
  Sm  Sm3  1  0.75000000  0.96240800  0.68636400  1
  Zn  Zn4  1  0.25000000  0.13812100  0.93595200  1
  Zn  Zn5  1  0.75000000  0.86187900  0.06404800  1
  Zn  Zn6  1  0.25000000  0.63812100  0.56404800  1
  Zn  Zn7  1  0.75000000  0.36187900  0.43595200  1
  Rh  Rh8  1  0.75000000  0.74202200  0.37940200  1
  Rh  Rh9  1  0.25000000  0.25797800  0.62059800  1
  Rh  Rh10  1  0.75000000  0.24202200  0.12059800  1
  Rh  Rh11  1  0.25000000  0.75797800  0.87940200  1
