# generated using pymatgen
data_Ho5Pt4
_symmetry_space_group_name_H-M   'P 1'
_cell_length_a   7.45677200
_cell_length_b   7.55488600
_cell_length_c   14.70270800
_cell_angle_alpha   90.00000000
_cell_angle_beta   90.00000000
_cell_angle_gamma   90.00000000
_symmetry_Int_Tables_number   1
_chemical_formula_structural   Ho5Pt4
_chemical_formula_sum   'Ho20 Pt16'
_cell_volume   828.27797245
_cell_formula_units_Z   4
loop_
 _symmetry_equiv_pos_site_id
 _symmetry_equiv_pos_as_xyz
  1  'x, y, z'
loop_
 _atom_site_type_symbol
 _atom_site_label
 _atom_site_symmetry_multiplicity
 _atom_site_fract_x
 _atom_site_fract_y
 _atom_site_fract_z
 _atom_site_occupancy
  Ho  Ho0  1  0.65745000  0.16757000  0.62248800  1
  Ho  Ho1  1  0.15745000  0.33243000  0.87751200  1
  Ho  Ho2  1  0.34255000  0.83243000  0.12248800  1
  Ho  Ho3  1  0.84255000  0.66757000  0.37751200  1
  Ho  Ho4  1  0.34255000  0.83243000  0.37751200  1
  Ho  Ho5  1  0.84255000  0.66757000  0.12248800  1
  Ho  Ho6  1  0.65745000  0.16757000  0.87751200  1
  Ho  Ho7  1  0.15745000  0.33243000  0.62248800  1
  Ho  Ho8  1  0.50101300  0.68024100  0.59256100  1
  Ho  Ho9  1  0.00101300  0.81975900  0.90743900  1
  Ho  Ho10  1  0.49898700  0.31975900  0.09256100  1
  Ho  Ho11  1  0.99898700  0.18024100  0.40743900  1
  Ho  Ho12  1  0.49898700  0.31975900  0.40743900  1
  Ho  Ho13  1  0.99898700  0.18024100  0.09256100  1
  Ho  Ho14  1  0.50101300  0.68024100  0.90743900  1
  Ho  Ho15  1  0.00101300  0.81975900  0.59256100  1
  Ho  Ho16  1  0.81848400  0.51253000  0.75000000  1
  Ho  Ho17  1  0.31848400  0.98747000  0.75000000  1
  Ho  Ho18  1  0.18151600  0.48747000  0.25000000  1
  Ho  Ho19  1  0.68151600  0.01253000  0.25000000  1
  Pt  Pt20  1  0.68277100  0.96736000  0.45830600  1
  Pt  Pt21  1  0.18277100  0.53264000  0.04169400  1
  Pt  Pt22  1  0.31722900  0.03264000  0.95830600  1
  Pt  Pt23  1  0.81722900  0.46736000  0.54169400  1
  Pt  Pt24  1  0.31722900  0.03264000  0.54169400  1
  Pt  Pt25  1  0.81722900  0.46736000  0.95830600  1
  Pt  Pt26  1  0.68277100  0.96736000  0.04169400  1
  Pt  Pt27  1  0.18277100  0.53264000  0.45830600  1
  Pt  Pt28  1  0.45401200  0.38768800  0.75000000  1
  Pt  Pt29  1  0.95401200  0.11231200  0.75000000  1
  Pt  Pt30  1  0.54598800  0.61231200  0.25000000  1
  Pt  Pt31  1  0.04598800  0.88768800  0.25000000  1
  Pt  Pt32  1  0.68419900  0.85716500  0.75000000  1
  Pt  Pt33  1  0.18419900  0.64283500  0.75000000  1
  Pt  Pt34  1  0.31580100  0.14283500  0.25000000  1
  Pt  Pt35  1  0.81580100  0.35716500  0.25000000  1
