# generated using pymatgen
data_NaMg2(SO4)3
_symmetry_space_group_name_H-M   'P 1'
_cell_length_a   8.67528000
_cell_length_b   8.69148684
_cell_length_c   9.02971141
_cell_angle_alpha   61.27858598
_cell_angle_beta   61.29015841
_cell_angle_gamma   60.06166398
_symmetry_Int_Tables_number   1
_chemical_formula_structural   NaMg2(SO4)3
_chemical_formula_sum   'Na2 Mg4 S6 O24'
_cell_volume   490.80576840
_cell_formula_units_Z   2
loop_
 _symmetry_equiv_pos_site_id
 _symmetry_equiv_pos_as_xyz
  1  'x, y, z'
loop_
 _atom_site_type_symbol
 _atom_site_label
 _atom_site_symmetry_multiplicity
 _atom_site_fract_x
 _atom_site_fract_y
 _atom_site_fract_z
 _atom_site_occupancy
  Na  Na0  1  0.50000000  0.00000000  0.50000000  1
  Na  Na1  1  0.00000000  0.50000000  0.00000000  1
  Mg  Mg2  1  0.65139300  0.14761100  0.05227200  1
  Mg  Mg3  1  0.34860700  0.85238900  0.94772800  1
  Mg  Mg4  1  0.85127600  0.35238900  0.44772800  1
  Mg  Mg5  1  0.14872400  0.64761100  0.55227200  1
  S  S6  1  0.95159100  0.75000000  0.25000000  1
  S  S7  1  0.04840900  0.25000000  0.75000000  1
  S  S8  1  0.54074800  0.45592200  0.25127000  1
  S  S9  1  0.45925200  0.54407800  0.74873000  1
  S  S10  1  0.24794000  0.04407800  0.24873000  1
  S  S11  1  0.75206000  0.95592200  0.75127000  1
  O  O12  1  0.41101500  0.07158600  0.23574500  1
  O  O13  1  0.58898500  0.92841400  0.76425500  1
  O  O14  1  0.71834600  0.42841400  0.26425500  1
  O  O15  1  0.28165400  0.57158600  0.73574500  1
  O  O16  1  0.77180300  0.91195000  0.24252400  1
  O  O17  1  0.22819700  0.08805000  0.75747600  1
  O  O18  1  0.92627700  0.58805000  0.25747600  1
  O  O19  1  0.07372300  0.41195000  0.74252400  1
  O  O20  1  0.56822100  0.28109200  0.23389400  1
  O  O21  1  0.43177900  0.71890800  0.76610600  1
  O  O22  1  0.08320600  0.21890800  0.26610600  1
  O  O23  1  0.91679400  0.78109200  0.73389400  1
  O  O24  1  0.50746300  0.61650400  0.09219600  1
  O  O25  1  0.49253700  0.38349600  0.90780400  1
  O  O26  1  0.21616400  0.88349600  0.40780400  1
  O  O27  1  0.78383600  0.11650400  0.59219600  1
  O  O28  1  0.28113200  0.01759800  0.08541100  1
  O  O29  1  0.71886800  0.98240200  0.91458900  1
  O  O30  1  0.38414000  0.48240200  0.41458900  1
  O  O31  1  0.61586000  0.51759800  0.58541100  1
  O  O32  1  0.10599500  0.79111100  0.08742200  1
  O  O33  1  0.89400500  0.20888900  0.91257800  1
  O  O34  1  0.98452700  0.70888900  0.41257800  1
  O  O35  1  0.01547300  0.29111100  0.58742200  1
