# generated using pymatgen
data_Rb2NbCuS4
_symmetry_space_group_name_H-M   'P 1'
_cell_length_a   13.98986513
_cell_length_b   12.47726316
_cell_length_c   7.46683337
_cell_angle_alpha   85.16063384
_cell_angle_beta   62.71025399
_cell_angle_gamma   32.12911218
_symmetry_Int_Tables_number   1
_chemical_formula_structural   Rb2NbCuS4
_chemical_formula_sum   'Rb4 Nb2 Cu2 S8'
_cell_volume   471.78364544
_cell_formula_units_Z   2
loop_
 _symmetry_equiv_pos_site_id
 _symmetry_equiv_pos_as_xyz
  1  'x, y, z'
loop_
 _atom_site_type_symbol
 _atom_site_label
 _atom_site_symmetry_multiplicity
 _atom_site_fract_x
 _atom_site_fract_y
 _atom_site_fract_z
 _atom_site_occupancy
  Rb  Rb0  1  0.32251100  0.32251100  0.67748900  1
  Rb  Rb1  1  0.67748900  0.67748900  0.32251100  1
  Rb  Rb2  1  0.92748900  0.92748900  0.57251100  1
  Rb  Rb3  1  0.57251100  0.57251100  0.92748900  1
  Nb  Nb4  1  0.75000000  0.75000000  0.75000000  1
  Nb  Nb5  1  0.50000000  0.50000000  0.50000000  1
  Cu  Cu6  1  0.25000000  0.25000000  0.25000000  1
  Cu  Cu7  1  0.00000000  0.00000000  0.00000000  1
  S  S8  1  0.89325100  0.21374300  0.29808900  1
  S  S9  1  0.59491800  0.29808900  0.21374300  1
  S  S10  1  0.29808900  0.59491800  0.89325100  1
  S  S11  1  0.21374300  0.89325100  0.59491800  1
  S  S12  1  0.03625700  0.35674900  0.65508200  1
  S  S13  1  0.65508200  0.95191100  0.03625700  1
  S  S14  1  0.95191100  0.65508200  0.35674900  1
  S  S15  1  0.35674900  0.03625700  0.95191100  1
