# generated using pymatgen
data_Sm4CdPd
_symmetry_space_group_name_H-M   'P 1'
_cell_length_a   9.92354930
_cell_length_b   9.92354930
_cell_length_c   9.92354930
_cell_angle_alpha   60.00000000
_cell_angle_beta   60.00000000
_cell_angle_gamma   60.00000000
_symmetry_Int_Tables_number   1
_chemical_formula_structural   Sm4CdPd
_chemical_formula_sum   'Sm16 Cd4 Pd4'
_cell_volume   691.01280670
_cell_formula_units_Z   4
loop_
 _symmetry_equiv_pos_site_id
 _symmetry_equiv_pos_as_xyz
  1  'x, y, z'
loop_
 _atom_site_type_symbol
 _atom_site_label
 _atom_site_symmetry_multiplicity
 _atom_site_fract_x
 _atom_site_fract_y
 _atom_site_fract_z
 _atom_site_occupancy
  Sm  Sm0  1  0.35182100  0.35182100  0.35182100  1
  Sm  Sm1  1  0.35182100  0.35182100  0.94453700  1
  Sm  Sm2  1  0.35182100  0.94453700  0.35182100  1
  Sm  Sm3  1  0.94453700  0.35182100  0.35182100  1
  Sm  Sm4  1  0.80884500  0.19115500  0.19115500  1
  Sm  Sm5  1  0.19115500  0.80884500  0.80884500  1
  Sm  Sm6  1  0.19115500  0.80884500  0.19115500  1
  Sm  Sm7  1  0.80884500  0.19115500  0.80884500  1
  Sm  Sm8  1  0.19115500  0.19115500  0.80884500  1
  Sm  Sm9  1  0.80884500  0.80884500  0.19115500  1
  Sm  Sm10  1  0.93430400  0.56569600  0.56569600  1
  Sm  Sm11  1  0.56569600  0.93430400  0.93430400  1
  Sm  Sm12  1  0.56569600  0.93430400  0.56569600  1
  Sm  Sm13  1  0.93430400  0.56569600  0.93430400  1
  Sm  Sm14  1  0.56569600  0.56569600  0.93430400  1
  Sm  Sm15  1  0.93430400  0.93430400  0.56569600  1
  Cd  Cd16  1  0.58106800  0.58106800  0.58106800  1
  Cd  Cd17  1  0.58106800  0.58106800  0.25679700  1
  Cd  Cd18  1  0.58106800  0.25679700  0.58106800  1
  Cd  Cd19  1  0.25679700  0.58106800  0.58106800  1
  Pd  Pd20  1  0.14351200  0.14351200  0.14351200  1
  Pd  Pd21  1  0.14351200  0.14351200  0.56946300  1
  Pd  Pd22  1  0.14351200  0.56946300  0.14351200  1
  Pd  Pd23  1  0.56946300  0.14351200  0.14351200  1
