# generated using pymatgen
data_NaMg(PO3)3
_symmetry_space_group_name_H-M   'P 1'
_cell_length_a   14.43206961
_cell_length_b   14.43206961
_cell_length_c   14.43206961
_cell_angle_alpha   90.00000000
_cell_angle_beta   90.00000000
_cell_angle_gamma   90.00000000
_symmetry_Int_Tables_number   1
_chemical_formula_structural   NaMg(PO3)3
_chemical_formula_sum   'Na16 Mg16 P48 O144'
_cell_volume   3005.97832544
_cell_formula_units_Z   16
loop_
 _symmetry_equiv_pos_site_id
 _symmetry_equiv_pos_as_xyz
  1  'x, y, z'
loop_
 _atom_site_type_symbol
 _atom_site_label
 _atom_site_symmetry_multiplicity
 _atom_site_fract_x
 _atom_site_fract_y
 _atom_site_fract_z
 _atom_site_occupancy
  Na  Na0  1  0.00000000  0.00000000  0.50000000  1
  Na  Na1  1  0.00000000  0.50000000  -0.00000000  1
  Na  Na2  1  0.50000000  0.00000000  -0.00000000  1
  Na  Na3  1  0.50000000  0.50000000  0.50000000  1
  Na  Na4  1  0.50000000  0.50000000  -0.00000000  1
  Na  Na5  1  0.50000000  0.00000000  0.50000000  1
  Na  Na6  1  0.00000000  0.50000000  0.50000000  1
  Na  Na7  1  0.00000000  0.00000000  -0.00000000  1
  Na  Na8  1  0.25027962  0.74972038  0.24972038  1
  Na  Na9  1  0.74972038  0.24972038  0.25027962  1
  Na  Na10  1  0.24972038  0.25027962  0.74972038  1
  Na  Na11  1  0.75027962  0.75027962  0.75027962  1
  Na  Na12  1  0.74972038  0.25027962  0.75027962  1
  Na  Na13  1  0.25027962  0.75027962  0.74972038  1
  Na  Na14  1  0.75027962  0.74972038  0.25027962  1
  Na  Na15  1  0.24972038  0.24972038  0.24972038  1
  Mg  Mg16  1  0.37025639  0.62974361  0.12974361  1
  Mg  Mg17  1  0.62974361  0.12974361  0.37025639  1
  Mg  Mg18  1  0.12974361  0.37025639  0.62974361  1
  Mg  Mg19  1  0.87025639  0.87025639  0.87025639  1
  Mg  Mg20  1  0.62974361  0.37025639  0.87025639  1
  Mg  Mg21  1  0.37025639  0.87025639  0.62974361  1
  Mg  Mg22  1  0.87025639  0.62974361  0.37025639  1
  Mg  Mg23  1  0.12974361  0.12974361  0.12974361  1
  Mg  Mg24  1  0.12509216  0.87490784  0.37490784  1
  Mg  Mg25  1  0.87490784  0.37490784  0.12509216  1
  Mg  Mg26  1  0.37490784  0.12509216  0.87490784  1
  Mg  Mg27  1  0.62509216  0.62509216  0.62509216  1
  Mg  Mg28  1  0.87490784  0.12509216  0.62509216  1
  Mg  Mg29  1  0.12509216  0.62509216  0.87490784  1
  Mg  Mg30  1  0.62509216  0.87490784  0.12509216  1
  Mg  Mg31  1  0.37490784  0.37490784  0.37490784  1
  P  P32  1  0.02167059  0.52423722  0.24270314  1
  P  P33  1  0.97832941  0.02423722  0.25729686  1
  P  P34  1  0.47832941  0.47576278  0.74270314  1
  P  P35  1  0.52167059  0.97576278  0.75729686  1
  P  P36  1  0.24270314  0.02167059  0.52423722  1
  P  P37  1  0.25729686  0.97832941  0.02423722  1
  P  P38  1  0.74270314  0.47832941  0.47576278  1
  P  P39  1  0.75729686  0.52167059  0.97576278  1
  P  P40  1  0.52423722  0.24270314  0.02167059  1
  P  P41  1  0.02423722  0.25729686  0.97832941  1
  P  P42  1  0.47576278  0.74270314  0.47832941  1
  P  P43  1  0.97576278  0.75729686  0.52167059  1
  P  P44  1  0.97832941  0.47576278  0.75729686  1
  P  P45  1  0.02167059  0.97576278  0.74270314  1
  P  P46  1  0.52167059  0.52423722  0.25729686  1
  P  P47  1  0.47832941  0.02423722  0.24270314  1
  P  P48  1  0.75729686  0.97832941  0.47576278  1
  P  P49  1  0.74270314  0.02167059  0.97576278  1
  P  P50  1  0.25729686  0.52167059  0.52423722  1
  P  P51  1  0.24270314  0.47832941  0.02423722  1
  P  P52  1  0.47576278  0.75729686  0.97832941  1
  P  P53  1  0.97576278  0.74270314  0.02167059  1
  P  P54  1  0.52423722  0.25729686  0.52167059  1
  P  P55  1  0.02423722  0.24270314  0.47832941  1
  P  P56  1  0.01156873  0.72775901  0.22495992  1
  P  P57  1  0.98843127  0.22775901  0.27504008  1
  P  P58  1  0.48843127  0.27224099  0.72495992  1
  P  P59  1  0.51156873  0.77224099  0.77504008  1
  P  P60  1  0.22495992  0.01156873  0.72775901  1
  P  P61  1  0.27504008  0.98843127  0.22775901  1
  P  P62  1  0.72495992  0.48843127  0.27224099  1
  P  P63  1  0.77504008  0.51156873  0.77224099  1
  P  P64  1  0.72775901  0.22495992  0.01156873  1
  P  P65  1  0.22775901  0.27504008  0.98843127  1
  P  P66  1  0.27224099  0.72495992  0.48843127  1
  P  P67  1  0.77224099  0.77504008  0.51156873  1
  P  P68  1  0.98843127  0.27224099  0.77504008  1
  P  P69  1  0.01156873  0.77224099  0.72495992  1
  P  P70  1  0.51156873  0.72775901  0.27504008  1
  P  P71  1  0.48843127  0.22775901  0.22495992  1
  P  P72  1  0.77504008  0.98843127  0.27224099  1
  P  P73  1  0.72495992  0.01156873  0.77224099  1
  P  P74  1  0.27504008  0.51156873  0.72775901  1
  P  P75  1  0.22495992  0.48843127  0.22775901  1
  P  P76  1  0.27224099  0.77504008  0.98843127  1
  P  P77  1  0.77224099  0.72495992  0.01156873  1
  P  P78  1  0.72775901  0.27504008  0.51156873  1
  P  P79  1  0.22775901  0.22495992  0.48843127  1
  O  O80  1  0.37642643  0.99049733  0.27435956  1
  O  O81  1  0.62357357  0.49049733  0.22564044  1
  O  O82  1  0.12357357  0.00950267  0.77435956  1
  O  O83  1  0.87642643  0.50950267  0.72564044  1
  O  O84  1  0.27435956  0.37642643  0.99049733  1
  O  O85  1  0.22564044  0.62357357  0.49049733  1
  O  O86  1  0.77435956  0.12357357  0.00950267  1
  O  O87  1  0.72564044  0.87642643  0.50950267  1
  O  O88  1  0.99049733  0.27435956  0.37642643  1
  O  O89  1  0.49049733  0.22564044  0.62357357  1
  O  O90  1  0.00950267  0.77435956  0.12357357  1
  O  O91  1  0.50950267  0.72564044  0.87642643  1
  O  O92  1  0.62357357  0.00950267  0.72564044  1
  O  O93  1  0.37642643  0.50950267  0.77435956  1
  O  O94  1  0.87642643  0.99049733  0.22564044  1
  O  O95  1  0.12357357  0.49049733  0.27435956  1
  O  O96  1  0.72564044  0.62357357  0.00950267  1
  O  O97  1  0.77435956  0.37642643  0.50950267  1
  O  O98  1  0.22564044  0.87642643  0.99049733  1
  O  O99  1  0.27435956  0.12357357  0.49049733  1
  O  O100  1  0.00950267  0.72564044  0.62357357  1
  O  O101  1  0.50950267  0.77435956  0.37642643  1
  O  O102  1  0.99049733  0.22564044  0.87642643  1
  O  O103  1  0.49049733  0.27435956  0.12357357  1
  O  O104  1  0.46876677  0.53442652  0.16869677  1
  O  O105  1  0.53123323  0.03442652  0.33130323  1
  O  O106  1  0.03123323  0.46557348  0.66869677  1
  O  O107  1  0.96876677  0.96557348  0.83130323  1
  O  O108  1  0.16869677  0.46876677  0.53442652  1
  O  O109  1  0.33130323  0.53123323  0.03442652  1
  O  O110  1  0.66869677  0.03123323  0.46557348  1
  O  O111  1  0.83130323  0.96876677  0.96557348  1
  O  O112  1  0.53442652  0.16869677  0.46876677  1
  O  O113  1  0.03442652  0.33130323  0.53123323  1
  O  O114  1  0.46557348  0.66869677  0.03123323  1
  O  O115  1  0.96557348  0.83130323  0.96876677  1
  O  O116  1  0.53123323  0.46557348  0.83130323  1
  O  O117  1  0.46876677  0.96557348  0.66869677  1
  O  O118  1  0.96876677  0.53442652  0.33130323  1
  O  O119  1  0.03123323  0.03442652  0.16869677  1
  O  O120  1  0.83130323  0.53123323  0.46557348  1
  O  O121  1  0.66869677  0.46876677  0.96557348  1
  O  O122  1  0.33130323  0.96876677  0.53442652  1
  O  O123  1  0.16869677  0.03123323  0.03442652  1
  O  O124  1  0.46557348  0.83130323  0.53123323  1
  O  O125  1  0.96557348  0.66869677  0.46876677  1
  O  O126  1  0.53442652  0.33130323  0.96876677  1
  O  O127  1  0.03442652  0.16869677  0.03123323  1
  O  O128  1  0.01639764  0.96510662  0.33377421  1
  O  O129  1  0.98360236  0.46510662  0.16622579  1
  O  O130  1  0.48360236  0.03489338  0.83377421  1
  O  O131  1  0.51639764  0.53489338  0.66622579  1
  O  O132  1  0.33377421  0.01639764  0.96510662  1
  O  O133  1  0.16622579  0.98360236  0.46510662  1
  O  O134  1  0.83377421  0.48360236  0.03489338  1
  O  O135  1  0.66622579  0.51639764  0.53489338  1
  O  O136  1  0.96510662  0.33377421  0.01639764  1
  O  O137  1  0.46510662  0.16622579  0.98360236  1
  O  O138  1  0.03489338  0.83377421  0.48360236  1
  O  O139  1  0.53489338  0.66622579  0.51639764  1
  O  O140  1  0.98360236  0.03489338  0.66622579  1
  O  O141  1  0.01639764  0.53489338  0.83377421  1
  O  O142  1  0.51639764  0.96510662  0.16622579  1
  O  O143  1  0.48360236  0.46510662  0.33377421  1
  O  O144  1  0.66622579  0.98360236  0.03489338  1
  O  O145  1  0.83377421  0.01639764  0.53489338  1
  O  O146  1  0.16622579  0.51639764  0.96510662  1
  O  O147  1  0.33377421  0.48360236  0.46510662  1
  O  O148  1  0.03489338  0.66622579  0.98360236  1
  O  O149  1  0.53489338  0.83377421  0.01639764  1
  O  O150  1  0.96510662  0.16622579  0.51639764  1
  O  O151  1  0.46510662  0.33377421  0.48360236  1
  O  O152  1  0.41606782  0.72310965  0.23333276  1
  O  O153  1  0.58393218  0.22310965  0.26666724  1
  O  O154  1  0.08393218  0.27689035  0.73333276  1
  O  O155  1  0.91606782  0.77689035  0.76666724  1
  O  O156  1  0.23333276  0.41606782  0.72310965  1
  O  O157  1  0.26666724  0.58393218  0.22310965  1
  O  O158  1  0.73333276  0.08393218  0.27689035  1
  O  O159  1  0.76666724  0.91606782  0.77689035  1
  O  O160  1  0.72310965  0.23333276  0.41606782  1
  O  O161  1  0.22310965  0.26666724  0.58393218  1
  O  O162  1  0.27689035  0.73333276  0.08393218  1
  O  O163  1  0.77689035  0.76666724  0.91606782  1
  O  O164  1  0.58393218  0.27689035  0.76666724  1
  O  O165  1  0.41606782  0.77689035  0.73333276  1
  O  O166  1  0.91606782  0.72310965  0.26666724  1
  O  O167  1  0.08393218  0.22310965  0.23333276  1
  O  O168  1  0.76666724  0.58393218  0.27689035  1
  O  O169  1  0.73333276  0.41606782  0.77689035  1
  O  O170  1  0.26666724  0.91606782  0.72310965  1
  O  O171  1  0.23333276  0.08393218  0.22310965  1
  O  O172  1  0.27689035  0.76666724  0.58393218  1
  O  O173  1  0.77689035  0.73333276  0.41606782  1
  O  O174  1  0.72310965  0.26666724  0.91606782  1
  O  O175  1  0.22310965  0.23333276  0.08393218  1
  O  O176  1  0.08741227  0.77562221  0.27666695  1
  O  O177  1  0.91258773  0.27562221  0.22333305  1
  O  O178  1  0.41258773  0.22437779  0.77666695  1
  O  O179  1  0.58741227  0.72437779  0.72333305  1
  O  O180  1  0.27666695  0.08741227  0.77562221  1
  O  O181  1  0.22333305  0.91258773  0.27562221  1
  O  O182  1  0.77666695  0.41258773  0.22437779  1
  O  O183  1  0.72333305  0.58741227  0.72437779  1
  O  O184  1  0.77562221  0.27666695  0.08741227  1
  O  O185  1  0.27562221  0.22333305  0.91258773  1
  O  O186  1  0.22437779  0.77666695  0.41258773  1
  O  O187  1  0.72437779  0.72333305  0.58741227  1
  O  O188  1  0.91258773  0.22437779  0.72333305  1
  O  O189  1  0.08741227  0.72437779  0.77666695  1
  O  O190  1  0.58741227  0.77562221  0.22333305  1
  O  O191  1  0.41258773  0.27562221  0.27666695  1
  O  O192  1  0.72333305  0.91258773  0.22437779  1
  O  O193  1  0.77666695  0.08741227  0.72437779  1
  O  O194  1  0.22333305  0.58741227  0.77562221  1
  O  O195  1  0.27666695  0.41258773  0.27562221  1
  O  O196  1  0.22437779  0.72333305  0.91258773  1
  O  O197  1  0.72437779  0.77666695  0.08741227  1
  O  O198  1  0.77562221  0.22333305  0.58741227  1
  O  O199  1  0.27562221  0.27666695  0.41258773  1
  O  O200  1  0.04495668  0.62420365  0.19728254  1
  O  O201  1  0.95504332  0.12420365  0.30271746  1
  O  O202  1  0.45504332  0.37579635  0.69728254  1
  O  O203  1  0.54495668  0.87579635  0.80271746  1
  O  O204  1  0.19728254  0.04495668  0.62420365  1
  O  O205  1  0.30271746  0.95504332  0.12420365  1
  O  O206  1  0.69728254  0.45504332  0.37579635  1
  O  O207  1  0.80271746  0.54495668  0.87579635  1
  O  O208  1  0.62420365  0.19728254  0.04495668  1
  O  O209  1  0.12420365  0.30271746  0.95504332  1
  O  O210  1  0.37579635  0.69728254  0.45504332  1
  O  O211  1  0.87579635  0.80271746  0.54495668  1
  O  O212  1  0.95504332  0.37579635  0.80271746  1
  O  O213  1  0.04495668  0.87579635  0.69728254  1
  O  O214  1  0.54495668  0.62420365  0.30271746  1
  O  O215  1  0.45504332  0.12420365  0.19728254  1
  O  O216  1  0.80271746  0.95504332  0.37579635  1
  O  O217  1  0.69728254  0.04495668  0.87579635  1
  O  O218  1  0.30271746  0.54495668  0.62420365  1
  O  O219  1  0.19728254  0.45504332  0.12420365  1
  O  O220  1  0.37579635  0.80271746  0.95504332  1
  O  O221  1  0.87579635  0.69728254  0.04495668  1
  O  O222  1  0.62420365  0.30271746  0.54495668  1
  O  O223  1  0.12420365  0.19728254  0.45504332  1
