# generated using pymatgen
data_Dy5Ir3
_symmetry_space_group_name_H-M   'P 1'
_cell_length_a   10.90446300
_cell_length_b   10.90446300
_cell_length_c   6.34785800
_cell_angle_alpha   90.00000000
_cell_angle_beta   90.00000000
_cell_angle_gamma   90.00000000
_symmetry_Int_Tables_number   1
_chemical_formula_structural   Dy5Ir3
_chemical_formula_sum   'Dy20 Ir12'
_cell_volume   754.80674011
_cell_formula_units_Z   4
loop_
 _symmetry_equiv_pos_site_id
 _symmetry_equiv_pos_as_xyz
  1  'x, y, z'
loop_
 _atom_site_type_symbol
 _atom_site_label
 _atom_site_symmetry_multiplicity
 _atom_site_fract_x
 _atom_site_fract_y
 _atom_site_fract_z
 _atom_site_occupancy
  Dy  Dy0  1  0.29144400  0.08848500  0.37821700  1
  Dy  Dy1  1  0.29144400  0.91151500  0.87821700  1
  Dy  Dy2  1  0.70855600  0.08848500  0.87821700  1
  Dy  Dy3  1  0.70855600  0.91151500  0.37821700  1
  Dy  Dy4  1  0.58848500  0.79144400  0.87821700  1
  Dy  Dy5  1  0.58848500  0.20855600  0.37821700  1
  Dy  Dy6  1  0.41151500  0.79144400  0.37821700  1
  Dy  Dy7  1  0.41151500  0.20855600  0.87821700  1
  Dy  Dy8  1  0.20855600  0.41151500  0.62178300  1
  Dy  Dy9  1  0.20855600  0.58848500  0.12178300  1
  Dy  Dy10  1  0.79144400  0.41151500  0.12178300  1
  Dy  Dy11  1  0.79144400  0.58848500  0.62178300  1
  Dy  Dy12  1  0.91151500  0.70855600  0.12178300  1
  Dy  Dy13  1  0.91151500  0.29144400  0.62178300  1
  Dy  Dy14  1  0.08848500  0.70855600  0.62178300  1
  Dy  Dy15  1  0.08848500  0.29144400  0.12178300  1
  Dy  Dy16  1  0.00000000  0.00000000  0.50000000  1
  Dy  Dy17  1  0.00000000  0.00000000  0.00000000  1
  Dy  Dy18  1  0.50000000  0.50000000  0.00000000  1
  Dy  Dy19  1  0.50000000  0.50000000  0.50000000  1
  Ir  Ir20  1  0.84658900  0.15341100  0.25000000  1
  Ir  Ir21  1  0.84658900  0.84658900  0.75000000  1
  Ir  Ir22  1  0.15341100  0.15341100  0.75000000  1
  Ir  Ir23  1  0.15341100  0.84658900  0.25000000  1
  Ir  Ir24  1  0.65341100  0.34658900  0.75000000  1
  Ir  Ir25  1  0.65341100  0.65341100  0.25000000  1
  Ir  Ir26  1  0.34658900  0.34658900  0.25000000  1
  Ir  Ir27  1  0.34658900  0.65341100  0.75000000  1
  Ir  Ir28  1  0.50000000  0.00000000  0.12348900  1
  Ir  Ir29  1  0.50000000  0.00000000  0.62348900  1
  Ir  Ir30  1  0.00000000  0.50000000  0.87651100  1
  Ir  Ir31  1  0.00000000  0.50000000  0.37651100  1
