# generated using pymatgen
data_PuB2C
_symmetry_space_group_name_H-M   'P 1'
_cell_length_a   5.06940040
_cell_length_b   5.06940040
_cell_length_c   5.06940097
_cell_angle_alpha   79.48020359
_cell_angle_beta   79.48020359
_cell_angle_gamma   79.48020488
_symmetry_Int_Tables_number   1
_chemical_formula_structural   PuB2C
_chemical_formula_sum   'Pu3 B6 C3'
_cell_volume   124.42506779
_cell_formula_units_Z   3
loop_
 _symmetry_equiv_pos_site_id
 _symmetry_equiv_pos_as_xyz
  1  'x, y, z'
loop_
 _atom_site_type_symbol
 _atom_site_label
 _atom_site_symmetry_multiplicity
 _atom_site_fract_x
 _atom_site_fract_y
 _atom_site_fract_z
 _atom_site_occupancy
  Pu  Pu0  1  0.00000000  0.00000000  0.00000000  1
  Pu  Pu1  1  0.69330600  0.69330600  0.69330600  1
  Pu  Pu2  1  0.30669400  0.30669400  0.30669400  1
  B  B3  1  0.23059100  0.76940900  0.50000000  1
  B  B4  1  0.50000000  0.23059100  0.76940900  1
  B  B5  1  0.76940900  0.50000000  0.23059100  1
  B  B6  1  0.50000000  0.76940900  0.23059100  1
  B  B7  1  0.23059100  0.50000000  0.76940900  1
  B  B8  1  0.76940900  0.23059100  0.50000000  1
  C  C9  1  0.00000000  0.00000000  0.50000000  1
  C  C10  1  0.50000000  0.00000000  0.00000000  1
  C  C11  1  0.00000000  0.50000000  0.00000000  1
