# generated using pymatgen
data_Np(PS3)4
_symmetry_space_group_name_H-M   'P 1'
_cell_length_a   10.58747442
_cell_length_b   10.58747442
_cell_length_c   10.58747442
_cell_angle_alpha   102.56366896
_cell_angle_beta   102.56366896
_cell_angle_gamma   124.39890645
_symmetry_Int_Tables_number   1
_chemical_formula_structural   Np(PS3)4
_chemical_formula_sum   'Np2 P8 S24'
_cell_volume   866.22736488
_cell_formula_units_Z   2
loop_
 _symmetry_equiv_pos_site_id
 _symmetry_equiv_pos_as_xyz
  1  'x, y, z'
loop_
 _atom_site_type_symbol
 _atom_site_label
 _atom_site_symmetry_multiplicity
 _atom_site_fract_x
 _atom_site_fract_y
 _atom_site_fract_z
 _atom_site_occupancy
  Np  Np0  1  0.50000000  0.50000000  0.00000000  1
  Np  Np1  1  0.75000000  0.25000000  0.50000000  1
  P  P2  1  0.93951600  0.76190100  0.19029000  1
  P  P3  1  0.57161100  0.74922600  0.80971000  1
  P  P4  1  0.99922600  0.68951600  0.67761500  1
  P  P5  1  0.01190100  0.32161100  0.32238500  1
  P  P6  1  0.31048400  0.98809900  0.30971000  1
  P  P7  1  0.67838900  0.00077400  0.69029000  1
  P  P8  1  0.25077400  0.06048400  0.82238500  1
  P  P9  1  0.23809900  0.42838900  0.17761500  1
  S  S10  1  0.98640900  0.88116300  0.76576000  1
  S  S11  1  0.11540300  0.22064900  0.23424000  1
  S  S12  1  0.47064900  0.73640900  0.60524600  1
  S  S13  1  0.13116300  0.86540300  0.39475400  1
  S  S14  1  0.26359100  0.86883700  0.73424000  1
  S  S15  1  0.13459700  0.52935100  0.26576000  1
  S  S16  1  0.77935100  0.01359100  0.89475400  1
  S  S17  1  0.11883700  0.88459700  0.10524600  1
  S  S18  1  0.85444600  0.55298800  0.46646700  1
  S  S19  1  0.08652100  0.38797900  0.53353300  1
  S  S20  1  0.63797900  0.60444600  0.80145800  1
  S  S21  1  0.80298800  0.83652100  0.19854200  1
  S  S22  1  0.39555400  0.19701200  0.03353300  1
  S  S23  1  0.16347900  0.36202100  0.96646700  1
  S  S24  1  0.61202100  0.14555400  0.69854200  1
  S  S25  1  0.44701200  0.91347900  0.30145800  1
  S  S26  1  0.77847000  0.50918000  0.08648400  1
  S  S27  1  0.42269600  0.69198600  0.91351600  1
  S  S28  1  0.94198600  0.52847000  0.76929000  1
  S  S29  1  0.75918000  0.17269600  0.23071000  1
  S  S30  1  0.47153000  0.24082000  0.41351600  1
  S  S31  1  0.82730400  0.05801400  0.58648400  1
  S  S32  1  0.30801400  0.22153000  0.73071000  1
  S  S33  1  0.49082000  0.57730400  0.26929000  1
