# generated using pymatgen
data_PrGaGe2O7
_symmetry_space_group_name_H-M   'P 1'
_cell_length_a   6.68286700
_cell_length_b   7.39618200
_cell_length_c   13.08038615
_cell_angle_alpha   62.32849482
_cell_angle_beta   90.00000000
_cell_angle_gamma   90.00000000
_symmetry_Int_Tables_number   1
_chemical_formula_structural   PrGaGe2O7
_chemical_formula_sum   'Pr4 Ga4 Ge8 O28'
_cell_volume   572.58595478
_cell_formula_units_Z   4
loop_
 _symmetry_equiv_pos_site_id
 _symmetry_equiv_pos_as_xyz
  1  'x, y, z'
loop_
 _atom_site_type_symbol
 _atom_site_label
 _atom_site_symmetry_multiplicity
 _atom_site_fract_x
 _atom_site_fract_y
 _atom_site_fract_z
 _atom_site_occupancy
  Pr  Pr0  1  0.35355600  0.73919000  0.52548300  1
  Pr  Pr1  1  0.64644400  0.26081000  0.47451700  1
  Pr  Pr2  1  0.85355600  0.26081000  0.97451700  1
  Pr  Pr3  1  0.14644400  0.73919000  0.02548300  1
  Ga  Ga4  1  0.39938900  0.71494500  0.26852400  1
  Ga  Ga5  1  0.60061100  0.28505500  0.73147600  1
  Ga  Ga6  1  0.89938900  0.28505500  0.23147600  1
  Ga  Ga7  1  0.10061100  0.71494500  0.76852400  1
  Ge  Ge8  1  0.65858000  0.71256400  0.04667900  1
  Ge  Ge9  1  0.34142000  0.28743600  0.95332100  1
  Ge  Ge10  1  0.15858000  0.28743600  0.45332100  1
  Ge  Ge11  1  0.84142000  0.71256400  0.54667900  1
  Ge  Ge12  1  0.91128500  0.80036300  0.28206300  1
  Ge  Ge13  1  0.08871500  0.19963700  0.71793700  1
  Ge  Ge14  1  0.41128500  0.19963700  0.21793700  1
  Ge  Ge15  1  0.58871500  0.80036300  0.78206300  1
  O  O16  1  0.37346500  0.93289800  0.30431000  1
  O  O17  1  0.62653500  0.06710200  0.69569000  1
  O  O18  1  0.87346500  0.06710200  0.19569000  1
  O  O19  1  0.12653500  0.93289800  0.80431000  1
  O  O20  1  0.82363700  0.90757800  0.02252800  1
  O  O21  1  0.17636300  0.09242200  0.97747200  1
  O  O22  1  0.32363700  0.09242200  0.47747200  1
  O  O23  1  0.67636300  0.90757800  0.52252800  1
  O  O24  1  0.60902700  0.27627900  0.27874700  1
  O  O25  1  0.39097300  0.72372100  0.72125300  1
  O  O26  1  0.10902700  0.72372100  0.22125300  1
  O  O27  1  0.89097300  0.27627900  0.77874700  1
  O  O28  1  0.99703400  0.74856000  0.42612700  1
  O  O29  1  0.00296600  0.25144000  0.57387300  1
  O  O30  1  0.49703400  0.25144000  0.07387300  1
  O  O31  1  0.50296600  0.74856000  0.92612700  1
  O  O32  1  0.44875400  0.70330800  0.13061300  1
  O  O33  1  0.55124600  0.29669200  0.86938700  1
  O  O34  1  0.94875400  0.29669200  0.36938700  1
  O  O35  1  0.05124600  0.70330800  0.63061300  1
  O  O36  1  0.83827400  0.51009800  0.08097800  1
  O  O37  1  0.16172600  0.48990200  0.91902200  1
  O  O38  1  0.33827400  0.48990200  0.41902200  1
  O  O39  1  0.66172600  0.51009800  0.58097800  1
  O  O40  1  0.68774000  0.65641800  0.31471700  1
  O  O41  1  0.31226000  0.34358200  0.68528300  1
  O  O42  1  0.18774000  0.34358200  0.18528300  1
  O  O43  1  0.81226000  0.65641800  0.81471700  1
