# generated using pymatgen
data_TiGeS3
_symmetry_space_group_name_H-M   'P 1'
_cell_length_a   3.50525000
_cell_length_b   9.11114200
_cell_length_c   13.42202900
_cell_angle_alpha   90.00000000
_cell_angle_beta   90.00000000
_cell_angle_gamma   90.00000000
_symmetry_Int_Tables_number   1
_chemical_formula_structural   TiGeS3
_chemical_formula_sum   'Ti4 Ge4 S12'
_cell_volume   428.65706508
_cell_formula_units_Z   4
loop_
 _symmetry_equiv_pos_site_id
 _symmetry_equiv_pos_as_xyz
  1  'x, y, z'
loop_
 _atom_site_type_symbol
 _atom_site_label
 _atom_site_symmetry_multiplicity
 _atom_site_fract_x
 _atom_site_fract_y
 _atom_site_fract_z
 _atom_site_occupancy
  Ti  Ti0  1  0.75000000  0.34658100  0.95273400  1
  Ti  Ti1  1  0.75000000  0.84658100  0.54726600  1
  Ti  Ti2  1  0.25000000  0.65341900  0.04726600  1
  Ti  Ti3  1  0.25000000  0.15341900  0.45273400  1
  Ge  Ge4  1  0.25000000  0.07087900  0.83934200  1
  Ge  Ge5  1  0.25000000  0.57087900  0.66065800  1
  Ge  Ge6  1  0.75000000  0.92912100  0.16065800  1
  Ge  Ge7  1  0.75000000  0.42912100  0.33934200  1
  S  S8  1  0.25000000  0.51282700  0.89284000  1
  S  S9  1  0.25000000  0.01282700  0.60716000  1
  S  S10  1  0.75000000  0.48717300  0.10716000  1
  S  S11  1  0.75000000  0.98717300  0.39284000  1
  S  S12  1  0.75000000  0.23487700  0.78691600  1
  S  S13  1  0.75000000  0.73487700  0.71308400  1
  S  S14  1  0.25000000  0.76512300  0.21308400  1
  S  S15  1  0.25000000  0.26512300  0.28691600  1
  S  S16  1  0.25000000  0.17831200  0.00827500  1
  S  S17  1  0.25000000  0.67831200  0.49172500  1
  S  S18  1  0.75000000  0.82168800  0.99172500  1
  S  S19  1  0.75000000  0.32168800  0.50827500  1
