# generated using pymatgen
data_TbCrO4
_symmetry_space_group_name_H-M   'P 1'
_cell_length_a   6.01568116
_cell_length_b   6.01568116
_cell_length_c   6.01568116
_cell_angle_alpha   105.96377204
_cell_angle_beta   105.96377204
_cell_angle_gamma   116.73989894
_symmetry_Int_Tables_number   1
_chemical_formula_structural   TbCrO4
_chemical_formula_sum   'Tb2 Cr2 O8'
_cell_volume   165.53674055
_cell_formula_units_Z   2
loop_
 _symmetry_equiv_pos_site_id
 _symmetry_equiv_pos_as_xyz
  1  'x, y, z'
loop_
 _atom_site_type_symbol
 _atom_site_label
 _atom_site_symmetry_multiplicity
 _atom_site_fract_x
 _atom_site_fract_y
 _atom_site_fract_z
 _atom_site_occupancy
  Tb  Tb0  1  0.00000000  0.00000000  0.00000000  1
  Tb  Tb1  1  0.25000000  0.75000000  0.50000000  1
  Cr  Cr2  1  0.75000000  0.25000000  0.50000000  1
  Cr  Cr3  1  0.50000000  0.50000000  0.00000000  1
  O  O4  1  0.32611500  0.50970500  0.18359000  1
  O  O5  1  0.39252500  0.07611500  0.31641000  1
  O  O6  1  0.75970500  0.07611500  0.68359000  1
  O  O7  1  0.32611500  0.14252500  0.81641000  1
  O  O8  1  0.85747500  0.67388500  0.18359000  1
  O  O9  1  0.92388500  0.24029500  0.31641000  1
  O  O10  1  0.92388500  0.60747500  0.68359000  1
  O  O11  1  0.49029500  0.67388500  0.81641000  1
