# generated using pymatgen
data_Nd2Ti2O7
_symmetry_space_group_name_H-M   'P 1'
_cell_length_a   5.52429400
_cell_length_b   7.70291400
_cell_length_c   13.29079287
_cell_angle_alpha   81.56511200
_cell_angle_beta   90.00000000
_cell_angle_gamma   90.00000000
_symmetry_Int_Tables_number   1
_chemical_formula_structural   Nd2Ti2O7
_chemical_formula_sum   'Nd8 Ti8 O28'
_cell_volume   559.44764950
_cell_formula_units_Z   4
loop_
 _symmetry_equiv_pos_site_id
 _symmetry_equiv_pos_as_xyz
  1  'x, y, z'
loop_
 _atom_site_type_symbol
 _atom_site_label
 _atom_site_symmetry_multiplicity
 _atom_site_fract_x
 _atom_site_fract_y
 _atom_site_fract_z
 _atom_site_occupancy
  Nd  Nd0  1  0.75338400  0.73059500  0.08541600  1
  Nd  Nd1  1  0.25338400  0.26940500  0.91458400  1
  Nd  Nd2  1  0.73996200  0.21777900  0.12395900  1
  Nd  Nd3  1  0.23996200  0.78222100  0.87604100  1
  Nd  Nd4  1  0.35497900  0.64511500  0.43067700  1
  Nd  Nd5  1  0.85497900  0.35488500  0.56932300  1
  Nd  Nd6  1  0.28237100  0.14898500  0.38208700  1
  Nd  Nd7  1  0.78237100  0.85101500  0.61791300  1
  Ti  Ti8  1  0.25581600  0.97131300  0.12406200  1
  Ti  Ti9  1  0.75581600  0.02868700  0.87593800  1
  Ti  Ti10  1  0.25768300  0.46829700  0.12123600  1
  Ti  Ti11  1  0.75768300  0.53170300  0.87876400  1
  Ti  Ti12  1  0.79339400  0.91439800  0.32606400  1
  Ti  Ti13  1  0.29339400  0.08560200  0.67393600  1
  Ti  Ti14  1  0.78420900  0.42974100  0.32028500  1
  Ti  Ti15  1  0.28420900  0.57025900  0.67971500  1
  O  O16  1  0.01325500  0.54690800  0.97832800  1
  O  O17  1  0.51325500  0.45309200  0.02167200  1
  O  O18  1  0.01212000  0.96472800  0.97635400  1
  O  O19  1  0.51212000  0.03527200  0.02364600  1
  O  O20  1  0.31219600  0.72214500  0.11142500  1
  O  O21  1  0.81219600  0.27785500  0.88857500  1
  O  O22  1  0.15950700  0.22706400  0.09243300  1
  O  O23  1  0.65950700  0.77293600  0.90756700  1
  O  O24  1  0.93216700  0.93029200  0.18055400  1
  O  O25  1  0.43216700  0.06970800  0.81944600  1
  O  O26  1  0.93526800  0.48010300  0.18221200  1
  O  O27  1  0.43526800  0.51989700  0.81778800  1
  O  O28  1  0.44527000  0.00531900  0.23180600  1
  O  O29  1  0.94527000  0.99468100  0.76819400  1
  O  O30  1  0.44878800  0.38088300  0.22894600  1
  O  O31  1  0.94878800  0.61911700  0.77105400  1
  O  O32  1  0.68809900  0.67348500  0.30776300  1
  O  O33  1  0.18809900  0.32651500  0.69223700  1
  O  O34  1  0.85174200  0.17225600  0.30616000  1
  O  O35  1  0.35174200  0.82774400  0.69384000  1
  O  O36  1  0.07807600  0.87178300  0.38690800  1
  O  O37  1  0.06724700  0.63142300  0.57169500  1
  O  O38  1  0.57807600  0.12821700  0.61309200  1
  O  O39  1  0.55249900  0.57662600  0.59458400  1
  O  O40  1  0.58496600  0.91016200  0.44157200  1
  O  O41  1  0.08496600  0.08983800  0.55842800  1
  O  O42  1  0.56724700  0.36857700  0.42830500  1
  O  O43  1  0.05249900  0.42337400  0.40541600  1
