# generated using pymatgen
data_Li6Eu(BO3)3
_symmetry_space_group_name_H-M   'P 1'
_cell_length_a   16.61009100
_cell_length_b   6.78139100
_cell_length_c   7.34275545
_cell_angle_alpha   74.60121105
_cell_angle_beta   90.00000000
_cell_angle_gamma   90.00000000
_symmetry_Int_Tables_number   1
_chemical_formula_structural   Li6Eu(BO3)3
_chemical_formula_sum   'Li24 Eu4 B12 O36'
_cell_volume   797.39297057
_cell_formula_units_Z   4
loop_
 _symmetry_equiv_pos_site_id
 _symmetry_equiv_pos_as_xyz
  1  'x, y, z'
loop_
 _atom_site_type_symbol
 _atom_site_label
 _atom_site_symmetry_multiplicity
 _atom_site_fract_x
 _atom_site_fract_y
 _atom_site_fract_z
 _atom_site_occupancy
  Li  Li0  1  0.96454500  0.94708500  0.19396800  1
  Li  Li1  1  0.03545500  0.05291500  0.80603200  1
  Li  Li2  1  0.46454500  0.55291500  0.80603200  1
  Li  Li3  1  0.53545500  0.44708500  0.19396800  1
  Li  Li4  1  0.55460300  0.91166400  0.63893400  1
  Li  Li5  1  0.44539700  0.08833600  0.36106600  1
  Li  Li6  1  0.05460300  0.58833600  0.36106600  1
  Li  Li7  1  0.94539700  0.41166400  0.63893400  1
  Li  Li8  1  0.46903500  0.83206600  0.04316100  1
  Li  Li9  1  0.53096500  0.16793400  0.95683900  1
  Li  Li10  1  0.96903500  0.66793400  0.95683900  1
  Li  Li11  1  0.03096500  0.33206600  0.04316100  1
  Li  Li12  1  0.70608700  0.86728800  0.78885800  1
  Li  Li13  1  0.29391300  0.13271200  0.21114200  1
  Li  Li14  1  0.20608700  0.63271200  0.21114200  1
  Li  Li15  1  0.79391300  0.36728800  0.78885800  1
  Li  Li16  1  0.79628600  0.95469400  0.06283400  1
  Li  Li17  1  0.20371400  0.04530600  0.93716600  1
  Li  Li18  1  0.29628600  0.54530600  0.93716600  1
  Li  Li19  1  0.70371400  0.45469400  0.06283400  1
  Li  Li20  1  0.99711600  0.82266900  0.57441100  1
  Li  Li21  1  0.00288400  0.17733100  0.42558900  1
  Li  Li22  1  0.49711600  0.67733100  0.42558900  1
  Li  Li23  1  0.50288400  0.32266900  0.57441100  1
  Eu  Eu24  1  0.69148500  0.65349400  0.42360400  1
  Eu  Eu25  1  0.30851500  0.34650600  0.57639600  1
  Eu  Eu26  1  0.19148500  0.84650600  0.57639600  1
  Eu  Eu27  1  0.80851500  0.15349400  0.42360400  1
  B  B28  1  0.88181800  0.99930000  0.79076200  1
  B  B29  1  0.11818200  0.00070000  0.20923800  1
  B  B30  1  0.38181800  0.50070000  0.20923800  1
  B  B31  1  0.61818200  0.49930000  0.79076200  1
  B  B32  1  0.61455300  0.81263800  0.05949900  1
  B  B33  1  0.38544700  0.18736200  0.94050100  1
  B  B34  1  0.11455300  0.68736200  0.94050100  1
  B  B35  1  0.88544700  0.31263800  0.05949900  1
  B  B36  1  0.86620000  0.66205500  0.41900400  1
  B  B37  1  0.13380000  0.33794500  0.58099600  1
  B  B38  1  0.36620000  0.83794500  0.58099600  1
  B  B39  1  0.63380000  0.16205500  0.41900400  1
  O  O40  1  0.94803300  0.67563400  0.41424200  1
  O  O41  1  0.05196700  0.32436600  0.58575800  1
  O  O42  1  0.44803300  0.82436600  0.58575800  1
  O  O43  1  0.55196700  0.17563400  0.41424200  1
  O  O44  1  0.69706500  0.77441300  0.07564100  1
  O  O45  1  0.30293500  0.22558700  0.92435900  1
  O  O46  1  0.19706500  0.72558700  0.92435900  1
  O  O47  1  0.80293500  0.27441300  0.07564100  1
  O  O48  1  0.81753700  0.83128700  0.34414100  1
  O  O49  1  0.18246300  0.16871300  0.65585900  1
  O  O50  1  0.31753700  0.66871300  0.65585900  1
  O  O51  1  0.68246300  0.33128700  0.34414100  1
  O  O52  1  0.56738200  0.73258800  0.21854500  1
  O  O53  1  0.43261800  0.26741200  0.78145500  1
  O  O54  1  0.06738200  0.76741200  0.78145500  1
  O  O55  1  0.93261800  0.23258800  0.21854500  1
  O  O56  1  0.41400900  0.58582600  0.03509600  1
  O  O57  1  0.58599100  0.41417400  0.96490400  1
  O  O58  1  0.91400900  0.91417400  0.96490400  1
  O  O59  1  0.08599100  0.08582600  0.03509600  1
  O  O60  1  0.57898100  0.92502800  0.89467000  1
  O  O61  1  0.42101900  0.07497200  0.10533000  1
  O  O62  1  0.07898100  0.57497200  0.10533000  1
  O  O63  1  0.92101900  0.42502800  0.89467000  1
  O  O64  1  0.42838600  0.46074400  0.37301600  1
  O  O65  1  0.57161400  0.53925600  0.62698400  1
  O  O66  1  0.92838600  0.03925600  0.62698400  1
  O  O67  1  0.07161400  0.96074400  0.37301600  1
  O  O68  1  0.67168200  0.97710200  0.50727500  1
  O  O69  1  0.32831800  0.02289800  0.49272500  1
  O  O70  1  0.17168200  0.52289800  0.49272500  1
  O  O71  1  0.82831800  0.47710200  0.50727500  1
  O  O72  1  0.19947500  0.94613200  0.23192100  1
  O  O73  1  0.80052500  0.05386800  0.76807900  1
  O  O74  1  0.69947500  0.55386800  0.76807900  1
  O  O75  1  0.30052500  0.44613200  0.23192100  1
