# generated using pymatgen
data_CrI3
_symmetry_space_group_name_H-M   'P 1'
_cell_length_a   7.00751474
_cell_length_b   7.00751474
_cell_length_c   21.39423300
_cell_angle_alpha   90.00000000
_cell_angle_beta   90.00000000
_cell_angle_gamma   120.00000702
_symmetry_Int_Tables_number   1
_chemical_formula_structural   CrI3
_chemical_formula_sum   'Cr6 I18'
_cell_volume   909.81975532
_cell_formula_units_Z   6
loop_
 _symmetry_equiv_pos_site_id
 _symmetry_equiv_pos_as_xyz
  1  'x, y, z'
loop_
 _atom_site_type_symbol
 _atom_site_label
 _atom_site_symmetry_multiplicity
 _atom_site_fract_x
 _atom_site_fract_y
 _atom_site_fract_z
 _atom_site_occupancy
  Cr  Cr0  1  0.55440200  0.77720100  0.00000000  1
  Cr  Cr1  1  0.22279900  0.77720100  0.33333300  1
  Cr  Cr2  1  0.22279900  0.44559800  0.66666700  1
  Cr  Cr3  1  0.88857200  0.44428600  0.00000000  1
  Cr  Cr4  1  0.55571400  0.44428600  0.33333300  1
  Cr  Cr5  1  0.55571400  0.11142800  0.66666700  1
  I  I6  1  0.22180100  0.46963500  0.92664100  1
  I  I7  1  0.53036500  0.75216600  0.25997400  1
  I  I8  1  0.22180100  0.75216600  0.07335900  1
  I  I9  1  0.24783400  0.77819900  0.59330700  1
  I  I10  1  0.53036500  0.77819900  0.74002600  1
  I  I11  1  0.24783400  0.46963500  0.40669300  1
  I  I12  1  0.58077900  0.11084900  0.92670600  1
  I  I13  1  0.88915100  0.46993000  0.26003900  1
  I  I14  1  0.58077900  0.46993000  0.07329400  1
  I  I15  1  0.53007000  0.41922100  0.59337300  1
  I  I16  1  0.88915100  0.41922100  0.73996100  1
  I  I17  1  0.53007000  0.11084900  0.40662700  1
  I  I18  1  0.86292800  0.11099800  0.07356400  1
  I  I19  1  0.88900200  0.75192900  0.40689700  1
  I  I20  1  0.86292800  0.75192900  0.92643600  1
  I  I21  1  0.24807100  0.13707200  0.74023100  1
  I  I22  1  0.88900200  0.13707200  0.59310300  1
  I  I23  1  0.24807100  0.11099800  0.25976900  1
