# generated using pymatgen
data_TePtPb
_symmetry_space_group_name_H-M   'P 1'
_cell_length_a   6.74269200
_cell_length_b   6.74269200
_cell_length_c   6.74269200
_cell_angle_alpha   90.00000000
_cell_angle_beta   90.00000000
_cell_angle_gamma   90.00000000
_symmetry_Int_Tables_number   1
_chemical_formula_structural   TePtPb
_chemical_formula_sum   'Te4 Pt4 Pb4'
_cell_volume   306.54904385
_cell_formula_units_Z   4
loop_
 _symmetry_equiv_pos_site_id
 _symmetry_equiv_pos_as_xyz
  1  'x, y, z'
loop_
 _atom_site_type_symbol
 _atom_site_label
 _atom_site_symmetry_multiplicity
 _atom_site_fract_x
 _atom_site_fract_y
 _atom_site_fract_z
 _atom_site_occupancy
  Te  Te0  1  0.86953000  0.13047000  0.63047000  1
  Te  Te1  1  0.13047000  0.63047000  0.86953000  1
  Te  Te2  1  0.63047000  0.86953000  0.13047000  1
  Te  Te3  1  0.36953000  0.36953000  0.36953000  1
  Pt  Pt4  1  0.49138600  0.50861400  0.00861400  1
  Pt  Pt5  1  0.50861400  0.00861400  0.49138600  1
  Pt  Pt6  1  0.00861400  0.49138600  0.50861400  1
  Pt  Pt7  1  0.99138600  0.99138600  0.99138600  1
  Pb  Pb8  1  0.12993800  0.87006200  0.37006200  1
  Pb  Pb9  1  0.87006200  0.37006200  0.12993800  1
  Pb  Pb10  1  0.37006200  0.12993800  0.87006200  1
  Pb  Pb11  1  0.62993800  0.62993800  0.62993800  1
