# generated using pymatgen
data_Ba2HgS5
_symmetry_space_group_name_H-M   'P 1'
_cell_length_a   8.50801600
_cell_length_b   8.83269100
_cell_length_c   12.33739800
_cell_angle_alpha   90.00000000
_cell_angle_beta   90.00000000
_cell_angle_gamma   90.00000000
_symmetry_Int_Tables_number   1
_chemical_formula_structural   Ba2HgS5
_chemical_formula_sum   'Ba8 Hg4 S20'
_cell_volume   927.13912932
_cell_formula_units_Z   4
loop_
 _symmetry_equiv_pos_site_id
 _symmetry_equiv_pos_as_xyz
  1  'x, y, z'
loop_
 _atom_site_type_symbol
 _atom_site_label
 _atom_site_symmetry_multiplicity
 _atom_site_fract_x
 _atom_site_fract_y
 _atom_site_fract_z
 _atom_site_occupancy
  Ba  Ba0  1  0.64330500  0.50621600  0.81083500  1
  Ba  Ba1  1  0.85669500  0.99378400  0.31083500  1
  Ba  Ba2  1  0.35669500  0.00621600  0.18916500  1
  Ba  Ba3  1  0.14330500  0.49378400  0.68916500  1
  Ba  Ba4  1  0.35669500  0.49378400  0.18916500  1
  Ba  Ba5  1  0.14330500  0.00621600  0.68916500  1
  Ba  Ba6  1  0.64330500  0.99378400  0.81083500  1
  Ba  Ba7  1  0.85669500  0.50621600  0.31083500  1
  Hg  Hg8  1  0.01198900  0.75000000  0.00874400  1
  Hg  Hg9  1  0.48801100  0.75000000  0.50874400  1
  Hg  Hg10  1  0.98801100  0.25000000  0.99125600  1
  Hg  Hg11  1  0.51198900  0.25000000  0.49125600  1
  S  S12  1  0.56962800  0.75000000  0.02756800  1
  S  S13  1  0.93037200  0.75000000  0.52756800  1
  S  S14  1  0.43037200  0.25000000  0.97243200  1
  S  S15  1  0.06962800  0.25000000  0.47243200  1
  S  S16  1  0.09078200  0.75000000  0.19419500  1
  S  S17  1  0.40921800  0.75000000  0.69419500  1
  S  S18  1  0.90921800  0.25000000  0.80580500  1
  S  S19  1  0.59078200  0.25000000  0.30580500  1
  S  S20  1  0.94306000  0.75000000  0.82229300  1
  S  S21  1  0.55694000  0.75000000  0.32229300  1
  S  S22  1  0.05694000  0.25000000  0.17770700  1
  S  S23  1  0.44306000  0.25000000  0.67770700  1
  S  S24  1  0.69304500  0.55347500  0.06710300  1
  S  S25  1  0.80695500  0.94652500  0.56710300  1
  S  S26  1  0.30695500  0.05347500  0.93289700  1
  S  S27  1  0.19304500  0.44652500  0.43289700  1
  S  S28  1  0.30695500  0.44652500  0.93289700  1
  S  S29  1  0.19304500  0.05347500  0.43289700  1
  S  S30  1  0.69304500  0.94652500  0.06710300  1
  S  S31  1  0.80695500  0.55347500  0.56710300  1
