# generated using pymatgen
data_VCl4
_symmetry_space_group_name_H-M   'P 1'
_cell_length_a   6.81776900
_cell_length_b   10.01939300
_cell_length_c   10.29666990
_cell_angle_alpha   77.80269093
_cell_angle_beta   90.00000000
_cell_angle_gamma   90.00000000
_symmetry_Int_Tables_number   1
_chemical_formula_structural   VCl4
_chemical_formula_sum   'V4 Cl16'
_cell_volume   687.48668358
_cell_formula_units_Z   4
loop_
 _symmetry_equiv_pos_site_id
 _symmetry_equiv_pos_as_xyz
  1  'x, y, z'
loop_
 _atom_site_type_symbol
 _atom_site_label
 _atom_site_symmetry_multiplicity
 _atom_site_fract_x
 _atom_site_fract_y
 _atom_site_fract_z
 _atom_site_occupancy
  V  V0  1  0.07560100  0.24907100  0.63533000  1
  V  V1  1  0.57560100  0.75092900  0.86467000  1
  V  V2  1  0.92439900  0.75092900  0.36467000  1
  V  V3  1  0.42439900  0.24907100  0.13533000  1
  Cl  Cl4  1  0.37242700  0.30668700  0.58158200  1
  Cl  Cl5  1  0.87242700  0.69331300  0.91841800  1
  Cl  Cl6  1  0.62757300  0.69331300  0.41841800  1
  Cl  Cl7  1  0.12757300  0.30668700  0.08158200  1
  Cl  Cl8  1  0.92907100  0.19545000  0.46970000  1
  Cl  Cl9  1  0.42907100  0.80455000  0.03030000  1
  Cl  Cl10  1  0.07092900  0.80455000  0.53030000  1
  Cl  Cl11  1  0.57092900  0.19545000  0.96970000  1
  Cl  Cl12  1  0.92497200  0.41457400  0.69408400  1
  Cl  Cl13  1  0.42497200  0.58542600  0.80591600  1
  Cl  Cl14  1  0.07502800  0.58542600  0.30591600  1
  Cl  Cl15  1  0.57502800  0.41457400  0.19408400  1
  Cl  Cl16  1  0.07394300  0.07757100  0.79964500  1
  Cl  Cl17  1  0.57394300  0.92242900  0.70035500  1
  Cl  Cl18  1  0.92605700  0.92242900  0.20035500  1
  Cl  Cl19  1  0.42605700  0.07757100  0.29964500  1
