# generated using pymatgen
data_YbZnGe
_symmetry_space_group_name_H-M   'P 1'
_cell_length_a   5.65142664
_cell_length_b   5.65142664
_cell_length_c   7.21934743
_cell_angle_alpha   51.41771756
_cell_angle_beta   51.41771756
_cell_angle_gamma   46.39464372
_symmetry_Int_Tables_number   1
_chemical_formula_structural   YbZnGe
_chemical_formula_sum   'Yb2 Zn2 Ge2'
_cell_volume   122.65153260
_cell_formula_units_Z   2
loop_
 _symmetry_equiv_pos_site_id
 _symmetry_equiv_pos_as_xyz
  1  'x, y, z'
loop_
 _atom_site_type_symbol
 _atom_site_label
 _atom_site_symmetry_multiplicity
 _atom_site_fract_x
 _atom_site_fract_y
 _atom_site_fract_z
 _atom_site_occupancy
  Yb  Yb0  1  0.46360200  0.46360200  0.78711000  1
  Yb  Yb1  1  0.53639800  0.53639800  0.21289000  1
  Zn  Zn2  1  0.83736300  0.83736300  0.61236200  1
  Zn  Zn3  1  0.16263700  0.16263700  0.38763800  1
  Ge  Ge4  1  0.16318100  0.16318100  0.79068400  1
  Ge  Ge5  1  0.83681900  0.83681900  0.20931600  1
