# generated using pymatgen
data_YCuS2
_symmetry_space_group_name_H-M   'P 1'
_cell_length_a   3.96218900
_cell_length_b   6.26498400
_cell_length_c   13.48884700
_cell_angle_alpha   90.00000000
_cell_angle_beta   90.00000000
_cell_angle_gamma   90.00000000
_symmetry_Int_Tables_number   1
_chemical_formula_structural   YCuS2
_chemical_formula_sum   'Y4 Cu4 S8'
_cell_volume   334.83433283
_cell_formula_units_Z   4
loop_
 _symmetry_equiv_pos_site_id
 _symmetry_equiv_pos_as_xyz
  1  'x, y, z'
loop_
 _atom_site_type_symbol
 _atom_site_label
 _atom_site_symmetry_multiplicity
 _atom_site_fract_x
 _atom_site_fract_y
 _atom_site_fract_z
 _atom_site_occupancy
  Y  Y0  1  0.25000000  0.50002200  0.13351500  1
  Y  Y1  1  0.75000000  0.49997800  0.86648500  1
  Y  Y2  1  0.75000000  0.00002200  0.36648500  1
  Y  Y3  1  0.25000000  0.99997800  0.63351500  1
  Cu  Cu4  1  0.25000000  0.12581700  0.95547400  1
  Cu  Cu5  1  0.75000000  0.62581700  0.54452600  1
  Cu  Cu6  1  0.75000000  0.87418300  0.04452600  1
  Cu  Cu7  1  0.25000000  0.37418300  0.45547400  1
  S  S8  1  0.25000000  0.25808300  0.79639700  1
  S  S9  1  0.75000000  0.74191700  0.20360300  1
  S  S10  1  0.75000000  0.75808300  0.70360300  1
  S  S11  1  0.25000000  0.24191700  0.29639700  1
  S  S12  1  0.25000000  0.74742000  0.96051300  1
  S  S13  1  0.25000000  0.75258000  0.46051300  1
  S  S14  1  0.75000000  0.24742000  0.53948700  1
  S  S15  1  0.75000000  0.25258000  0.03948700  1
