# generated using pymatgen
data_Ba2CoMoO6
_symmetry_space_group_name_H-M   'P 1'
_cell_length_a   5.80204972
_cell_length_b   5.80511546
_cell_length_c   10.05797779
_cell_angle_alpha   73.23331919
_cell_angle_beta   90.02110813
_cell_angle_gamma   119.96271517
_symmetry_Int_Tables_number   1
_chemical_formula_structural   Ba2CoMoO6
_chemical_formula_sum   'Ba4 Co2 Mo2 O12'
_cell_volume   276.76606788
_cell_formula_units_Z   2
loop_
 _symmetry_equiv_pos_site_id
 _symmetry_equiv_pos_as_xyz
  1  'x, y, z'
loop_
 _atom_site_type_symbol
 _atom_site_label
 _atom_site_symmetry_multiplicity
 _atom_site_fract_x
 _atom_site_fract_y
 _atom_site_fract_z
 _atom_site_occupancy
  Ba  Ba0  1  0.62483500  0.24951500  0.12466700  1
  Ba  Ba1  1  0.12496500  0.25000400  0.62504400  1
  Ba  Ba2  1  0.87503500  0.74999600  0.37495700  1
  Ba  Ba3  1  0.37516500  0.75048500  0.87533200  1
  Co  Co4  1  0.50000000  0.99999900  0.50000100  1
  Co  Co5  1  0.00000000  0.00000000  0.00000000  1
  Mo  Mo6  1  0.75018900  0.50026600  0.74992600  1
  Mo  Mo7  1  0.24981100  0.49973400  0.25007300  1
  O  O8  1  0.13037300  0.26099400  0.13065100  1
  O  O9  1  0.63082000  0.26157500  0.63065400  1
  O  O10  1  0.36931400  0.26127000  0.36944900  1
  O  O11  1  0.86918800  0.26100500  0.86950900  1
  O  O12  1  0.60781400  0.73865000  0.13068600  1
  O  O13  1  0.10796800  0.73865800  0.63056300  1
  O  O14  1  0.36918000  0.73842300  0.36934700  1
  O  O15  1  0.86962800  0.73900800  0.86934800  1
  O  O16  1  0.13081300  0.73899500  0.13049100  1
  O  O17  1  0.63068600  0.73873000  0.63055200  1
  O  O18  1  0.89203300  0.26134200  0.36943700  1
  O  O19  1  0.39218400  0.26135000  0.86931300  1
