# generated using pymatgen
data_CsMnVF6
_symmetry_space_group_name_H-M   'P 1'
_cell_length_a   7.64093603
_cell_length_b   7.64093603
_cell_length_c   7.64093603
_cell_angle_alpha   120.66797855
_cell_angle_beta   119.96243592
_cell_angle_gamma   89.45600301
_symmetry_Int_Tables_number   1
_chemical_formula_structural   CsMnVF6
_chemical_formula_sum   'Cs2 Mn2 V2 F12'
_cell_volume   313.91247519
_cell_formula_units_Z   2
loop_
 _symmetry_equiv_pos_site_id
 _symmetry_equiv_pos_as_xyz
  1  'x, y, z'
loop_
 _atom_site_type_symbol
 _atom_site_label
 _atom_site_symmetry_multiplicity
 _atom_site_fract_x
 _atom_site_fract_y
 _atom_site_fract_z
 _atom_site_occupancy
  Cs  Cs0  1  0.62089900  0.87089900  0.75000000  1
  Cs  Cs1  1  0.37910100  0.12910100  0.25000000  1
  Mn  Mn2  1  0.50000000  0.50000000  0.00000000  1
  Mn  Mn3  1  0.00000000  0.50000000  0.50000000  1
  V  V4  1  0.00000000  0.50000000  0.00000000  1
  V  V5  1  0.00000000  0.00000000  0.50000000  1
  F  F6  1  0.05808500  0.80808500  0.25000000  1
  F  F7  1  0.67293700  0.42293700  0.25000000  1
  F  F8  1  0.06476000  0.83310100  0.63922800  1
  F  F9  1  0.69387300  0.42553200  0.86077200  1
  F  F10  1  0.69387300  0.83310100  0.26834100  1
  F  F11  1  0.06476000  0.42553200  0.23165900  1
  F  F12  1  0.94191500  0.19191500  0.75000000  1
  F  F13  1  0.32706300  0.57706300  0.75000000  1
  F  F14  1  0.93524000  0.16689900  0.36077200  1
  F  F15  1  0.30612700  0.57446800  0.13922800  1
  F  F16  1  0.30612700  0.16689900  0.73165900  1
  F  F17  1  0.93524000  0.57446800  0.76834100  1
