# generated using pymatgen
data_HgMoO4
_symmetry_space_group_name_H-M   'P 1'
_cell_length_a   6.53201703
_cell_length_b   6.53201703
_cell_length_c   5.27932471
_cell_angle_alpha   70.91387954
_cell_angle_beta   70.91387954
_cell_angle_gamma   58.01775813
_symmetry_Int_Tables_number   1
_chemical_formula_structural   HgMoO4
_chemical_formula_sum   'Hg2 Mo2 O8'
_cell_volume   177.20569176
_cell_formula_units_Z   2
loop_
 _symmetry_equiv_pos_site_id
 _symmetry_equiv_pos_as_xyz
  1  'x, y, z'
loop_
 _atom_site_type_symbol
 _atom_site_label
 _atom_site_symmetry_multiplicity
 _atom_site_fract_x
 _atom_site_fract_y
 _atom_site_fract_z
 _atom_site_occupancy
  Hg  Hg0  1  0.50000000  0.00000000  0.50000000  1
  Hg  Hg1  1  0.00000000  0.50000000  0.00000000  1
  Mo  Mo2  1  0.18444800  0.81555200  0.25000000  1
  Mo  Mo3  1  0.81555200  0.18444800  0.75000000  1
  O  O4  1  0.46933600  0.75764300  0.03216000  1
  O  O5  1  0.24235700  0.53066400  0.46784000  1
  O  O6  1  0.53066400  0.24235700  0.96784000  1
  O  O7  1  0.75764300  0.46933600  0.53216000  1
  O  O8  1  0.00800800  0.18777100  0.96888000  1
  O  O9  1  0.81222900  0.99199200  0.53112000  1
  O  O10  1  0.99199200  0.81222900  0.03112000  1
  O  O11  1  0.18777100  0.00800800  0.46888000  1
