# generated using pymatgen
data_Nd2Zn5Sn
_symmetry_space_group_name_H-M   'P 1'
_cell_length_a   8.57902722
_cell_length_b   8.57902722
_cell_length_c   9.08156600
_cell_angle_alpha   90.00000000
_cell_angle_beta   90.00000000
_cell_angle_gamma   149.64783453
_symmetry_Int_Tables_number   1
_chemical_formula_structural   Nd2Zn5Sn
_chemical_formula_sum   'Nd4 Zn10 Sn2'
_cell_volume   337.75185028
_cell_formula_units_Z   2
loop_
 _symmetry_equiv_pos_site_id
 _symmetry_equiv_pos_as_xyz
  1  'x, y, z'
loop_
 _atom_site_type_symbol
 _atom_site_label
 _atom_site_symmetry_multiplicity
 _atom_site_fract_x
 _atom_site_fract_y
 _atom_site_fract_z
 _atom_site_occupancy
  Nd  Nd0  1  0.20496900  0.79503100  0.25000000  1
  Nd  Nd1  1  0.79503100  0.20496900  0.75000000  1
  Nd  Nd2  1  0.00000000  0.00000000  0.50000000  1
  Nd  Nd3  1  0.00000000  0.00000000  0.00000000  1
  Zn  Zn4  1  0.81408500  0.18591500  0.39221100  1
  Zn  Zn5  1  0.18591500  0.81408500  0.60778900  1
  Zn  Zn6  1  0.81408500  0.18591500  0.10778900  1
  Zn  Zn7  1  0.18591500  0.81408500  0.89221100  1
  Zn  Zn8  1  0.65597900  0.34402100  0.48372500  1
  Zn  Zn9  1  0.34402100  0.65597900  0.51627500  1
  Zn  Zn10  1  0.65597900  0.34402100  0.01627500  1
  Zn  Zn11  1  0.34402100  0.65597900  0.98372500  1
  Zn  Zn12  1  0.39458800  0.60541200  0.25000000  1
  Zn  Zn13  1  0.60541200  0.39458800  0.75000000  1
  Sn  Sn14  1  0.55398700  0.44601300  0.25000000  1
  Sn  Sn15  1  0.44601300  0.55398700  0.75000000  1
