# generated using pymatgen
data_HoCd6
_symmetry_space_group_name_H-M   'P 1'
_cell_length_a   13.63299171
_cell_length_b   13.63299171
_cell_length_c   13.63299171
_cell_angle_alpha   110.23388834
_cell_angle_beta   109.74804601
_cell_angle_gamma   108.43702589
_symmetry_Int_Tables_number   1
_chemical_formula_structural   HoCd6
_chemical_formula_sum   'Ho12 Cd72'
_cell_volume   1950.01413736
_cell_formula_units_Z   12
loop_
 _symmetry_equiv_pos_site_id
 _symmetry_equiv_pos_as_xyz
  1  'x, y, z'
loop_
 _atom_site_type_symbol
 _atom_site_label
 _atom_site_symmetry_multiplicity
 _atom_site_fract_x
 _atom_site_fract_y
 _atom_site_fract_z
 _atom_site_occupancy
  Ho  Ho0  1  0.80791500  0.50970300  0.70178800  1
  Ho  Ho1  1  0.19208500  0.49029700  0.29821200  1
  Ho  Ho2  1  0.19208500  0.89387300  0.70178800  1
  Ho  Ho3  1  0.80791500  0.10612700  0.29821200  1
  Ho  Ho4  1  0.10870200  0.30176900  0.80693300  1
  Ho  Ho5  1  0.89129800  0.69823100  0.19306700  1
  Ho  Ho6  1  0.49483600  0.30176900  0.19306700  1
  Ho  Ho7  1  0.50516400  0.69823100  0.80693300  1
  Ho  Ho8  1  0.30106900  0.18959600  0.49066500  1
  Ho  Ho9  1  0.69893100  0.81040400  0.50933500  1
  Ho  Ho10  1  0.30106900  0.81040400  0.11147300  1
  Ho  Ho11  1  0.69893100  0.18959600  0.88852700  1
  Cd  Cd12  1  0.58996900  0.58996900  0.00000000  1
  Cd  Cd13  1  0.41003100  0.41003100  0.00000000  1
  Cd  Cd14  1  0.59477100  0.00000000  0.59477100  1
  Cd  Cd15  1  0.40522900  0.00000000  0.40522900  1
  Cd  Cd16  1  0.00000000  0.40445800  0.40445800  1
  Cd  Cd17  1  0.00000000  0.59554200  0.59554200  1
  Cd  Cd18  1  0.59584900  0.24984300  0.65399300  1
  Cd  Cd19  1  0.40415100  0.75015700  0.34600700  1
  Cd  Cd20  1  0.40415100  0.05814400  0.65399300  1
  Cd  Cd21  1  0.59584900  0.94185600  0.34600700  1
  Cd  Cd22  1  0.94065000  0.34595300  0.59469600  1
  Cd  Cd23  1  0.05935000  0.65404700  0.40530400  1
  Cd  Cd24  1  0.75125700  0.34595300  0.40530400  1
  Cd  Cd25  1  0.24874300  0.65404700  0.59469600  1
  Cd  Cd26  1  0.34471700  0.40425800  0.74897500  1
  Cd  Cd27  1  0.65528300  0.59574200  0.25102500  1
  Cd  Cd28  1  0.34471700  0.59574200  0.94045900  1
  Cd  Cd29  1  0.65528300  0.40425800  0.05954100  1
  Cd  Cd30  1  0.50000000  0.31032100  0.81032100  1
  Cd  Cd31  1  0.50000000  0.68967900  0.18967900  1
  Cd  Cd32  1  0.69044500  0.19044500  0.50000000  1
  Cd  Cd33  1  0.30955500  0.80955500  0.50000000  1
  Cd  Cd34  1  0.18767600  0.50000000  0.68767600  1
  Cd  Cd35  1  0.81232400  0.50000000  0.31232400  1
  Cd  Cd36  1  0.00007200  0.67891900  0.00182300  1
  Cd  Cd37  1  0.32290500  0.32108100  0.32115300  1
  Cd  Cd38  1  0.99992800  0.00175100  0.67884700  1
  Cd  Cd39  1  0.67709500  0.99824900  0.99817700  1
  Cd  Cd40  1  0.99992800  0.32108100  0.99817700  1
  Cd  Cd41  1  0.67709500  0.67891900  0.67884700  1
  Cd  Cd42  1  0.00007200  0.99824900  0.32115300  1
  Cd  Cd43  1  0.32290500  0.00175100  0.00182300  1
  Cd  Cd44  1  0.77835700  0.45579100  0.91851000  1
  Cd  Cd45  1  0.46272000  0.54420900  0.32256600  1
  Cd  Cd46  1  0.22164300  0.14015400  0.67743400  1
  Cd  Cd47  1  0.53728000  0.85984600  0.08149000  1
  Cd  Cd48  1  0.86046700  0.08384200  0.54254900  1
  Cd  Cd49  1  0.13953300  0.68208200  0.22337500  1
  Cd  Cd50  1  0.54129300  0.31791800  0.45745100  1
  Cd  Cd51  1  0.45870700  0.91615800  0.77662500  1
  Cd  Cd52  1  0.31868900  0.45912200  0.54048000  1
  Cd  Cd53  1  0.91864100  0.77820900  0.45952000  1
  Cd  Cd54  1  0.08135900  0.54087800  0.85956800  1
  Cd  Cd55  1  0.68131100  0.22179100  0.14043200  1
  Cd  Cd56  1  0.22164300  0.54420900  0.08149000  1
  Cd  Cd57  1  0.53728000  0.45579100  0.67743400  1
  Cd  Cd58  1  0.77835700  0.85984600  0.32256600  1
  Cd  Cd59  1  0.46272000  0.14015400  0.91851000  1
  Cd  Cd60  1  0.13953300  0.91615800  0.45745100  1
  Cd  Cd61  1  0.86046700  0.31791800  0.77662500  1
  Cd  Cd62  1  0.45870700  0.68208200  0.54254900  1
  Cd  Cd63  1  0.54129300  0.08384200  0.22337500  1
  Cd  Cd64  1  0.68131100  0.54087800  0.45952000  1
  Cd  Cd65  1  0.08135900  0.22179100  0.54048000  1
  Cd  Cd66  1  0.91864100  0.45912200  0.14043200  1
  Cd  Cd67  1  0.31868900  0.77820900  0.85956800  1
  Cd  Cd68  1  0.91509600  0.82462100  0.90952500  1
  Cd  Cd69  1  0.08490400  0.17537900  0.09047500  1
  Cd  Cd70  1  0.08490400  0.99442900  0.90952500  1
  Cd  Cd71  1  0.91509600  0.00557100  0.09047500  1
  Cd  Cd72  1  0.74286500  0.64871400  0.90584900  1
  Cd  Cd73  1  0.25713500  0.35128600  0.09415100  1
  Cd  Cd74  1  0.25713500  0.16298400  0.90584900  1
  Cd  Cd75  1  0.74286500  0.83701600  0.09415100  1
  Cd  Cd76  1  0.85624600  0.09065200  0.76559400  1
  Cd  Cd77  1  0.14375400  0.90934800  0.23440600  1
  Cd  Cd78  1  0.32505800  0.09065200  0.23440600  1
  Cd  Cd79  1  0.67494200  0.90934800  0.76559400  1
  Cd  Cd80  1  0.09507100  0.24072000  0.33579200  1
  Cd  Cd81  1  0.90492900  0.75928000  0.66420800  1
  Cd  Cd82  1  0.09507100  0.75928000  0.85435100  1
  Cd  Cd83  1  0.90492900  0.24072000  0.14564900  1
