# generated using pymatgen
data_Rb(MoSe)3
_symmetry_space_group_name_H-M   'P 1'
_cell_length_a   9.45934022
_cell_length_b   9.45934022
_cell_length_c   4.53706100
_cell_angle_alpha   90.00000000
_cell_angle_beta   90.00000000
_cell_angle_gamma   120.00000156
_symmetry_Int_Tables_number   1
_chemical_formula_structural   Rb(MoSe)3
_chemical_formula_sum   'Rb2 Mo6 Se6'
_cell_volume   351.58224511
_cell_formula_units_Z   2
loop_
 _symmetry_equiv_pos_site_id
 _symmetry_equiv_pos_as_xyz
  1  'x, y, z'
loop_
 _atom_site_type_symbol
 _atom_site_label
 _atom_site_symmetry_multiplicity
 _atom_site_fract_x
 _atom_site_fract_y
 _atom_site_fract_z
 _atom_site_occupancy
  Rb  Rb0  1  0.33333300  0.66666700  0.25000000  1
  Rb  Rb1  1  0.66666700  0.33333300  0.75000000  1
  Mo  Mo2  1  0.82498800  0.97297900  0.25000000  1
  Mo  Mo3  1  0.14799100  0.17501200  0.25000000  1
  Mo  Mo4  1  0.02702100  0.85200900  0.25000000  1
  Mo  Mo5  1  0.17501200  0.02702100  0.75000000  1
  Mo  Mo6  1  0.97297900  0.14799100  0.75000000  1
  Mo  Mo7  1  0.85200900  0.82498800  0.75000000  1
  Se  Se8  1  0.34639200  0.05445500  0.25000000  1
  Se  Se9  1  0.94554500  0.29193700  0.25000000  1
  Se  Se10  1  0.70806300  0.65360800  0.25000000  1
  Se  Se11  1  0.65360800  0.94554500  0.75000000  1
  Se  Se12  1  0.29193700  0.34639200  0.75000000  1
  Se  Se13  1  0.05445500  0.70806300  0.75000000  1
