# generated using pymatgen
data_Al3Si3Ag4IO12
_symmetry_space_group_name_H-M   'P 1'
_cell_length_a   9.07287700
_cell_length_b   9.07287700
_cell_length_c   9.07287700
_cell_angle_alpha   90.00000000
_cell_angle_beta   90.00000000
_cell_angle_gamma   90.00000000
_symmetry_Int_Tables_number   1
_chemical_formula_structural   Al3Si3Ag4IO12
_chemical_formula_sum   'Al6 Si6 Ag8 I2 O24'
_cell_volume   746.85289660
_cell_formula_units_Z   2
loop_
 _symmetry_equiv_pos_site_id
 _symmetry_equiv_pos_as_xyz
  1  'x, y, z'
loop_
 _atom_site_type_symbol
 _atom_site_label
 _atom_site_symmetry_multiplicity
 _atom_site_fract_x
 _atom_site_fract_y
 _atom_site_fract_z
 _atom_site_occupancy
  Al  Al0  1  0.25000000  0.00000000  0.50000000  1
  Al  Al1  1  0.75000000  0.00000000  0.50000000  1
  Al  Al2  1  0.50000000  0.25000000  0.00000000  1
  Al  Al3  1  0.50000000  0.75000000  0.00000000  1
  Al  Al4  1  0.00000000  0.50000000  0.25000000  1
  Al  Al5  1  0.00000000  0.50000000  0.75000000  1
  Si  Si6  1  0.25000000  0.50000000  0.00000000  1
  Si  Si7  1  0.75000000  0.50000000  0.00000000  1
  Si  Si8  1  0.00000000  0.25000000  0.50000000  1
  Si  Si9  1  0.00000000  0.75000000  0.50000000  1
  Si  Si10  1  0.50000000  0.00000000  0.25000000  1
  Si  Si11  1  0.50000000  0.00000000  0.75000000  1
  Ag  Ag12  1  0.17515200  0.17515200  0.17515200  1
  Ag  Ag13  1  0.82484800  0.82484800  0.17515200  1
  Ag  Ag14  1  0.82484800  0.17515200  0.82484800  1
  Ag  Ag15  1  0.67515200  0.67515200  0.67515200  1
  Ag  Ag16  1  0.17515200  0.82484800  0.82484800  1
  Ag  Ag17  1  0.32484800  0.32484800  0.67515200  1
  Ag  Ag18  1  0.67515200  0.32484800  0.32484800  1
  Ag  Ag19  1  0.32484800  0.67515200  0.32484800  1
  I  I20  1  0.00000000  0.00000000  0.00000000  1
  I  I21  1  0.50000000  0.50000000  0.50000000  1
  O  O22  1  0.13853200  0.14880300  0.44293000  1
  O  O23  1  0.86146800  0.85119700  0.44293000  1
  O  O24  1  0.86146800  0.14880300  0.55707000  1
  O  O25  1  0.44293000  0.13853200  0.14880300  1
  O  O26  1  0.64880300  0.63853200  0.94293000  1
  O  O27  1  0.13853200  0.85119700  0.55707000  1
  O  O28  1  0.44293000  0.86146800  0.85119700  1
  O  O29  1  0.35119700  0.36146800  0.94293000  1
  O  O30  1  0.55707000  0.86146800  0.14880300  1
  O  O31  1  0.64880300  0.36146800  0.05707000  1
  O  O32  1  0.55707000  0.13853200  0.85119700  1
  O  O33  1  0.35119700  0.63853200  0.05707000  1
  O  O34  1  0.14880300  0.44293000  0.13853200  1
  O  O35  1  0.63853200  0.94293000  0.64880300  1
  O  O36  1  0.14880300  0.55707000  0.86146800  1
  O  O37  1  0.36146800  0.05707000  0.64880300  1
  O  O38  1  0.85119700  0.55707000  0.13853200  1
  O  O39  1  0.63853200  0.05707000  0.35119700  1
  O  O40  1  0.85119700  0.44293000  0.86146800  1
  O  O41  1  0.36146800  0.94293000  0.35119700  1
  O  O42  1  0.94293000  0.64880300  0.63853200  1
  O  O43  1  0.94293000  0.35119700  0.36146800  1
  O  O44  1  0.05707000  0.35119700  0.63853200  1
  O  O45  1  0.05707000  0.64880300  0.36146800  1
