# generated using pymatgen
data_La3Te4Br
_symmetry_space_group_name_H-M   'P 1'
_cell_length_a   4.40581500
_cell_length_b   14.41464300
_cell_length_c   16.49131800
_cell_angle_alpha   90.00000000
_cell_angle_beta   90.00000000
_cell_angle_gamma   90.00000000
_symmetry_Int_Tables_number   1
_chemical_formula_structural   La3Te4Br
_chemical_formula_sum   'La12 Te16 Br4'
_cell_volume   1047.33475213
_cell_formula_units_Z   4
loop_
 _symmetry_equiv_pos_site_id
 _symmetry_equiv_pos_as_xyz
  1  'x, y, z'
loop_
 _atom_site_type_symbol
 _atom_site_label
 _atom_site_symmetry_multiplicity
 _atom_site_fract_x
 _atom_site_fract_y
 _atom_site_fract_z
 _atom_site_occupancy
  La  La0  1  0.25000000  0.91000000  0.62608800  1
  La  La1  1  0.25000000  0.59000000  0.12608800  1
  La  La2  1  0.75000000  0.09000000  0.37391200  1
  La  La3  1  0.75000000  0.41000000  0.87391200  1
  La  La4  1  0.75000000  0.25000800  0.61888500  1
  La  La5  1  0.75000000  0.24999200  0.11888500  1
  La  La6  1  0.25000000  0.74999200  0.38111500  1
  La  La7  1  0.25000000  0.75000800  0.88111500  1
  La  La8  1  0.75000000  0.57350100  0.63365300  1
  La  La9  1  0.75000000  0.92649900  0.13365300  1
  La  La10  1  0.25000000  0.42649900  0.36634700  1
  La  La11  1  0.25000000  0.07350100  0.86634700  1
  Te  Te12  1  0.25000000  0.41914900  0.57237200  1
  Te  Te13  1  0.25000000  0.08085100  0.07237200  1
  Te  Te14  1  0.75000000  0.58085100  0.42762800  1
  Te  Te15  1  0.75000000  0.91914900  0.92762800  1
  Te  Te16  1  0.75000000  0.04800200  0.71690300  1
  Te  Te17  1  0.75000000  0.45199800  0.21690300  1
  Te  Te18  1  0.25000000  0.95199800  0.28309700  1
  Te  Te19  1  0.25000000  0.54800200  0.78309700  1
  Te  Te20  1  0.75000000  0.77754100  0.73301600  1
  Te  Te21  1  0.75000000  0.72245900  0.23301600  1
  Te  Te22  1  0.25000000  0.22245900  0.26698400  1
  Te  Te23  1  0.25000000  0.27754100  0.76698400  1
  Te  Te24  1  0.25000000  0.11249400  0.52427200  1
  Te  Te25  1  0.25000000  0.38750600  0.02427200  1
  Te  Te26  1  0.75000000  0.88750600  0.47572800  1
  Te  Te27  1  0.75000000  0.61249400  0.97572800  1
  Br  Br28  1  0.25000000  0.70269600  0.56816400  1
  Br  Br29  1  0.25000000  0.79730400  0.06816400  1
  Br  Br30  1  0.75000000  0.29730400  0.43183600  1
  Br  Br31  1  0.75000000  0.20269600  0.93183600  1
