# generated using pymatgen
data_Na3GeSe3
_symmetry_space_group_name_H-M   'P 1'
_cell_length_a   12.07993000
_cell_length_b   8.36238200
_cell_length_c   8.45852123
_cell_angle_alpha   60.96079986
_cell_angle_beta   90.00000000
_cell_angle_gamma   90.00000000
_symmetry_Int_Tables_number   1
_chemical_formula_structural   Na3GeSe3
_chemical_formula_sum   'Na12 Ge4 Se12'
_cell_volume   747.03902018
_cell_formula_units_Z   4
loop_
 _symmetry_equiv_pos_site_id
 _symmetry_equiv_pos_as_xyz
  1  'x, y, z'
loop_
 _atom_site_type_symbol
 _atom_site_label
 _atom_site_symmetry_multiplicity
 _atom_site_fract_x
 _atom_site_fract_y
 _atom_site_fract_z
 _atom_site_occupancy
  Na  Na0  1  0.26992200  0.22540700  0.53139900  1
  Na  Na1  1  0.76992200  0.27459300  0.46860100  1
  Na  Na2  1  0.73007800  0.77459300  0.46860100  1
  Na  Na3  1  0.23007800  0.72540700  0.53139900  1
  Na  Na4  1  0.55851100  0.01517900  0.77118300  1
  Na  Na5  1  0.05851100  0.48482100  0.22881700  1
  Na  Na6  1  0.44148900  0.98482100  0.22881700  1
  Na  Na7  1  0.94148900  0.51517900  0.77118300  1
  Na  Na8  1  0.16205100  0.97631300  0.00480400  1
  Na  Na9  1  0.66205100  0.52368700  0.99519600  1
  Na  Na10  1  0.83794900  0.02368700  0.99519600  1
  Na  Na11  1  0.33794900  0.47631300  0.00480400  1
  Ge  Ge12  1  0.98989800  0.96294400  0.65972200  1
  Ge  Ge13  1  0.48989800  0.53705600  0.34027800  1
  Ge  Ge14  1  0.01010200  0.03705600  0.34027800  1
  Ge  Ge15  1  0.51010200  0.46294400  0.65972200  1
  Se  Se16  1  0.38143900  0.22724900  0.83872300  1
  Se  Se17  1  0.88143900  0.27275100  0.16127700  1
  Se  Se18  1  0.61856100  0.77275100  0.16127700  1
  Se  Se19  1  0.11856100  0.72724900  0.83872300  1
  Se  Se20  1  0.46915300  0.73581800  0.67044200  1
  Se  Se21  1  0.96915300  0.76418200  0.32955800  1
  Se  Se22  1  0.53084700  0.26418200  0.32955800  1
  Se  Se23  1  0.03084700  0.23581800  0.67044200  1
  Se  Se24  1  0.69771000  0.36750300  0.74606300  1
  Se  Se25  1  0.19771000  0.13249700  0.25393700  1
  Se  Se26  1  0.30229000  0.63249700  0.25393700  1
  Se  Se27  1  0.80229000  0.86750300  0.74606300  1
