# generated using pymatgen
data_TbSiPt2
_symmetry_space_group_name_H-M   'P 1'
_cell_length_a   5.56935300
_cell_length_b   6.95389800
_cell_length_c   7.37868200
_cell_angle_alpha   90.00000000
_cell_angle_beta   90.00000000
_cell_angle_gamma   90.00000000
_symmetry_Int_Tables_number   1
_chemical_formula_structural   TbSiPt2
_chemical_formula_sum   'Tb4 Si4 Pt8'
_cell_volume   285.76685519
_cell_formula_units_Z   4
loop_
 _symmetry_equiv_pos_site_id
 _symmetry_equiv_pos_as_xyz
  1  'x, y, z'
loop_
 _atom_site_type_symbol
 _atom_site_label
 _atom_site_symmetry_multiplicity
 _atom_site_fract_x
 _atom_site_fract_y
 _atom_site_fract_z
 _atom_site_occupancy
  Tb  Tb0  1  0.13840000  0.75000000  0.52815300  1
  Tb  Tb1  1  0.86160000  0.25000000  0.47184700  1
  Tb  Tb2  1  0.63840000  0.25000000  0.97184700  1
  Tb  Tb3  1  0.36160000  0.75000000  0.02815300  1
  Si  Si4  1  0.86040500  0.75000000  0.87962900  1
  Si  Si5  1  0.13959500  0.25000000  0.12037100  1
  Si  Si6  1  0.36040500  0.25000000  0.62037100  1
  Si  Si7  1  0.63959500  0.75000000  0.37962900  1
  Pt  Pt8  1  0.59186000  0.55066300  0.68048800  1
  Pt  Pt9  1  0.40814000  0.44933700  0.31951200  1
  Pt  Pt10  1  0.09186000  0.44933700  0.81951200  1
  Pt  Pt11  1  0.40814000  0.05066300  0.31951200  1
  Pt  Pt12  1  0.90814000  0.55066300  0.18048800  1
  Pt  Pt13  1  0.59186000  0.94933700  0.68048800  1
  Pt  Pt14  1  0.90814000  0.94933700  0.18048800  1
  Pt  Pt15  1  0.09186000  0.05066300  0.81951200  1
