# generated using pymatgen
data_Mg149Bi
_symmetry_space_group_name_H-M   'P 1'
_cell_length_a   16.00087109
_cell_length_b   16.00087859
_cell_length_c   15.62193415
_cell_angle_alpha   90.00000000
_cell_angle_beta   90.00000000
_cell_angle_gamma   120.00001549
_symmetry_Int_Tables_number   1
_chemical_formula_structural   Mg149Bi
_chemical_formula_sum   'Mg149 Bi1'
_cell_volume   3463.80011980
_cell_formula_units_Z   1
loop_
 _symmetry_equiv_pos_site_id
 _symmetry_equiv_pos_as_xyz
  1  'x, y, z'
loop_
 _atom_site_type_symbol
 _atom_site_label
 _atom_site_symmetry_multiplicity
 _atom_site_fract_x
 _atom_site_fract_y
 _atom_site_fract_z
 _atom_site_occupancy
  Mg  Mg0  1  0.79649517  0.00101066  -0.00000000  1
  Mg  Mg1  1  0.20451549  0.00101066  -0.00000000  1
  Mg  Mg2  1  0.79970690  0.20029210  -0.00000000  1
  Mg  Mg3  1  0.40058520  0.20029210  -0.00000000  1
  Mg  Mg4  1  0.60020142  0.20040183  -0.00000000  1
  Mg  Mg5  1  0.20451549  0.20350483  -0.00000000  1
  Mg  Mg6  1  0.99898934  0.20350483  -0.00000000  1
  Mg  Mg7  1  0.19984544  0.39968988  -0.00000000  1
  Mg  Mg8  1  0.79959817  0.39979958  -0.00000000  1
  Mg  Mg9  1  0.60020142  0.39979958  -0.00000000  1
  Mg  Mg10  1  0.00016968  0.40119926  -0.00000000  1
  Mg  Mg11  1  0.40102958  0.40119926  -0.00000000  1
  Mg  Mg12  1  0.00016968  0.59897042  -0.00000000  1
  Mg  Mg13  1  0.59880074  0.59897042  -0.00000000  1
  Mg  Mg14  1  0.79970690  0.59941480  -0.00000000  1
  Mg  Mg15  1  0.39987973  0.60012027  -0.00000000  1
  Mg  Mg16  1  0.20024154  0.60012127  -0.00000000  1
  Mg  Mg17  1  0.79649517  0.79548451  -0.00000000  1
  Mg  Mg18  1  0.99898934  0.79548451  -0.00000000  1
  Mg  Mg19  1  0.39987973  0.79975846  -0.00000000  1
  Mg  Mg20  1  0.19984544  0.80015456  -0.00000000  1
  Mg  Mg21  1  0.60031012  0.80015556  -0.00000000  1
  Mg  Mg22  1  0.59880074  0.99983032  -0.00000000  1
  Mg  Mg23  1  0.40102958  0.99983032  -0.00000000  1
  Mg  Mg24  1  0.46681813  0.13337706  0.16633578  1
  Mg  Mg25  1  0.66655892  0.13337706  0.16633578  1
  Mg  Mg26  1  0.46681813  0.33344108  0.16633578  1
  Mg  Mg27  1  0.86662294  0.33344108  0.16633578  1
  Mg  Mg28  1  0.66655892  0.53318187  0.16633578  1
  Mg  Mg29  1  0.86662294  0.53318187  0.16633578  1
  Mg  Mg30  1  0.66666700  0.33333300  0.16653972  1
  Mg  Mg31  1  0.26668209  0.53336417  0.16654452  1
  Mg  Mg32  1  0.26668209  0.73331791  0.16654452  1
  Mg  Mg33  1  0.46663583  0.73331791  0.16654452  1
  Mg  Mg34  1  0.06639660  0.33341350  0.16644578  1
  Mg  Mg35  1  0.26701790  0.33341350  0.16644578  1
  Mg  Mg36  1  0.66658550  0.73298210  0.16644578  1
  Mg  Mg37  1  0.06639660  0.73298310  0.16644578  1
  Mg  Mg38  1  0.66658550  0.93360340  0.16644578  1
  Mg  Mg39  1  0.26701790  0.93360340  0.16644578  1
  Mg  Mg40  1  0.46655677  0.53344323  0.16650779  1
  Mg  Mg41  1  0.06688645  0.53344323  0.16650779  1
  Mg  Mg42  1  0.46655677  0.93311355  0.16650779  1
  Mg  Mg43  1  0.26730206  0.13365103  0.16721010  1
  Mg  Mg44  1  0.86634897  0.13365103  0.16721010  1
  Mg  Mg45  1  0.86634897  0.73269794  0.16721010  1
  Mg  Mg46  1  0.06758151  0.13516402  0.17019775  1
  Mg  Mg47  1  0.86483598  0.93241849  0.17019775  1
  Mg  Mg48  1  0.06758151  0.93241849  0.17019775  1
  Mg  Mg49  1  0.19990982  0.39981964  0.33290527  1
  Mg  Mg50  1  0.19990982  0.80009018  0.33290527  1
  Mg  Mg51  1  0.60018036  0.80009018  0.33290527  1
  Mg  Mg52  1  0.79988637  0.20011363  0.33309200  1
  Mg  Mg53  1  0.40022725  0.20011363  0.33309200  1
  Mg  Mg54  1  0.79988637  0.59977175  0.33309200  1
  Mg  Mg55  1  0.60016808  0.20033517  0.33305403  1
  Mg  Mg56  1  0.79966483  0.39983192  0.33305403  1
  Mg  Mg57  1  0.60016808  0.39983192  0.33305403  1
  Mg  Mg58  1  0.39998916  0.00002865  0.33326359  1
  Mg  Mg59  1  0.60003949  0.00002865  0.33326359  1
  Mg  Mg60  1  0.99997135  0.39996051  0.33326359  1
  Mg  Mg61  1  0.39998916  0.39996051  0.33326359  1
  Mg  Mg62  1  0.99997135  0.60001084  0.33326359  1
  Mg  Mg63  1  0.60003949  0.60001084  0.33326359  1
  Mg  Mg64  1  0.39986717  0.60013183  0.33310178  1
  Mg  Mg65  1  0.20026465  0.60013283  0.33310178  1
  Mg  Mg66  1  0.39986717  0.79973535  0.33310178  1
  Mg  Mg67  1  -0.00000000  0.00000000  0.33375682  1
  Mg  Mg68  1  0.79996488  0.00025111  0.33435661  1
  Mg  Mg69  1  0.20028724  0.00025111  0.33435661  1
  Mg  Mg70  1  0.99974889  0.20003512  0.33435661  1
  Mg  Mg71  1  0.20028724  0.20003512  0.33435661  1
  Mg  Mg72  1  0.79996488  0.79971376  0.33435661  1
  Mg  Mg73  1  0.99974889  0.79971376  0.33435661  1
  Mg  Mg74  1  0.46666213  0.13315475  0.50000000  1
  Mg  Mg75  1  0.66649262  0.13315475  0.50000000  1
  Mg  Mg76  1  0.06656366  0.13312833  0.50000000  1
  Mg  Mg77  1  0.26678645  0.13339373  0.50000000  1
  Mg  Mg78  1  0.86660727  0.13339373  0.50000000  1
  Mg  Mg79  1  0.66666700  0.33333300  0.50000000  1
  Mg  Mg80  1  0.06674393  0.33344346  0.50000000  1
  Mg  Mg81  1  0.26669953  0.33344346  0.50000000  1
  Mg  Mg82  1  0.86684525  0.33350738  0.50000000  1
  Mg  Mg83  1  0.46666213  0.33350738  0.50000000  1
  Mg  Mg84  1  0.86684525  0.53333787  0.50000000  1
  Mg  Mg85  1  0.66649262  0.53333787  0.50000000  1
  Mg  Mg86  1  0.46662508  0.53337492  0.50000000  1
  Mg  Mg87  1  0.06674984  0.53337492  0.50000000  1
  Mg  Mg88  1  0.26661981  0.53323961  0.50000000  1
  Mg  Mg89  1  0.86660727  0.73321355  0.50000000  1
  Mg  Mg90  1  0.26661981  0.73338019  0.50000000  1
  Mg  Mg91  1  0.46676039  0.73338019  0.50000000  1
  Mg  Mg92  1  0.06674393  0.73330047  0.50000000  1
  Mg  Mg93  1  0.66655654  0.73330047  0.50000000  1
  Mg  Mg94  1  0.46662508  0.93325016  0.50000000  1
  Mg  Mg95  1  0.26669953  0.93325607  0.50000000  1
  Mg  Mg96  1  0.66655654  0.93325607  0.50000000  1
  Mg  Mg97  1  0.06656366  0.93343634  0.50000000  1
  Mg  Mg98  1  0.86687167  0.93343634  0.50000000  1
  Mg  Mg99  1  0.79996488  0.00025111  0.66564339  1
  Mg  Mg100  1  0.20028724  0.00025111  0.66564339  1
  Mg  Mg101  1  0.99974889  0.20003512  0.66564339  1
  Mg  Mg102  1  0.20028724  0.20003512  0.66564339  1
  Mg  Mg103  1  0.79996488  0.79971376  0.66564339  1
  Mg  Mg104  1  0.99974889  0.79971376  0.66564339  1
  Mg  Mg105  1  0.00000000  0.00000000  0.66624318  1
  Mg  Mg106  1  0.39986717  0.60013183  0.66689822  1
  Mg  Mg107  1  0.20026465  0.60013283  0.66689822  1
  Mg  Mg108  1  0.39986717  0.79973535  0.66689822  1
  Mg  Mg109  1  0.39998916  0.00002865  0.66673641  1
  Mg  Mg110  1  0.60003949  0.00002865  0.66673641  1
  Mg  Mg111  1  0.99997135  0.39996051  0.66673641  1
  Mg  Mg112  1  0.39998916  0.39996051  0.66673641  1
  Mg  Mg113  1  0.99997135  0.60001084  0.66673641  1
  Mg  Mg114  1  0.60003949  0.60001084  0.66673641  1
  Mg  Mg115  1  0.60016808  0.20033517  0.66694597  1
  Mg  Mg116  1  0.79966483  0.39983192  0.66694597  1
  Mg  Mg117  1  0.60016808  0.39983192  0.66694597  1
  Mg  Mg118  1  0.79988637  0.20011363  0.66690800  1
  Mg  Mg119  1  0.40022725  0.20011363  0.66690800  1
  Mg  Mg120  1  0.79988637  0.59977175  0.66690800  1
  Mg  Mg121  1  0.19990982  0.39981964  0.66709473  1
  Mg  Mg122  1  0.19990982  0.80009018  0.66709473  1
  Mg  Mg123  1  0.60018036  0.80009018  0.66709473  1
  Mg  Mg124  1  0.06758151  0.13516402  0.82980225  1
  Mg  Mg125  1  0.86483598  0.93241849  0.82980225  1
  Mg  Mg126  1  0.06758151  0.93241849  0.82980225  1
  Mg  Mg127  1  0.26730206  0.13365103  0.83278990  1
  Mg  Mg128  1  0.86634897  0.13365103  0.83278990  1
  Mg  Mg129  1  0.86634897  0.73269794  0.83278990  1
  Mg  Mg130  1  0.46655677  0.53344323  0.83349221  1
  Mg  Mg131  1  0.06688645  0.53344323  0.83349221  1
  Mg  Mg132  1  0.46655677  0.93311355  0.83349221  1
  Mg  Mg133  1  0.06639660  0.33341350  0.83355422  1
  Mg  Mg134  1  0.26701790  0.33341350  0.83355422  1
  Mg  Mg135  1  0.66658550  0.73298210  0.83355422  1
  Mg  Mg136  1  0.06639660  0.73298310  0.83355422  1
  Mg  Mg137  1  0.66658550  0.93360340  0.83355422  1
  Mg  Mg138  1  0.26701790  0.93360340  0.83355422  1
  Mg  Mg139  1  0.26668209  0.53336417  0.83345548  1
  Mg  Mg140  1  0.26668209  0.73331791  0.83345548  1
  Mg  Mg141  1  0.46663583  0.73331791  0.83345548  1
  Mg  Mg142  1  0.66666700  0.33333300  0.83346028  1
  Mg  Mg143  1  0.46681813  0.13337706  0.83366422  1
  Mg  Mg144  1  0.66655892  0.13337706  0.83366422  1
  Mg  Mg145  1  0.46681813  0.33344108  0.83366422  1
  Mg  Mg146  1  0.86662294  0.33344108  0.83366422  1
  Mg  Mg147  1  0.66655892  0.53318187  0.83366422  1
  Mg  Mg148  1  0.86662294  0.53318187  0.83366422  1
  Bi  Bi149  1  0.00000000  0.00000000  -0.00000000  1
