# generated using pymatgen
data_BaU2Se5
_symmetry_space_group_name_H-M   'P 1'
_cell_length_a   7.87804300
_cell_length_b   8.84811000
_cell_length_c   12.29712514
_cell_angle_alpha   89.73843163
_cell_angle_beta   90.00000000
_cell_angle_gamma   90.00000000
_symmetry_Int_Tables_number   1
_chemical_formula_structural   BaU2Se5
_chemical_formula_sum   'Ba4 U8 Se20'
_cell_volume   857.17190341
_cell_formula_units_Z   4
loop_
 _symmetry_equiv_pos_site_id
 _symmetry_equiv_pos_as_xyz
  1  'x, y, z'
loop_
 _atom_site_type_symbol
 _atom_site_label
 _atom_site_symmetry_multiplicity
 _atom_site_fract_x
 _atom_site_fract_y
 _atom_site_fract_z
 _atom_site_occupancy
  Ba  Ba0  1  0.05527400  0.49219600  0.33095000  1
  Ba  Ba1  1  0.55527400  0.50780400  0.16905000  1
  Ba  Ba2  1  0.94472600  0.50780400  0.66905000  1
  Ba  Ba3  1  0.44472600  0.49219600  0.83095000  1
  U  U4  1  0.02334100  0.99923600  0.31835700  1
  U  U5  1  0.52334100  0.00076400  0.18164300  1
  U  U6  1  0.97665900  0.00076400  0.68164300  1
  U  U7  1  0.47665900  0.99923600  0.81835700  1
  U  U8  1  0.07075200  0.75652600  0.00793300  1
  U  U9  1  0.57075200  0.24347400  0.49206700  1
  U  U10  1  0.92924800  0.24347400  0.99206700  1
  U  U11  1  0.42924800  0.75652600  0.50793300  1
  Se  Se12  1  0.66366400  0.95518300  0.40267400  1
  Se  Se13  1  0.16366400  0.04481700  0.09732600  1
  Se  Se14  1  0.33633600  0.04481700  0.59732600  1
  Se  Se15  1  0.83633600  0.95518300  0.90267400  1
  Se  Se16  1  0.45197400  0.79211700  0.00156000  1
  Se  Se17  1  0.95197400  0.20788300  0.49844000  1
  Se  Se18  1  0.54802600  0.20788300  0.99844000  1
  Se  Se19  1  0.04802600  0.79211700  0.50156000  1
  Se  Se20  1  0.83977600  0.78403800  0.18813700  1
  Se  Se21  1  0.33977600  0.21596200  0.31186300  1
  Se  Se22  1  0.16022400  0.21596200  0.81186300  1
  Se  Se23  1  0.66022400  0.78403800  0.68813700  1
  Se  Se24  1  0.31262900  0.77473200  0.28427000  1
  Se  Se25  1  0.81262900  0.22526800  0.21573000  1
  Se  Se26  1  0.68737100  0.22526800  0.71573000  1
  Se  Se27  1  0.18737100  0.77473200  0.78427000  1
  Se  Se28  1  0.17680100  0.46094100  0.07106000  1
  Se  Se29  1  0.67680100  0.53905900  0.42894000  1
  Se  Se30  1  0.82319900  0.53905900  0.92894000  1
  Se  Se31  1  0.32319900  0.46094100  0.57106000  1
