# generated using pymatgen
data_Zr14As9
_symmetry_space_group_name_H-M   'P 1'
_cell_length_a   3.80874700
_cell_length_b   17.26461900
_cell_length_c   28.48027300
_cell_angle_alpha   90.00000000
_cell_angle_beta   90.00000000
_cell_angle_gamma   90.00000000
_symmetry_Int_Tables_number   1
_chemical_formula_structural   Zr14As9
_chemical_formula_sum   'Zr56 As36'
_cell_volume   1872.76494616
_cell_formula_units_Z   4
loop_
 _symmetry_equiv_pos_site_id
 _symmetry_equiv_pos_as_xyz
  1  'x, y, z'
loop_
 _atom_site_type_symbol
 _atom_site_label
 _atom_site_symmetry_multiplicity
 _atom_site_fract_x
 _atom_site_fract_y
 _atom_site_fract_z
 _atom_site_occupancy
  Zr  Zr0  1  0.00000000  0.50000000  0.00000000  1
  Zr  Zr1  1  0.50000000  0.00000000  0.50000000  1
  Zr  Zr2  1  0.50000000  0.50000000  0.50000000  1
  Zr  Zr3  1  0.00000000  0.00000000  0.00000000  1
  Zr  Zr4  1  0.50000000  0.55019600  0.92097200  1
  Zr  Zr5  1  0.50000000  0.44980400  0.07902800  1
  Zr  Zr6  1  0.00000000  0.05019600  0.57902800  1
  Zr  Zr7  1  0.00000000  0.94980400  0.42097200  1
  Zr  Zr8  1  0.50000000  0.59926300  0.39585300  1
  Zr  Zr9  1  0.50000000  0.40073700  0.60414700  1
  Zr  Zr10  1  0.00000000  0.09926300  0.10414700  1
  Zr  Zr11  1  0.00000000  0.90073700  0.89585300  1
  Zr  Zr12  1  0.50000000  0.61784100  0.74416700  1
  Zr  Zr13  1  0.50000000  0.38215900  0.25583300  1
  Zr  Zr14  1  0.00000000  0.11784100  0.75583300  1
  Zr  Zr15  1  0.00000000  0.88215900  0.24416700  1
  Zr  Zr16  1  0.50000000  0.63413500  0.03063200  1
  Zr  Zr17  1  0.50000000  0.36586500  0.96936800  1
  Zr  Zr18  1  0.00000000  0.13413500  0.46936800  1
  Zr  Zr19  1  0.00000000  0.86586500  0.53063200  1
  Zr  Zr20  1  0.50000000  0.63823200  0.14734000  1
  Zr  Zr21  1  0.50000000  0.36176800  0.85266000  1
  Zr  Zr22  1  0.00000000  0.13823200  0.35266000  1
  Zr  Zr23  1  0.00000000  0.86176800  0.64734000  1
  Zr  Zr24  1  0.50000000  0.69934500  0.50884900  1
  Zr  Zr25  1  0.50000000  0.30065500  0.49115100  1
  Zr  Zr26  1  0.00000000  0.19934500  0.99115100  1
  Zr  Zr27  1  0.00000000  0.80065500  0.00884900  1
  Zr  Zr28  1  0.50000000  0.70250000  0.64245100  1
  Zr  Zr29  1  0.50000000  0.29750000  0.35754900  1
  Zr  Zr30  1  0.00000000  0.20250000  0.85754900  1
  Zr  Zr31  1  0.00000000  0.79750000  0.14245100  1
  Zr  Zr32  1  0.50000000  0.74711400  0.91664700  1
  Zr  Zr33  1  0.50000000  0.25288600  0.08335300  1
  Zr  Zr34  1  0.00000000  0.24711400  0.58335300  1
  Zr  Zr35  1  0.00000000  0.75288600  0.41664700  1
  Zr  Zr36  1  0.50000000  0.76764500  0.31194700  1
  Zr  Zr37  1  0.50000000  0.23235500  0.68805300  1
  Zr  Zr38  1  0.00000000  0.26764500  0.18805300  1
  Zr  Zr39  1  0.00000000  0.73235500  0.81194700  1
  Zr  Zr40  1  0.50000000  0.83359800  0.73738200  1
  Zr  Zr41  1  0.50000000  0.16640200  0.26261800  1
  Zr  Zr42  1  0.00000000  0.33359800  0.76261800  1
  Zr  Zr43  1  0.00000000  0.66640200  0.23738200  1
  Zr  Zr44  1  0.50000000  0.93146600  0.07434400  1
  Zr  Zr45  1  0.50000000  0.06853400  0.92565600  1
  Zr  Zr46  1  0.00000000  0.43146600  0.42565600  1
  Zr  Zr47  1  0.00000000  0.56853400  0.57434400  1
  Zr  Zr48  1  0.50000000  0.98046100  0.32266600  1
  Zr  Zr49  1  0.50000000  0.01953900  0.67733400  1
  Zr  Zr50  1  0.00000000  0.48046100  0.17733400  1
  Zr  Zr51  1  0.00000000  0.51953900  0.82266600  1
  Zr  Zr52  1  0.50000000  0.98695800  0.80298600  1
  Zr  Zr53  1  0.50000000  0.01304200  0.19701400  1
  Zr  Zr54  1  0.00000000  0.48695800  0.69701400  1
  Zr  Zr55  1  0.00000000  0.51304200  0.30298600  1
  As  As56  1  0.50000000  0.63282400  0.84283400  1
  As  As57  1  0.50000000  0.36717600  0.15716600  1
  As  As58  1  0.00000000  0.13282400  0.65716600  1
  As  As59  1  0.00000000  0.86717600  0.34283400  1
  As  As60  1  0.50000000  0.84157600  0.83456600  1
  As  As61  1  0.50000000  0.15842400  0.16543400  1
  As  As62  1  0.00000000  0.34157600  0.66543400  1
  As  As63  1  0.00000000  0.65842400  0.33456600  1
  As  As64  1  0.50000000  0.54907800  0.64303700  1
  As  As65  1  0.50000000  0.45092200  0.35696300  1
  As  As66  1  0.00000000  0.04907800  0.85696300  1
  As  As67  1  0.00000000  0.95092200  0.14303700  1
  As  As68  1  0.50000000  0.76751800  0.07779200  1
  As  As69  1  0.50000000  0.23248200  0.92220800  1
  As  As70  1  0.00000000  0.26751800  0.42220800  1
  As  As71  1  0.00000000  0.73248200  0.57779200  1
  As  As72  1  0.50000000  0.77453100  0.21383600  1
  As  As73  1  0.50000000  0.22546900  0.78616400  1
  As  As74  1  0.00000000  0.27453100  0.28616400  1
  As  As75  1  0.00000000  0.72546900  0.71383600  1
  As  As76  1  0.50000000  0.54811000  0.23349000  1
  As  As77  1  0.50000000  0.45189000  0.76651000  1
  As  As78  1  0.00000000  0.04811000  0.26651000  1
  As  As79  1  0.00000000  0.95189000  0.73349000  1
  As  As80  1  0.50000000  0.93590700  0.59222100  1
  As  As81  1  0.50000000  0.06409300  0.40777900  1
  As  As82  1  0.00000000  0.43590700  0.90777900  1
  As  As83  1  0.00000000  0.56409300  0.09222100  1
  As  As84  1  0.50000000  0.84437200  0.46148200  1
  As  As85  1  0.50000000  0.15562800  0.53851800  1
  As  As86  1  0.00000000  0.34437200  0.03851800  1
  As  As87  1  0.00000000  0.65562800  0.96148200  1
  As  As88  1  0.50000000  0.89588800  0.96739700  1
  As  As89  1  0.50000000  0.10411200  0.03260300  1
  As  As90  1  0.00000000  0.39588800  0.53260300  1
  As  As91  1  0.00000000  0.60411200  0.46739700  1
