# generated using pymatgen
data_Th2SbNO
_symmetry_space_group_name_H-M   'P 1'
_cell_length_a   7.05786521
_cell_length_b   7.05786521
_cell_length_c   7.05786521
_cell_angle_alpha   146.55607442
_cell_angle_beta   146.55607442
_cell_angle_gamma   48.02153923
_symmetry_Int_Tables_number   1
_chemical_formula_structural   Th2SbNO
_chemical_formula_sum   'Th2 Sb1 N1 O1'
_cell_volume   106.34990089
_cell_formula_units_Z   1
loop_
 _symmetry_equiv_pos_site_id
 _symmetry_equiv_pos_as_xyz
  1  'x, y, z'
loop_
 _atom_site_type_symbol
 _atom_site_label
 _atom_site_symmetry_multiplicity
 _atom_site_fract_x
 _atom_site_fract_y
 _atom_site_fract_z
 _atom_site_occupancy
  Th  Th0  1  0.65500700  0.65500700  0.00000000  1
  Th  Th1  1  0.34499300  0.34499300  0.00000000  1
  Sb  Sb2  1  0.00000000  0.00000000  0.00000000  1
  N  N3  1  0.75000000  0.25000000  0.50000000  1
  O  O4  1  0.25000000  0.75000000  0.50000000  1
