# generated using pymatgen
data_LaTl2P2S7
_symmetry_space_group_name_H-M   'P 1'
_cell_length_a   11.01019196
_cell_length_b   11.01019196
_cell_length_c   9.42625236
_cell_angle_alpha   72.45438545
_cell_angle_beta   72.45438545
_cell_angle_gamma   35.72654946
_symmetry_Int_Tables_number   1
_chemical_formula_structural   LaTl2P2S7
_chemical_formula_sum   'La2 Tl4 P4 S14'
_cell_volume   632.88408086
_cell_formula_units_Z   2
loop_
 _symmetry_equiv_pos_site_id
 _symmetry_equiv_pos_as_xyz
  1  'x, y, z'
loop_
 _atom_site_type_symbol
 _atom_site_label
 _atom_site_symmetry_multiplicity
 _atom_site_fract_x
 _atom_site_fract_y
 _atom_site_fract_z
 _atom_site_occupancy
  La  La0  1  0.34739700  0.34739700  0.83835500  1
  La  La1  1  0.65260300  0.65260300  0.16164500  1
  Tl  Tl2  1  0.01002900  0.01002900  0.74676200  1
  Tl  Tl3  1  0.98997100  0.98997100  0.25323800  1
  Tl  Tl4  1  0.31326200  0.31326200  0.32673700  1
  Tl  Tl5  1  0.68673800  0.68673800  0.67326300  1
  P  P6  1  0.45394800  0.45394800  0.46609700  1
  P  P7  1  0.54605200  0.54605200  0.53390300  1
  P  P8  1  0.16483500  0.16483500  0.93132600  1
  P  P9  1  0.83516500  0.83516500  0.06867400  1
  S  S10  1  0.51077300  0.51077300  0.75977100  1
  S  S11  1  0.48922700  0.48922700  0.24022900  1
  S  S12  1  0.23368600  0.23368600  0.72122800  1
  S  S13  1  0.76631400  0.76631400  0.27877200  1
  S  S14  1  0.84501600  0.35325800  0.43964700  1
  S  S15  1  0.35325800  0.84501600  0.43964700  1
  S  S16  1  0.15498400  0.64674200  0.56035300  1
  S  S17  1  0.64674200  0.15498400  0.56035300  1
  S  S18  1  0.86038200  0.34692300  0.95884100  1
  S  S19  1  0.34692300  0.86038200  0.95884100  1
  S  S20  1  0.13961800  0.65307700  0.04115900  1
  S  S21  1  0.65307700  0.13961800  0.04115900  1
  S  S22  1  0.78651000  0.78651000  0.90894600  1
  S  S23  1  0.21349000  0.21349000  0.09105400  1
