# generated using pymatgen
data_LiMgAlF6
_symmetry_space_group_name_H-M   'P 1'
_cell_length_a   8.46017881
_cell_length_b   8.46017881
_cell_length_c   4.57500500
_cell_angle_alpha   90.00000000
_cell_angle_beta   90.00000000
_cell_angle_gamma   120.00000631
_symmetry_Int_Tables_number   1
_chemical_formula_structural   LiMgAlF6
_chemical_formula_sum   'Li3 Mg3 Al3 F18'
_cell_volume   283.58369773
_cell_formula_units_Z   3
loop_
 _symmetry_equiv_pos_site_id
 _symmetry_equiv_pos_as_xyz
  1  'x, y, z'
loop_
 _atom_site_type_symbol
 _atom_site_label
 _atom_site_symmetry_multiplicity
 _atom_site_fract_x
 _atom_site_fract_y
 _atom_site_fract_z
 _atom_site_occupancy
  Li  Li0  1  0.30043600  0.30043600  0.50000000  1
  Li  Li1  1  0.00000000  0.69956400  0.50000000  1
  Li  Li2  1  0.69956400  0.00000000  0.50000000  1
  Mg  Mg3  1  0.64244300  0.64244300  0.00000000  1
  Mg  Mg4  1  0.00000000  0.35755700  0.00000000  1
  Mg  Mg5  1  0.35755700  0.00000000  0.00000000  1
  Al  Al6  1  0.00000000  0.00000000  0.00000000  1
  Al  Al7  1  0.33333300  0.66666700  0.49433400  1
  Al  Al8  1  0.66666700  0.33333300  0.50566600  1
  F  F9  1  0.09589900  0.20858200  0.21781000  1
  F  F10  1  0.11268300  0.90410100  0.21781000  1
  F  F11  1  0.79141800  0.88731700  0.21781000  1
  F  F12  1  0.88731700  0.79141800  0.78219000  1
  F  F13  1  0.90410100  0.11268300  0.78219000  1
  F  F14  1  0.20858200  0.09589900  0.78219000  1
  F  F15  1  0.44409200  0.87224000  0.26665700  1
  F  F16  1  0.42814900  0.55590800  0.26665700  1
  F  F17  1  0.12776000  0.57185100  0.26665700  1
  F  F18  1  0.57185100  0.12776000  0.73334300  1
  F  F19  1  0.55590800  0.42814900  0.73334300  1
  F  F20  1  0.87224000  0.44409200  0.73334300  1
  F  F21  1  0.21904200  0.46049700  0.71947600  1
  F  F22  1  0.24145400  0.78095800  0.71947600  1
  F  F23  1  0.53950300  0.75854600  0.71947600  1
  F  F24  1  0.75854600  0.53950300  0.28052400  1
  F  F25  1  0.78095800  0.24145400  0.28052400  1
  F  F26  1  0.46049700  0.21904200  0.28052400  1
