# generated using pymatgen
data_V2HgO6
_symmetry_space_group_name_H-M   'P 1'
_cell_length_a   4.99744500
_cell_length_b   6.11182500
_cell_length_c   14.60950900
_cell_angle_alpha   90.00000000
_cell_angle_beta   90.00000000
_cell_angle_gamma   90.00000000
_symmetry_Int_Tables_number   1
_chemical_formula_structural   V2HgO6
_chemical_formula_sum   'V8 Hg4 O24'
_cell_volume   446.22567382
_cell_formula_units_Z   4
loop_
 _symmetry_equiv_pos_site_id
 _symmetry_equiv_pos_as_xyz
  1  'x, y, z'
loop_
 _atom_site_type_symbol
 _atom_site_label
 _atom_site_symmetry_multiplicity
 _atom_site_fract_x
 _atom_site_fract_y
 _atom_site_fract_z
 _atom_site_occupancy
  V  V0  1  0.03269700  0.43565800  0.82939100  1
  V  V1  1  0.53269700  0.06434200  0.82939100  1
  V  V2  1  0.96730300  0.56434200  0.17060900  1
  V  V3  1  0.46730300  0.43565800  0.32939100  1
  V  V4  1  0.53269700  0.56434200  0.67060900  1
  V  V5  1  0.03269700  0.93565800  0.67060900  1
  V  V6  1  0.96730300  0.06434200  0.32939100  1
  V  V7  1  0.46730300  0.93565800  0.17060900  1
  Hg  Hg8  1  0.50000000  0.00000000  0.50000000  1
  Hg  Hg9  1  0.00000000  0.00000000  0.00000000  1
  Hg  Hg10  1  0.50000000  0.50000000  0.00000000  1
  Hg  Hg11  1  0.00000000  0.50000000  0.50000000  1
  O  O12  1  0.93816300  0.62053600  0.90441500  1
  O  O13  1  0.66202700  0.17833500  0.39062700  1
  O  O14  1  0.43816300  0.87946400  0.90441500  1
  O  O15  1  0.27301600  0.59537200  0.24760900  1
  O  O16  1  0.33797300  0.32166500  0.89062700  1
  O  O17  1  0.33797300  0.82166500  0.60937300  1
  O  O18  1  0.72698400  0.90462800  0.74760900  1
  O  O19  1  0.56183700  0.12053600  0.09558500  1
  O  O20  1  0.16202700  0.82166500  0.10937300  1
  O  O21  1  0.77301600  0.90462800  0.24760900  1
  O  O22  1  0.22698400  0.59537200  0.74760900  1
  O  O23  1  0.66202700  0.67833500  0.10937300  1
  O  O24  1  0.06183700  0.37946400  0.09558500  1
  O  O25  1  0.56183700  0.62053600  0.40441500  1
  O  O26  1  0.22698400  0.09537200  0.75239100  1
  O  O27  1  0.16202700  0.32166500  0.39062700  1
  O  O28  1  0.93816300  0.12053600  0.59558500  1
  O  O29  1  0.83797300  0.17833500  0.89062700  1
  O  O30  1  0.06183700  0.87946400  0.40441500  1
  O  O31  1  0.72698400  0.40462800  0.75239100  1
  O  O32  1  0.43816300  0.37946400  0.59558500  1
  O  O33  1  0.83797300  0.67833500  0.60937300  1
  O  O34  1  0.27301600  0.09537200  0.25239100  1
  O  O35  1  0.77301600  0.40462800  0.25239100  1
