# generated using pymatgen
data_LiEuAs
_symmetry_space_group_name_H-M   'P 1'
_cell_length_a   4.46406300
_cell_length_b   7.46380900
_cell_length_c   7.98372300
_cell_angle_alpha   90.00000000
_cell_angle_beta   90.00000000
_cell_angle_gamma   90.00000000
_symmetry_Int_Tables_number   1
_chemical_formula_structural   LiEuAs
_chemical_formula_sum   'Li4 Eu4 As4'
_cell_volume   266.00897681
_cell_formula_units_Z   4
loop_
 _symmetry_equiv_pos_site_id
 _symmetry_equiv_pos_as_xyz
  1  'x, y, z'
loop_
 _atom_site_type_symbol
 _atom_site_label
 _atom_site_symmetry_multiplicity
 _atom_site_fract_x
 _atom_site_fract_y
 _atom_site_fract_z
 _atom_site_occupancy
  Li  Li0  1  0.25000000  0.15713100  0.92887000  1
  Li  Li1  1  0.25000000  0.65713100  0.57113000  1
  Li  Li2  1  0.75000000  0.84286900  0.07113000  1
  Li  Li3  1  0.75000000  0.34286900  0.42887000  1
  Eu  Eu4  1  0.25000000  0.00864500  0.29593200  1
  Eu  Eu5  1  0.25000000  0.50864500  0.20406800  1
  Eu  Eu6  1  0.75000000  0.99135500  0.70406800  1
  Eu  Eu7  1  0.75000000  0.49135500  0.79593200  1
  As  As8  1  0.25000000  0.27468200  0.59590900  1
  As  As9  1  0.25000000  0.77468200  0.90409100  1
  As  As10  1  0.75000000  0.72531800  0.40409100  1
  As  As11  1  0.75000000  0.22531800  0.09590900  1
