# generated using pymatgen
data_K2V(PO4)2
_symmetry_space_group_name_H-M   'P 1'
_cell_length_a   8.42097000
_cell_length_b   8.42097000
_cell_length_c   5.53662200
_cell_angle_alpha   90.00000000
_cell_angle_beta   90.00000000
_cell_angle_gamma   90.00000000
_symmetry_Int_Tables_number   1
_chemical_formula_structural   K2V(PO4)2
_chemical_formula_sum   'K4 V2 P4 O16'
_cell_volume   392.61701278
_cell_formula_units_Z   2
loop_
 _symmetry_equiv_pos_site_id
 _symmetry_equiv_pos_as_xyz
  1  'x, y, z'
loop_
 _atom_site_type_symbol
 _atom_site_label
 _atom_site_symmetry_multiplicity
 _atom_site_fract_x
 _atom_site_fract_y
 _atom_site_fract_z
 _atom_site_occupancy
  K  K0  1  0.67167900  0.82832100  0.62796300  1
  K  K1  1  0.82832100  0.32832100  0.62796300  1
  K  K2  1  0.17167900  0.67167900  0.62796300  1
  K  K3  1  0.32832100  0.17167900  0.62796300  1
  V  V4  1  0.50000000  0.50000000  0.10219000  1
  V  V5  1  0.00000000  0.00000000  0.10219000  1
  P  P6  1  0.87184300  0.62815700  0.11444100  1
  P  P7  1  0.62815700  0.12815700  0.11444100  1
  P  P8  1  0.37184300  0.87184300  0.11444100  1
  P  P9  1  0.12815700  0.37184300  0.11444100  1
  O  O10  1  0.50000000  0.00000000  0.00503600  1
  O  O11  1  0.00000000  0.50000000  0.00503600  1
  O  O12  1  0.21484000  0.92443500  0.99390900  1
  O  O13  1  0.78516000  0.07556500  0.99390900  1
  O  O14  1  0.07556500  0.21484000  0.99390900  1
  O  O15  1  0.92443500  0.78516000  0.99390900  1
  O  O16  1  0.57556500  0.28516000  0.99390900  1
  O  O17  1  0.28516000  0.42443500  0.99390900  1
  O  O18  1  0.71484000  0.57556500  0.99390900  1
  O  O19  1  0.42443500  0.71484000  0.99390900  1
  O  O20  1  0.50000000  0.50000000  0.39715600  1
  O  O21  1  0.00000000  0.00000000  0.39715600  1
  O  O22  1  0.12667700  0.37332300  0.38543700  1
  O  O23  1  0.37332300  0.87332300  0.38543700  1
  O  O24  1  0.62667700  0.12667700  0.38543700  1
  O  O25  1  0.87332300  0.62667700  0.38543700  1
