# generated using pymatgen
data_Zn(GaSe2)2
_symmetry_space_group_name_H-M   'P 1'
_cell_length_a   6.82161170
_cell_length_b   6.82161170
_cell_length_c   6.82161170
_cell_angle_alpha   131.19121983
_cell_angle_beta   131.19121983
_cell_angle_gamma   71.50944645
_symmetry_Int_Tables_number   1
_chemical_formula_structural   Zn(GaSe2)2
_chemical_formula_sum   'Zn1 Ga2 Se4'
_cell_volume   175.90967201
_cell_formula_units_Z   1
loop_
 _symmetry_equiv_pos_site_id
 _symmetry_equiv_pos_as_xyz
  1  'x, y, z'
loop_
 _atom_site_type_symbol
 _atom_site_label
 _atom_site_symmetry_multiplicity
 _atom_site_fract_x
 _atom_site_fract_y
 _atom_site_fract_z
 _atom_site_occupancy
  Zn  Zn0  1  0.00000000  0.00000000  0.00000000  1
  Ga  Ga1  1  0.50000000  0.50000000  0.00000000  1
  Ga  Ga2  1  0.25000000  0.75000000  0.50000000  1
  Se  Se3  1  0.39764100  0.89102700  0.02309400  1
  Se  Se4  1  0.10897300  0.13206700  0.50661400  1
  Se  Se5  1  0.62545300  0.60235900  0.49338600  1
  Se  Se6  1  0.86793300  0.37454700  0.97690600  1
