# generated using pymatgen
data_Zr6Be15Ni8
_symmetry_space_group_name_H-M   'P 1'
_cell_length_a   7.85143793
_cell_length_b   7.85143793
_cell_length_c   7.85143793
_cell_angle_alpha   60.00000000
_cell_angle_beta   60.00000000
_cell_angle_gamma   60.00000000
_symmetry_Int_Tables_number   1
_chemical_formula_structural   Zr6Be15Ni8
_chemical_formula_sum   'Zr6 Be15 Ni8'
_cell_volume   342.24144958
_cell_formula_units_Z   1
loop_
 _symmetry_equiv_pos_site_id
 _symmetry_equiv_pos_as_xyz
  1  'x, y, z'
loop_
 _atom_site_type_symbol
 _atom_site_label
 _atom_site_symmetry_multiplicity
 _atom_site_fract_x
 _atom_site_fract_y
 _atom_site_fract_z
 _atom_site_occupancy
  Zr  Zr0  1  0.70946700  0.29053300  0.29053300  1
  Zr  Zr1  1  0.29053300  0.70946700  0.70946700  1
  Zr  Zr2  1  0.29053300  0.70946700  0.29053300  1
  Zr  Zr3  1  0.70946700  0.29053300  0.70946700  1
  Zr  Zr4  1  0.29053300  0.29053300  0.70946700  1
  Zr  Zr5  1  0.70946700  0.70946700  0.29053300  1
  Be  Be6  1  0.32237600  0.32237600  0.32237600  1
  Be  Be7  1  0.67762400  0.67762400  0.67762400  1
  Be  Be8  1  0.32237600  0.32237600  0.03287100  1
  Be  Be9  1  0.32237600  0.03287100  0.32237600  1
  Be  Be10  1  0.67762400  0.67762400  0.96712900  1
  Be  Be11  1  0.67762400  0.96712900  0.67762400  1
  Be  Be12  1  0.03287100  0.32237600  0.32237600  1
  Be  Be13  1  0.96712900  0.67762400  0.67762400  1
  Be  Be14  1  0.50000000  0.00000000  0.00000000  1
  Be  Be15  1  0.00000000  0.50000000  0.50000000  1
  Be  Be16  1  0.00000000  0.50000000  0.00000000  1
  Be  Be17  1  0.50000000  0.00000000  0.50000000  1
  Be  Be18  1  0.00000000  0.00000000  0.50000000  1
  Be  Be19  1  0.50000000  0.50000000  0.00000000  1
  Be  Be20  1  0.00000000  0.00000000  0.00000000  1
  Ni  Ni21  1  0.12435200  0.12435200  0.12435200  1
  Ni  Ni22  1  0.87564800  0.87564800  0.87564800  1
  Ni  Ni23  1  0.12435200  0.12435200  0.62694400  1
  Ni  Ni24  1  0.12435200  0.62694400  0.12435200  1
  Ni  Ni25  1  0.87564800  0.87564800  0.37305600  1
  Ni  Ni26  1  0.87564800  0.37305600  0.87564800  1
  Ni  Ni27  1  0.62694400  0.12435200  0.12435200  1
  Ni  Ni28  1  0.37305600  0.87564800  0.87564800  1
