# generated using pymatgen
data_MoP2
_symmetry_space_group_name_H-M   'P 1'
_cell_length_a   5.84205085
_cell_length_b   5.84205085
_cell_length_c   5.01065900
_cell_angle_alpha   90.00000000
_cell_angle_beta   90.00000000
_cell_angle_gamma   148.63175474
_symmetry_Int_Tables_number   1
_chemical_formula_structural   MoP2
_chemical_formula_sum   'Mo2 P4'
_cell_volume   89.01776700
_cell_formula_units_Z   2
loop_
 _symmetry_equiv_pos_site_id
 _symmetry_equiv_pos_as_xyz
  1  'x, y, z'
loop_
 _atom_site_type_symbol
 _atom_site_label
 _atom_site_symmetry_multiplicity
 _atom_site_fract_x
 _atom_site_fract_y
 _atom_site_fract_z
 _atom_site_occupancy
  Mo  Mo0  1  0.09373500  0.90626500  0.50160900  1
  Mo  Mo1  1  0.90626500  0.09373500  0.00160900  1
  P  P2  1  0.43045700  0.56954300  0.61950600  1
  P  P3  1  0.56954300  0.43045700  0.11950600  1
  P  P4  1  0.70185100  0.29814900  0.80388500  1
  P  P5  1  0.29814900  0.70185100  0.30388500  1
