# generated using pymatgen
data_Li2B8SeO15
_symmetry_space_group_name_H-M   'P 1'
_cell_length_a   16.48669800
_cell_length_b   8.55281400
_cell_length_c   8.76133782
_cell_angle_alpha   85.51958507
_cell_angle_beta   90.00000000
_cell_angle_gamma   90.00000000
_symmetry_Int_Tables_number   1
_chemical_formula_structural   Li2B8SeO15
_chemical_formula_sum   'Li8 B32 Se4 O60'
_cell_volume   1231.64044358
_cell_formula_units_Z   4
loop_
 _symmetry_equiv_pos_site_id
 _symmetry_equiv_pos_as_xyz
  1  'x, y, z'
loop_
 _atom_site_type_symbol
 _atom_site_label
 _atom_site_symmetry_multiplicity
 _atom_site_fract_x
 _atom_site_fract_y
 _atom_site_fract_z
 _atom_site_occupancy
  Li  Li0  1  0.64180800  0.50314300  0.13849100  1
  Li  Li1  1  0.14180800  0.99685700  0.86150900  1
  Li  Li2  1  0.35819200  0.49685700  0.86150900  1
  Li  Li3  1  0.85819200  0.00314300  0.13849100  1
  Li  Li4  1  0.50045600  0.86939300  0.61975800  1
  Li  Li5  1  0.00045600  0.63060700  0.38024200  1
  Li  Li6  1  0.49954400  0.13060700  0.38024200  1
  Li  Li7  1  0.99954400  0.36939300  0.61975800  1
  B  B8  1  0.68350900  0.43922300  0.47255300  1
  B  B9  1  0.18350900  0.06077700  0.52744700  1
  B  B10  1  0.31649100  0.56077700  0.52744700  1
  B  B11  1  0.81649100  0.93922300  0.47255300  1
  B  B12  1  0.57049500  0.63117600  0.40972700  1
  B  B13  1  0.07049500  0.86882400  0.59027300  1
  B  B14  1  0.42950500  0.36882400  0.59027300  1
  B  B15  1  0.92950500  0.13117600  0.40972700  1
  B  B16  1  0.60918400  0.56875900  0.67395300  1
  B  B17  1  0.10918400  0.93124100  0.32604700  1
  B  B18  1  0.39081600  0.43124100  0.32604700  1
  B  B19  1  0.89081600  0.06875900  0.67395300  1
  B  B20  1  0.49860300  0.72205300  0.16056200  1
  B  B21  1  0.99860300  0.77794700  0.83943800  1
  B  B22  1  0.50139700  0.27794700  0.83943800  1
  B  B23  1  0.00139700  0.22205300  0.16056200  1
  B  B24  1  0.54136500  0.66719600  0.90694000  1
  B  B25  1  0.04136500  0.83280400  0.09306000  1
  B  B26  1  0.45863500  0.33280400  0.09306000  1
  B  B27  1  0.95863500  0.16719600  0.90694000  1
  B  B28  1  0.41605500  0.82326400  0.93846300  1
  B  B29  1  0.91605500  0.67673600  0.06153700  1
  B  B30  1  0.58394500  0.17673600  0.06153700  1
  B  B31  1  0.08394500  0.32326400  0.93846300  1
  B  B32  1  0.32043800  0.04002000  0.89359000  1
  B  B33  1  0.82043800  0.45998000  0.10641000  1
  B  B34  1  0.67956200  0.95998000  0.10641000  1
  B  B35  1  0.17956200  0.54002000  0.89359000  1
  B  B36  1  0.26806700  0.77805600  0.90435900  1
  B  B37  1  0.76806700  0.72194400  0.09564100  1
  B  B38  1  0.73193300  0.22194400  0.09564100  1
  B  B39  1  0.23193300  0.27805600  0.90435900  1
  Se  Se40  1  0.67384600  0.10159900  0.55683800  1
  Se  Se41  1  0.17384600  0.39840100  0.44316200  1
  Se  Se42  1  0.32615400  0.89840100  0.44316200  1
  Se  Se43  1  0.82615400  0.60159900  0.55683800  1
  O  O44  1  0.67243900  0.27439200  0.43183100  1
  O  O45  1  0.17243900  0.22560800  0.56816900  1
  O  O46  1  0.32756100  0.72560800  0.56816900  1
  O  O47  1  0.82756100  0.77439200  0.43183100  1
  O  O48  1  0.73011000  0.98158000  0.43845500  1
  O  O49  1  0.23011000  0.51842000  0.56154500  1
  O  O50  1  0.26989000  0.01842000  0.56154500  1
  O  O51  1  0.76989000  0.48158000  0.43845500  1
  O  O52  1  0.58161900  0.03033900  0.52288900  1
  O  O53  1  0.08161900  0.46966100  0.47711100  1
  O  O54  1  0.41838100  0.96966100  0.47711100  1
  O  O55  1  0.91838100  0.53033900  0.52288900  1
  O  O56  1  0.66469100  0.46326700  0.63212800  1
  O  O57  1  0.16469100  0.03673300  0.36787200  1
  O  O58  1  0.33530900  0.53673300  0.36787200  1
  O  O59  1  0.83530900  0.96326700  0.63212800  1
  O  O60  1  0.62898900  0.53296100  0.36301600  1
  O  O61  1  0.12898900  0.96703900  0.63698400  1
  O  O62  1  0.37101100  0.46703900  0.63698400  1
  O  O63  1  0.87101100  0.03296100  0.36301600  1
  O  O64  1  0.51421000  0.70727900  0.31602000  1
  O  O65  1  0.01421000  0.79272100  0.68398000  1
  O  O66  1  0.48579000  0.29272100  0.68398000  1
  O  O67  1  0.98579000  0.20727900  0.31602000  1
  O  O68  1  0.54676000  0.63397800  0.06524000  1
  O  O69  1  0.04676000  0.86602200  0.93476000  1
  O  O70  1  0.45324000  0.36602200  0.93476000  1
  O  O71  1  0.95324000  0.13397800  0.06524000  1
  O  O72  1  0.43722200  0.81069200  0.10203600  1
  O  O73  1  0.93722200  0.68930800  0.89796400  1
  O  O74  1  0.56277800  0.18930800  0.89796400  1
  O  O75  1  0.06277800  0.31069200  0.10203600  1
  O  O76  1  0.56233300  0.65749900  0.56544500  1
  O  O77  1  0.06233300  0.84250100  0.43455500  1
  O  O78  1  0.43766700  0.34250100  0.43455500  1
  O  O79  1  0.93766700  0.15749900  0.56544500  1
  O  O80  1  0.59902300  0.59029300  0.82657600  1
  O  O81  1  0.09902300  0.90970700  0.17342400  1
  O  O82  1  0.40097700  0.40970700  0.17342400  1
  O  O83  1  0.90097700  0.09029300  0.82657600  1
  O  O84  1  0.48430900  0.76658500  0.84254900  1
  O  O85  1  0.98430900  0.73341500  0.15745100  1
  O  O86  1  0.51569100  0.23341500  0.15745100  1
  O  O87  1  0.01569100  0.26658500  0.84254900  1
  O  O88  1  0.39716300  0.98628700  0.88770200  1
  O  O89  1  0.89716300  0.51371300  0.11229800  1
  O  O90  1  0.60283700  0.01371300  0.11229800  1
  O  O91  1  0.10283700  0.48628700  0.88770200  1
  O  O92  1  0.25449600  0.93797500  0.91181500  1
  O  O93  1  0.75449600  0.56202500  0.08818500  1
  O  O94  1  0.74550400  0.06202500  0.08818500  1
  O  O95  1  0.24550400  0.43797500  0.91181500  1
  O  O96  1  0.19664700  0.69763300  0.88769300  1
  O  O97  1  0.69664700  0.80236700  0.11230700  1
  O  O98  1  0.80335300  0.30236700  0.11230700  1
  O  O99  1  0.30335300  0.19763300  0.88769300  1
  O  O100  1  0.34413200  0.71768000  0.91484500  1
  O  O101  1  0.84413200  0.78232000  0.08515500  1
  O  O102  1  0.65586800  0.28232000  0.08515500  1
  O  O103  1  0.15586800  0.21768000  0.91484500  1
