# generated using pymatgen
data_KSiSbO5
_symmetry_space_group_name_H-M   'P 1'
_cell_length_a   6.56847400
_cell_length_b   10.79028300
_cell_length_c   13.20997700
_cell_angle_alpha   90.00000000
_cell_angle_beta   90.00000000
_cell_angle_gamma   90.00000000
_symmetry_Int_Tables_number   1
_chemical_formula_structural   KSiSbO5
_chemical_formula_sum   'K8 Si8 Sb8 O40'
_cell_volume   936.26627886
_cell_formula_units_Z   8
loop_
 _symmetry_equiv_pos_site_id
 _symmetry_equiv_pos_as_xyz
  1  'x, y, z'
loop_
 _atom_site_type_symbol
 _atom_site_label
 _atom_site_symmetry_multiplicity
 _atom_site_fract_x
 _atom_site_fract_y
 _atom_site_fract_z
 _atom_site_occupancy
  K  K0  1  0.19708300  0.56322900  0.39251100  1
  K  K1  1  0.22502800  0.80714900  0.61943800  1
  K  K2  1  0.72502800  0.30714900  0.88056200  1
  K  K3  1  0.27497200  0.80714900  0.11943800  1
  K  K4  1  0.77497200  0.30714900  0.38056200  1
  K  K5  1  0.69708300  0.06322900  0.10748900  1
  K  K6  1  0.30291700  0.56322900  0.89251100  1
  K  K7  1  0.80291700  0.06322900  0.60748900  1
  Si  Si8  1  0.82849700  0.75060000  0.99997300  1
  Si  Si9  1  0.32849700  0.25060000  0.50002700  1
  Si  Si10  1  0.67150300  0.75060000  0.49997300  1
  Si  Si11  1  0.17150300  0.25060000  0.00002700  1
  Si  Si12  1  0.50304900  0.50144200  0.18104200  1
  Si  Si13  1  0.49695100  0.00144200  0.81895800  1
  Si  Si14  1  0.99695100  0.50144200  0.68104200  1
  Si  Si15  1  0.00304900  0.00144200  0.31895800  1
  Sb  Sb16  1  0.75302000  0.75007500  0.25215400  1
  Sb  Sb17  1  0.24698000  0.25007500  0.74784600  1
  Sb  Sb18  1  0.74698000  0.75007500  0.75215400  1
  Sb  Sb19  1  0.25302000  0.25007500  0.24784600  1
  Sb  Sb20  1  0.99981800  0.50100900  0.11938400  1
  Sb  Sb21  1  0.00018200  0.00100900  0.88061600  1
  Sb  Sb22  1  0.50018200  0.50100900  0.61938400  1
  Sb  Sb23  1  0.49981800  0.00100900  0.38061600  1
  O  O24  1  0.53279900  0.87589100  0.27133400  1
  O  O25  1  0.46720100  0.37589100  0.72866600  1
  O  O26  1  0.96720100  0.87589100  0.77133400  1
  O  O27  1  0.03279900  0.37589100  0.22866600  1
  O  O28  1  0.47890000  0.13139100  0.27390400  1
  O  O29  1  0.52110000  0.63139100  0.72609600  1
  O  O30  1  0.02110000  0.13139100  0.77390400  1
  O  O31  1  0.97890000  0.63139100  0.22609600  1
  O  O32  1  0.95797500  0.88582700  0.24056200  1
  O  O33  1  0.04202500  0.38582700  0.75943800  1
  O  O34  1  0.54202500  0.88582700  0.74056200  1
  O  O35  1  0.45797500  0.38582700  0.25943800  1
  O  O36  1  0.04065800  0.11917800  0.24124300  1
  O  O37  1  0.95934200  0.61917800  0.75875700  1
  O  O38  1  0.45934200  0.11917800  0.74124300  1
  O  O39  1  0.68155400  0.73098900  0.90073300  1
  O  O40  1  0.54065800  0.61917800  0.25875700  1
  O  O41  1  0.80086400  0.47373900  0.60786300  1
  O  O42  1  0.30086400  0.97373900  0.89213700  1
  O  O43  1  0.69913600  0.47373900  0.10786300  1
  O  O44  1  0.80507200  0.03184600  0.39114100  1
  O  O45  1  0.19492800  0.53184600  0.60885900  1
  O  O46  1  0.69492800  0.03184600  0.89114100  1
  O  O47  1  0.30507200  0.53184600  0.10885900  1
  O  O48  1  0.48775500  0.13378500  0.48666300  1
  O  O49  1  0.51224500  0.63378500  0.51333700  1
  O  O50  1  0.01224500  0.13378500  0.98666300  1
  O  O51  1  0.98775500  0.63378500  0.01333700  1
  O  O52  1  0.47158600  0.37587100  0.51016100  1
  O  O53  1  0.52841400  0.87587100  0.48983900  1
  O  O54  1  0.02841400  0.37587100  0.01016100  1
  O  O55  1  0.97158600  0.87587100  0.98983900  1
  O  O56  1  0.18647600  0.26898100  0.39841300  1
  O  O57  1  0.81352400  0.76898100  0.60158700  1
  O  O58  1  0.31352400  0.26898100  0.89841300  1
  O  O59  1  0.68647600  0.76898100  0.10158700  1
  O  O60  1  0.18155400  0.23098900  0.59926700  1
  O  O61  1  0.81844600  0.73098900  0.40073300  1
  O  O62  1  0.31844600  0.23098900  0.09926700  1
  O  O63  1  0.19913600  0.97373900  0.39213700  1
