# generated using pymatgen
data_Y3SiS2
_symmetry_space_group_name_H-M   'P 1'
_cell_length_a   6.91270640
_cell_length_b   6.91270640
_cell_length_c   6.91270640
_cell_angle_alpha   146.16422034
_cell_angle_beta   131.91444671
_cell_angle_gamma   60.08880435
_symmetry_Int_Tables_number   1
_chemical_formula_structural   Y3SiS2
_chemical_formula_sum   'Y3 Si1 S2'
_cell_volume   135.60499125
_cell_formula_units_Z   1
loop_
 _symmetry_equiv_pos_site_id
 _symmetry_equiv_pos_as_xyz
  1  'x, y, z'
loop_
 _atom_site_type_symbol
 _atom_site_label
 _atom_site_symmetry_multiplicity
 _atom_site_fract_x
 _atom_site_fract_y
 _atom_site_fract_z
 _atom_site_occupancy
  Y  Y0  1  0.83525800  0.33525800  0.50000000  1
  Y  Y1  1  0.50000000  0.00000000  0.50000000  1
  Y  Y2  1  0.16474200  0.66474200  0.50000000  1
  Si  Si3  1  0.00000000  0.00000000  0.00000000  1
  S  S4  1  0.66657700  0.66657700  0.00000000  1
  S  S5  1  0.33342300  0.33342300  0.00000000  1
