# generated using pymatgen
data_DySnGe
_symmetry_space_group_name_H-M   'P 1'
_cell_length_a   8.44012983
_cell_length_b   8.44012983
_cell_length_c   4.11724100
_cell_angle_alpha   90.00000000
_cell_angle_beta   90.00000000
_cell_angle_gamma   150.80797054
_symmetry_Int_Tables_number   1
_chemical_formula_structural   DySnGe
_chemical_formula_sum   'Dy2 Sn2 Ge2'
_cell_volume   143.05114323
_cell_formula_units_Z   2
loop_
 _symmetry_equiv_pos_site_id
 _symmetry_equiv_pos_as_xyz
  1  'x, y, z'
loop_
 _atom_site_type_symbol
 _atom_site_label
 _atom_site_symmetry_multiplicity
 _atom_site_fract_x
 _atom_site_fract_y
 _atom_site_fract_z
 _atom_site_occupancy
  Dy  Dy0  1  0.90538100  0.09461900  0.75000000  1
  Dy  Dy1  1  0.09461900  0.90538100  0.25000000  1
  Sn  Sn2  1  0.25052200  0.74947800  0.75000000  1
  Sn  Sn3  1  0.74947800  0.25052200  0.25000000  1
  Ge  Ge4  1  0.55365500  0.44634500  0.75000000  1
  Ge  Ge5  1  0.44634500  0.55365500  0.25000000  1
