# generated using pymatgen
data_Li10Co4O9
_symmetry_space_group_name_H-M   'P 1'
_cell_length_a   9.82151700
_cell_length_b   9.82151700
_cell_length_c   4.70031200
_cell_angle_alpha   90.00000000
_cell_angle_beta   90.00000000
_cell_angle_gamma   90.00000000
_symmetry_Int_Tables_number   1
_chemical_formula_structural   Li10Co4O9
_chemical_formula_sum   'Li20 Co8 O18'
_cell_volume   453.40241826
_cell_formula_units_Z   2
loop_
 _symmetry_equiv_pos_site_id
 _symmetry_equiv_pos_as_xyz
  1  'x, y, z'
loop_
 _atom_site_type_symbol
 _atom_site_label
 _atom_site_symmetry_multiplicity
 _atom_site_fract_x
 _atom_site_fract_y
 _atom_site_fract_z
 _atom_site_occupancy
  Li  Li0  1  0.50000000  0.00000000  0.83170300  1
  Li  Li1  1  0.00000000  0.50000000  0.66829700  1
  Li  Li2  1  0.00000000  0.50000000  0.16829700  1
  Li  Li3  1  0.50000000  0.00000000  0.33170300  1
  Li  Li4  1  0.68679700  0.14454200  0.79046600  1
  Li  Li5  1  0.31320300  0.85545800  0.79046600  1
  Li  Li6  1  0.81320300  0.64454200  0.70953400  1
  Li  Li7  1  0.18679700  0.35545800  0.70953400  1
  Li  Li8  1  0.85545800  0.31320300  0.20953400  1
  Li  Li9  1  0.14454200  0.68679700  0.20953400  1
  Li  Li10  1  0.35545800  0.18679700  0.29046600  1
  Li  Li11  1  0.64454200  0.81320300  0.29046600  1
  Li  Li12  1  0.81320300  0.35545800  0.70953400  1
  Li  Li13  1  0.18679700  0.64454200  0.70953400  1
  Li  Li14  1  0.68679700  0.85545800  0.79046600  1
  Li  Li15  1  0.31320300  0.14454200  0.79046600  1
  Li  Li16  1  0.64454200  0.18679700  0.29046600  1
  Li  Li17  1  0.35545800  0.81320300  0.29046600  1
  Li  Li18  1  0.14454200  0.31320300  0.20953400  1
  Li  Li19  1  0.85545800  0.68679700  0.20953400  1
  Co  Co20  1  0.50000000  0.33869300  0.76934700  1
  Co  Co21  1  0.50000000  0.66130700  0.76934700  1
  Co  Co22  1  0.00000000  0.83869300  0.73065300  1
  Co  Co23  1  0.00000000  0.16130700  0.73065300  1
  Co  Co24  1  0.66130700  0.50000000  0.23065300  1
  Co  Co25  1  0.33869300  0.50000000  0.23065300  1
  Co  Co26  1  0.16130700  0.00000000  0.26934700  1
  Co  Co27  1  0.83869300  0.00000000  0.26934700  1
  O  O28  1  0.67338300  0.32661700  0.00000000  1
  O  O29  1  0.32661700  0.67338300  0.00000000  1
  O  O30  1  0.82661700  0.82661700  0.50000000  1
  O  O31  1  0.17338300  0.17338300  0.50000000  1
  O  O32  1  0.82661700  0.17338300  0.50000000  1
  O  O33  1  0.17338300  0.82661700  0.50000000  1
  O  O34  1  0.67338300  0.67338300  0.00000000  1
  O  O35  1  0.32661700  0.32661700  0.00000000  1
  O  O36  1  0.00000000  0.00000000  0.00000000  1
  O  O37  1  0.50000000  0.50000000  0.50000000  1
  O  O38  1  0.00000000  0.34208100  0.92735600  1
  O  O39  1  0.00000000  0.65791900  0.92735600  1
  O  O40  1  0.50000000  0.84208100  0.57264400  1
  O  O41  1  0.50000000  0.15791900  0.57264400  1
  O  O42  1  0.65791900  0.00000000  0.07264400  1
  O  O43  1  0.34208100  0.00000000  0.07264400  1
  O  O44  1  0.15791900  0.50000000  0.42735600  1
  O  O45  1  0.84208100  0.50000000  0.42735600  1
