# generated using pymatgen
data_KMoP2O7
_symmetry_space_group_name_H-M   'P 1'
_cell_length_a   10.62912200
_cell_length_b   7.56242100
_cell_length_c   8.54249260
_cell_angle_alpha   73.01181142
_cell_angle_beta   90.00000000
_cell_angle_gamma   90.00000000
_symmetry_Int_Tables_number   1
_chemical_formula_structural   KMoP2O7
_chemical_formula_sum   'K4 Mo4 P8 O28'
_cell_volume   656.69926671
_cell_formula_units_Z   4
loop_
 _symmetry_equiv_pos_site_id
 _symmetry_equiv_pos_as_xyz
  1  'x, y, z'
loop_
 _atom_site_type_symbol
 _atom_site_label
 _atom_site_symmetry_multiplicity
 _atom_site_fract_x
 _atom_site_fract_y
 _atom_site_fract_z
 _atom_site_occupancy
  K  K0  1  0.17187100  0.17934700  0.93922500  1
  K  K1  1  0.32812900  0.17934700  0.43922500  1
  K  K2  1  0.82812900  0.82065300  0.06077500  1
  K  K3  1  0.67187100  0.82065300  0.56077500  1
  Mo  Mo4  1  0.60102600  0.23484600  0.74116200  1
  Mo  Mo5  1  0.39897400  0.76515400  0.25883800  1
  Mo  Mo6  1  0.89897400  0.23484600  0.24116200  1
  Mo  Mo7  1  0.10102600  0.76515400  0.75883800  1
  P  P8  1  0.86252100  0.44083800  0.80483400  1
  P  P9  1  0.13747900  0.55916200  0.19516600  1
  P  P10  1  0.60139700  0.12808600  0.17572600  1
  P  P11  1  0.36252100  0.55916200  0.69516600  1
  P  P12  1  0.39860300  0.87191400  0.82427400  1
  P  P13  1  0.63747900  0.44083800  0.30483400  1
  P  P14  1  0.89860300  0.12808600  0.67572600  1
  P  P15  1  0.10139700  0.87191400  0.32427400  1
  O  O16  1  0.72167500  0.45835100  0.76053400  1
  O  O17  1  0.92008600  0.63416100  0.75897500  1
  O  O18  1  0.22167500  0.54164900  0.73946600  1
  O  O19  1  0.57991400  0.63416100  0.25897500  1
  O  O20  1  0.27832500  0.54164900  0.23946600  1
  O  O21  1  0.76822900  0.07116800  0.75353400  1
  O  O22  1  0.26822900  0.92883200  0.74646600  1
  O  O23  1  0.07058800  0.66398500  0.31622600  1
  O  O24  1  0.39405700  0.67788100  0.52256500  1
  O  O25  1  0.57058800  0.33601500  0.18377400  1
  O  O26  1  0.89405700  0.32211900  0.97743500  1
  O  O27  1  0.42008600  0.36583900  0.74102500  1
  O  O28  1  0.09693700  0.86818400  0.50115900  1
  O  O29  1  0.92941200  0.33601500  0.68377400  1
  O  O30  1  0.73177100  0.07116800  0.25353400  1
  O  O31  1  0.40306300  0.86818400  0.00115900  1
  O  O32  1  0.50073100  0.00385500  0.28272000  1
  O  O33  1  0.49926900  0.99614500  0.71728000  1
  O  O34  1  0.60594300  0.32211900  0.47743500  1
  O  O35  1  0.23177100  0.92883200  0.24646600  1
  O  O36  1  0.99926900  0.00385500  0.78272000  1
  O  O37  1  0.77832500  0.45835100  0.26053400  1
  O  O38  1  0.00073100  0.99614500  0.21728000  1
  O  O39  1  0.07991400  0.36583900  0.24102500  1
  O  O40  1  0.42941200  0.66398500  0.81622600  1
  O  O41  1  0.59693700  0.13181600  0.99884100  1
  O  O42  1  0.10594300  0.67788100  0.02256500  1
  O  O43  1  0.90306300  0.13181600  0.49884100  1
