# generated using pymatgen
data_Ho2(Ga3Ru)3
_symmetry_space_group_name_H-M   'P 1'
_cell_length_a   7.48782460
_cell_length_b   7.48782460
_cell_length_c   9.72729100
_cell_angle_alpha   90.00000000
_cell_angle_beta   90.00000000
_cell_angle_gamma   119.53440463
_symmetry_Int_Tables_number   1
_chemical_formula_structural   Ho2(Ga3Ru)3
_chemical_formula_sum   'Ho4 Ga18 Ru6'
_cell_volume   474.51764062
_cell_formula_units_Z   2
loop_
 _symmetry_equiv_pos_site_id
 _symmetry_equiv_pos_as_xyz
  1  'x, y, z'
loop_
 _atom_site_type_symbol
 _atom_site_label
 _atom_site_symmetry_multiplicity
 _atom_site_fract_x
 _atom_site_fract_y
 _atom_site_fract_z
 _atom_site_occupancy
  Ho  Ho0  1  0.99698100  0.66929500  0.25000000  1
  Ho  Ho1  1  0.00301900  0.33070500  0.75000000  1
  Ho  Ho2  1  0.66929500  0.99698100  0.25000000  1
  Ho  Ho3  1  0.33070500  0.00301900  0.75000000  1
  Ga  Ga4  1  0.12548700  0.12548700  0.25000000  1
  Ga  Ga5  1  0.87451300  0.87451300  0.75000000  1
  Ga  Ga6  1  0.00507600  0.33525700  0.07613500  1
  Ga  Ga7  1  0.99492400  0.66474300  0.92386500  1
  Ga  Ga8  1  0.99492400  0.66474300  0.57613500  1
  Ga  Ga9  1  0.33525700  0.00507600  0.42386500  1
  Ga  Ga10  1  0.00507600  0.33525700  0.42386500  1
  Ga  Ga11  1  0.66474300  0.99492400  0.57613500  1
  Ga  Ga12  1  0.66474300  0.99492400  0.92386500  1
  Ga  Ga13  1  0.33525700  0.00507600  0.07613500  1
  Ga  Ga14  1  0.33687900  0.33687900  0.56012700  1
  Ga  Ga15  1  0.66312100  0.66312100  0.43987300  1
  Ga  Ga16  1  0.66312100  0.66312100  0.06012700  1
  Ga  Ga17  1  0.33687900  0.33687900  0.93987300  1
  Ga  Ga18  1  0.33667500  0.54793000  0.25000000  1
  Ga  Ga19  1  0.66332500  0.45207000  0.75000000  1
  Ga  Ga20  1  0.54793000  0.33667500  0.25000000  1
  Ga  Ga21  1  0.45207000  0.66332500  0.75000000  1
  Ru  Ru22  1  0.67401400  0.32598600  0.00000000  1
  Ru  Ru23  1  0.32598600  0.67401400  0.00000000  1
  Ru  Ru24  1  0.32598600  0.67401400  0.50000000  1
  Ru  Ru25  1  0.67401400  0.32598600  0.50000000  1
  Ru  Ru26  1  0.00000000  0.00000000  0.00000000  1
  Ru  Ru27  1  0.00000000  0.00000000  0.50000000  1
