# generated using pymatgen
data_TaNi6Mo
_symmetry_space_group_name_H-M   'P 1'
_cell_length_a   4.25823000
_cell_length_b   4.51673600
_cell_length_c   5.09279400
_cell_angle_alpha   90.00000000
_cell_angle_beta   90.00000000
_cell_angle_gamma   90.00000000
_symmetry_Int_Tables_number   1
_chemical_formula_structural   TaNi6Mo
_chemical_formula_sum   'Ta1 Ni6 Mo1'
_cell_volume   97.95123860
_cell_formula_units_Z   1
loop_
 _symmetry_equiv_pos_site_id
 _symmetry_equiv_pos_as_xyz
  1  'x, y, z'
loop_
 _atom_site_type_symbol
 _atom_site_label
 _atom_site_symmetry_multiplicity
 _atom_site_fract_x
 _atom_site_fract_y
 _atom_site_fract_z
 _atom_site_occupancy
  Ta  Ta0  1  0.00000000  0.34555000  0.00000000  1
  Ni  Ni1  1  0.00000000  0.33501100  0.50000000  1
  Ni  Ni2  1  0.50000000  0.67643800  0.00000000  1
  Ni  Ni3  1  0.50000000  0.15683600  0.74605800  1
  Ni  Ni4  1  0.50000000  0.15683600  0.25394200  1
  Ni  Ni5  1  0.00000000  0.83901900  0.74512400  1
  Ni  Ni6  1  0.00000000  0.83901900  0.25487600  1
  Mo  Mo7  1  0.50000000  0.65129100  0.50000000  1
