# generated using pymatgen
data_NdAlSi
_symmetry_space_group_name_H-M   'P 1'
_cell_length_a   7.90141885
_cell_length_b   7.90141885
_cell_length_c   7.90141885
_cell_angle_alpha   149.05031430
_cell_angle_beta   149.05031430
_cell_angle_gamma   44.33725133
_symmetry_Int_Tables_number   1
_chemical_formula_structural   NdAlSi
_chemical_formula_sum   'Nd2 Al2 Si2'
_cell_volume   130.08996058
_cell_formula_units_Z   2
loop_
 _symmetry_equiv_pos_site_id
 _symmetry_equiv_pos_as_xyz
  1  'x, y, z'
loop_
 _atom_site_type_symbol
 _atom_site_label
 _atom_site_symmetry_multiplicity
 _atom_site_fract_x
 _atom_site_fract_y
 _atom_site_fract_z
 _atom_site_occupancy
  Nd  Nd0  1  0.62426400  0.12426400  0.50000000  1
  Nd  Nd1  1  0.87426400  0.87426400  0.00000000  1
  Al  Al2  1  0.45836900  0.45836900  0.00000000  1
  Al  Al3  1  0.20836900  0.70836900  0.50000000  1
  Si  Si4  1  0.04236700  0.54236700  0.50000000  1
  Si  Si5  1  0.29236700  0.29236700  0.00000000  1
