# generated using pymatgen
data_Gd3Se3N
_symmetry_space_group_name_H-M   'P 1'
_cell_length_a   4.01644900
_cell_length_b   12.69376400
_cell_length_c   13.29367900
_cell_angle_alpha   90.00000000
_cell_angle_beta   90.00000000
_cell_angle_gamma   90.00000000
_symmetry_Int_Tables_number   1
_chemical_formula_structural   Gd3Se3N
_chemical_formula_sum   'Gd12 Se12 N4'
_cell_volume   677.76301218
_cell_formula_units_Z   4
loop_
 _symmetry_equiv_pos_site_id
 _symmetry_equiv_pos_as_xyz
  1  'x, y, z'
loop_
 _atom_site_type_symbol
 _atom_site_label
 _atom_site_symmetry_multiplicity
 _atom_site_fract_x
 _atom_site_fract_y
 _atom_site_fract_z
 _atom_site_occupancy
  Gd  Gd0  1  0.25000000  0.06537900  0.36682300  1
  Gd  Gd1  1  0.25000000  0.56537900  0.13317700  1
  Gd  Gd2  1  0.75000000  0.93462100  0.63317700  1
  Gd  Gd3  1  0.75000000  0.43462100  0.86682300  1
  Gd  Gd4  1  0.25000000  0.70573000  0.35908500  1
  Gd  Gd5  1  0.25000000  0.20573000  0.14091500  1
  Gd  Gd6  1  0.75000000  0.29427000  0.64091500  1
  Gd  Gd7  1  0.75000000  0.79427000  0.85908500  1
  Gd  Gd8  1  0.25000000  0.54134600  0.65083700  1
  Gd  Gd9  1  0.25000000  0.04134600  0.84916300  1
  Gd  Gd10  1  0.75000000  0.45865400  0.34916300  1
  Gd  Gd11  1  0.75000000  0.95865400  0.15083700  1
  Se  Se12  1  0.25000000  0.86962800  0.99524600  1
  Se  Se13  1  0.25000000  0.36962800  0.50475400  1
  Se  Se14  1  0.75000000  0.13037200  0.00475400  1
  Se  Se15  1  0.75000000  0.63037200  0.49524600  1
  Se  Se16  1  0.25000000  0.09517100  0.60379900  1
  Se  Se17  1  0.25000000  0.59517100  0.89620100  1
  Se  Se18  1  0.75000000  0.90482900  0.39620100  1
  Se  Se19  1  0.75000000  0.40482900  0.10379900  1
  Se  Se20  1  0.25000000  0.77529800  0.68884800  1
  Se  Se21  1  0.25000000  0.27529800  0.81115200  1
  Se  Se22  1  0.75000000  0.22470200  0.31115200  1
  Se  Se23  1  0.75000000  0.72470200  0.18884800  1
  N  N24  1  0.25000000  0.03865800  0.20330300  1
  N  N25  1  0.25000000  0.53865800  0.29669700  1
  N  N26  1  0.75000000  0.96134200  0.79669700  1
  N  N27  1  0.75000000  0.46134200  0.70330300  1
