# generated using pymatgen
data_TmB4Rh
_symmetry_space_group_name_H-M   'P 1'
_cell_length_a   3.54376200
_cell_length_b   5.93107200
_cell_length_c   11.50666900
_cell_angle_alpha   90.00000000
_cell_angle_beta   90.00000000
_cell_angle_gamma   90.00000000
_symmetry_Int_Tables_number   1
_chemical_formula_structural   TmB4Rh
_chemical_formula_sum   'Tm4 B16 Rh4'
_cell_volume   241.85070818
_cell_formula_units_Z   4
loop_
 _symmetry_equiv_pos_site_id
 _symmetry_equiv_pos_as_xyz
  1  'x, y, z'
loop_
 _atom_site_type_symbol
 _atom_site_label
 _atom_site_symmetry_multiplicity
 _atom_site_fract_x
 _atom_site_fract_y
 _atom_site_fract_z
 _atom_site_occupancy
  Tm  Tm0  1  0.00000000  0.13175000  0.64887100  1
  Tm  Tm1  1  0.00000000  0.86825000  0.35112900  1
  Tm  Tm2  1  0.00000000  0.63175000  0.85112900  1
  Tm  Tm3  1  0.00000000  0.36825000  0.14887100  1
  B  B4  1  0.50000000  0.79155000  0.68737100  1
  B  B5  1  0.50000000  0.20845000  0.31262900  1
  B  B6  1  0.50000000  0.29155000  0.81262900  1
  B  B7  1  0.50000000  0.70845000  0.18737100  1
  B  B8  1  0.50000000  0.86452900  0.53037500  1
  B  B9  1  0.50000000  0.13547100  0.46962500  1
  B  B10  1  0.50000000  0.36452900  0.96962500  1
  B  B11  1  0.50000000  0.63547100  0.03037500  1
  B  B12  1  0.50000000  0.02149700  0.19325900  1
  B  B13  1  0.50000000  0.97850300  0.80674100  1
  B  B14  1  0.50000000  0.52149700  0.30674100  1
  B  B15  1  0.50000000  0.47850300  0.69325900  1
  B  B16  1  0.50000000  0.11298200  0.04751000  1
  B  B17  1  0.50000000  0.88701800  0.95249000  1
  B  B18  1  0.50000000  0.61298200  0.45249000  1
  B  B19  1  0.50000000  0.38701800  0.54751000  1
  Rh  Rh20  1  0.00000000  0.64319900  0.59485200  1
  Rh  Rh21  1  0.00000000  0.35680100  0.40514800  1
  Rh  Rh22  1  0.00000000  0.14319900  0.90514800  1
  Rh  Rh23  1  0.00000000  0.85680100  0.09485200  1
