# generated using pymatgen
data_Sc5Ge3
_symmetry_space_group_name_H-M   'P 1'
_cell_length_a   7.97261104
_cell_length_b   7.97261104
_cell_length_c   5.90871700
_cell_angle_alpha   90.00000000
_cell_angle_beta   90.00000000
_cell_angle_gamma   120.00000866
_symmetry_Int_Tables_number   1
_chemical_formula_structural   Sc5Ge3
_chemical_formula_sum   'Sc10 Ge6'
_cell_volume   325.25571587
_cell_formula_units_Z   2
loop_
 _symmetry_equiv_pos_site_id
 _symmetry_equiv_pos_as_xyz
  1  'x, y, z'
loop_
 _atom_site_type_symbol
 _atom_site_label
 _atom_site_symmetry_multiplicity
 _atom_site_fract_x
 _atom_site_fract_y
 _atom_site_fract_z
 _atom_site_occupancy
  Sc  Sc0  1  0.33333300  0.66666700  0.00000000  1
  Sc  Sc1  1  0.66666700  0.33333300  0.50000000  1
  Sc  Sc2  1  0.66666700  0.33333300  0.00000000  1
  Sc  Sc3  1  0.33333300  0.66666700  0.50000000  1
  Sc  Sc4  1  0.24040900  0.00000000  0.25000000  1
  Sc  Sc5  1  0.24040900  0.24040900  0.75000000  1
  Sc  Sc6  1  0.00000000  0.75959100  0.75000000  1
  Sc  Sc7  1  0.00000000  0.24040900  0.25000000  1
  Sc  Sc8  1  0.75959100  0.75959100  0.25000000  1
  Sc  Sc9  1  0.75959100  0.00000000  0.75000000  1
  Ge  Ge10  1  0.60621300  0.00000000  0.25000000  1
  Ge  Ge11  1  0.60621300  0.60621300  0.75000000  1
  Ge  Ge12  1  0.00000000  0.39378700  0.75000000  1
  Ge  Ge13  1  0.00000000  0.60621300  0.25000000  1
  Ge  Ge14  1  0.39378700  0.39378700  0.25000000  1
  Ge  Ge15  1  0.39378700  0.00000000  0.75000000  1
