# generated using pymatgen
data_RbSc(MoO4)2
_symmetry_space_group_name_H-M   'P 1'
_cell_length_a   5.90598248
_cell_length_b   5.90598248
_cell_length_c   7.80395900
_cell_angle_alpha   90.00000000
_cell_angle_beta   90.00000000
_cell_angle_gamma   120.00000537
_symmetry_Int_Tables_number   1
_chemical_formula_structural   RbSc(MoO4)2
_chemical_formula_sum   'Rb1 Sc1 Mo2 O8'
_cell_volume   235.73816345
_cell_formula_units_Z   1
loop_
 _symmetry_equiv_pos_site_id
 _symmetry_equiv_pos_as_xyz
  1  'x, y, z'
loop_
 _atom_site_type_symbol
 _atom_site_label
 _atom_site_symmetry_multiplicity
 _atom_site_fract_x
 _atom_site_fract_y
 _atom_site_fract_z
 _atom_site_occupancy
  Rb  Rb0  1  0.00000000  0.00000000  0.00000000  1
  Sc  Sc1  1  0.00000000  0.00000000  0.50000000  1
  Mo  Mo2  1  0.33333300  0.66666700  0.26602500  1
  Mo  Mo3  1  0.66666700  0.33333300  0.73397500  1
  O  O4  1  0.16501200  0.83498800  0.33785600  1
  O  O5  1  0.83498800  0.16501200  0.66214400  1
  O  O6  1  0.16501200  0.33002400  0.33785600  1
  O  O7  1  0.83498800  0.66997600  0.66214400  1
  O  O8  1  0.66997600  0.83498800  0.33785600  1
  O  O9  1  0.33002400  0.16501200  0.66214400  1
  O  O10  1  0.33333300  0.66666700  0.04203300  1
  O  O11  1  0.66666700  0.33333300  0.95796700  1
