# generated using pymatgen
data_DyIn2Pd
_symmetry_space_group_name_H-M   'P 1'
_cell_length_a   10.84421971
_cell_length_b   10.84421971
_cell_length_c   10.84421971
_cell_angle_alpha   100.30784701
_cell_angle_beta   100.30784701
_cell_angle_gamma   129.95053886
_symmetry_Int_Tables_number   1
_chemical_formula_structural   DyIn2Pd
_chemical_formula_sum   'Dy10 In20 Pd10'
_cell_volume   885.83217645
_cell_formula_units_Z   10
loop_
 _symmetry_equiv_pos_site_id
 _symmetry_equiv_pos_as_xyz
  1  'x, y, z'
loop_
 _atom_site_type_symbol
 _atom_site_label
 _atom_site_symmetry_multiplicity
 _atom_site_fract_x
 _atom_site_fract_y
 _atom_site_fract_z
 _atom_site_occupancy
  Dy  Dy0  1  0.67038100  0.38829100  0.28209000  1
  Dy  Dy1  1  0.10620200  0.38829100  0.71791000  1
  Dy  Dy2  1  0.38829100  0.67038100  0.28209000  1
  Dy  Dy3  1  0.38829100  0.10620200  0.71791000  1
  Dy  Dy4  1  0.67530300  0.67530300  0.59627800  1
  Dy  Dy5  1  0.07902500  0.07902500  0.40372200  1
  Dy  Dy6  1  0.07902500  0.67530300  0.00000000  1
  Dy  Dy7  1  0.67530300  0.07902500  0.00000000  1
  Dy  Dy8  1  0.45692500  0.45692500  0.00000000  1
  Dy  Dy9  1  0.99578200  0.99578200  0.00000000  1
  In  In10  1  0.26803200  0.47702300  0.49319900  1
  In  In11  1  0.98382300  0.77483200  0.50680100  1
  In  In12  1  0.77483200  0.26803200  0.79100900  1
  In  In13  1  0.26803200  0.77483200  0.79100900  1
  In  In14  1  0.47702300  0.98382300  0.20899100  1
  In  In15  1  0.98382300  0.47702300  0.20899100  1
  In  In16  1  0.77483200  0.98382300  0.50680100  1
  In  In17  1  0.47702300  0.26803200  0.49319900  1
  In  In18  1  0.24717000  0.86496200  0.38220800  1
  In  In19  1  0.48275500  0.86496200  0.61779200  1
  In  In20  1  0.86496200  0.24717000  0.38220800  1
  In  In21  1  0.86496200  0.48275500  0.61779200  1
  In  In22  1  0.35851100  0.35851100  0.26558000  1
  In  In23  1  0.09293100  0.09293100  0.73442000  1
  In  In24  1  0.09293100  0.35851100  0.00000000  1
  In  In25  1  0.35851100  0.09293100  0.00000000  1
  In  In26  1  0.88088500  0.71938900  0.16149600  1
  In  In27  1  0.55789300  0.71938900  0.83850400  1
  In  In28  1  0.71938900  0.88088500  0.16149600  1
  In  In29  1  0.71938900  0.55789300  0.83850400  1
  Pd  Pd30  1  0.11445400  0.61445400  0.50000000  1
  Pd  Pd31  1  0.61445400  0.11445400  0.50000000  1
  Pd  Pd32  1  0.37289000  0.37289000  0.67811300  1
  Pd  Pd33  1  0.69477700  0.69477700  0.32188700  1
  Pd  Pd34  1  0.69477700  0.37289000  0.00000000  1
  Pd  Pd35  1  0.37289000  0.69477700  0.00000000  1
  Pd  Pd36  1  0.23991700  0.02665500  0.21326200  1
  Pd  Pd37  1  0.81339300  0.02665500  0.78673800  1
  Pd  Pd38  1  0.02665500  0.23991700  0.21326200  1
  Pd  Pd39  1  0.02665500  0.81339300  0.78673800  1
