# generated using pymatgen
data_Na2MgGeO4
_symmetry_space_group_name_H-M   'P 1'
_cell_length_a   5.69247500
_cell_length_b   5.42316500
_cell_length_c   9.03060762
_cell_angle_alpha   53.00590504
_cell_angle_beta   90.00000000
_cell_angle_gamma   90.00000000
_symmetry_Int_Tables_number   1
_chemical_formula_structural   Na2MgGeO4
_chemical_formula_sum   'Na4 Mg2 Ge2 O8'
_cell_volume   222.66567007
_cell_formula_units_Z   2
loop_
 _symmetry_equiv_pos_site_id
 _symmetry_equiv_pos_as_xyz
  1  'x, y, z'
loop_
 _atom_site_type_symbol
 _atom_site_label
 _atom_site_symmetry_multiplicity
 _atom_site_fract_x
 _atom_site_fract_y
 _atom_site_fract_z
 _atom_site_occupancy
  Na  Na0  1  0.67288100  0.63283700  0.80650800  1
  Na  Na1  1  0.32711900  0.63283700  0.30650800  1
  Na  Na2  1  0.81871900  0.37527100  0.56107100  1
  Na  Na3  1  0.18128100  0.37527100  0.06107100  1
  Mg  Mg4  1  0.18603200  0.86929500  0.55598400  1
  Mg  Mg5  1  0.81396800  0.86929500  0.05598400  1
  Ge  Ge6  1  0.31324800  0.11313500  0.80885800  1
  Ge  Ge7  1  0.68675200  0.11313500  0.30885800  1
  O  O8  1  0.20479200  0.46170100  0.60455300  1
  O  O9  1  0.79520800  0.46170100  0.10455300  1
  O  O10  1  0.61577800  0.16415800  0.83711600  1
  O  O11  1  0.38422200  0.16415800  0.33711600  1
  O  O12  1  0.29054900  0.81601000  0.78069900  1
  O  O13  1  0.70945100  0.81601000  0.28069900  1
  O  O14  1  0.14961100  0.99701400  0.01008300  1
  O  O15  1  0.85038900  0.99701400  0.51008300  1
