# generated using pymatgen
data_Ba3CaIr2O9
_symmetry_space_group_name_H-M   'P 1'
_cell_length_a   5.96790724
_cell_length_b   5.96790724
_cell_length_c   14.75669702
_cell_angle_alpha   89.35390402
_cell_angle_beta   89.35390402
_cell_angle_gamma   119.90984297
_symmetry_Int_Tables_number   1
_chemical_formula_structural   Ba3CaIr2O9
_chemical_formula_sum   'Ba6 Ca2 Ir4 O18'
_cell_volume   455.45720970
_cell_formula_units_Z   2
loop_
 _symmetry_equiv_pos_site_id
 _symmetry_equiv_pos_as_xyz
  1  'x, y, z'
loop_
 _atom_site_type_symbol
 _atom_site_label
 _atom_site_symmetry_multiplicity
 _atom_site_fract_x
 _atom_site_fract_y
 _atom_site_fract_z
 _atom_site_occupancy
  Ba  Ba0  1  0.67091900  0.33722300  0.41360000  1
  Ba  Ba1  1  0.66277700  0.32908100  0.08640000  1
  Ba  Ba2  1  0.00147100  0.99852900  0.25000000  1
  Ba  Ba3  1  0.99852900  0.00147100  0.75000000  1
  Ba  Ba4  1  0.33722300  0.67091900  0.91360000  1
  Ba  Ba5  1  0.32908100  0.66277700  0.58640000  1
  Ca  Ca6  1  0.00000000  0.00000000  0.00000000  1
  Ca  Ca7  1  0.00000000  0.00000000  0.50000000  1
  Ir  Ir8  1  0.65723100  0.32445300  0.66340800  1
  Ir  Ir9  1  0.67554700  0.34276900  0.83659200  1
  Ir  Ir10  1  0.34276900  0.67554700  0.33659200  1
  Ir  Ir11  1  0.32445300  0.65723100  0.16340800  1
  O  O12  1  0.83891700  0.66004800  0.90562200  1
  O  O13  1  0.33995200  0.16108300  0.59437800  1
  O  O14  1  0.16108300  0.33995200  0.09437800  1
  O  O15  1  0.66004800  0.83891700  0.40562200  1
  O  O16  1  0.37645400  0.19633000  0.91847100  1
  O  O17  1  0.80367000  0.62354600  0.58152900  1
  O  O18  1  0.62354600  0.80367000  0.08152900  1
  O  O19  1  0.19633000  0.37645400  0.41847100  1
  O  O20  1  0.83875200  0.19564300  0.91124600  1
  O  O21  1  0.80435700  0.16124800  0.58875400  1
  O  O22  1  0.16124800  0.80435700  0.08875400  1
  O  O23  1  0.19564300  0.83875200  0.41124600  1
  O  O24  1  0.48881400  0.51118600  0.25000000  1
  O  O25  1  0.51118600  0.48881400  0.75000000  1
  O  O26  1  0.02411100  0.51054200  0.25642800  1
  O  O27  1  0.48945800  0.97588900  0.24357200  1
  O  O28  1  0.97588900  0.48945800  0.74357200  1
  O  O29  1  0.51054200  0.02411100  0.75642800  1
