# generated using pymatgen
data_Cs3Ti3Te11
_symmetry_space_group_name_H-M   'P 1'
_cell_length_a   16.11741500
_cell_length_b   11.13453600
_cell_length_c   18.71419175
_cell_angle_alpha   54.00142639
_cell_angle_beta   90.00000000
_cell_angle_gamma   90.00000000
_symmetry_Int_Tables_number   1
_chemical_formula_structural   Cs3Ti3Te11
_chemical_formula_sum   'Cs12 Ti12 Te44'
_cell_volume   2717.09039298
_cell_formula_units_Z   4
loop_
 _symmetry_equiv_pos_site_id
 _symmetry_equiv_pos_as_xyz
  1  'x, y, z'
loop_
 _atom_site_type_symbol
 _atom_site_label
 _atom_site_symmetry_multiplicity
 _atom_site_fract_x
 _atom_site_fract_y
 _atom_site_fract_z
 _atom_site_occupancy
  Cs  Cs0  1  0.37850200  0.71173400  0.56125900  1
  Cs  Cs1  1  0.12149800  0.71173400  0.06125900  1
  Cs  Cs2  1  0.62149800  0.28826600  0.43874100  1
  Cs  Cs3  1  0.87850200  0.28826600  0.93874100  1
  Cs  Cs4  1  0.52841900  0.56805600  0.84924400  1
  Cs  Cs5  1  0.97158100  0.56805600  0.34924400  1
  Cs  Cs6  1  0.47158100  0.43194400  0.15075600  1
  Cs  Cs7  1  0.02841900  0.43194400  0.65075600  1
  Cs  Cs8  1  0.11094300  0.07094200  0.37886600  1
  Cs  Cs9  1  0.38905700  0.07094200  0.87886600  1
  Cs  Cs10  1  0.88905700  0.92905800  0.62113400  1
  Cs  Cs11  1  0.61094300  0.92905800  0.12113400  1
  Ti  Ti12  1  0.20280500  0.65317000  0.82172100  1
  Ti  Ti13  1  0.29719500  0.65317000  0.32172100  1
  Ti  Ti14  1  0.79719500  0.34683000  0.17827900  1
  Ti  Ti15  1  0.70280500  0.34683000  0.67827900  1
  Ti  Ti16  1  0.30980700  0.04531100  0.17869300  1
  Ti  Ti17  1  0.19019300  0.04531100  0.67869300  1
  Ti  Ti18  1  0.69019300  0.95468900  0.82130700  1
  Ti  Ti19  1  0.80980700  0.95468900  0.32130700  1
  Ti  Ti20  1  0.28347700  0.34193200  0.98186200  1
  Ti  Ti21  1  0.21652300  0.34193200  0.48186200  1
  Ti  Ti22  1  0.71652300  0.65806800  0.01813800  1
  Ti  Ti23  1  0.78347700  0.65806800  0.51813800  1
  Te  Te24  1  0.42997100  0.21641500  0.05003500  1
  Te  Te25  1  0.07002900  0.21641500  0.55003500  1
  Te  Te26  1  0.57002900  0.78358500  0.94996500  1
  Te  Te27  1  0.92997100  0.78358500  0.44996500  1
  Te  Te28  1  0.28617100  0.44909900  0.81137200  1
  Te  Te29  1  0.21382900  0.44909900  0.31137200  1
  Te  Te30  1  0.71382900  0.55090100  0.18862800  1
  Te  Te31  1  0.78617100  0.55090100  0.68862800  1
  Te  Te32  1  0.19593600  0.63239800  0.44929900  1
  Te  Te33  1  0.30406400  0.63239800  0.94929900  1
  Te  Te34  1  0.80406400  0.36760200  0.55070100  1
  Te  Te35  1  0.69593600  0.36760200  0.05070100  1
  Te  Te36  1  0.29437200  0.06811700  0.54754500  1
  Te  Te37  1  0.20562800  0.06811700  0.04754500  1
  Te  Te38  1  0.70562800  0.93188300  0.45245500  1
  Te  Te39  1  0.79437200  0.93188300  0.95245500  1
  Te  Te40  1  0.54288000  0.39564600  0.71818600  1
  Te  Te41  1  0.95712000  0.39564600  0.21818600  1
  Te  Te42  1  0.45712000  0.60435400  0.28181400  1
  Te  Te43  1  0.04288000  0.60435400  0.78181400  1
  Te  Te44  1  0.61478000  0.58302600  0.52324300  1
  Te  Te45  1  0.88522000  0.58302600  0.02324300  1
  Te  Te46  1  0.38522000  0.41697400  0.47675700  1
  Te  Te47  1  0.11478000  0.41697400  0.97675700  1
  Te  Te48  1  0.33406800  0.85640300  0.76466700  1
  Te  Te49  1  0.16593200  0.85640300  0.26466700  1
  Te  Te50  1  0.66593200  0.14359700  0.23533300  1
  Te  Te51  1  0.83406800  0.14359700  0.73533300  1
  Te  Te52  1  0.34351100  0.07987000  0.31199300  1
  Te  Te53  1  0.15648900  0.07987000  0.81199300  1
  Te  Te54  1  0.65648900  0.92013000  0.68800700  1
  Te  Te55  1  0.84351100  0.92013000  0.18800700  1
  Te  Te56  1  0.42424500  0.85267300  0.31062400  1
  Te  Te57  1  0.07575500  0.85267300  0.81062400  1
  Te  Te58  1  0.57575500  0.14732700  0.68937600  1
  Te  Te59  1  0.92424500  0.14732700  0.18937600  1
  Te  Te60  1  0.16715600  0.83758700  0.63646200  1
  Te  Te61  1  0.33284400  0.83758700  0.13646200  1
  Te  Te62  1  0.83284400  0.16241300  0.36353800  1
  Te  Te63  1  0.66715600  0.16241300  0.86353800  1
  Te  Te64  1  0.28011200  0.30607700  0.63315900  1
  Te  Te65  1  0.21988800  0.30607700  0.13315900  1
  Te  Te66  1  0.71988800  0.69392300  0.36684100  1
  Te  Te67  1  0.78011200  0.69392300  0.86684100  1
