# generated using pymatgen
data_Yb(AlCu)6
_symmetry_space_group_name_H-M   'P 1'
_cell_length_a   6.62483730
_cell_length_b   6.62483730
_cell_length_c   6.62483730
_cell_angle_alpha   135.07020909
_cell_angle_beta   99.13802067
_cell_angle_gamma   97.65535736
_symmetry_Int_Tables_number   1
_chemical_formula_structural   Yb(AlCu)6
_chemical_formula_sum   'Yb1 Al6 Cu6'
_cell_volume   189.73808171
_cell_formula_units_Z   1
loop_
 _symmetry_equiv_pos_site_id
 _symmetry_equiv_pos_as_xyz
  1  'x, y, z'
loop_
 _atom_site_type_symbol
 _atom_site_label
 _atom_site_symmetry_multiplicity
 _atom_site_fract_x
 _atom_site_fract_y
 _atom_site_fract_z
 _atom_site_occupancy
  Yb  Yb0  1  0.00000000  0.00000000  0.00000000  1
  Al  Al1  1  0.35024200  0.35024200  0.00000000  1
  Al  Al2  1  0.64975800  0.64975800  0.00000000  1
  Al  Al3  1  0.65383000  0.00000000  0.65383000  1
  Al  Al4  1  0.34617000  0.00000000  0.34617000  1
  Al  Al5  1  0.79387900  0.29387900  0.50000000  1
  Al  Al6  1  0.20612100  0.70612100  0.50000000  1
  Cu  Cu7  1  0.50000000  0.00000000  0.00000000  1
  Cu  Cu8  1  0.50000000  0.50000000  0.50000000  1
  Cu  Cu9  1  0.00000000  0.00000000  0.50000000  1
  Cu  Cu10  1  0.00000000  0.50000000  0.00000000  1
  Cu  Cu11  1  0.22610300  0.50000000  0.72610300  1
  Cu  Cu12  1  0.77389700  0.50000000  0.27389700  1
