# generated using pymatgen
data_Bi2(S2O7)3
_symmetry_space_group_name_H-M   'P 1'
_cell_length_a   6.71133300
_cell_length_b   10.36095692
_cell_length_c   11.80463067
_cell_angle_alpha   91.01991139
_cell_angle_beta   96.78928982
_cell_angle_gamma   94.87733281
_symmetry_Int_Tables_number   1
_chemical_formula_structural   Bi2(S2O7)3
_chemical_formula_sum   'Bi4 S12 O42'
_cell_volume   811.81548002
_cell_formula_units_Z   2
loop_
 _symmetry_equiv_pos_site_id
 _symmetry_equiv_pos_as_xyz
  1  'x, y, z'
loop_
 _atom_site_type_symbol
 _atom_site_label
 _atom_site_symmetry_multiplicity
 _atom_site_fract_x
 _atom_site_fract_y
 _atom_site_fract_z
 _atom_site_occupancy
  Bi  Bi0  1  0.83452500  0.41398300  0.72111000  1
  Bi  Bi1  1  0.16547500  0.58601700  0.27889000  1
  Bi  Bi2  1  0.42340200  0.90729800  0.73601600  1
  Bi  Bi3  1  0.57659800  0.09270200  0.26398400  1
  S  S4  1  0.36455400  0.55467100  0.76374800  1
  S  S5  1  0.63544600  0.44532900  0.23625200  1
  S  S6  1  0.41749100  0.18803500  0.54891900  1
  S  S7  1  0.58250900  0.81196500  0.45108100  1
  S  S8  1  0.70871000  0.67095700  0.90652600  1
  S  S9  1  0.29129000  0.32904300  0.09347400  1
  S  S10  1  0.92693300  0.07096600  0.77562900  1
  S  S11  1  0.07306700  0.92903400  0.22437100  1
  S  S12  1  0.67404600  0.16796200  0.93055200  1
  S  S13  1  0.32595400  0.83203800  0.06944800  1
  S  S14  1  0.03958400  0.29845400  0.46011100  1
  S  S15  1  0.96041500  0.70154600  0.53988900  1
  O  O16  1  0.67979500  0.77759100  0.82668500  1
  O  O17  1  0.32020500  0.22240900  0.17331500  1
  O  O18  1  0.29321100  0.67849100  0.72678200  1
  O  O19  1  0.70678900  0.32150900  0.27321800  1
  O  O20  1  0.34015500  0.05874400  0.58066800  1
  O  O21  1  0.65984500  0.94125600  0.41933200  1
  O  O22  1  0.87212500  0.08971400  0.90699600  1
  O  O23  1  0.12787500  0.91028600  0.09300400  1
  O  O24  1  0.48298300  0.57915600  0.89044700  1
  O  O25  1  0.51701700  0.42084400  0.10955300  1
  O  O26  1  0.74279100  0.00878300  0.70944700  1
  O  O27  1  0.25720900  0.99121700  0.29055300  1
  O  O28  1  0.85043500  0.58208400  0.87086700  1
  O  O29  1  0.14956500  0.41791600  0.12913300  1
  O  O30  1  0.98248100  0.20033900  0.73613600  1
  O  O31  1  0.01751900  0.79966100  0.26386400  1
  O  O32  1  0.23729500  0.28131600  0.55785500  1
  O  O33  1  0.76270500  0.71868400  0.44214500  1
  O  O34  1  0.70877500  0.29705300  0.88409400  1
  O  O35  1  0.29122500  0.70294700  0.11590600  1
  O  O36  1  0.46538000  0.19498500  0.43157500  1
  O  O37  1  0.53462000  0.80501500  0.56842500  1
  O  O38  1  0.19924400  0.45888600  0.78021700  1
  O  O39  1  0.80075600  0.54111400  0.21978300  1
  O  O40  1  0.57213500  0.24868200  0.63435200  1
  O  O41  1  0.42786500  0.75131800  0.36564800  1
  O  O42  1  0.50940400  0.50668100  0.69297600  1
  O  O43  1  0.49059600  0.49331900  0.30702400  1
  O  O44  1  0.09039500  0.98915300  0.79250700  1
  O  O45  1  0.90960500  0.01084700  0.20749300  1
  O  O46  1  0.68572100  0.16767900  0.05305000  1
  O  O47  1  0.31427900  0.83232100  0.94695000  1
  O  O48  1  0.73425800  0.70565400  0.02494600  1
  O  O49  1  0.26574200  0.29434600  0.97505400  1
  O  O50  1  0.92076400  0.37211800  0.53046100  1
  O  O51  1  0.07923600  0.62788200  0.46953900  1
  O  O52  1  0.95299700  0.17036000  0.42320600  1
  O  O53  1  0.04700300  0.82964000  0.57679400  1
  O  O54  1  0.12458900  0.37579900  0.37229500  1
  O  O55  1  0.87541100  0.62420100  0.62770500  1
  O  O56  1  0.50006400  0.08915400  0.87006700  1
  O  O57  1  0.49993600  0.91084600  0.12993300  1
