# generated using pymatgen
data_Cs2Sb
_symmetry_space_group_name_H-M   'P 1'
_cell_length_a   6.49704700
_cell_length_b   11.35605300
_cell_length_c   16.47585700
_cell_angle_alpha   90.00000000
_cell_angle_beta   90.00000000
_cell_angle_gamma   90.00000000
_symmetry_Int_Tables_number   1
_chemical_formula_structural   Cs2Sb
_chemical_formula_sum   'Cs16 Sb8'
_cell_volume   1215.60207615
_cell_formula_units_Z   8
loop_
 _symmetry_equiv_pos_site_id
 _symmetry_equiv_pos_as_xyz
  1  'x, y, z'
loop_
 _atom_site_type_symbol
 _atom_site_label
 _atom_site_symmetry_multiplicity
 _atom_site_fract_x
 _atom_site_fract_y
 _atom_site_fract_z
 _atom_site_occupancy
  Cs  Cs0  1  0.25000000  0.26088100  0.74479500  1
  Cs  Cs1  1  0.25000000  0.23911900  0.24479500  1
  Cs  Cs2  1  0.75000000  0.73911900  0.25520500  1
  Cs  Cs3  1  0.75000000  0.76088100  0.75520500  1
  Cs  Cs4  1  0.75000000  0.09432800  0.70449600  1
  Cs  Cs5  1  0.75000000  0.40567200  0.20449600  1
  Cs  Cs6  1  0.25000000  0.90567200  0.29550400  1
  Cs  Cs7  1  0.25000000  0.59432800  0.79550400  1
  Cs  Cs8  1  0.75000000  0.08668000  0.93980600  1
  Cs  Cs9  1  0.75000000  0.41332000  0.43980600  1
  Cs  Cs10  1  0.25000000  0.91332000  0.06019400  1
  Cs  Cs11  1  0.25000000  0.58668000  0.56019400  1
  Cs  Cs12  1  0.25000000  0.33294200  0.99309700  1
  Cs  Cs13  1  0.25000000  0.16705800  0.49309700  1
  Cs  Cs14  1  0.75000000  0.66705800  0.00690300  1
  Cs  Cs15  1  0.75000000  0.83294200  0.50690300  1
  Sb  Sb16  1  0.25000000  0.90934500  0.65654700  1
  Sb  Sb17  1  0.25000000  0.59065500  0.15654700  1
  Sb  Sb18  1  0.75000000  0.09065500  0.34345300  1
  Sb  Sb19  1  0.75000000  0.40934500  0.84345300  1
  Sb  Sb20  1  0.75000000  0.43668100  0.66443300  1
  Sb  Sb21  1  0.75000000  0.06331900  0.16443300  1
  Sb  Sb22  1  0.25000000  0.56331900  0.33556700  1
  Sb  Sb23  1  0.25000000  0.93668100  0.83556700  1
