# generated using pymatgen
data_BPH4NO4F
_symmetry_space_group_name_H-M   'P 1'
_cell_length_a   7.70761300
_cell_length_b   7.70761300
_cell_length_c   7.70761300
_cell_angle_alpha   90.00000000
_cell_angle_beta   90.00000000
_cell_angle_gamma   90.00000000
_symmetry_Int_Tables_number   1
_chemical_formula_structural   BPH4NO4F
_chemical_formula_sum   'B4 P4 H16 N4 O16 F4'
_cell_volume   457.88846358
_cell_formula_units_Z   4
loop_
 _symmetry_equiv_pos_site_id
 _symmetry_equiv_pos_as_xyz
  1  'x, y, z'
loop_
 _atom_site_type_symbol
 _atom_site_label
 _atom_site_symmetry_multiplicity
 _atom_site_fract_x
 _atom_site_fract_y
 _atom_site_fract_z
 _atom_site_occupancy
  B  B0  1  0.13433400  0.63433400  0.86566600  1
  B  B1  1  0.63433400  0.86566600  0.13433400  1
  B  B2  1  0.86566600  0.13433400  0.63433400  1
  B  B3  1  0.36566600  0.36566600  0.36566600  1
  P  P4  1  0.90150700  0.90150700  0.90150700  1
  P  P5  1  0.09849300  0.40150700  0.59849300  1
  P  P6  1  0.40150700  0.59849300  0.09849300  1
  P  P7  1  0.59849300  0.09849300  0.40150700  1
  H  H8  1  0.08371600  0.74975300  0.39441800  1
  H  H9  1  0.60558200  0.58371600  0.75024700  1
  H  H10  1  0.24975300  0.10558200  0.91628400  1
  H  H11  1  0.58371600  0.75024700  0.60558200  1
  H  H12  1  0.10558200  0.91628400  0.24975300  1
  H  H13  1  0.74975300  0.39441800  0.08371600  1
  H  H14  1  0.91628400  0.24975300  0.10558200  1
  H  H15  1  0.39441800  0.08371600  0.74975300  1
  H  H16  1  0.75024700  0.60558200  0.58371600  1
  H  H17  1  0.41628400  0.25024700  0.89441800  1
  H  H18  1  0.89441800  0.41628400  0.25024700  1
  H  H19  1  0.25024700  0.89441800  0.41628400  1
  H  H20  1  0.04529600  0.95470400  0.45470400  1
  H  H21  1  0.54529600  0.54529600  0.54529600  1
  H  H22  1  0.45470400  0.04529600  0.95470400  1
  H  H23  1  0.95470400  0.45470400  0.04529600  1
  N  N24  1  0.12219200  0.87780800  0.37780800  1
  N  N25  1  0.62219200  0.62219200  0.62219200  1
  N  N26  1  0.37780800  0.12219200  0.87780800  1
  N  N27  1  0.87780800  0.37780800  0.12219200  1
  O  O28  1  0.95909200  0.70706600  0.88910100  1
  O  O29  1  0.11089900  0.45909200  0.79293400  1
  O  O30  1  0.20706600  0.61089900  0.04090800  1
  O  O31  1  0.45909200  0.79293400  0.11089900  1
  O  O32  1  0.61089900  0.04090800  0.20706600  1
  O  O33  1  0.70706600  0.88910100  0.95909200  1
  O  O34  1  0.04090800  0.20706600  0.61089900  1
  O  O35  1  0.88910100  0.95909200  0.70706600  1
  O  O36  1  0.79293400  0.11089900  0.45909200  1
  O  O37  1  0.54090800  0.29293400  0.38910100  1
  O  O38  1  0.38910100  0.54090800  0.29293400  1
  O  O39  1  0.29293400  0.38910100  0.54090800  1
  O  O40  1  0.01472100  0.01472100  0.01472100  1
  O  O41  1  0.98527900  0.51472100  0.48527900  1
  O  O42  1  0.51472100  0.48527900  0.98527900  1
  O  O43  1  0.48527900  0.98527900  0.51472100  1
  F  F44  1  0.24027000  0.74027000  0.75973000  1
  F  F45  1  0.74027000  0.75973000  0.24027000  1
  F  F46  1  0.75973000  0.24027000  0.74027000  1
  F  F47  1  0.25973000  0.25973000  0.25973000  1
