# generated using pymatgen
data_PrNiSb2
_symmetry_space_group_name_H-M   'P 1'
_cell_length_a   4.43124200
_cell_length_b   4.43124200
_cell_length_c   9.79752700
_cell_angle_alpha   90.00000000
_cell_angle_beta   90.00000000
_cell_angle_gamma   90.00000000
_symmetry_Int_Tables_number   1
_chemical_formula_structural   PrNiSb2
_chemical_formula_sum   'Pr2 Ni2 Sb4'
_cell_volume   192.38331590
_cell_formula_units_Z   2
loop_
 _symmetry_equiv_pos_site_id
 _symmetry_equiv_pos_as_xyz
  1  'x, y, z'
loop_
 _atom_site_type_symbol
 _atom_site_label
 _atom_site_symmetry_multiplicity
 _atom_site_fract_x
 _atom_site_fract_y
 _atom_site_fract_z
 _atom_site_occupancy
  Pr  Pr0  1  0.00000000  0.50000000  0.74198600  1
  Pr  Pr1  1  0.50000000  0.00000000  0.25801400  1
  Ni  Ni2  1  0.50000000  0.50000000  0.50000000  1
  Ni  Ni3  1  0.00000000  0.00000000  0.50000000  1
  Sb  Sb4  1  0.50000000  0.50000000  0.00000000  1
  Sb  Sb5  1  0.00000000  0.00000000  0.00000000  1
  Sb  Sb6  1  0.00000000  0.50000000  0.36860000  1
  Sb  Sb7  1  0.50000000  0.00000000  0.63140000  1
