# generated using pymatgen
data_NdUTe6
_symmetry_space_group_name_H-M   'P 1'
_cell_length_a   13.09417093
_cell_length_b   13.09417093
_cell_length_c   4.39163300
_cell_angle_alpha   90.00000000
_cell_angle_beta   90.00000000
_cell_angle_gamma   160.67823728
_symmetry_Int_Tables_number   1
_chemical_formula_structural   NdUTe6
_chemical_formula_sum   'Nd1 U1 Te6'
_cell_volume   249.13984425
_cell_formula_units_Z   1
loop_
 _symmetry_equiv_pos_site_id
 _symmetry_equiv_pos_as_xyz
  1  'x, y, z'
loop_
 _atom_site_type_symbol
 _atom_site_label
 _atom_site_symmetry_multiplicity
 _atom_site_fract_x
 _atom_site_fract_y
 _atom_site_fract_z
 _atom_site_occupancy
  Nd  Nd0  1  0.16914700  0.83085300  0.00000000  1
  U  U1  1  0.83341900  0.16658100  0.50000000  1
  Te  Te2  1  0.57095400  0.42904600  0.00000000  1
  Te  Te3  1  0.42382000  0.57618000  0.50000000  1
  Te  Te4  1  0.29844100  0.70155900  0.00000000  1
  Te  Te5  1  0.70968000  0.29032000  0.50000000  1
  Te  Te6  1  0.92376900  0.07623100  0.00000000  1
  Te  Te7  1  0.07077000  0.92923000  0.50000000  1
