# generated using pymatgen
data_PrCu2
_symmetry_space_group_name_H-M   'P 1'
_cell_length_a   5.61535480
_cell_length_b   5.61535480
_cell_length_c   5.61535480
_cell_angle_alpha   133.93408121
_cell_angle_beta   100.38844721
_cell_angle_gamma   97.22977956
_symmetry_Int_Tables_number   1
_chemical_formula_structural   PrCu2
_chemical_formula_sum   'Pr2 Cu4'
_cell_volume   117.28511945
_cell_formula_units_Z   2
loop_
 _symmetry_equiv_pos_site_id
 _symmetry_equiv_pos_as_xyz
  1  'x, y, z'
loop_
 _atom_site_type_symbol
 _atom_site_label
 _atom_site_symmetry_multiplicity
 _atom_site_fract_x
 _atom_site_fract_y
 _atom_site_fract_z
 _atom_site_occupancy
  Pr  Pr0  1  0.21219300  0.46219300  0.75000000  1
  Pr  Pr1  1  0.78780700  0.53780700  0.25000000  1
  Cu  Cu2  1  0.38518100  0.83470700  0.55047400  1
  Cu  Cu3  1  0.61481900  0.16529300  0.44952600  1
  Cu  Cu4  1  0.21576800  0.16529300  0.05047400  1
  Cu  Cu5  1  0.78423200  0.83470700  0.94952600  1
