# generated using pymatgen
data_KEu2Cl5
_symmetry_space_group_name_H-M   'P 1'
_cell_length_a   7.94368500
_cell_length_b   8.86743500
_cell_length_c   12.66903235
_cell_angle_alpha   89.94732636
_cell_angle_beta   90.00000000
_cell_angle_gamma   90.00000000
_symmetry_Int_Tables_number   1
_chemical_formula_structural   KEu2Cl5
_chemical_formula_sum   'K4 Eu8 Cl20'
_cell_volume   892.40766051
_cell_formula_units_Z   4
loop_
 _symmetry_equiv_pos_site_id
 _symmetry_equiv_pos_as_xyz
  1  'x, y, z'
loop_
 _atom_site_type_symbol
 _atom_site_label
 _atom_site_symmetry_multiplicity
 _atom_site_fract_x
 _atom_site_fract_y
 _atom_site_fract_z
 _atom_site_occupancy
  K  K0  1  0.02336300  0.49660300  0.32357800  1
  K  K1  1  0.97663700  0.50339700  0.67642200  1
  K  K2  1  0.52336300  0.50339700  0.17642200  1
  K  K3  1  0.47663700  0.49660300  0.82357800  1
  Eu  Eu4  1  0.02226000  0.99891900  0.32202600  1
  Eu  Eu5  1  0.97774000  0.00108100  0.67797400  1
  Eu  Eu6  1  0.52226000  0.00108100  0.17797400  1
  Eu  Eu7  1  0.47774000  0.99891900  0.82202600  1
  Eu  Eu8  1  0.07139500  0.24778000  0.00644000  1
  Eu  Eu9  1  0.92860500  0.75222000  0.99356000  1
  Eu  Eu10  1  0.57139500  0.75222000  0.49356000  1
  Eu  Eu11  1  0.42860500  0.24778000  0.50644000  1
  Cl  Cl12  1  0.16052000  0.53673500  0.08949100  1
  Cl  Cl13  1  0.83948000  0.46326500  0.91050900  1
  Cl  Cl14  1  0.66052000  0.46326500  0.41050900  1
  Cl  Cl15  1  0.33948000  0.53673500  0.58949100  1
  Cl  Cl16  1  0.83559700  0.21395400  0.18346800  1
  Cl  Cl17  1  0.16440300  0.78604600  0.81653200  1
  Cl  Cl18  1  0.33559700  0.78604600  0.31653200  1
  Cl  Cl19  1  0.66440300  0.21395400  0.68346800  1
  Cl  Cl20  1  0.30375800  0.22521200  0.28467900  1
  Cl  Cl21  1  0.69624200  0.77478800  0.71532100  1
  Cl  Cl22  1  0.80375800  0.77478800  0.21532100  1
  Cl  Cl23  1  0.19624200  0.22521200  0.78467900  1
  Cl  Cl24  1  0.45177900  0.21712700  0.00276100  1
  Cl  Cl25  1  0.54822100  0.78287300  0.99723900  1
  Cl  Cl26  1  0.95177900  0.78287300  0.49723900  1
  Cl  Cl27  1  0.04822100  0.21712700  0.50276100  1
  Cl  Cl28  1  0.66006200  0.03981300  0.39871300  1
  Cl  Cl29  1  0.33993800  0.96018700  0.60128700  1
  Cl  Cl30  1  0.16006200  0.96018700  0.10128700  1
  Cl  Cl31  1  0.83993800  0.03981300  0.89871300  1
