# generated using pymatgen
data_WO3
_symmetry_space_group_name_H-M   'P 1'
_cell_length_a   5.44034800
_cell_length_b   5.44034800
_cell_length_c   3.90807300
_cell_angle_alpha   90.00000000
_cell_angle_beta   90.00000000
_cell_angle_gamma   90.00000000
_symmetry_Int_Tables_number   1
_chemical_formula_structural   WO3
_chemical_formula_sum   'W2 O6'
_cell_volume   115.66874651
_cell_formula_units_Z   2
loop_
 _symmetry_equiv_pos_site_id
 _symmetry_equiv_pos_as_xyz
  1  'x, y, z'
loop_
 _atom_site_type_symbol
 _atom_site_label
 _atom_site_symmetry_multiplicity
 _atom_site_fract_x
 _atom_site_fract_y
 _atom_site_fract_z
 _atom_site_occupancy
  W  W0  1  0.00000000  0.50000000  0.96129300  1
  W  W1  1  0.50000000  0.00000000  0.03870700  1
  O  O2  1  0.00000000  0.50000000  0.49112800  1
  O  O3  1  0.50000000  0.00000000  0.50887200  1
  O  O4  1  0.25000000  0.25000000  0.00000000  1
  O  O5  1  0.75000000  0.25000000  0.00000000  1
  O  O6  1  0.75000000  0.75000000  0.00000000  1
  O  O7  1  0.25000000  0.75000000  0.00000000  1
