# generated using pymatgen
data_Fe3(PO4)2
_symmetry_space_group_name_H-M   'P 1'
_cell_length_a   4.86298600
_cell_length_b   6.12885500
_cell_length_c   10.57394122
_cell_angle_alpha   89.64389926
_cell_angle_beta   90.00000000
_cell_angle_gamma   90.00000000
_symmetry_Int_Tables_number   1
_chemical_formula_structural   Fe3(PO4)2
_chemical_formula_sum   'Fe6 P4 O16'
_cell_volume   315.14532572
_cell_formula_units_Z   2
loop_
 _symmetry_equiv_pos_site_id
 _symmetry_equiv_pos_as_xyz
  1  'x, y, z'
loop_
 _atom_site_type_symbol
 _atom_site_label
 _atom_site_symmetry_multiplicity
 _atom_site_fract_x
 _atom_site_fract_y
 _atom_site_fract_z
 _atom_site_occupancy
  Fe  Fe0  1  0.48475300  0.23607800  0.21742400  1
  Fe  Fe1  1  0.98475300  0.76392200  0.28257600  1
  Fe  Fe2  1  0.51524700  0.76392200  0.78257600  1
  Fe  Fe3  1  0.01524700  0.23607800  0.71742400  1
  Fe  Fe4  1  0.50000000  0.50000000  0.50000000  1
  Fe  Fe5  1  0.00000000  0.50000000  0.00000000  1
  P  P6  1  0.93318600  0.26253900  0.39907600  1
  P  P7  1  0.43318600  0.73746100  0.10092400  1
  P  P8  1  0.06681400  0.73746100  0.60092400  1
  P  P9  1  0.56681400  0.26253900  0.89907600  1
  O  O10  1  0.68045800  0.25470900  0.03605500  1
  O  O11  1  0.18045800  0.74529100  0.46394500  1
  O  O12  1  0.31954200  0.74529100  0.96394500  1
  O  O13  1  0.81954200  0.25470900  0.53605500  1
  O  O14  1  0.74979200  0.71948100  0.60483700  1
  O  O15  1  0.24979200  0.28051900  0.89516300  1
  O  O16  1  0.25020800  0.28051900  0.39516300  1
  O  O17  1  0.75020800  0.71948100  0.10483700  1
  O  O18  1  0.78606200  0.47002800  0.33779900  1
  O  O19  1  0.28606200  0.52997200  0.16220100  1
  O  O20  1  0.67377600  0.07170800  0.81711400  1
  O  O21  1  0.17377600  0.92829200  0.68288600  1
  O  O22  1  0.32622400  0.92829200  0.18288600  1
  O  O23  1  0.82622400  0.07170800  0.31711400  1
  O  O24  1  0.71393800  0.47002800  0.83779900  1
  O  O25  1  0.21393800  0.52997200  0.66220100  1
