# generated using pymatgen
data_Ba2Ge
_symmetry_space_group_name_H-M   'P 1'
_cell_length_a   5.47582400
_cell_length_b   8.56570600
_cell_length_c   10.24602200
_cell_angle_alpha   90.00000000
_cell_angle_beta   90.00000000
_cell_angle_gamma   90.00000000
_symmetry_Int_Tables_number   1
_chemical_formula_structural   Ba2Ge
_chemical_formula_sum   'Ba8 Ge4'
_cell_volume   480.58247424
_cell_formula_units_Z   4
loop_
 _symmetry_equiv_pos_site_id
 _symmetry_equiv_pos_as_xyz
  1  'x, y, z'
loop_
 _atom_site_type_symbol
 _atom_site_label
 _atom_site_symmetry_multiplicity
 _atom_site_fract_x
 _atom_site_fract_y
 _atom_site_fract_z
 _atom_site_occupancy
  Ba  Ba0  1  0.75000000  0.35444200  0.08372700  1
  Ba  Ba1  1  0.25000000  0.64555800  0.91627300  1
  Ba  Ba2  1  0.75000000  0.85444200  0.41627300  1
  Ba  Ba3  1  0.25000000  0.14555800  0.58372700  1
  Ba  Ba4  1  0.25000000  0.01903400  0.17035600  1
  Ba  Ba5  1  0.75000000  0.98096600  0.82964400  1
  Ba  Ba6  1  0.25000000  0.51903400  0.32964400  1
  Ba  Ba7  1  0.75000000  0.48096600  0.67035600  1
  Ge  Ge8  1  0.25000000  0.74885500  0.60014200  1
  Ge  Ge9  1  0.75000000  0.25114500  0.39985800  1
  Ge  Ge10  1  0.25000000  0.24885500  0.89985800  1
  Ge  Ge11  1  0.75000000  0.75114500  0.10014200  1
