# generated using pymatgen
data_Ba2Eu(CuO2)4
_symmetry_space_group_name_H-M   'P 1'
_cell_length_a   13.99946854
_cell_length_b   13.99946854
_cell_length_c   3.91390400
_cell_angle_alpha   90.00000000
_cell_angle_beta   90.00000000
_cell_angle_gamma   164.06366492
_symmetry_Int_Tables_number   1
_chemical_formula_structural   Ba2Eu(CuO2)4
_chemical_formula_sum   'Ba2 Eu1 Cu4 O8'
_cell_volume   210.61285556
_cell_formula_units_Z   1
loop_
 _symmetry_equiv_pos_site_id
 _symmetry_equiv_pos_as_xyz
  1  'x, y, z'
loop_
 _atom_site_type_symbol
 _atom_site_label
 _atom_site_symmetry_multiplicity
 _atom_site_fract_x
 _atom_site_fract_y
 _atom_site_fract_z
 _atom_site_occupancy
  Ba  Ba0  1  0.63536400  0.36463600  0.50000000  1
  Ba  Ba1  1  0.36463600  0.63536400  0.50000000  1
  Eu  Eu2  1  0.50000000  0.50000000  0.50000000  1
  Cu  Cu3  1  0.93722400  0.06277600  0.00000000  1
  Cu  Cu4  1  0.06277600  0.93722400  0.00000000  1
  Cu  Cu5  1  0.78729700  0.21270300  0.00000000  1
  Cu  Cu6  1  0.21270300  0.78729700  0.00000000  1
  O  O7  1  0.85407400  0.14592600  0.00000000  1
  O  O8  1  0.14592600  0.85407400  0.00000000  1
  O  O9  1  0.55440700  0.44559300  0.00000000  1
  O  O10  1  0.44559300  0.55440700  0.00000000  1
  O  O11  1  0.71918500  0.28081500  0.00000000  1
  O  O12  1  0.28081500  0.71918500  0.00000000  1
  O  O13  1  0.94508000  0.05492000  0.50000000  1
  O  O14  1  0.05492000  0.94508000  0.50000000  1
