# generated using pymatgen
data_BaYAgTe3
_symmetry_space_group_name_H-M   'P 1'
_cell_length_a   7.92681292
_cell_length_b   7.92681292
_cell_length_c   11.53464700
_cell_angle_alpha   90.00000000
_cell_angle_beta   90.00000000
_cell_angle_gamma   146.72434546
_symmetry_Int_Tables_number   1
_chemical_formula_structural   BaYAgTe3
_chemical_formula_sum   'Ba2 Y2 Ag2 Te6'
_cell_volume   397.65904184
_cell_formula_units_Z   2
loop_
 _symmetry_equiv_pos_site_id
 _symmetry_equiv_pos_as_xyz
  1  'x, y, z'
loop_
 _atom_site_type_symbol
 _atom_site_label
 _atom_site_symmetry_multiplicity
 _atom_site_fract_x
 _atom_site_fract_y
 _atom_site_fract_z
 _atom_site_occupancy
  Ba  Ba0  1  0.75623000  0.24377000  0.25000000  1
  Ba  Ba1  1  0.24377000  0.75623000  0.75000000  1
  Y  Y2  1  0.00000000  0.00000000  0.00000000  1
  Y  Y3  1  0.00000000  0.00000000  0.50000000  1
  Ag  Ag4  1  0.46869000  0.53131000  0.25000000  1
  Ag  Ag5  1  0.53131000  0.46869000  0.75000000  1
  Te  Te6  1  0.63811300  0.36188700  0.94928300  1
  Te  Te7  1  0.08009600  0.91990400  0.25000000  1
  Te  Te8  1  0.36188700  0.63811300  0.44928300  1
  Te  Te9  1  0.36188700  0.63811300  0.05071700  1
  Te  Te10  1  0.63811300  0.36188700  0.55071700  1
  Te  Te11  1  0.91990400  0.08009600  0.75000000  1
