# generated using pymatgen
data_Nb2As
_symmetry_space_group_name_H-M   'P 1'
_cell_length_a   3.53991300
_cell_length_b   14.31065800
_cell_length_c   18.61888600
_cell_angle_alpha   90.00000000
_cell_angle_beta   90.00000000
_cell_angle_gamma   90.00000000
_symmetry_Int_Tables_number   1
_chemical_formula_structural   Nb2As
_chemical_formula_sum   'Nb36 As18'
_cell_volume   943.20454398
_cell_formula_units_Z   18
loop_
 _symmetry_equiv_pos_site_id
 _symmetry_equiv_pos_as_xyz
  1  'x, y, z'
loop_
 _atom_site_type_symbol
 _atom_site_label
 _atom_site_symmetry_multiplicity
 _atom_site_fract_x
 _atom_site_fract_y
 _atom_site_fract_z
 _atom_site_occupancy
  Nb  Nb0  1  0.00000000  0.00000000  0.50000000  1
  Nb  Nb1  1  0.00000000  0.00000000  0.00000000  1
  Nb  Nb2  1  0.50000000  0.50000000  0.50000000  1
  Nb  Nb3  1  0.50000000  0.50000000  0.00000000  1
  Nb  Nb4  1  0.00000000  0.11979100  0.25000000  1
  Nb  Nb5  1  0.00000000  0.88020900  0.75000000  1
  Nb  Nb6  1  0.00000000  0.38027200  0.25000000  1
  Nb  Nb7  1  0.00000000  0.61972800  0.75000000  1
  Nb  Nb8  1  0.00000000  0.88771300  0.25000000  1
  Nb  Nb9  1  0.00000000  0.11228700  0.75000000  1
  Nb  Nb10  1  0.50000000  0.55514800  0.25000000  1
  Nb  Nb11  1  0.50000000  0.44485200  0.75000000  1
  Nb  Nb12  1  0.00000000  0.33972400  0.43665200  1
  Nb  Nb13  1  0.00000000  0.66027600  0.56334800  1
  Nb  Nb14  1  0.00000000  0.33972400  0.06334800  1
  Nb  Nb15  1  0.00000000  0.66027600  0.93665200  1
  Nb  Nb16  1  0.00000000  0.56823100  0.38042800  1
  Nb  Nb17  1  0.00000000  0.43176900  0.61957200  1
  Nb  Nb18  1  0.00000000  0.56823100  0.11957200  1
  Nb  Nb19  1  0.00000000  0.43176900  0.88042800  1
  Nb  Nb20  1  0.50000000  0.15705500  0.49854300  1
  Nb  Nb21  1  0.50000000  0.84294500  0.50145700  1
  Nb  Nb22  1  0.50000000  0.15705500  0.00145700  1
  Nb  Nb23  1  0.50000000  0.84294500  0.99854300  1
  Nb  Nb24  1  0.50000000  0.00309700  0.34907400  1
  Nb  Nb25  1  0.50000000  0.99690300  0.65092600  1
  Nb  Nb26  1  0.50000000  0.00309700  0.15092600  1
  Nb  Nb27  1  0.50000000  0.99690300  0.84907400  1
  Nb  Nb28  1  0.50000000  0.24056500  0.33312100  1
  Nb  Nb29  1  0.50000000  0.75943500  0.66687900  1
  Nb  Nb30  1  0.50000000  0.24056500  0.16687900  1
  Nb  Nb31  1  0.50000000  0.75943500  0.83312100  1
  Nb  Nb32  1  0.50000000  0.23827300  0.83553700  1
  Nb  Nb33  1  0.50000000  0.76172700  0.16446300  1
  Nb  Nb34  1  0.50000000  0.23827300  0.66446300  1
  Nb  Nb35  1  0.50000000  0.76172700  0.33553700  1
  As  As36  1  0.00000000  0.68521400  0.25000000  1
  As  As37  1  0.00000000  0.31478600  0.75000000  1
  As  As38  1  0.00000000  0.13405700  0.39516600  1
  As  As39  1  0.00000000  0.86594300  0.60483400  1
  As  As40  1  0.00000000  0.13405700  0.10483400  1
  As  As41  1  0.00000000  0.86594300  0.89516600  1
  As  As42  1  0.00000000  0.12779600  0.89502500  1
  As  As43  1  0.00000000  0.87220400  0.10497500  1
  As  As44  1  0.00000000  0.12779600  0.60497500  1
  As  As45  1  0.00000000  0.87220400  0.39502500  1
  As  As46  1  0.50000000  0.42956500  0.35680000  1
  As  As47  1  0.50000000  0.57043500  0.64320000  1
  As  As48  1  0.50000000  0.42956500  0.14320000  1
  As  As49  1  0.50000000  0.57043500  0.85680000  1
  As  As50  1  0.50000000  0.32722800  0.95513800  1
  As  As51  1  0.50000000  0.67277200  0.04486200  1
  As  As52  1  0.50000000  0.32722800  0.54486200  1
  As  As53  1  0.50000000  0.67277200  0.45513800  1
