# generated using pymatgen
data_Lu5Re2C7
_symmetry_space_group_name_H-M   'P 1'
_cell_length_a   8.14936990
_cell_length_b   8.14936990
_cell_length_c   3.34377000
_cell_angle_alpha   90.00000000
_cell_angle_beta   90.00000000
_cell_angle_gamma   121.65187580
_symmetry_Int_Tables_number   1
_chemical_formula_structural   Lu5Re2C7
_chemical_formula_sum   'Lu5 Re2 C7'
_cell_volume   189.03520337
_cell_formula_units_Z   1
loop_
 _symmetry_equiv_pos_site_id
 _symmetry_equiv_pos_as_xyz
  1  'x, y, z'
loop_
 _atom_site_type_symbol
 _atom_site_label
 _atom_site_symmetry_multiplicity
 _atom_site_fract_x
 _atom_site_fract_y
 _atom_site_fract_z
 _atom_site_occupancy
  Lu  Lu0  1  0.33663400  0.07828600  0.50000000  1
  Lu  Lu1  1  0.66336600  0.92171400  0.50000000  1
  Lu  Lu2  1  0.07828600  0.33663400  0.50000000  1
  Lu  Lu3  1  0.92171400  0.66336600  0.50000000  1
  Lu  Lu4  1  0.50000000  0.50000000  0.00000000  1
  Re  Re5  1  0.28435000  0.71565000  0.00000000  1
  Re  Re6  1  0.71565000  0.28435000  0.00000000  1
  C  C7  1  0.17120600  0.17120600  0.00000000  1
  C  C8  1  0.82879400  0.82879400  0.00000000  1
  C  C9  1  0.00000000  0.00000000  0.00000000  1
  C  C10  1  0.37690800  0.62309200  0.50000000  1
  C  C11  1  0.62309200  0.37690800  0.50000000  1
  C  C12  1  0.50000000  0.00000000  0.00000000  1
  C  C13  1  0.00000000  0.50000000  0.00000000  1
