# generated using pymatgen
data_La14Au51
_symmetry_space_group_name_H-M   'P 1'
_cell_length_a   13.09070158
_cell_length_b   13.09070158
_cell_length_c   9.56131700
_cell_angle_alpha   90.00000000
_cell_angle_beta   90.00000000
_cell_angle_gamma   119.99999788
_symmetry_Int_Tables_number   1
_chemical_formula_structural   La14Au51
_chemical_formula_sum   'La14 Au51'
_cell_volume   1418.97323408
_cell_formula_units_Z   1
loop_
 _symmetry_equiv_pos_site_id
 _symmetry_equiv_pos_as_xyz
  1  'x, y, z'
loop_
 _atom_site_type_symbol
 _atom_site_label
 _atom_site_symmetry_multiplicity
 _atom_site_fract_x
 _atom_site_fract_y
 _atom_site_fract_z
 _atom_site_occupancy
  La  La0  1  0.46699700  0.32704700  0.50000000  1
  La  La1  1  0.86005000  0.53300300  0.50000000  1
  La  La2  1  0.67295300  0.13995000  0.50000000  1
  La  La3  1  0.53246800  0.67290500  0.50000000  1
  La  La4  1  0.14043700  0.46753200  0.50000000  1
  La  La5  1  0.32709500  0.85956300  0.50000000  1
  La  La6  1  0.11369100  0.72700800  0.00000000  1
  La  La7  1  0.61331700  0.88630900  0.00000000  1
  La  La8  1  0.27299200  0.38668300  0.00000000  1
  La  La9  1  0.88368800  0.27968100  0.00000000  1
  La  La10  1  0.39599400  0.11631200  0.00000000  1
  La  La11  1  0.72031900  0.60400600  0.00000000  1
  La  La12  1  0.00000000  0.00000000  0.69925800  1
  La  La13  1  0.00000000  0.00000000  0.30074200  1
  Au  Au14  1  0.49381900  0.37842600  0.84762700  1
  Au  Au15  1  0.88460700  0.50618100  0.84762700  1
  Au  Au16  1  0.62157400  0.11539300  0.84762700  1
  Au  Au17  1  0.50475600  0.62090700  0.84857500  1
  Au  Au18  1  0.11615200  0.49524400  0.84857500  1
  Au  Au19  1  0.37909300  0.88384800  0.84857500  1
  Au  Au20  1  0.50475600  0.62090700  0.15142500  1
  Au  Au21  1  0.11615200  0.49524400  0.15142500  1
  Au  Au22  1  0.37909300  0.88384800  0.15142500  1
  Au  Au23  1  0.49381900  0.37842600  0.15237300  1
  Au  Au24  1  0.88460700  0.50618100  0.15237300  1
  Au  Au25  1  0.62157400  0.11539300  0.15237300  1
  Au  Au26  1  0.66666700  0.33333300  0.00000000  1
  Au  Au27  1  0.33333300  0.66666700  0.00000000  1
  Au  Au28  1  0.10572100  0.66601000  0.66817600  1
  Au  Au29  1  0.56028900  0.89427900  0.66817600  1
  Au  Au30  1  0.33399000  0.43971100  0.66817600  1
  Au  Au31  1  0.89412100  0.33450400  0.66747400  1
  Au  Au32  1  0.44038300  0.10587900  0.66747400  1
  Au  Au33  1  0.66549600  0.55961700  0.66747400  1
  Au  Au34  1  0.89412100  0.33450400  0.33252600  1
  Au  Au35  1  0.44038300  0.10587900  0.33252600  1
  Au  Au36  1  0.66549600  0.55961700  0.33252600  1
  Au  Au37  1  0.10572100  0.66601000  0.33182400  1
  Au  Au38  1  0.56028900  0.89427900  0.33182400  1
  Au  Au39  1  0.33399000  0.43971100  0.33182400  1
  Au  Au40  1  0.19340700  0.92511500  0.76322200  1
  Au  Au41  1  0.73170800  0.80659300  0.76322200  1
  Au  Au42  1  0.07488500  0.26829200  0.76322200  1
  Au  Au43  1  0.80652200  0.07321100  0.76570900  1
  Au  Au44  1  0.26668900  0.19347800  0.76570900  1
  Au  Au45  1  0.92678900  0.73331100  0.76570900  1
  Au  Au46  1  0.80652200  0.07321100  0.23429100  1
  Au  Au47  1  0.26668900  0.19347800  0.23429100  1
  Au  Au48  1  0.92678900  0.73331100  0.23429100  1
  Au  Au49  1  0.19340700  0.92511500  0.23677800  1
  Au  Au50  1  0.73170800  0.80659300  0.23677800  1
  Au  Au51  1  0.07488500  0.26829200  0.23677800  1
  Au  Au52  1  0.66666700  0.33333300  0.69989100  1
  Au  Au53  1  0.33333300  0.66666700  0.69972900  1
  Au  Au54  1  0.33333300  0.66666700  0.30027100  1
  Au  Au55  1  0.66666700  0.33333300  0.30010900  1
  Au  Au56  1  0.06634100  0.82665500  0.50000000  1
  Au  Au57  1  0.76031400  0.93365900  0.50000000  1
  Au  Au58  1  0.17334500  0.23968600  0.50000000  1
  Au  Au59  1  0.93331700  0.17365700  0.50000000  1
  Au  Au60  1  0.24034000  0.06668300  0.50000000  1
  Au  Au61  1  0.82634300  0.75966000  0.50000000  1
  Au  Au62  1  0.13433100  0.02103700  0.00000000  1
  Au  Au63  1  0.88670500  0.86566900  0.00000000  1
  Au  Au64  1  0.97896300  0.11329500  0.00000000  1
