# generated using pymatgen
data_CdSb
_symmetry_space_group_name_H-M   'P 1'
_cell_length_a   6.59965900
_cell_length_b   8.42698300
_cell_length_c   8.74758200
_cell_angle_alpha   90.00000000
_cell_angle_beta   90.00000000
_cell_angle_gamma   90.00000000
_symmetry_Int_Tables_number   1
_chemical_formula_structural   CdSb
_chemical_formula_sum   'Cd8 Sb8'
_cell_volume   486.49864665
_cell_formula_units_Z   8
loop_
 _symmetry_equiv_pos_site_id
 _symmetry_equiv_pos_as_xyz
  1  'x, y, z'
loop_
 _atom_site_type_symbol
 _atom_site_label
 _atom_site_symmetry_multiplicity
 _atom_site_fract_x
 _atom_site_fract_y
 _atom_site_fract_z
 _atom_site_occupancy
  Cd  Cd0  1  0.45346100  0.12129700  0.86695600  1
  Cd  Cd1  1  0.95346100  0.37870300  0.13304400  1
  Cd  Cd2  1  0.54653900  0.62129700  0.63304400  1
  Cd  Cd3  1  0.04653900  0.87870300  0.36695600  1
  Cd  Cd4  1  0.54653900  0.87870300  0.13304400  1
  Cd  Cd5  1  0.04653900  0.62129700  0.86695600  1
  Cd  Cd6  1  0.45346100  0.37870300  0.36695600  1
  Cd  Cd7  1  0.95346100  0.12129700  0.63304400  1
  Sb  Sb8  1  0.13867000  0.07303500  0.10367200  1
  Sb  Sb9  1  0.63867000  0.42696500  0.89632800  1
  Sb  Sb10  1  0.86133000  0.57303500  0.39632800  1
  Sb  Sb11  1  0.36133000  0.92696500  0.60367200  1
  Sb  Sb12  1  0.86133000  0.92696500  0.89632800  1
  Sb  Sb13  1  0.36133000  0.57303500  0.10367200  1
  Sb  Sb14  1  0.13867000  0.42696500  0.60367200  1
  Sb  Sb15  1  0.63867000  0.07303500  0.39632800  1
