# generated using pymatgen
data_LiCe(PO3)4
_symmetry_space_group_name_H-M   'P 1'
_cell_length_a   9.08794883
_cell_length_b   9.08794883
_cell_length_c   9.95225637
_cell_angle_alpha   56.99934840
_cell_angle_beta   56.99934840
_cell_angle_gamma   46.54206675
_symmetry_Int_Tables_number   1
_chemical_formula_structural   LiCe(PO3)4
_chemical_formula_sum   'Li2 Ce2 P8 O24'
_cell_volume   480.47404681
_cell_formula_units_Z   2
loop_
 _symmetry_equiv_pos_site_id
 _symmetry_equiv_pos_as_xyz
  1  'x, y, z'
loop_
 _atom_site_type_symbol
 _atom_site_label
 _atom_site_symmetry_multiplicity
 _atom_site_fract_x
 _atom_site_fract_y
 _atom_site_fract_z
 _atom_site_occupancy
  Li  Li0  1  0.80025900  0.19974100  0.25000000  1
  Li  Li1  1  0.19974100  0.80025900  0.75000000  1
  Ce  Ce2  1  0.30259500  0.69740500  0.25000000  1
  Ce  Ce3  1  0.69740500  0.30259500  0.75000000  1
  P  P4  1  0.51230800  0.18886300  0.59732700  1
  P  P5  1  0.81113700  0.48769200  0.90267300  1
  P  P6  1  0.48769200  0.81113700  0.40267300  1
  P  P7  1  0.18886300  0.51230800  0.09732700  1
  P  P8  1  0.92004700  0.80273800  0.66429500  1
  P  P9  1  0.19726200  0.07995300  0.83570500  1
  P  P10  1  0.07995300  0.19726200  0.33570500  1
  P  P11  1  0.80273800  0.92004700  0.16429500  1
  O  O12  1  0.52606300  0.32155100  0.41802500  1
  O  O13  1  0.67844900  0.47393700  0.08197500  1
  O  O14  1  0.47393700  0.67844900  0.58197500  1
  O  O15  1  0.32155100  0.52606300  0.91802500  1
  O  O16  1  0.48729200  0.25387400  0.72197600  1
  O  O17  1  0.74612600  0.51270800  0.77802400  1
  O  O18  1  0.51270800  0.74612600  0.27802400  1
  O  O19  1  0.25387400  0.48729200  0.22197600  1
  O  O20  1  0.84657400  0.66640200  0.84425200  1
  O  O21  1  0.33359800  0.15342600  0.65574800  1
  O  O22  1  0.15342600  0.33359800  0.15574800  1
  O  O23  1  0.66640200  0.84657400  0.34425200  1
  O  O24  1  0.72272000  0.95410900  0.59065300  1
  O  O25  1  0.04589100  0.27728000  0.90934700  1
  O  O26  1  0.27728000  0.04589100  0.40934700  1
  O  O27  1  0.95410900  0.72272000  0.09065300  1
  O  O28  1  0.10516600  0.66631400  0.54964100  1
  O  O29  1  0.33368600  0.89483400  0.95035900  1
  O  O30  1  0.89483400  0.33368600  0.45035900  1
  O  O31  1  0.66631400  0.10516600  0.04964100  1
  O  O32  1  0.93980600  0.92698300  0.70294500  1
  O  O33  1  0.07301700  0.06019400  0.79705500  1
  O  O34  1  0.06019400  0.07301700  0.29705500  1
  O  O35  1  0.92698300  0.93980600  0.20294500  1
