# generated using pymatgen
data_Lu(CoB)4
_symmetry_space_group_name_H-M   'P 1'
_cell_length_a   4.97848300
_cell_length_b   4.97848300
_cell_length_c   6.92144200
_cell_angle_alpha   90.00000000
_cell_angle_beta   90.00000000
_cell_angle_gamma   90.00000000
_symmetry_Int_Tables_number   1
_chemical_formula_structural   Lu(CoB)4
_chemical_formula_sum   'Lu2 Co8 B8'
_cell_volume   171.54996782
_cell_formula_units_Z   2
loop_
 _symmetry_equiv_pos_site_id
 _symmetry_equiv_pos_as_xyz
  1  'x, y, z'
loop_
 _atom_site_type_symbol
 _atom_site_label
 _atom_site_symmetry_multiplicity
 _atom_site_fract_x
 _atom_site_fract_y
 _atom_site_fract_z
 _atom_site_occupancy
  Lu  Lu0  1  0.00000000  0.00000000  0.00000000  1
  Lu  Lu1  1  0.50000000  0.50000000  0.50000000  1
  Co  Co2  1  0.25332800  0.50000000  0.86153300  1
  Co  Co3  1  0.74667200  0.50000000  0.86153300  1
  Co  Co4  1  0.00000000  0.75332800  0.36153300  1
  Co  Co5  1  0.00000000  0.24667200  0.36153300  1
  Co  Co6  1  0.24667200  0.00000000  0.63846700  1
  Co  Co7  1  0.75332800  0.00000000  0.63846700  1
  Co  Co8  1  0.50000000  0.74667200  0.13846700  1
  Co  Co9  1  0.50000000  0.25332800  0.13846700  1
  B  B10  1  0.82502000  0.50000000  0.15707000  1
  B  B11  1  0.17498000  0.50000000  0.15707000  1
  B  B12  1  0.00000000  0.32502000  0.65707000  1
  B  B13  1  0.00000000  0.67498000  0.65707000  1
  B  B14  1  0.67498000  0.00000000  0.34293000  1
  B  B15  1  0.32502000  0.00000000  0.34293000  1
  B  B16  1  0.50000000  0.17498000  0.84293000  1
  B  B17  1  0.50000000  0.82502000  0.84293000  1
