# generated using pymatgen
data_TlPb2Br5
_symmetry_space_group_name_H-M   'P 1'
_cell_length_a   8.54831500
_cell_length_b   9.40509400
_cell_length_c   13.39725293
_cell_angle_alpha   89.96922072
_cell_angle_beta   90.00000000
_cell_angle_gamma   90.00000000
_symmetry_Int_Tables_number   1
_chemical_formula_structural   TlPb2Br5
_chemical_formula_sum   'Tl4 Pb8 Br20'
_cell_volume   1077.10824867
_cell_formula_units_Z   4
loop_
 _symmetry_equiv_pos_site_id
 _symmetry_equiv_pos_as_xyz
  1  'x, y, z'
loop_
 _atom_site_type_symbol
 _atom_site_label
 _atom_site_symmetry_multiplicity
 _atom_site_fract_x
 _atom_site_fract_y
 _atom_site_fract_z
 _atom_site_occupancy
  Tl  Tl0  1  0.48104000  0.50730800  0.82377200  1
  Tl  Tl1  1  0.51896000  0.49269200  0.17622800  1
  Tl  Tl2  1  0.98104000  0.49269200  0.67622800  1
  Tl  Tl3  1  0.01896000  0.50730800  0.32377200  1
  Pb  Pb4  1  0.48583900  0.99554100  0.81976600  1
  Pb  Pb5  1  0.51416100  0.00445900  0.18023400  1
  Pb  Pb6  1  0.98583900  0.00445900  0.68023400  1
  Pb  Pb7  1  0.01416100  0.99554100  0.31976600  1
  Pb  Pb8  1  0.42507500  0.75008600  0.50654500  1
  Pb  Pb9  1  0.57492500  0.24991400  0.49345500  1
  Pb  Pb10  1  0.92507500  0.24991400  0.99345500  1
  Pb  Pb11  1  0.07492500  0.75008600  0.00654500  1
  Br  Br12  1  0.33578100  0.46018100  0.58802600  1
  Br  Br13  1  0.66421900  0.53981900  0.41197400  1
  Br  Br14  1  0.83578100  0.53981900  0.91197400  1
  Br  Br15  1  0.16421900  0.46018100  0.08802600  1
  Br  Br16  1  0.65155700  0.78022500  0.68558600  1
  Br  Br17  1  0.34844300  0.21977500  0.31441400  1
  Br  Br18  1  0.15155700  0.21977500  0.81441400  1
  Br  Br19  1  0.84844300  0.78022500  0.18558600  1
  Br  Br20  1  0.19082500  0.77365900  0.78220300  1
  Br  Br21  1  0.80917500  0.22634100  0.21779700  1
  Br  Br22  1  0.69082500  0.22634100  0.71779700  1
  Br  Br23  1  0.30917500  0.77365900  0.28220300  1
  Br  Br24  1  0.04304000  0.78064400  0.50179700  1
  Br  Br25  1  0.95696000  0.21935600  0.49820300  1
  Br  Br26  1  0.54304000  0.21935600  0.99820300  1
  Br  Br27  1  0.45696000  0.78064400  0.00179700  1
  Br  Br28  1  0.83611400  0.95640700  0.89929100  1
  Br  Br29  1  0.16388600  0.04359300  0.10070900  1
  Br  Br30  1  0.33611400  0.04359300  0.60070900  1
  Br  Br31  1  0.66388600  0.95640700  0.39929100  1
