# generated using pymatgen
data_Pr2TeO6
_symmetry_space_group_name_H-M   'P 1'
_cell_length_a   5.51706600
_cell_length_b   9.47194200
_cell_length_c   10.39521700
_cell_angle_alpha   90.00000000
_cell_angle_beta   90.00000000
_cell_angle_gamma   90.00000000
_symmetry_Int_Tables_number   1
_chemical_formula_structural   Pr2TeO6
_chemical_formula_sum   'Pr8 Te4 O24'
_cell_volume   543.22627648
_cell_formula_units_Z   4
loop_
 _symmetry_equiv_pos_site_id
 _symmetry_equiv_pos_as_xyz
  1  'x, y, z'
loop_
 _atom_site_type_symbol
 _atom_site_label
 _atom_site_symmetry_multiplicity
 _atom_site_fract_x
 _atom_site_fract_y
 _atom_site_fract_z
 _atom_site_occupancy
  Pr  Pr0  1  0.03213400  0.21709800  0.13724300  1
  Pr  Pr1  1  0.46786600  0.78290200  0.63724300  1
  Pr  Pr2  1  0.96786600  0.71709800  0.36275700  1
  Pr  Pr3  1  0.53213400  0.28290200  0.86275700  1
  Pr  Pr4  1  0.02606300  0.10392400  0.53999400  1
  Pr  Pr5  1  0.47393700  0.89607600  0.03999400  1
  Pr  Pr6  1  0.97393700  0.60392400  0.96000600  1
  Pr  Pr7  1  0.52606300  0.39607600  0.46000600  1
  Te  Te8  1  0.54162200  0.00372400  0.35549700  1
  Te  Te9  1  0.95837800  0.99627600  0.85549700  1
  Te  Te10  1  0.45837800  0.50372400  0.14450300  1
  Te  Te11  1  0.04162200  0.49627600  0.64450300  1
  O  O12  1  0.42907500  0.14937800  0.47445900  1
  O  O13  1  0.07092500  0.85062200  0.97445900  1
  O  O14  1  0.57092500  0.64937800  0.02554100  1
  O  O15  1  0.92907500  0.35062200  0.52554100  1
  O  O16  1  0.71813100  0.38782600  0.06531100  1
  O  O17  1  0.78186900  0.61217400  0.56531100  1
  O  O18  1  0.28186900  0.88782600  0.43468900  1
  O  O19  1  0.21813100  0.11217400  0.93468900  1
  O  O20  1  0.25100200  0.41417700  0.01092900  1
  O  O21  1  0.24899800  0.58582300  0.51092900  1
  O  O22  1  0.74899800  0.91417700  0.48907100  1
  O  O23  1  0.75100200  0.08582300  0.98907100  1
  O  O24  1  0.19367100  0.63778700  0.17745100  1
  O  O25  1  0.30632900  0.36221300  0.67745100  1
  O  O26  1  0.80632900  0.13778700  0.32254900  1
  O  O27  1  0.69367100  0.86221300  0.82254900  1
  O  O28  1  0.33107800  0.05113300  0.21308800  1
  O  O29  1  0.16892200  0.94886700  0.71308800  1
  O  O30  1  0.66892200  0.55113300  0.28691200  1
  O  O31  1  0.83107800  0.44886700  0.78691200  1
  O  O32  1  0.31903000  0.36350900  0.25807300  1
  O  O33  1  0.18097000  0.63649100  0.75807300  1
  O  O34  1  0.68097000  0.86350900  0.24192700  1
  O  O35  1  0.81903000  0.13649100  0.74192700  1
