# generated using pymatgen
data_La4AsBrO8
_symmetry_space_group_name_H-M   'P 1'
_cell_length_a   8.52135200
_cell_length_b   8.52135200
_cell_length_c   13.67468000
_cell_angle_alpha   90.00000000
_cell_angle_beta   90.00000000
_cell_angle_gamma   90.00000000
_symmetry_Int_Tables_number   1
_chemical_formula_structural   La4AsBrO8
_chemical_formula_sum   'La16 As4 Br4 O32'
_cell_volume   992.96555444
_cell_formula_units_Z   4
loop_
 _symmetry_equiv_pos_site_id
 _symmetry_equiv_pos_as_xyz
  1  'x, y, z'
loop_
 _atom_site_type_symbol
 _atom_site_label
 _atom_site_symmetry_multiplicity
 _atom_site_fract_x
 _atom_site_fract_y
 _atom_site_fract_z
 _atom_site_occupancy
  La  La0  1  0.51628600  0.24530500  0.16806800  1
  La  La1  1  0.48371400  0.75469500  0.83193200  1
  La  La2  1  0.48371400  0.75469500  0.16806800  1
  La  La3  1  0.75469500  0.51628600  0.66806800  1
  La  La4  1  0.51628600  0.24530500  0.83193200  1
  La  La5  1  0.24530500  0.48371400  0.33193200  1
  La  La6  1  0.24530500  0.48371400  0.66806800  1
  La  La7  1  0.75469500  0.51628600  0.33193200  1
  La  La8  1  0.24472400  0.01302500  0.33232100  1
  La  La9  1  0.75527600  0.98697500  0.66767900  1
  La  La10  1  0.75527600  0.98697500  0.33232100  1
  La  La11  1  0.98697500  0.24472400  0.83232100  1
  La  La12  1  0.24472400  0.01302500  0.66767900  1
  La  La13  1  0.01302500  0.75527600  0.16767900  1
  La  La14  1  0.01302500  0.75527600  0.83232100  1
  La  La15  1  0.98697500  0.24472400  0.16767900  1
  As  As16  1  0.25203800  0.04255100  0.00000000  1
  As  As17  1  0.74796200  0.95744900  0.00000000  1
  As  As18  1  0.95744900  0.25203800  0.50000000  1
  As  As19  1  0.04255100  0.74796200  0.50000000  1
  Br  Br20  1  0.25278700  0.55527900  0.00000000  1
  Br  Br21  1  0.74721300  0.44472100  0.00000000  1
  Br  Br22  1  0.44472100  0.25278700  0.50000000  1
  Br  Br23  1  0.55527900  0.74721300  0.50000000  1
  O  O24  1  0.08746200  0.16278700  0.00000000  1
  O  O25  1  0.91253800  0.83721300  0.00000000  1
  O  O26  1  0.83721300  0.08746200  0.50000000  1
  O  O27  1  0.16278700  0.91253800  0.50000000  1
  O  O28  1  0.25696000  0.24974600  0.23030300  1
  O  O29  1  0.74304000  0.75025400  0.76969700  1
  O  O30  1  0.74304000  0.75025400  0.23030300  1
  O  O31  1  0.75025400  0.25696000  0.73030300  1
  O  O32  1  0.25696000  0.24974600  0.76969700  1
  O  O33  1  0.24974600  0.74304000  0.26969700  1
  O  O34  1  0.24974600  0.74304000  0.73030300  1
  O  O35  1  0.75025400  0.25696000  0.26969700  1
  O  O36  1  0.41606200  0.16328500  0.00000000  1
  O  O37  1  0.58393800  0.83671500  0.00000000  1
  O  O38  1  0.83671500  0.41606200  0.50000000  1
  O  O39  1  0.16328500  0.58393800  0.50000000  1
  O  O40  1  0.00000000  0.50000000  0.23875300  1
  O  O41  1  0.00000000  0.50000000  0.76124700  1
  O  O42  1  0.50000000  0.00000000  0.73875300  1
  O  O43  1  0.50000000  0.00000000  0.26124700  1
  O  O44  1  0.07050100  0.25212400  0.39600900  1
  O  O45  1  0.92949900  0.74787600  0.60399100  1
  O  O46  1  0.92949900  0.74787600  0.39600900  1
  O  O47  1  0.74787600  0.07050100  0.89600900  1
  O  O48  1  0.07050100  0.25212400  0.60399100  1
  O  O49  1  0.25212400  0.92949900  0.10399100  1
  O  O50  1  0.25212400  0.92949900  0.89600900  1
  O  O51  1  0.74787600  0.07050100  0.10399100  1
  O  O52  1  0.00000000  0.00000000  0.25000000  1
  O  O53  1  0.00000000  0.00000000  0.75000000  1
  O  O54  1  0.50000000  0.50000000  0.25000000  1
  O  O55  1  0.50000000  0.50000000  0.75000000  1
