# generated using pymatgen
data_YGeRh2
_symmetry_space_group_name_H-M   'P 1'
_cell_length_a   5.60533654
_cell_length_b   5.60533654
_cell_length_c   15.62904200
_cell_angle_alpha   90.00000000
_cell_angle_beta   90.00000000
_cell_angle_gamma   120.00000641
_symmetry_Int_Tables_number   1
_chemical_formula_structural   YGeRh2
_chemical_formula_sum   'Y6 Ge6 Rh12'
_cell_volume   425.27156680
_cell_formula_units_Z   6
loop_
 _symmetry_equiv_pos_site_id
 _symmetry_equiv_pos_as_xyz
  1  'x, y, z'
loop_
 _atom_site_type_symbol
 _atom_site_label
 _atom_site_symmetry_multiplicity
 _atom_site_fract_x
 _atom_site_fract_y
 _atom_site_fract_z
 _atom_site_occupancy
  Y  Y0  1  0.33333300  0.66666700  0.53787000  1
  Y  Y1  1  0.66666700  0.33333300  0.46213000  1
  Y  Y2  1  0.66666700  0.33333300  0.03787000  1
  Y  Y3  1  0.33333300  0.66666700  0.96213000  1
  Y  Y4  1  0.33333300  0.66666700  0.75000000  1
  Y  Y5  1  0.66666700  0.33333300  0.25000000  1
  Ge  Ge6  1  0.00000000  0.00000000  0.25000000  1
  Ge  Ge7  1  0.00000000  0.00000000  0.75000000  1
  Ge  Ge8  1  0.33333300  0.66666700  0.25000000  1
  Ge  Ge9  1  0.66666700  0.33333300  0.75000000  1
  Ge  Ge10  1  0.00000000  0.00000000  0.00000000  1
  Ge  Ge11  1  0.00000000  0.00000000  0.50000000  1
  Rh  Rh12  1  0.16790800  0.33581600  0.12776700  1
  Rh  Rh13  1  0.83209200  0.66418400  0.87223300  1
  Rh  Rh14  1  0.66418400  0.83209200  0.12776700  1
  Rh  Rh15  1  0.83209200  0.66418400  0.62776700  1
  Rh  Rh16  1  0.33581600  0.16790800  0.87223300  1
  Rh  Rh17  1  0.16790800  0.33581600  0.37223300  1
  Rh  Rh18  1  0.16790800  0.83209200  0.12776700  1
  Rh  Rh19  1  0.33581600  0.16790800  0.62776700  1
  Rh  Rh20  1  0.83209200  0.16790800  0.87223300  1
  Rh  Rh21  1  0.66418400  0.83209200  0.37223300  1
  Rh  Rh22  1  0.83209200  0.16790800  0.62776700  1
  Rh  Rh23  1  0.16790800  0.83209200  0.37223300  1
