# generated using pymatgen
data_SbRuSe
_symmetry_space_group_name_H-M   'P 1'
_cell_length_a   6.36899500
_cell_length_b   6.43342277
_cell_length_c   6.47253028
_cell_angle_alpha   113.02711866
_cell_angle_beta   90.00000000
_cell_angle_gamma   90.00000000
_symmetry_Int_Tables_number   1
_chemical_formula_structural   SbRuSe
_chemical_formula_sum   'Sb4 Ru4 Se4'
_cell_volume   244.07644139
_cell_formula_units_Z   4
loop_
 _symmetry_equiv_pos_site_id
 _symmetry_equiv_pos_as_xyz
  1  'x, y, z'
loop_
 _atom_site_type_symbol
 _atom_site_label
 _atom_site_symmetry_multiplicity
 _atom_site_fract_x
 _atom_site_fract_y
 _atom_site_fract_z
 _atom_site_occupancy
  Sb  Sb0  1  0.13474100  0.85551600  0.12328700  1
  Sb  Sb1  1  0.63474100  0.14448400  0.37671300  1
  Sb  Sb2  1  0.86525900  0.14448400  0.87671300  1
  Sb  Sb3  1  0.36525900  0.85551600  0.62328700  1
  Ru  Ru4  1  0.50462000  0.71261600  0.20002700  1
  Ru  Ru5  1  0.00462000  0.28738400  0.29997300  1
  Ru  Ru6  1  0.49538000  0.28738400  0.79997300  1
  Ru  Ru7  1  0.99538000  0.71261600  0.70002700  1
  Se  Se8  1  0.86509800  0.65119900  0.31938600  1
  Se  Se9  1  0.36509800  0.34880100  0.18061400  1
  Se  Se10  1  0.13490200  0.34880100  0.68061400  1
  Se  Se11  1  0.63490200  0.65119900  0.81938600  1
