# generated using pymatgen
data_Ti3O5
_symmetry_space_group_name_H-M   'P 1'
_cell_length_a   5.29878513
_cell_length_b   5.29878513
_cell_length_c   9.34792473
_cell_angle_alpha   89.02330657
_cell_angle_beta   89.02330657
_cell_angle_gamma   42.51690926
_symmetry_Int_Tables_number   1
_chemical_formula_structural   Ti3O5
_chemical_formula_sum   'Ti6 O10'
_cell_volume   177.34475447
_cell_formula_units_Z   2
loop_
 _symmetry_equiv_pos_site_id
 _symmetry_equiv_pos_as_xyz
  1  'x, y, z'
loop_
 _atom_site_type_symbol
 _atom_site_label
 _atom_site_symmetry_multiplicity
 _atom_site_fract_x
 _atom_site_fract_y
 _atom_site_fract_z
 _atom_site_occupancy
  Ti  Ti0  1  0.12963800  0.12963800  0.95368000  1
  Ti  Ti1  1  0.87036200  0.87036200  0.04632000  1
  Ti  Ti2  1  0.05447900  0.05447900  0.63911400  1
  Ti  Ti3  1  0.94552100  0.94552100  0.36088600  1
  Ti  Ti4  1  0.78127000  0.78127000  0.73617500  1
  Ti  Ti5  1  0.21873000  0.21873000  0.26382500  1
  O  O6  1  0.67603600  0.67603600  0.94524900  1
  O  O7  1  0.32396400  0.32396400  0.05475100  1
  O  O8  1  0.24154400  0.24154400  0.75588900  1
  O  O9  1  0.75845600  0.75845600  0.24411100  1
  O  O10  1  0.58983800  0.58983800  0.65836300  1
  O  O11  1  0.41016200  0.41016200  0.34163700  1
  O  O12  1  0.95659300  0.95659300  0.84740600  1
  O  O13  1  0.04340700  0.04340700  0.15259400  1
  O  O14  1  0.87107700  0.87107700  0.55696900  1
  O  O15  1  0.12892300  0.12892300  0.44303100  1
