# generated using pymatgen
data_Sr(RuO3)2
_symmetry_space_group_name_H-M   'P 1'
_cell_length_a   5.30833159
_cell_length_b   5.30833159
_cell_length_c   10.52189600
_cell_angle_alpha   89.99992002
_cell_angle_beta   90.00017216
_cell_angle_gamma   119.99987022
_symmetry_Int_Tables_number   1
_chemical_formula_structural   Sr(RuO3)2
_chemical_formula_sum   'Sr2 Ru4 O12'
_cell_volume   256.76823234
_cell_formula_units_Z   2
loop_
 _symmetry_equiv_pos_site_id
 _symmetry_equiv_pos_as_xyz
  1  'x, y, z'
loop_
 _atom_site_type_symbol
 _atom_site_label
 _atom_site_symmetry_multiplicity
 _atom_site_fract_x
 _atom_site_fract_y
 _atom_site_fract_z
 _atom_site_occupancy
  Sr  Sr0  1  0.00000000  0.00000000  0.00000000  1
  Sr  Sr1  1  0.00000000  0.00000100  0.50000000  1
  Ru  Ru2  1  0.66666600  0.33333400  0.75000600  1
  Ru  Ru3  1  0.33333400  0.66666700  0.24999700  1
  Ru  Ru4  1  0.66666600  0.33333200  0.24999700  1
  Ru  Ru5  1  0.33333400  0.66666700  0.75000600  1
  O  O6  1  0.61983400  0.61994300  0.35016800  1
  O  O7  1  0.61986900  0.61990900  0.85016600  1
  O  O8  1  0.00011000  0.38016700  0.35016700  1
  O  O9  1  0.00004100  0.38013200  0.85016600  1
  O  O10  1  0.38005800  0.99989200  0.35016700  1
  O  O11  1  0.38009300  0.99996200  0.85016600  1
  O  O12  1  0.61983200  0.99989000  0.14983400  1
  O  O13  1  0.61987000  0.99995900  0.64983100  1
  O  O14  1  0.38005700  0.38016600  0.14983400  1
  O  O15  1  0.38009000  0.38012900  0.64983100  1
  O  O16  1  0.00010800  0.61994100  0.14983400  1
  O  O17  1  0.00003800  0.61991000  0.64983100  1
