# generated using pymatgen
data_CsK2Yb(PO4)2
_symmetry_space_group_name_H-M   'P 1'
_cell_length_a   5.82578765
_cell_length_b   5.82578765
_cell_length_c   7.81361300
_cell_angle_alpha   90.00000000
_cell_angle_beta   90.00000000
_cell_angle_gamma   119.99999602
_symmetry_Int_Tables_number   1
_chemical_formula_structural   CsK2Yb(PO4)2
_chemical_formula_sum   'Cs1 K2 Yb1 P2 O8'
_cell_volume   229.66343037
_cell_formula_units_Z   1
loop_
 _symmetry_equiv_pos_site_id
 _symmetry_equiv_pos_as_xyz
  1  'x, y, z'
loop_
 _atom_site_type_symbol
 _atom_site_label
 _atom_site_symmetry_multiplicity
 _atom_site_fract_x
 _atom_site_fract_y
 _atom_site_fract_z
 _atom_site_occupancy
  Cs  Cs0  1  0.00000000  0.00000000  0.50000000  1
  K  K1  1  0.66666700  0.33333300  0.79048000  1
  K  K2  1  0.33333300  0.66666700  0.20952000  1
  Yb  Yb3  1  0.00000000  0.00000000  0.00000000  1
  P  P4  1  0.33333300  0.66666700  0.76474100  1
  P  P5  1  0.66666700  0.33333300  0.23525900  1
  O  O6  1  0.66666700  0.33333300  0.43344200  1
  O  O7  1  0.33333300  0.66666700  0.56655800  1
  O  O8  1  0.81198100  0.18801900  0.16832400  1
  O  O9  1  0.81198100  0.62396200  0.16832400  1
  O  O10  1  0.37603800  0.18801900  0.16832400  1
  O  O11  1  0.62396200  0.81198100  0.83167600  1
  O  O12  1  0.18801900  0.81198100  0.83167600  1
  O  O13  1  0.18801900  0.37603800  0.83167600  1
