# generated using pymatgen
data_CsLu2Cl7
_symmetry_space_group_name_H-M   'P 1'
_cell_length_a   6.96272300
_cell_length_b   12.59908400
_cell_length_c   13.50150600
_cell_angle_alpha   90.00000000
_cell_angle_beta   90.00000000
_cell_angle_gamma   90.00000000
_symmetry_Int_Tables_number   1
_chemical_formula_structural   CsLu2Cl7
_chemical_formula_sum   'Cs4 Lu8 Cl28'
_cell_volume   1184.40519351
_cell_formula_units_Z   4
loop_
 _symmetry_equiv_pos_site_id
 _symmetry_equiv_pos_as_xyz
  1  'x, y, z'
loop_
 _atom_site_type_symbol
 _atom_site_label
 _atom_site_symmetry_multiplicity
 _atom_site_fract_x
 _atom_site_fract_y
 _atom_site_fract_z
 _atom_site_occupancy
  Cs  Cs0  1  0.25000000  0.80417800  0.04289600  1
  Cs  Cs1  1  0.75000000  0.19582200  0.95710400  1
  Cs  Cs2  1  0.75000000  0.30417800  0.45710400  1
  Cs  Cs3  1  0.25000000  0.69582200  0.54289600  1
  Lu  Lu4  1  0.25000000  0.45946200  0.23761400  1
  Lu  Lu5  1  0.75000000  0.54053800  0.76238600  1
  Lu  Lu6  1  0.75000000  0.95946200  0.26238600  1
  Lu  Lu7  1  0.25000000  0.04053800  0.73761400  1
  Lu  Lu8  1  0.25000000  0.15765700  0.25078300  1
  Lu  Lu9  1  0.75000000  0.84234300  0.74921700  1
  Lu  Lu10  1  0.75000000  0.65765700  0.24921700  1
  Lu  Lu11  1  0.25000000  0.34234300  0.75078300  1
  Cl  Cl12  1  0.01364300  0.30671200  0.17683100  1
  Cl  Cl13  1  0.98635700  0.69328800  0.82316900  1
  Cl  Cl14  1  0.98635700  0.80671200  0.32316900  1
  Cl  Cl15  1  0.51364300  0.69328800  0.82316900  1
  Cl  Cl16  1  0.01364300  0.19328800  0.67683100  1
  Cl  Cl17  1  0.48635700  0.30671200  0.17683100  1
  Cl  Cl18  1  0.48635700  0.19328800  0.67683100  1
  Cl  Cl19  1  0.51364300  0.80671200  0.32316900  1
  Cl  Cl20  1  0.00735300  0.57501400  0.12451400  1
  Cl  Cl21  1  0.99264700  0.42498600  0.87548600  1
  Cl  Cl22  1  0.99264700  0.07501400  0.37548600  1
  Cl  Cl23  1  0.50735300  0.42498600  0.87548600  1
  Cl  Cl24  1  0.00735300  0.92498600  0.62451400  1
  Cl  Cl25  1  0.49264700  0.57501400  0.12451400  1
  Cl  Cl26  1  0.49264700  0.92498600  0.62451400  1
  Cl  Cl27  1  0.50735300  0.07501400  0.37548600  1
  Cl  Cl28  1  0.01032700  0.04006200  0.13658900  1
  Cl  Cl29  1  0.98967300  0.95993800  0.86341100  1
  Cl  Cl30  1  0.98967300  0.54006200  0.36341100  1
  Cl  Cl31  1  0.51032700  0.95993800  0.86341100  1
  Cl  Cl32  1  0.01032700  0.45993800  0.63658900  1
  Cl  Cl33  1  0.48967300  0.04006200  0.13658900  1
  Cl  Cl34  1  0.48967300  0.45993800  0.63658900  1
  Cl  Cl35  1  0.51032700  0.54006200  0.36341100  1
  Cl  Cl36  1  0.25000000  0.31155800  0.38953600  1
  Cl  Cl37  1  0.75000000  0.68844200  0.61046400  1
  Cl  Cl38  1  0.75000000  0.81155800  0.11046400  1
  Cl  Cl39  1  0.25000000  0.18844200  0.88953600  1
