# generated using pymatgen
data_Er5(Co2Si7)2
_symmetry_space_group_name_H-M   'P 1'
_cell_length_a   7.82492400
_cell_length_b   7.74797900
_cell_length_c   12.33925338
_cell_angle_alpha   81.16019527
_cell_angle_beta   90.00000000
_cell_angle_gamma   90.00000000
_symmetry_Int_Tables_number   1
_chemical_formula_structural   Er5(Co2Si7)2
_chemical_formula_sum   'Er10 Co8 Si28'
_cell_volume   739.21020289
_cell_formula_units_Z   2
loop_
 _symmetry_equiv_pos_site_id
 _symmetry_equiv_pos_as_xyz
  1  'x, y, z'
loop_
 _atom_site_type_symbol
 _atom_site_label
 _atom_site_symmetry_multiplicity
 _atom_site_fract_x
 _atom_site_fract_y
 _atom_site_fract_z
 _atom_site_occupancy
  Er  Er0  1  0.00000000  0.00000000  0.50000000  1
  Er  Er1  1  0.50000000  0.50000000  0.50000000  1
  Er  Er2  1  0.25165800  0.15808400  0.86470400  1
  Er  Er3  1  0.75165800  0.34191600  0.13529600  1
  Er  Er4  1  0.74834200  0.84191600  0.13529600  1
  Er  Er5  1  0.24834200  0.65808400  0.86470400  1
  Er  Er6  1  0.24910000  0.83946900  0.13510500  1
  Er  Er7  1  0.74910000  0.66053100  0.86489500  1
  Er  Er8  1  0.75090000  0.16053100  0.86489500  1
  Er  Er9  1  0.25090000  0.33946900  0.13510500  1
  Co  Co10  1  0.37248900  0.87123500  0.49956700  1
  Co  Co11  1  0.87248900  0.62876500  0.50043300  1
  Co  Co12  1  0.62751100  0.12876500  0.50043300  1
  Co  Co13  1  0.12751100  0.37123500  0.49956700  1
  Co  Co14  1  0.99989400  0.93872000  0.74928800  1
  Co  Co15  1  0.49989400  0.56128000  0.25071200  1
  Co  Co16  1  0.00010600  0.06128000  0.25071200  1
  Co  Co17  1  0.50010600  0.43872000  0.74928800  1
  Si  Si18  1  0.66604400  0.83460100  0.49988000  1
  Si  Si19  1  0.16604400  0.66539900  0.50012000  1
  Si  Si20  1  0.33395600  0.16539900  0.50012000  1
  Si  Si21  1  0.83395600  0.33460100  0.49988000  1
  Si  Si22  1  0.49963000  0.88821600  0.94098200  1
  Si  Si23  1  0.99963000  0.61178400  0.05901800  1
  Si  Si24  1  0.50037000  0.11178400  0.05901800  1
  Si  Si25  1  0.00037000  0.38821600  0.94098200  1
  Si  Si26  1  0.99441700  0.76885200  0.32270100  1
  Si  Si27  1  0.49441700  0.73114800  0.67729900  1
  Si  Si28  1  0.00558300  0.23114800  0.67729900  1
  Si  Si29  1  0.50558300  0.26885200  0.32270100  1
  Si  Si30  1  0.99429700  0.68204900  0.67796000  1
  Si  Si31  1  0.49429700  0.81795100  0.32204000  1
  Si  Si32  1  0.00570300  0.31795100  0.32204000  1
  Si  Si33  1  0.50570300  0.18204900  0.67796000  1
  Si  Si34  1  0.27372500  0.94965000  0.67739800  1
  Si  Si35  1  0.77372500  0.55035000  0.32260200  1
  Si  Si36  1  0.72627500  0.05035000  0.32260200  1
  Si  Si37  1  0.22627500  0.44965000  0.67739800  1
  Si  Si38  1  0.72615500  0.96159700  0.67720600  1
  Si  Si39  1  0.22615500  0.53840300  0.32279400  1
  Si  Si40  1  0.27384500  0.03840300  0.32279400  1
  Si  Si41  1  0.77384500  0.46159700  0.67720600  1
  Si  Si42  1  0.00024900  0.89009100  0.93957900  1
  Si  Si43  1  0.50024900  0.60990900  0.06042100  1
  Si  Si44  1  0.99975100  0.10990900  0.06042100  1
  Si  Si45  1  0.49975100  0.39009100  0.93957900  1
