# generated using pymatgen
data_PrHf2F11
_symmetry_space_group_name_H-M   'P 1'
_cell_length_a   8.44926578
_cell_length_b   8.44926578
_cell_length_c   8.44926578
_cell_angle_alpha   125.03535896
_cell_angle_beta   106.77549302
_cell_angle_gamma   97.89139885
_symmetry_Int_Tables_number   1
_chemical_formula_structural   PrHf2F11
_chemical_formula_sum   'Pr2 Hf4 F22'
_cell_volume   436.13009126
_cell_formula_units_Z   2
loop_
 _symmetry_equiv_pos_site_id
 _symmetry_equiv_pos_as_xyz
  1  'x, y, z'
loop_
 _atom_site_type_symbol
 _atom_site_label
 _atom_site_symmetry_multiplicity
 _atom_site_fract_x
 _atom_site_fract_y
 _atom_site_fract_z
 _atom_site_occupancy
  Pr  Pr0  1  0.75000000  0.25000000  0.50000000  1
  Pr  Pr1  1  0.25000000  0.75000000  0.50000000  1
  Hf  Hf2  1  0.68045200  0.63396200  0.31441400  1
  Hf  Hf3  1  0.31954800  0.36603800  0.68558600  1
  Hf  Hf4  1  0.18045200  0.86603800  0.04649000  1
  Hf  Hf5  1  0.81954800  0.13396200  0.95351000  1
  F  F6  1  0.70580900  0.89182000  0.34042800  1
  F  F7  1  0.29419100  0.10818000  0.65957200  1
  F  F8  1  0.55139200  0.36538200  0.65957200  1
  F  F9  1  0.94860800  0.60818000  0.81398900  1
  F  F10  1  0.44860800  0.63461800  0.34042800  1
  F  F11  1  0.05139200  0.39182000  0.18601100  1
  F  F12  1  0.79419100  0.13461800  0.18601100  1
  F  F13  1  0.20580900  0.86538200  0.81398900  1
  F  F14  1  0.50000000  0.50000000  0.00000000  1
  F  F15  1  0.00000000  0.00000000  0.00000000  1
  F  F16  1  0.77881900  0.87110200  0.64992100  1
  F  F17  1  0.22118100  0.12889800  0.35007900  1
  F  F18  1  0.27881900  0.62889800  0.90771700  1
  F  F19  1  0.72118100  0.37110200  0.09228300  1
  F  F20  1  0.94936900  0.73667300  0.41573400  1
  F  F21  1  0.05063100  0.26332700  0.58426600  1
  F  F22  1  0.32093900  0.53363500  0.58426600  1
  F  F23  1  0.17906100  0.76332700  0.21269700  1
  F  F24  1  0.67906100  0.46636500  0.41573400  1
  F  F25  1  0.82093900  0.23667300  0.78730300  1
  F  F26  1  0.55063100  0.96636500  0.78730300  1
  F  F27  1  0.44936900  0.03363500  0.21269700  1
