# generated using pymatgen
data_K2FeP2H3(O4F)2
_symmetry_space_group_name_H-M   'P 1'
_cell_length_a   4.85778784
_cell_length_b   8.45455100
_cell_length_c   11.03672084
_cell_angle_alpha   90.00000000
_cell_angle_beta   93.69727684
_cell_angle_gamma   90.00000000
_symmetry_Int_Tables_number   1
_chemical_formula_structural   K2FeP2H3(O4F)2
_chemical_formula_sum   'K4 Fe2 P4 H6 O16 F4'
_cell_volume   452.33928077
_cell_formula_units_Z   2
loop_
 _symmetry_equiv_pos_site_id
 _symmetry_equiv_pos_as_xyz
  1  'x, y, z'
loop_
 _atom_site_type_symbol
 _atom_site_label
 _atom_site_symmetry_multiplicity
 _atom_site_fract_x
 _atom_site_fract_y
 _atom_site_fract_z
 _atom_site_occupancy
  K  K0  1  0.50995700  0.39747400  0.82983200  1
  K  K1  1  0.49004300  0.89747400  0.67016800  1
  K  K2  1  0.49709300  0.60531500  0.16720600  1
  K  K3  1  0.50290700  0.10531500  0.33279400  1
  Fe  Fe4  1  0.49918000  0.49815200  0.50034000  1
  Fe  Fe5  1  0.50082000  0.99815200  0.99966000  1
  P  P6  1  0.98289600  0.73730500  0.41463600  1
  P  P7  1  0.01710400  0.23730500  0.08536400  1
  P  P8  1  0.01611600  0.25663700  0.58279000  1
  P  P9  1  0.98388400  0.75663700  0.91721000  1
  H  H10  1  0.94705100  0.84342300  0.22999600  1
  H  H11  1  0.05294900  0.34342300  0.27000400  1
  H  H12  1  0.04937900  0.15739200  0.76921400  1
  H  H13  1  0.95062100  0.65739200  0.73078600  1
  H  H14  1  0.98107800  0.98664500  0.49694700  1
  H  H15  1  0.01892200  0.48664500  0.00305300  1
  O  O16  1  0.76256700  0.61008200  0.39202300  1
  O  O17  1  0.23743300  0.11008200  0.10797700  1
  O  O18  1  0.23676100  0.38571600  0.60458200  1
  O  O19  1  0.76323900  0.88571600  0.89541800  1
  O  O20  1  0.09154000  0.79142700  0.28678200  1
  O  O21  1  0.90846000  0.29142700  0.21321800  1
  O  O22  1  0.90672800  0.21060200  0.71307800  1
  O  O23  1  0.09327200  0.71060200  0.78692200  1
  O  O24  1  0.24196200  0.68986200  0.49138000  1
  O  O25  1  0.75803800  0.18986200  0.00862000  1
  O  O26  1  0.75522500  0.30961500  0.50799300  1
  O  O27  1  0.24477500  0.80961500  0.99200700  1
  O  O28  1  0.84221200  0.88555600  0.47064000  1
  O  O29  1  0.15778800  0.38555600  0.02936000  1
  O  O30  1  0.14316800  0.10697700  0.52836900  1
  O  O31  1  0.85683200  0.60697700  0.97163100  1
  F  F32  1  0.31816400  0.40881800  0.34826100  1
  F  F33  1  0.68183600  0.90881800  0.15173900  1
  F  F34  1  0.67770800  0.59290200  0.64961600  1
  F  F35  1  0.32229200  0.09290200  0.85038400  1
