# generated using pymatgen
data_Al12W
_symmetry_space_group_name_H-M   'P 1'
_cell_length_a   6.57187188
_cell_length_b   6.57187188
_cell_length_c   6.57187188
_cell_angle_alpha   109.47122063
_cell_angle_beta   109.47122063
_cell_angle_gamma   109.47122063
_symmetry_Int_Tables_number   1
_chemical_formula_structural   Al12W
_chemical_formula_sum   'Al12 W1'
_cell_volume   218.49694754
_cell_formula_units_Z   1
loop_
 _symmetry_equiv_pos_site_id
 _symmetry_equiv_pos_as_xyz
  1  'x, y, z'
loop_
 _atom_site_type_symbol
 _atom_site_label
 _atom_site_symmetry_multiplicity
 _atom_site_fract_x
 _atom_site_fract_y
 _atom_site_fract_z
 _atom_site_occupancy
  Al  Al0  1  0.69146700  0.87788200  0.18641500  1
  Al  Al1  1  0.81358500  0.30853300  0.12211800  1
  Al  Al2  1  0.50505200  0.81358500  0.69146700  1
  Al  Al3  1  0.81358500  0.69146700  0.50505200  1
  Al  Al4  1  0.49494800  0.18641500  0.30853300  1
  Al  Al5  1  0.18641500  0.69146700  0.87788200  1
  Al  Al6  1  0.87788200  0.18641500  0.69146700  1
  Al  Al7  1  0.12211800  0.81358500  0.30853300  1
  Al  Al8  1  0.18641500  0.30853300  0.49494800  1
  Al  Al9  1  0.69146700  0.50505200  0.81358500  1
  Al  Al10  1  0.30853300  0.49494800  0.18641500  1
  Al  Al11  1  0.30853300  0.12211800  0.81358500  1
  W  W12  1  0.00000000  0.00000000  0.00000000  1
