# generated using pymatgen
data_Sr2TaN3
_symmetry_space_group_name_H-M   'P 1'
_cell_length_a   6.43657143
_cell_length_b   6.43657143
_cell_length_c   12.67590997
_cell_angle_alpha   89.00683459
_cell_angle_beta   89.00683459
_cell_angle_gamma   123.68223764
_symmetry_Int_Tables_number   1
_chemical_formula_structural   Sr2TaN3
_chemical_formula_sum   'Sr8 Ta4 N12'
_cell_volume   436.70115083
_cell_formula_units_Z   4
loop_
 _symmetry_equiv_pos_site_id
 _symmetry_equiv_pos_as_xyz
  1  'x, y, z'
loop_
 _atom_site_type_symbol
 _atom_site_label
 _atom_site_symmetry_multiplicity
 _atom_site_fract_x
 _atom_site_fract_y
 _atom_site_fract_z
 _atom_site_occupancy
  Sr  Sr0  1  0.94788900  0.54645800  0.13935200  1
  Sr  Sr1  1  0.15518500  0.38714800  0.42315400  1
  Sr  Sr2  1  0.38714800  0.15518500  0.92315400  1
  Sr  Sr3  1  0.84481500  0.61285200  0.57684600  1
  Sr  Sr4  1  0.05211100  0.45354200  0.86064800  1
  Sr  Sr5  1  0.54645800  0.94788900  0.63935200  1
  Sr  Sr6  1  0.45354200  0.05211100  0.36064800  1
  Sr  Sr7  1  0.61285200  0.84481500  0.07684600  1
  Ta  Ta8  1  0.76757500  0.76331200  0.33629700  1
  Ta  Ta9  1  0.23668800  0.23242500  0.16370300  1
  Ta  Ta10  1  0.23242500  0.23668800  0.66370300  1
  Ta  Ta11  1  0.76331200  0.76757500  0.83629700  1
  N  N12  1  0.49837500  0.50162500  0.75000000  1
  N  N13  1  0.50162500  0.49837500  0.25000000  1
  N  N14  1  0.08142800  0.91857200  0.75000000  1
  N  N15  1  0.91857200  0.08142800  0.25000000  1
  N  N16  1  0.00668200  0.33217600  0.62398400  1
  N  N17  1  0.66782400  0.99331800  0.87601600  1
  N  N18  1  0.99331800  0.66782400  0.37601600  1
  N  N19  1  0.33217600  0.00668200  0.12398400  1
  N  N20  1  0.80369400  0.61585100  0.95854200  1
  N  N21  1  0.61585100  0.80369400  0.45854200  1
  N  N22  1  0.19630600  0.38414900  0.04145800  1
  N  N23  1  0.38414900  0.19630600  0.54145800  1
