# generated using pymatgen
data_Al3(V3C2)4
_symmetry_space_group_name_H-M   'P 1'
_cell_length_a   5.06291971
_cell_length_b   5.06291971
_cell_length_c   22.67612700
_cell_angle_alpha   90.00000000
_cell_angle_beta   90.00000000
_cell_angle_gamma   119.99999618
_symmetry_Int_Tables_number   1
_chemical_formula_structural   Al3(V3C2)4
_chemical_formula_sum   'Al6 V24 C16'
_cell_volume   503.38655191
_cell_formula_units_Z   2
loop_
 _symmetry_equiv_pos_site_id
 _symmetry_equiv_pos_as_xyz
  1  'x, y, z'
loop_
 _atom_site_type_symbol
 _atom_site_label
 _atom_site_symmetry_multiplicity
 _atom_site_fract_x
 _atom_site_fract_y
 _atom_site_fract_z
 _atom_site_occupancy
  Al  Al0  1  0.32947700  0.00000000  0.75000000  1
  Al  Al1  1  0.67052300  0.00000000  0.25000000  1
  Al  Al2  1  0.00000000  0.32947700  0.75000000  1
  Al  Al3  1  0.00000000  0.67052300  0.25000000  1
  Al  Al4  1  0.67052300  0.67052300  0.75000000  1
  Al  Al5  1  0.32947700  0.32947700  0.25000000  1
  V  V6  1  0.35379300  0.00000000  0.55473400  1
  V  V7  1  0.64620700  0.00000000  0.44526600  1
  V  V8  1  0.00000000  0.35379300  0.55473400  1
  V  V9  1  0.64620700  0.00000000  0.05473400  1
  V  V10  1  0.00000000  0.35379300  0.94526600  1
  V  V11  1  0.00000000  0.64620700  0.44526600  1
  V  V12  1  0.35379300  0.00000000  0.94526600  1
  V  V13  1  0.00000000  0.64620700  0.05473400  1
  V  V14  1  0.64620700  0.64620700  0.55473400  1
  V  V15  1  0.35379300  0.35379300  0.44526600  1
  V  V16  1  0.35379300  0.35379300  0.05473400  1
  V  V17  1  0.64620700  0.64620700  0.94526600  1
  V  V18  1  0.00000000  0.00000000  0.65275900  1
  V  V19  1  0.00000000  0.00000000  0.34724100  1
  V  V20  1  0.00000000  0.00000000  0.15275900  1
  V  V21  1  0.00000000  0.00000000  0.84724100  1
  V  V22  1  0.33333300  0.66666700  0.65619500  1
  V  V23  1  0.66666700  0.33333300  0.34380500  1
  V  V24  1  0.66666700  0.33333300  0.15619500  1
  V  V25  1  0.66666700  0.33333300  0.84380500  1
  V  V26  1  0.33333300  0.66666700  0.84380500  1
  V  V27  1  0.33333300  0.66666700  0.15619500  1
  V  V28  1  0.33333300  0.66666700  0.34380500  1
  V  V29  1  0.66666700  0.33333300  0.65619500  1
  C  C30  1  0.66733700  0.00000000  0.60663600  1
  C  C31  1  0.33266300  0.00000000  0.39336400  1
  C  C32  1  0.00000000  0.66733700  0.60663600  1
  C  C33  1  0.33266300  0.00000000  0.10663600  1
  C  C34  1  0.00000000  0.66733700  0.89336400  1
  C  C35  1  0.00000000  0.33266300  0.39336400  1
  C  C36  1  0.66733700  0.00000000  0.89336400  1
  C  C37  1  0.00000000  0.33266300  0.10663600  1
  C  C38  1  0.33266300  0.33266300  0.60663600  1
  C  C39  1  0.66733700  0.66733700  0.39336400  1
  C  C40  1  0.66733700  0.66733700  0.10663600  1
  C  C41  1  0.33266300  0.33266300  0.89336400  1
  C  C42  1  0.33333300  0.66666700  0.50000000  1
  C  C43  1  0.66666700  0.33333300  0.50000000  1
  C  C44  1  0.66666700  0.33333300  0.00000000  1
  C  C45  1  0.33333300  0.66666700  0.00000000  1
