# generated using pymatgen
data_GdAlZnGe2
_symmetry_space_group_name_H-M   'P 1'
_cell_length_a   4.21628532
_cell_length_b   4.21628532
_cell_length_c   6.86570100
_cell_angle_alpha   90.00000000
_cell_angle_beta   90.00000000
_cell_angle_gamma   119.99998932
_symmetry_Int_Tables_number   1
_chemical_formula_structural   GdAlZnGe2
_chemical_formula_sum   'Gd1 Al1 Zn1 Ge2'
_cell_volume   105.70013671
_cell_formula_units_Z   1
loop_
 _symmetry_equiv_pos_site_id
 _symmetry_equiv_pos_as_xyz
  1  'x, y, z'
loop_
 _atom_site_type_symbol
 _atom_site_label
 _atom_site_symmetry_multiplicity
 _atom_site_fract_x
 _atom_site_fract_y
 _atom_site_fract_z
 _atom_site_occupancy
  Gd  Gd0  1  0.00000000  0.00000000  0.01027900  1
  Al  Al1  1  0.66666700  0.33333300  0.62886400  1
  Zn  Zn2  1  0.33333300  0.66666700  0.35446700  1
  Ge  Ge3  1  0.33333300  0.66666700  0.75153900  1
  Ge  Ge4  1  0.66666700  0.33333300  0.25485100  1
