# generated using pymatgen
data_Tm3(CuSn)4
_symmetry_space_group_name_H-M   'P 1'
_cell_length_a   8.34409263
_cell_length_b   8.34409263
_cell_length_c   6.91255413
_cell_angle_alpha   66.20370970
_cell_angle_beta   66.20370970
_cell_angle_gamma   30.81051496
_symmetry_Int_Tables_number   1
_chemical_formula_structural   Tm3(CuSn)4
_chemical_formula_sum   'Tm3 Cu4 Sn4'
_cell_volume   223.88304105
_cell_formula_units_Z   1
loop_
 _symmetry_equiv_pos_site_id
 _symmetry_equiv_pos_as_xyz
  1  'x, y, z'
loop_
 _atom_site_type_symbol
 _atom_site_label
 _atom_site_symmetry_multiplicity
 _atom_site_fract_x
 _atom_site_fract_y
 _atom_site_fract_z
 _atom_site_occupancy
  Tm  Tm0  1  0.00000000  0.00000000  0.50000000  1
  Tm  Tm1  1  0.13048500  0.13048500  0.85755200  1
  Tm  Tm2  1  0.86951500  0.86951500  0.14244800  1
  Cu  Cu3  1  0.31701100  0.31701100  0.87790200  1
  Cu  Cu4  1  0.68298900  0.68298900  0.12209800  1
  Cu  Cu5  1  0.34002000  0.34002000  0.47532000  1
  Cu  Cu6  1  0.65998000  0.65998000  0.52468000  1
  Sn  Sn7  1  0.21564000  0.21564000  0.30099600  1
  Sn  Sn8  1  0.78436000  0.78436000  0.69900400  1
  Sn  Sn9  1  0.50941800  0.50941800  0.19370300  1
  Sn  Sn10  1  0.49058200  0.49058200  0.80629700  1
