# generated using pymatgen
data_K3La(PS4)2
_symmetry_space_group_name_H-M   'P 1'
_cell_length_a   17.38061200
_cell_length_b   9.29248400
_cell_length_c   9.71115890
_cell_angle_alpha   89.40541743
_cell_angle_beta   90.00000000
_cell_angle_gamma   90.00000000
_symmetry_Int_Tables_number   1
_chemical_formula_structural   K3La(PS4)2
_chemical_formula_sum   'K12 La4 P8 S32'
_cell_volume   1568.35568188
_cell_formula_units_Z   4
loop_
 _symmetry_equiv_pos_site_id
 _symmetry_equiv_pos_as_xyz
  1  'x, y, z'
loop_
 _atom_site_type_symbol
 _atom_site_label
 _atom_site_symmetry_multiplicity
 _atom_site_fract_x
 _atom_site_fract_y
 _atom_site_fract_z
 _atom_site_occupancy
  K  K0  1  0.52844400  0.26874200  0.01194700  1
  K  K1  1  0.02844400  0.73125800  0.48805300  1
  K  K2  1  0.47155600  0.73125800  0.98805300  1
  K  K3  1  0.97155600  0.26874200  0.51194700  1
  K  K4  1  0.78601100  0.37874400  0.12811200  1
  K  K5  1  0.28601100  0.62125600  0.37188800  1
  K  K6  1  0.21398900  0.62125600  0.87188800  1
  K  K7  1  0.71398900  0.37874400  0.62811200  1
  K  K8  1  0.29229000  0.12876800  0.88209300  1
  K  K9  1  0.79229000  0.87123200  0.61790700  1
  K  K10  1  0.70771000  0.87123200  0.11790700  1
  K  K11  1  0.20771000  0.12876800  0.38209300  1
  La  La12  1  0.48676100  0.22719400  0.47272900  1
  La  La13  1  0.98676100  0.77280600  0.02727100  1
  La  La14  1  0.51323900  0.77280600  0.52727100  1
  La  La15  1  0.01323900  0.22719400  0.97272900  1
  P  P16  1  0.39867800  0.99595200  0.25712200  1
  P  P17  1  0.89867800  0.00404800  0.24287800  1
  P  P18  1  0.60132200  0.00404800  0.74287800  1
  P  P19  1  0.10132200  0.99595200  0.75712200  1
  P  P20  1  0.59895900  0.52388300  0.28058100  1
  P  P21  1  0.09895900  0.47611700  0.21941900  1
  P  P22  1  0.40104100  0.47611700  0.71941900  1
  P  P23  1  0.90104100  0.52388300  0.78058100  1
  S  S24  1  0.34406900  0.33537300  0.59320100  1
  S  S25  1  0.84406900  0.66462700  0.90679900  1
  S  S26  1  0.65593100  0.66462700  0.40679900  1
  S  S27  1  0.15593100  0.33537300  0.09320100  1
  S  S28  1  0.62523200  0.56326900  0.08077000  1
  S  S29  1  0.12523200  0.43673100  0.41923000  1
  S  S30  1  0.37476800  0.43673100  0.91923000  1
  S  S31  1  0.87476800  0.56326900  0.58077000  1
  S  S32  1  0.12468900  0.96372700  0.96463800  1
  S  S33  1  0.62468900  0.03627300  0.53536200  1
  S  S34  1  0.87531100  0.03627300  0.03536200  1
  S  S35  1  0.37531100  0.96372700  0.46463800  1
  S  S36  1  0.01515400  0.04861000  0.25121300  1
  S  S37  1  0.51515400  0.95139000  0.24878700  1
  S  S38  1  0.98484600  0.95139000  0.74878700  1
  S  S39  1  0.48484600  0.04861000  0.75121300  1
  S  S40  1  0.01850800  0.53834000  0.81949500  1
  S  S41  1  0.51850800  0.46166000  0.68050500  1
  S  S42  1  0.98149200  0.46166000  0.18050500  1
  S  S43  1  0.48149200  0.53834000  0.31949500  1
  S  S44  1  0.86990100  0.31619100  0.83134500  1
  S  S45  1  0.36990100  0.68380900  0.66865500  1
  S  S46  1  0.13009900  0.68380900  0.16865500  1
  S  S47  1  0.63009900  0.31619100  0.33134500  1
  S  S48  1  0.11509100  0.21238900  0.72384200  1
  S  S49  1  0.61509100  0.78761100  0.77615800  1
  S  S50  1  0.88490900  0.78761100  0.27615800  1
  S  S51  1  0.38490900  0.21238900  0.22384200  1
  S  S52  1  0.17177300  0.87910900  0.63675300  1
  S  S53  1  0.67177300  0.12089100  0.86324700  1
  S  S54  1  0.82822700  0.12089100  0.36324700  1
  S  S55  1  0.32822700  0.87910900  0.13675300  1
