# generated using pymatgen
data_CrAsO4
_symmetry_space_group_name_H-M   'P 1'
_cell_length_a   6.60377900
_cell_length_b   9.29802313
_cell_length_c   9.29802313
_cell_angle_alpha   70.98055585
_cell_angle_beta   69.19935896
_cell_angle_gamma   69.19935896
_symmetry_Int_Tables_number   1
_chemical_formula_structural   CrAsO4
_chemical_formula_sum   'Cr6 As6 O24'
_cell_volume   485.70809555
_cell_formula_units_Z   6
loop_
 _symmetry_equiv_pos_site_id
 _symmetry_equiv_pos_as_xyz
  1  'x, y, z'
loop_
 _atom_site_type_symbol
 _atom_site_label
 _atom_site_symmetry_multiplicity
 _atom_site_fract_x
 _atom_site_fract_y
 _atom_site_fract_z
 _atom_site_occupancy
  Cr  Cr0  1  0.50000000  0.00000000  0.00000000  1
  Cr  Cr1  1  0.00000000  0.50000000  0.50000000  1
  Cr  Cr2  1  0.38503600  0.11496400  0.61496400  1
  Cr  Cr3  1  0.61496400  0.38503600  0.88503600  1
  Cr  Cr4  1  0.38503600  0.61496400  0.11496400  1
  Cr  Cr5  1  0.61496400  0.88503600  0.38503600  1
  As  As6  1  0.68732900  0.75000000  0.75000000  1
  As  As7  1  0.31267100  0.25000000  0.25000000  1
  As  As8  1  0.17629500  0.32370500  0.82370500  1
  As  As9  1  0.82370500  0.17629500  0.67629500  1
  As  As10  1  0.17629500  0.82370500  0.32370500  1
  As  As11  1  0.82370500  0.67629500  0.17629500  1
  O  O12  1  0.52922600  0.87990800  0.62009200  1
  O  O13  1  0.47077400  0.37990800  0.12009200  1
  O  O14  1  0.47077400  0.12009200  0.37990800  1
  O  O15  1  0.52922600  0.62009200  0.87990800  1
  O  O16  1  0.31063000  0.11692600  0.84604600  1
  O  O17  1  0.68937000  0.15395400  0.88307400  1
  O  O18  1  0.22639800  0.61692600  0.34604600  1
  O  O19  1  0.77360200  0.65395400  0.38307400  1
  O  O20  1  0.68937000  0.88307400  0.15395400  1
  O  O21  1  0.31063000  0.84604600  0.11692600  1
  O  O22  1  0.77360200  0.38307400  0.65395400  1
  O  O23  1  0.22639800  0.34604600  0.61692600  1
  O  O24  1  0.31374300  0.42774100  0.85500500  1
  O  O25  1  0.68625700  0.14499500  0.57225900  1
  O  O26  1  0.90351100  0.92774100  0.35500500  1
  O  O27  1  0.09648900  0.64499500  0.07225900  1
  O  O28  1  0.68625700  0.57225900  0.14499500  1
  O  O29  1  0.31374300  0.85500500  0.42774100  1
  O  O30  1  0.09648900  0.07225900  0.64499500  1
  O  O31  1  0.90351100  0.35500500  0.92774100  1
  O  O32  1  0.71785900  0.85604000  0.85604000  1
  O  O33  1  0.28214100  0.14396000  0.14396000  1
  O  O34  1  0.07006000  0.35604000  0.35604000  1
  O  O35  1  0.92994000  0.64396000  0.64396000  1
