# generated using pymatgen
data_CaSnPt
_symmetry_space_group_name_H-M   'P 1'
_cell_length_a   4.66782900
_cell_length_b   7.42234500
_cell_length_c   7.97448100
_cell_angle_alpha   90.00000000
_cell_angle_beta   90.00000000
_cell_angle_gamma   90.00000000
_symmetry_Int_Tables_number   1
_chemical_formula_structural   CaSnPt
_chemical_formula_sum   'Ca4 Sn4 Pt4'
_cell_volume   276.28576058
_cell_formula_units_Z   4
loop_
 _symmetry_equiv_pos_site_id
 _symmetry_equiv_pos_as_xyz
  1  'x, y, z'
loop_
 _atom_site_type_symbol
 _atom_site_label
 _atom_site_symmetry_multiplicity
 _atom_site_fract_x
 _atom_site_fract_y
 _atom_site_fract_z
 _atom_site_occupancy
  Ca  Ca0  1  0.25000000  0.98569600  0.30902300  1
  Ca  Ca1  1  0.25000000  0.48569600  0.19097700  1
  Ca  Ca2  1  0.75000000  0.01430400  0.69097700  1
  Ca  Ca3  1  0.75000000  0.51430400  0.80902300  1
  Sn  Sn4  1  0.25000000  0.32589300  0.57947100  1
  Sn  Sn5  1  0.25000000  0.82589300  0.92052900  1
  Sn  Sn6  1  0.75000000  0.67410700  0.42052900  1
  Sn  Sn7  1  0.75000000  0.17410700  0.07947100  1
  Pt  Pt8  1  0.25000000  0.20639300  0.90265200  1
  Pt  Pt9  1  0.25000000  0.70639300  0.59734800  1
  Pt  Pt10  1  0.75000000  0.79360700  0.09734800  1
  Pt  Pt11  1  0.75000000  0.29360700  0.40265200  1
