# generated using pymatgen
data_Ho6Ti4Al43
_symmetry_space_group_name_H-M   'P 1'
_cell_length_a   11.08066442
_cell_length_b   11.08066442
_cell_length_c   17.75162900
_cell_angle_alpha   90.00000000
_cell_angle_beta   90.00000000
_cell_angle_gamma   120.00000251
_symmetry_Int_Tables_number   1
_chemical_formula_structural   Ho6Ti4Al43
_chemical_formula_sum   'Ho12 Ti8 Al86'
_cell_volume   1887.55857799
_cell_formula_units_Z   2
loop_
 _symmetry_equiv_pos_site_id
 _symmetry_equiv_pos_as_xyz
  1  'x, y, z'
loop_
 _atom_site_type_symbol
 _atom_site_label
 _atom_site_symmetry_multiplicity
 _atom_site_fract_x
 _atom_site_fract_y
 _atom_site_fract_z
 _atom_site_occupancy
  Ho  Ho0  1  0.53080000  0.00000000  0.59629700  1
  Ho  Ho1  1  0.46920000  0.00000000  0.40370300  1
  Ho  Ho2  1  0.00000000  0.53080000  0.59629700  1
  Ho  Ho3  1  0.46920000  0.00000000  0.09629700  1
  Ho  Ho4  1  0.00000000  0.53080000  0.90370300  1
  Ho  Ho5  1  0.00000000  0.46920000  0.40370300  1
  Ho  Ho6  1  0.53080000  0.00000000  0.90370300  1
  Ho  Ho7  1  0.00000000  0.46920000  0.09629700  1
  Ho  Ho8  1  0.46920000  0.46920000  0.59629700  1
  Ho  Ho9  1  0.53080000  0.53080000  0.40370300  1
  Ho  Ho10  1  0.53080000  0.53080000  0.09629700  1
  Ho  Ho11  1  0.46920000  0.46920000  0.90370300  1
  Ti  Ti12  1  0.00000000  0.00000000  0.50000000  1
  Ti  Ti13  1  0.00000000  0.00000000  0.00000000  1
  Ti  Ti14  1  0.72865000  0.00000000  0.75000000  1
  Ti  Ti15  1  0.27135000  0.00000000  0.25000000  1
  Ti  Ti16  1  0.00000000  0.72865000  0.75000000  1
  Ti  Ti17  1  0.00000000  0.27135000  0.25000000  1
  Ti  Ti18  1  0.27135000  0.27135000  0.75000000  1
  Ti  Ti19  1  0.72865000  0.72865000  0.25000000  1
  Al  Al20  1  0.14926300  0.59697800  0.75000000  1
  Al  Al21  1  0.85073700  0.40302200  0.25000000  1
  Al  Al22  1  0.40302200  0.55228500  0.75000000  1
  Al  Al23  1  0.59697800  0.14926300  0.75000000  1
  Al  Al24  1  0.59697800  0.44771500  0.25000000  1
  Al  Al25  1  0.40302200  0.85073700  0.25000000  1
  Al  Al26  1  0.44771500  0.85073700  0.75000000  1
  Al  Al27  1  0.55228500  0.40302200  0.75000000  1
  Al  Al28  1  0.55228500  0.14926300  0.25000000  1
  Al  Al29  1  0.44771500  0.59697800  0.25000000  1
  Al  Al30  1  0.85073700  0.44771500  0.75000000  1
  Al  Al31  1  0.14926300  0.55228500  0.25000000  1
  Al  Al32  1  0.15790100  0.00000000  0.11561200  1
  Al  Al33  1  0.84209900  0.00000000  0.88438800  1
  Al  Al34  1  0.00000000  0.15790100  0.11561200  1
  Al  Al35  1  0.84209900  0.00000000  0.61561200  1
  Al  Al36  1  0.00000000  0.15790100  0.38438800  1
  Al  Al37  1  0.00000000  0.84209900  0.88438800  1
  Al  Al38  1  0.15790100  0.00000000  0.38438800  1
  Al  Al39  1  0.00000000  0.84209900  0.61561200  1
  Al  Al40  1  0.84209900  0.84209900  0.11561200  1
  Al  Al41  1  0.15790100  0.15790100  0.88438800  1
  Al  Al42  1  0.15790100  0.15790100  0.61561200  1
  Al  Al43  1  0.84209900  0.84209900  0.38438800  1
  Al  Al44  1  0.24737300  0.49474700  0.50000000  1
  Al  Al45  1  0.75262700  0.50525300  0.50000000  1
  Al  Al46  1  0.50525300  0.75262700  0.50000000  1
  Al  Al47  1  0.75262700  0.50525300  0.00000000  1
  Al  Al48  1  0.49474700  0.24737300  0.00000000  1
  Al  Al49  1  0.49474700  0.24737300  0.50000000  1
  Al  Al50  1  0.24737300  0.49474700  0.00000000  1
  Al  Al51  1  0.50525300  0.75262700  0.00000000  1
  Al  Al52  1  0.24737300  0.75262700  0.50000000  1
  Al  Al53  1  0.75262700  0.24737300  0.50000000  1
  Al  Al54  1  0.75262700  0.24737300  0.00000000  1
  Al  Al55  1  0.24737300  0.75262700  0.00000000  1
  Al  Al56  1  0.14661500  0.00000000  0.75000000  1
  Al  Al57  1  0.85338400  0.00000000  0.25000000  1
  Al  Al58  1  0.00000000  0.14661500  0.75000000  1
  Al  Al59  1  0.00000000  0.85338400  0.25000000  1
  Al  Al60  1  0.85338400  0.85338400  0.75000000  1
  Al  Al61  1  0.14661500  0.14661500  0.25000000  1
  Al  Al62  1  0.33333300  0.66666700  0.62622800  1
  Al  Al63  1  0.66666700  0.33333300  0.37377200  1
  Al  Al64  1  0.66666700  0.33333300  0.12622800  1
  Al  Al65  1  0.66666700  0.33333300  0.87377200  1
  Al  Al66  1  0.33333300  0.66666700  0.87377200  1
  Al  Al67  1  0.33333300  0.66666700  0.12622800  1
  Al  Al68  1  0.33333300  0.66666700  0.37377200  1
  Al  Al69  1  0.66666700  0.33333300  0.62622800  1
  Al  Al70  1  0.25432500  0.00000000  0.52941000  1
  Al  Al71  1  0.74567500  0.00000000  0.47059000  1
  Al  Al72  1  0.00000000  0.25432500  0.52941000  1
  Al  Al73  1  0.74567500  0.00000000  0.02941000  1
  Al  Al74  1  0.00000000  0.25432500  0.97059000  1
  Al  Al75  1  0.00000000  0.74567500  0.47059000  1
  Al  Al76  1  0.25432500  0.00000000  0.97059000  1
  Al  Al77  1  0.00000000  0.74567500  0.02941000  1
  Al  Al78  1  0.74567500  0.74567500  0.52941000  1
  Al  Al79  1  0.25432500  0.25432500  0.47059000  1
  Al  Al80  1  0.25432500  0.25432500  0.02941000  1
  Al  Al81  1  0.74567500  0.74567500  0.97059000  1
  Al  Al82  1  0.15845000  0.39366100  0.66444200  1
  Al  Al83  1  0.84155000  0.60633900  0.33555800  1
  Al  Al84  1  0.60633900  0.76478900  0.66444200  1
  Al  Al85  1  0.84155000  0.60633900  0.16444200  1
  Al  Al86  1  0.39366100  0.15845000  0.83555800  1
  Al  Al87  1  0.39366100  0.23521100  0.33555800  1
  Al  Al88  1  0.15845000  0.39366100  0.83555800  1
  Al  Al89  1  0.60633900  0.84155000  0.16444200  1
  Al  Al90  1  0.23521100  0.84155000  0.66444200  1
  Al  Al91  1  0.39366100  0.23521100  0.16444200  1
  Al  Al92  1  0.76478900  0.60633900  0.83555800  1
  Al  Al93  1  0.76478900  0.15845000  0.33555800  1
  Al  Al94  1  0.60633900  0.76478900  0.83555800  1
  Al  Al95  1  0.23521100  0.39366100  0.16444200  1
  Al  Al96  1  0.60633900  0.84155000  0.33555800  1
  Al  Al97  1  0.39366100  0.15845000  0.66444200  1
  Al  Al98  1  0.76478900  0.15845000  0.16444200  1
  Al  Al99  1  0.23521100  0.39366100  0.33555800  1
  Al  Al100  1  0.23521100  0.84155000  0.83555800  1
  Al  Al101  1  0.76478900  0.60633900  0.66444200  1
  Al  Al102  1  0.84155000  0.23521100  0.83555800  1
  Al  Al103  1  0.15845000  0.76478900  0.16444200  1
  Al  Al104  1  0.15845000  0.76478900  0.33555800  1
  Al  Al105  1  0.84155000  0.23521100  0.66444200  1
