# generated using pymatgen
data_CaPr3(FeO3)4
_symmetry_space_group_name_H-M   'P 1'
_cell_length_a   7.83460300
_cell_length_b   5.50877500
_cell_length_c   5.60277993
_cell_angle_alpha   89.87688533
_cell_angle_beta   90.00000000
_cell_angle_gamma   90.00000000
_symmetry_Int_Tables_number   1
_chemical_formula_structural   CaPr3(FeO3)4
_chemical_formula_sum   'Ca1 Pr3 Fe4 O12'
_cell_volume   241.81018592
_cell_formula_units_Z   1
loop_
 _symmetry_equiv_pos_site_id
 _symmetry_equiv_pos_as_xyz
  1  'x, y, z'
loop_
 _atom_site_type_symbol
 _atom_site_label
 _atom_site_symmetry_multiplicity
 _atom_site_fract_x
 _atom_site_fract_y
 _atom_site_fract_z
 _atom_site_occupancy
  Ca  Ca0  1  0.00000000  0.49165500  0.45673200  1
  Pr  Pr1  1  0.00000000  0.01069100  0.95344400  1
  Pr  Pr2  1  0.50000000  0.51098800  0.54624900  1
  Pr  Pr3  1  0.50000000  0.99028600  0.04695500  1
  Fe  Fe4  1  0.24605500  0.49960400  0.00192100  1
  Fe  Fe5  1  0.75448200  0.00104900  0.49926000  1
  Fe  Fe6  1  0.75394500  0.49960400  0.00192100  1
  Fe  Fe7  1  0.24551800  0.00104900  0.49926000  1
  O  O8  1  0.21228400  0.20380000  0.20398400  1
  O  O9  1  0.79338900  0.29150300  0.70802200  1
  O  O10  1  0.70662200  0.79059600  0.79043700  1
  O  O11  1  0.29698400  0.71225000  0.28825100  1
  O  O12  1  0.29337800  0.79059600  0.79043700  1
  O  O13  1  0.70301600  0.71225000  0.28825100  1
  O  O14  1  0.78771600  0.20380000  0.20398400  1
  O  O15  1  0.20661100  0.29150300  0.70802200  1
  O  O16  1  0.00000000  0.58115000  0.02737900  1
  O  O17  1  0.00000000  0.91446000  0.52249300  1
  O  O18  1  0.50000000  0.42204700  0.98013300  1
  O  O19  1  0.50000000  0.08111700  0.48286500  1
