# generated using pymatgen
data_EuGe3Ir
_symmetry_space_group_name_H-M   'P 1'
_cell_length_a   5.97319333
_cell_length_b   5.97319333
_cell_length_c   5.97319333
_cell_angle_alpha   136.02986797
_cell_angle_beta   136.02986797
_cell_angle_gamma   63.93416227
_symmetry_Int_Tables_number   1
_chemical_formula_structural   EuGe3Ir
_chemical_formula_sum   'Eu1 Ge3 Ir1'
_cell_volume   101.35525791
_cell_formula_units_Z   1
loop_
 _symmetry_equiv_pos_site_id
 _symmetry_equiv_pos_as_xyz
  1  'x, y, z'
loop_
 _atom_site_type_symbol
 _atom_site_label
 _atom_site_symmetry_multiplicity
 _atom_site_fract_x
 _atom_site_fract_y
 _atom_site_fract_z
 _atom_site_occupancy
  Eu  Eu0  1  0.00035100  0.00035100  0.00000000  1
  Ge  Ge1  1  0.24507600  0.74507600  0.50000000  1
  Ge  Ge2  1  0.74507600  0.24507600  0.50000000  1
  Ge  Ge3  1  0.58438100  0.58438100  0.00000000  1
  Ir  Ir4  1  0.34771600  0.34771600  0.00000000  1
