# generated using pymatgen
data_Pr3Ni
_symmetry_space_group_name_H-M   'P 1'
_cell_length_a   6.56358400
_cell_length_b   7.08408700
_cell_length_c   10.08851400
_cell_angle_alpha   90.00000000
_cell_angle_beta   90.00000000
_cell_angle_gamma   90.00000000
_symmetry_Int_Tables_number   1
_chemical_formula_structural   Pr3Ni
_chemical_formula_sum   'Pr12 Ni4'
_cell_volume   469.08563634
_cell_formula_units_Z   4
loop_
 _symmetry_equiv_pos_site_id
 _symmetry_equiv_pos_as_xyz
  1  'x, y, z'
loop_
 _atom_site_type_symbol
 _atom_site_label
 _atom_site_symmetry_multiplicity
 _atom_site_fract_x
 _atom_site_fract_y
 _atom_site_fract_z
 _atom_site_occupancy
  Pr  Pr0  1  0.32632800  0.67513800  0.06632500  1
  Pr  Pr1  1  0.17367200  0.17513800  0.43367500  1
  Pr  Pr2  1  0.67367200  0.32486200  0.56632500  1
  Pr  Pr3  1  0.82632800  0.82486200  0.93367500  1
  Pr  Pr4  1  0.67367200  0.32486200  0.93367500  1
  Pr  Pr5  1  0.82632800  0.82486200  0.56632500  1
  Pr  Pr6  1  0.32632800  0.67513800  0.43367500  1
  Pr  Pr7  1  0.17367200  0.17513800  0.06632500  1
  Pr  Pr8  1  0.85647500  0.53916700  0.25000000  1
  Pr  Pr9  1  0.64352500  0.03916700  0.25000000  1
  Pr  Pr10  1  0.14352500  0.46083300  0.75000000  1
  Pr  Pr11  1  0.35647500  0.96083300  0.75000000  1
  Ni  Ni12  1  0.06621600  0.89102600  0.25000000  1
  Ni  Ni13  1  0.43378400  0.39102600  0.25000000  1
  Ni  Ni14  1  0.93378400  0.10897400  0.75000000  1
  Ni  Ni15  1  0.56621600  0.60897400  0.75000000  1
