# generated using pymatgen
data_MnCd4S5
_symmetry_space_group_name_H-M   'P 1'
_cell_length_a   11.00118905
_cell_length_b   11.00118905
_cell_length_c   6.76434683
_cell_angle_alpha   89.98621705
_cell_angle_beta   89.98621705
_cell_angle_gamma   141.77697154
_symmetry_Int_Tables_number   1
_chemical_formula_structural   MnCd4S5
_chemical_formula_sum   'Mn2 Cd8 S10'
_cell_volume   506.52642576
_cell_formula_units_Z   2
loop_
 _symmetry_equiv_pos_site_id
 _symmetry_equiv_pos_as_xyz
  1  'x, y, z'
loop_
 _atom_site_type_symbol
 _atom_site_label
 _atom_site_symmetry_multiplicity
 _atom_site_fract_x
 _atom_site_fract_y
 _atom_site_fract_z
 _atom_site_occupancy
  Mn  Mn0  1  0.33524400  0.93274400  0.37605500  1
  Mn  Mn1  1  0.93274400  0.33524400  0.37605500  1
  Cd  Cd2  1  0.66577600  0.26303900  0.87270700  1
  Cd  Cd3  1  0.26303900  0.66577600  0.87270700  1
  Cd  Cd4  1  0.86736100  0.07010200  0.87411100  1
  Cd  Cd5  1  0.46671300  0.46671300  0.87634500  1
  Cd  Cd6  1  0.07010200  0.86736100  0.87411100  1
  Cd  Cd7  1  0.73621200  0.53089100  0.37803600  1
  Cd  Cd8  1  0.53089100  0.73621200  0.37803600  1
  Cd  Cd9  1  0.13065100  0.13065100  0.37740400  1
  S  S10  1  0.66259900  0.25267100  0.49075700  1
  S  S11  1  0.25267100  0.66259900  0.49075700  1
  S  S12  1  0.86999700  0.08003900  0.49390000  1
  S  S13  1  0.46924100  0.46924100  0.49778500  1
  S  S14  1  0.08003900  0.86999700  0.49390000  1
  S  S15  1  0.73410300  0.53257900  0.99757000  1
  S  S16  1  0.33419600  0.93356700  0.01714200  1
  S  S17  1  0.93356700  0.33419600  0.01714200  1
  S  S18  1  0.53257900  0.73410300  0.99757000  1
  S  S19  1  0.13173500  0.13173500  0.99792700  1
