# generated using pymatgen
data_DyGaPd2
_symmetry_space_group_name_H-M   'P 1'
_cell_length_a   5.60809900
_cell_length_b   7.16714900
_cell_length_c   7.40299600
_cell_angle_alpha   90.00000000
_cell_angle_beta   90.00000000
_cell_angle_gamma   90.00000000
_symmetry_Int_Tables_number   1
_chemical_formula_structural   DyGaPd2
_chemical_formula_sum   'Dy4 Ga4 Pd8'
_cell_volume   297.55662190
_cell_formula_units_Z   4
loop_
 _symmetry_equiv_pos_site_id
 _symmetry_equiv_pos_as_xyz
  1  'x, y, z'
loop_
 _atom_site_type_symbol
 _atom_site_label
 _atom_site_symmetry_multiplicity
 _atom_site_fract_x
 _atom_site_fract_y
 _atom_site_fract_z
 _atom_site_occupancy
  Dy  Dy0  1  0.35081100  0.75000000  0.03200000  1
  Dy  Dy1  1  0.14918900  0.75000000  0.53200000  1
  Dy  Dy2  1  0.64918900  0.25000000  0.96800000  1
  Dy  Dy3  1  0.85081100  0.25000000  0.46800000  1
  Ga  Ga4  1  0.64787100  0.75000000  0.38282900  1
  Ga  Ga5  1  0.85212900  0.75000000  0.88282900  1
  Ga  Ga6  1  0.35212900  0.25000000  0.61717100  1
  Ga  Ga7  1  0.14787100  0.25000000  0.11717100  1
  Pd  Pd8  1  0.91208300  0.55078800  0.18064500  1
  Pd  Pd9  1  0.58791700  0.94921200  0.68064500  1
  Pd  Pd10  1  0.08791700  0.05078800  0.81935500  1
  Pd  Pd11  1  0.41208300  0.44921200  0.31935500  1
  Pd  Pd12  1  0.08791700  0.44921200  0.81935500  1
  Pd  Pd13  1  0.41208300  0.05078800  0.31935500  1
  Pd  Pd14  1  0.91208300  0.94921200  0.18064500  1
  Pd  Pd15  1  0.58791700  0.55078800  0.68064500  1
