# generated using pymatgen
data_Sr2V2Se3O13
_symmetry_space_group_name_H-M   'P 1'
_cell_length_a   9.93660300
_cell_length_b   8.57845200
_cell_length_c   15.06162662
_cell_angle_alpha   83.09482779
_cell_angle_beta   90.00000000
_cell_angle_gamma   90.00000000
_symmetry_Int_Tables_number   1
_chemical_formula_structural   Sr2V2Se3O13
_chemical_formula_sum   'Sr8 V8 Se12 O52'
_cell_volume   1274.55066166
_cell_formula_units_Z   4
loop_
 _symmetry_equiv_pos_site_id
 _symmetry_equiv_pos_as_xyz
  1  'x, y, z'
loop_
 _atom_site_type_symbol
 _atom_site_label
 _atom_site_symmetry_multiplicity
 _atom_site_fract_x
 _atom_site_fract_y
 _atom_site_fract_z
 _atom_site_occupancy
  Sr  Sr0  1  0.68267900  0.85651800  0.04109900  1
  Sr  Sr1  1  0.18267900  0.64348200  0.95890100  1
  Sr  Sr2  1  0.31732100  0.14348200  0.95890100  1
  Sr  Sr3  1  0.81732100  0.35651800  0.04109900  1
  Sr  Sr4  1  0.77976400  0.90577900  0.35351800  1
  Sr  Sr5  1  0.27976400  0.59422100  0.64648200  1
  Sr  Sr6  1  0.22023600  0.09422100  0.64648200  1
  Sr  Sr7  1  0.72023600  0.40577900  0.35351800  1
  V  V8  1  0.00771100  0.95879900  0.13435400  1
  V  V9  1  0.50771100  0.54120100  0.86564600  1
  V  V10  1  0.99228900  0.04120100  0.86564600  1
  V  V11  1  0.49228900  0.45879900  0.13435400  1
  V  V12  1  0.55284300  0.90413600  0.58355300  1
  V  V13  1  0.05284300  0.59586400  0.41644700  1
  V  V14  1  0.44715700  0.09586400  0.41644700  1
  V  V15  1  0.94715700  0.40413600  0.58355300  1
  Se  Se16  1  0.45750300  0.90307000  0.78860800  1
  Se  Se17  1  0.95750300  0.59693000  0.21139200  1
  Se  Se18  1  0.54249700  0.09693000  0.21139200  1
  Se  Se19  1  0.04249700  0.40307000  0.78860800  1
  Se  Se20  1  0.45777600  0.70294200  0.41918600  1
  Se  Se21  1  0.95777700  0.79705800  0.58081400  1
  Se  Se22  1  0.54222400  0.29705800  0.58081400  1
  Se  Se23  1  0.04222400  0.20294200  0.41918600  1
  Se  Se24  1  0.32417200  0.79101800  0.14594200  1
  Se  Se25  1  0.82417200  0.70898200  0.85405800  1
  Se  Se26  1  0.67582800  0.20898200  0.85405800  1
  Se  Se27  1  0.17582800  0.29101800  0.14594200  1
  O  O28  1  0.98136100  0.99098700  0.23902900  1
  O  O29  1  0.48136100  0.50901300  0.76097100  1
  O  O30  1  0.01863900  0.00901300  0.76097100  1
  O  O31  1  0.51863900  0.49098700  0.23902900  1
  O  O32  1  0.89310400  0.06278200  0.06809900  1
  O  O33  1  0.39310400  0.43721800  0.93190100  1
  O  O34  1  0.10689600  0.93721800  0.93190100  1
  O  O35  1  0.60689600  0.56278200  0.06809900  1
  O  O36  1  0.33864200  0.60455800  0.10819700  1
  O  O37  1  0.83864200  0.89544200  0.89180300  1
  O  O38  1  0.66135800  0.39544200  0.89180300  1
  O  O39  1  0.16135800  0.10455800  0.10819700  1
  O  O40  1  0.40120300  0.73802100  0.86426300  1
  O  O41  1  0.90120300  0.76197900  0.13573700  1
  O  O42  1  0.59879700  0.26197900  0.13573700  1
  O  O43  1  0.09879700  0.23802100  0.86426300  1
  O  O44  1  0.15674100  0.80465100  0.11067600  1
  O  O45  1  0.65674100  0.69534900  0.88932400  1
  O  O46  1  0.84325900  0.19534900  0.88932400  1
  O  O47  1  0.34325900  0.30465100  0.11067600  1
  O  O48  1  0.66568700  0.81046800  0.65000100  1
  O  O49  1  0.16568700  0.68953200  0.34999900  1
  O  O50  1  0.33431300  0.18953200  0.34999900  1
  O  O51  1  0.83431300  0.31046800  0.65000100  1
  O  O52  1  0.63176300  0.96755600  0.48462400  1
  O  O53  1  0.13176300  0.53244400  0.51537600  1
  O  O54  1  0.36823700  0.03244400  0.51537600  1
  O  O55  1  0.86823700  0.46755600  0.48462400  1
  O  O56  1  0.44590600  0.89474400  0.36465200  1
  O  O57  1  0.94590600  0.60525600  0.63534800  1
  O  O58  1  0.55409400  0.10525600  0.63534800  1
  O  O59  1  0.05409400  0.39474400  0.36465200  1
  O  O60  1  0.45705400  0.72750200  0.53502800  1
  O  O61  1  0.95705400  0.77249800  0.46497200  1
  O  O62  1  0.54294600  0.27249800  0.46497200  1
  O  O63  1  0.04294600  0.22750200  0.53502800  1
  O  O64  1  0.39339300  0.85357400  0.68749700  1
  O  O65  1  0.89339300  0.64642600  0.31250300  1
  O  O66  1  0.60660700  0.14642600  0.31250300  1
  O  O67  1  0.10660700  0.35357400  0.68749700  1
  O  O68  1  0.34260400  0.04022800  0.80942600  1
  O  O69  1  0.84260400  0.45977200  0.19057400  1
  O  O70  1  0.65739600  0.95977200  0.19057400  1
  O  O71  1  0.15739600  0.54022800  0.80942600  1
  O  O72  1  0.40998400  0.90245800  0.06305800  1
  O  O73  1  0.90998400  0.59754200  0.93694200  1
  O  O74  1  0.59001600  0.09754200  0.93694200  1
  O  O75  1  0.09001600  0.40245800  0.06305800  1
  O  O76  1  0.62073900  0.66395100  0.39801800  1
  O  O77  1  0.12073900  0.83604900  0.60198200  1
  O  O78  1  0.37926100  0.33604900  0.60198200  1
  O  O79  1  0.87926100  0.16395100  0.39801800  1
