# generated using pymatgen
data_Tm2Cr2C3
_symmetry_space_group_name_H-M   'P 1'
_cell_length_a   5.47564950
_cell_length_b   5.47564950
_cell_length_c   5.50981264
_cell_angle_alpha   74.33551733
_cell_angle_beta   74.33551733
_cell_angle_gamma   35.18843989
_symmetry_Int_Tables_number   1
_chemical_formula_structural   Tm2Cr2C3
_chemical_formula_sum   'Tm2 Cr2 C3'
_cell_volume   91.30007933
_cell_formula_units_Z   1
loop_
 _symmetry_equiv_pos_site_id
 _symmetry_equiv_pos_as_xyz
  1  'x, y, z'
loop_
 _atom_site_type_symbol
 _atom_site_label
 _atom_site_symmetry_multiplicity
 _atom_site_fract_x
 _atom_site_fract_y
 _atom_site_fract_z
 _atom_site_occupancy
  Tm  Tm0  1  0.39161800  0.39161800  0.31645300  1
  Tm  Tm1  1  0.60838200  0.60838200  0.68354700  1
  Cr  Cr2  1  0.15497600  0.15497600  0.11336200  1
  Cr  Cr3  1  0.84502400  0.84502400  0.88663800  1
  C  C4  1  0.71920300  0.71920300  0.23544400  1
  C  C5  1  0.28079700  0.28079700  0.76455600  1
  C  C6  1  0.00000000  0.00000000  0.00000000  1
