# generated using pymatgen
data_LaAl3Cu
_symmetry_space_group_name_H-M   'P 1'
_cell_length_a   6.16412408
_cell_length_b   6.16412408
_cell_length_c   6.16412408
_cell_angle_alpha   139.07494785
_cell_angle_beta   139.07494785
_cell_angle_gamma   59.26059000
_symmetry_Int_Tables_number   1
_chemical_formula_structural   LaAl3Cu
_chemical_formula_sum   'La1 Al3 Cu1'
_cell_volume   99.52685222
_cell_formula_units_Z   1
loop_
 _symmetry_equiv_pos_site_id
 _symmetry_equiv_pos_as_xyz
  1  'x, y, z'
loop_
 _atom_site_type_symbol
 _atom_site_label
 _atom_site_symmetry_multiplicity
 _atom_site_fract_x
 _atom_site_fract_y
 _atom_site_fract_z
 _atom_site_occupancy
  La  La0  1  0.99752600  0.99752600  0.00000000  1
  Al  Al1  1  0.40279900  0.40279900  0.00000000  1
  Al  Al2  1  0.24650500  0.74650500  0.50000000  1
  Al  Al3  1  0.74650500  0.24650500  0.50000000  1
  Cu  Cu4  1  0.63066500  0.63066500  0.00000000  1
