# generated using pymatgen
data_Tm2B6Rh
_symmetry_space_group_name_H-M   'P 1'
_cell_length_a   3.62247300
_cell_length_b   9.11686700
_cell_length_c   11.43741300
_cell_angle_alpha   90.00000000
_cell_angle_beta   90.00000000
_cell_angle_gamma   90.00000000
_symmetry_Int_Tables_number   1
_chemical_formula_structural   Tm2B6Rh
_chemical_formula_sum   'Tm8 B24 Rh4'
_cell_volume   377.72747884
_cell_formula_units_Z   4
loop_
 _symmetry_equiv_pos_site_id
 _symmetry_equiv_pos_as_xyz
  1  'x, y, z'
loop_
 _atom_site_type_symbol
 _atom_site_label
 _atom_site_symmetry_multiplicity
 _atom_site_fract_x
 _atom_site_fract_y
 _atom_site_fract_z
 _atom_site_occupancy
  Tm  Tm0  1  0.50000000  0.32205600  0.41326000  1
  Tm  Tm1  1  0.50000000  0.67794400  0.58674000  1
  Tm  Tm2  1  0.50000000  0.17794400  0.91326000  1
  Tm  Tm3  1  0.50000000  0.82205600  0.08674000  1
  Tm  Tm4  1  0.50000000  0.44484200  0.12594000  1
  Tm  Tm5  1  0.50000000  0.55515800  0.87406000  1
  Tm  Tm6  1  0.50000000  0.05515800  0.62594000  1
  Tm  Tm7  1  0.50000000  0.94484200  0.37406000  1
  B  B8  1  0.00000000  0.10989600  0.46988900  1
  B  B9  1  0.00000000  0.89010400  0.53011100  1
  B  B10  1  0.00000000  0.39010400  0.96988900  1
  B  B11  1  0.00000000  0.60989600  0.03011100  1
  B  B12  1  0.00000000  0.13351200  0.31603500  1
  B  B13  1  0.00000000  0.86648800  0.68396500  1
  B  B14  1  0.00000000  0.36648800  0.81603500  1
  B  B15  1  0.00000000  0.63351200  0.18396500  1
  B  B16  1  0.00000000  0.05329800  0.06581500  1
  B  B17  1  0.00000000  0.94670200  0.93418500  1
  B  B18  1  0.00000000  0.44670200  0.56581500  1
  B  B19  1  0.00000000  0.55329800  0.43418500  1
  B  B20  1  0.00000000  0.48281000  0.28771800  1
  B  B21  1  0.00000000  0.51719000  0.71228200  1
  B  B22  1  0.00000000  0.01719000  0.78771800  1
  B  B23  1  0.00000000  0.98281000  0.21228200  1
  B  B24  1  0.00000000  0.25063000  0.07918600  1
  B  B25  1  0.00000000  0.74937000  0.92081400  1
  B  B26  1  0.00000000  0.24937000  0.57918600  1
  B  B27  1  0.00000000  0.75063000  0.42081400  1
  B  B28  1  0.00000000  0.29508000  0.23507300  1
  B  B29  1  0.00000000  0.70492000  0.76492700  1
  B  B30  1  0.00000000  0.20492000  0.73507300  1
  B  B31  1  0.00000000  0.79508000  0.26492700  1
  Rh  Rh32  1  0.50000000  0.13994300  0.17858400  1
  Rh  Rh33  1  0.50000000  0.86005700  0.82141600  1
  Rh  Rh34  1  0.50000000  0.36005700  0.67858400  1
  Rh  Rh35  1  0.50000000  0.63994300  0.32141600  1
