# generated using pymatgen
data_ZnFe2(P2O7)2
_symmetry_space_group_name_H-M   'P 1'
_cell_length_a   9.05586100
_cell_length_b   10.29986500
_cell_length_c   12.40989100
_cell_angle_alpha   90.00000000
_cell_angle_beta   90.00000000
_cell_angle_gamma   90.00000000
_symmetry_Int_Tables_number   1
_chemical_formula_structural   ZnFe2(P2O7)2
_chemical_formula_sum   'Zn4 Fe8 P16 O56'
_cell_volume   1157.52198198
_cell_formula_units_Z   4
loop_
 _symmetry_equiv_pos_site_id
 _symmetry_equiv_pos_as_xyz
  1  'x, y, z'
loop_
 _atom_site_type_symbol
 _atom_site_label
 _atom_site_symmetry_multiplicity
 _atom_site_fract_x
 _atom_site_fract_y
 _atom_site_fract_z
 _atom_site_occupancy
  Zn  Zn0  1  0.24562200  0.61817900  0.75000000  1
  Zn  Zn1  1  0.74562200  0.88182100  0.75000000  1
  Zn  Zn2  1  0.75437800  0.38182100  0.25000000  1
  Zn  Zn3  1  0.25437800  0.11817900  0.25000000  1
  Fe  Fe4  1  0.25115500  0.62083900  0.98926600  1
  Fe  Fe5  1  0.75115500  0.87916100  0.51073400  1
  Fe  Fe6  1  0.74884500  0.37916100  0.48926600  1
  Fe  Fe7  1  0.24884500  0.12083900  0.01073400  1
  Fe  Fe8  1  0.74884500  0.37916100  0.01073400  1
  Fe  Fe9  1  0.24884500  0.12083900  0.48926600  1
  Fe  Fe10  1  0.25115500  0.62083900  0.51073400  1
  Fe  Fe11  1  0.75115500  0.87916100  0.98926600  1
  P  P12  1  0.58600700  0.62017500  0.86690900  1
  P  P13  1  0.08600700  0.87982500  0.63309100  1
  P  P14  1  0.41399300  0.37982500  0.36690900  1
  P  P15  1  0.91399300  0.12017500  0.13309100  1
  P  P16  1  0.41399300  0.37982500  0.13309100  1
  P  P17  1  0.91399300  0.12017500  0.36690900  1
  P  P18  1  0.58600700  0.62017500  0.63309100  1
  P  P19  1  0.08600700  0.87982500  0.86690900  1
  P  P20  1  0.57303300  0.13404600  0.87281500  1
  P  P21  1  0.07303300  0.36595400  0.62718500  1
  P  P22  1  0.42696700  0.86595400  0.37281500  1
  P  P23  1  0.92696700  0.63404600  0.12718500  1
  P  P24  1  0.42696700  0.86595400  0.12718500  1
  P  P25  1  0.92696700  0.63404600  0.37281500  1
  P  P26  1  0.57303300  0.13404600  0.62718500  1
  P  P27  1  0.07303300  0.36595400  0.87281500  1
  O  O28  1  0.12952400  0.93701700  0.75000000  1
  O  O29  1  0.62952400  0.56298300  0.75000000  1
  O  O30  1  0.87047600  0.06298300  0.25000000  1
  O  O31  1  0.37047600  0.43701700  0.25000000  1
  O  O32  1  0.04773900  0.31989300  0.75000000  1
  O  O33  1  0.54773900  0.18010700  0.75000000  1
  O  O34  1  0.95226100  0.68010700  0.25000000  1
  O  O35  1  0.45226100  0.81989300  0.25000000  1
  O  O36  1  0.92130200  0.39120500  0.57967900  1
  O  O37  1  0.42130200  0.10879500  0.92032100  1
  O  O38  1  0.07869800  0.60879500  0.07967900  1
  O  O39  1  0.57869800  0.89120500  0.42032100  1
  O  O40  1  0.07869800  0.60879500  0.42032100  1
  O  O41  1  0.57869800  0.89120500  0.07967900  1
  O  O42  1  0.92130200  0.39120500  0.92032100  1
  O  O43  1  0.42130200  0.10879500  0.57967900  1
  O  O44  1  0.15219500  0.25497400  0.92818800  1
  O  O45  1  0.65219500  0.24502600  0.57181200  1
  O  O46  1  0.84780500  0.74502600  0.42818800  1
  O  O47  1  0.34780500  0.75497400  0.07181200  1
  O  O48  1  0.84780500  0.74502600  0.07181200  1
  O  O49  1  0.34780500  0.75497400  0.42818800  1
  O  O50  1  0.15219500  0.25497400  0.57181200  1
  O  O51  1  0.65219500  0.24502600  0.92818800  1
  O  O52  1  0.41635500  0.62840800  0.86845500  1
  O  O53  1  0.91635500  0.87159200  0.63154500  1
  O  O54  1  0.58364500  0.37159200  0.36845500  1
  O  O55  1  0.08364500  0.12840800  0.13154500  1
  O  O56  1  0.58364500  0.37159200  0.13154500  1
  O  O57  1  0.08364500  0.12840800  0.36845500  1
  O  O58  1  0.41635500  0.62840800  0.63154500  1
  O  O59  1  0.91635500  0.87159200  0.86845500  1
  O  O60  1  0.66614800  0.00864900  0.86849100  1
  O  O61  1  0.16614800  0.49135100  0.63150900  1
  O  O62  1  0.33385200  0.99135100  0.36849100  1
  O  O63  1  0.83385200  0.50864900  0.13150900  1
  O  O64  1  0.33385200  0.99135100  0.13150900  1
  O  O65  1  0.83385200  0.50864900  0.36849100  1
  O  O66  1  0.66614800  0.00864900  0.63150900  1
  O  O67  1  0.16614800  0.49135100  0.86849100  1
  O  O68  1  0.15837600  0.74447000  0.87308200  1
  O  O69  1  0.65837600  0.75553000  0.62691800  1
  O  O70  1  0.84162400  0.25553000  0.37308200  1
  O  O71  1  0.34162400  0.24447000  0.12691800  1
  O  O72  1  0.84162400  0.25553000  0.12691800  1
  O  O73  1  0.34162400  0.24447000  0.37308200  1
  O  O74  1  0.15837600  0.74447000  0.62691800  1
  O  O75  1  0.65837600  0.75553000  0.87308200  1
  O  O76  1  0.14787200  0.97222800  0.94886800  1
  O  O77  1  0.64787200  0.52777200  0.55113200  1
  O  O78  1  0.85212800  0.02777200  0.44886800  1
  O  O79  1  0.35212800  0.47222800  0.05113200  1
  O  O80  1  0.85212800  0.02777200  0.05113200  1
  O  O81  1  0.35212800  0.47222800  0.44886800  1
  O  O82  1  0.14787200  0.97222800  0.55113200  1
  O  O83  1  0.64787200  0.52777200  0.94886800  1
