# generated using pymatgen
data_Ga7Sb7(Te4Cl13)2
_symmetry_space_group_name_H-M   'P 1'
_cell_length_a   11.05977400
_cell_length_b   16.04356560
_cell_length_c   19.39909494
_cell_angle_alpha   111.91139249
_cell_angle_beta   96.15506175
_cell_angle_gamma   88.61153235
_symmetry_Int_Tables_number   1
_chemical_formula_structural   Ga7Sb7(Te4Cl13)2
_chemical_formula_sum   'Ga14 Sb14 Te16 Cl52'
_cell_volume   3174.61360499
_cell_formula_units_Z   2
loop_
 _symmetry_equiv_pos_site_id
 _symmetry_equiv_pos_as_xyz
  1  'x, y, z'
loop_
 _atom_site_type_symbol
 _atom_site_label
 _atom_site_symmetry_multiplicity
 _atom_site_fract_x
 _atom_site_fract_y
 _atom_site_fract_z
 _atom_site_occupancy
  Ga  Ga0  1  0.77772300  0.13739700  0.59961500  1
  Ga  Ga1  1  0.22227700  0.86260300  0.40038500  1
  Ga  Ga2  1  0.30157300  0.69333400  0.93936700  1
  Ga  Ga3  1  0.69842700  0.30666600  0.06063300  1
  Ga  Ga4  1  0.19823300  0.02672200  0.15907100  1
  Ga  Ga5  1  0.80176700  0.97327800  0.84092900  1
  Ga  Ga6  1  0.78770200  0.47745500  0.87124200  1
  Ga  Ga7  1  0.21229800  0.52254500  0.12875800  1
  Ga  Ga8  1  0.81094300  0.63660500  0.75993900  1
  Ga  Ga9  1  0.18905700  0.36339500  0.24006100  1
  Ga  Ga10  1  0.08145200  0.34280700  0.54771900  1
  Ga  Ga11  1  0.91854800  0.65719300  0.45228100  1
  Ga  Ga12  1  0.43818600  0.33772100  0.54745200  1
  Ga  Ga13  1  0.56181400  0.66227900  0.45254800  1
  Sb  Sb14  1  0.27565300  0.03769100  0.76585100  1
  Sb  Sb15  1  0.72434700  0.96230900  0.23414900  1
  Sb  Sb16  1  0.11892000  0.80969800  0.78848000  1
  Sb  Sb17  1  0.88108000  0.19030200  0.21152000  1
  Sb  Sb18  1  0.25324200  0.78880300  0.59251300  1
  Sb  Sb19  1  0.74675800  0.21119700  0.40748700  1
  Sb  Sb20  1  0.48409300  0.82441100  0.78159500  1
  Sb  Sb21  1  0.51590700  0.17558900  0.21840500  1
  Sb  Sb22  1  0.48275400  0.26102100  0.76867400  1
  Sb  Sb23  1  0.51724600  0.73897900  0.23132600  1
  Sb  Sb24  1  0.31764200  0.27775800  0.95224200  1
  Sb  Sb25  1  0.68235800  0.72224200  0.04775800  1
  Sb  Sb26  1  0.10878500  0.27120600  0.76381100  1
  Sb  Sb27  1  0.89121500  0.72879400  0.23618900  1
  Te  Te28  1  0.31219300  0.94389600  0.87324900  1
  Te  Te29  1  0.68780700  0.05610400  0.12675100  1
  Te  Te30  1  0.29260900  0.69175700  0.69436400  1
  Te  Te31  1  0.70739100  0.30824300  0.30563600  1
  Te  Te32  1  0.06360200  0.88628700  0.67861300  1
  Te  Te33  1  0.93639800  0.11371300  0.32138700  1
  Te  Te34  1  0.45847600  0.91043100  0.67362200  1
  Te  Te35  1  0.54152400  0.08956900  0.32637800  1
  Te  Te36  1  0.48680200  0.15205100  0.86095500  1
  Te  Te37  1  0.51319800  0.84794900  0.13904500  1
  Te  Te38  1  0.31346000  0.38613600  0.86138100  1
  Te  Te39  1  0.68654000  0.61386400  0.13861900  1
  Te  Te40  1  0.28198100  0.16774800  0.66863600  1
  Te  Te41  1  0.71801900  0.83225200  0.33136400  1
  Te  Te42  1  0.10239300  0.17985800  0.86776200  1
  Te  Te43  1  0.89760700  0.82014200  0.13223800  1
  Cl  Cl44  1  0.77498200  0.05782100  0.47742500  1
  Cl  Cl45  1  0.22501800  0.94217900  0.52257500  1
  Cl  Cl46  1  0.61759800  0.09621200  0.63904700  1
  Cl  Cl47  1  0.38240200  0.90378800  0.36095300  1
  Cl  Cl48  1  0.94919500  0.10184000  0.65415600  1
  Cl  Cl49  1  0.05080500  0.89816000  0.34584400  1
  Cl  Cl50  1  0.77597000  0.28023600  0.62136300  1
  Cl  Cl51  1  0.22403000  0.71976400  0.37863700  1
  Cl  Cl52  1  0.17305700  0.79924700  0.98584800  1
  Cl  Cl53  1  0.82694300  0.20075300  0.01415200  1
  Cl  Cl54  1  0.38079800  0.62496000  0.01294900  1
  Cl  Cl55  1  0.61920200  0.37504000  0.98705100  1
  Cl  Cl56  1  0.21577000  0.59781900  0.83294600  1
  Cl  Cl57  1  0.78423000  0.40218100  0.16705400  1
  Cl  Cl58  1  0.46419100  0.75651100  0.91601000  1
  Cl  Cl59  1  0.53580900  0.24348900  0.08399000  1
  Cl  Cl60  1  0.22470300  0.15047000  0.26057400  1
  Cl  Cl61  1  0.77529700  0.84953000  0.73942600  1
  Cl  Cl62  1  0.33973100  0.02863700  0.08721400  1
  Cl  Cl63  1  0.66026900  0.97136300  0.91278600  1
  Cl  Cl64  1  0.21289900  0.91278000  0.19418400  1
  Cl  Cl65  1  0.78710100  0.08722000  0.80581600  1
  Cl  Cl66  1  0.01595000  0.02697900  0.09968400  1
  Cl  Cl67  1  0.98405000  0.97302100  0.90031600  1
  Cl  Cl68  1  0.86357700  0.49887500  0.77210800  1
  Cl  Cl69  1  0.13642300  0.50112500  0.22789200  1
  Cl  Cl70  1  0.82621100  0.33598800  0.84604300  1
  Cl  Cl71  1  0.17378900  0.66401200  0.15395700  1
  Cl  Cl72  1  0.88840000  0.56870700  0.97456900  1
  Cl  Cl73  1  0.11160000  0.43129300  0.02543100  1
  Cl  Cl74  1  0.59734100  0.51243800  0.86640200  1
  Cl  Cl75  1  0.40265900  0.48756200  0.13359800  1
  Cl  Cl76  1  0.94687000  0.63943600  0.68663500  1
  Cl  Cl77  1  0.05313000  0.36056400  0.31336500  1
  Cl  Cl78  1  0.83189100  0.73513400  0.87315000  1
  Cl  Cl79  1  0.16810900  0.26486600  0.12685000  1
  Cl  Cl80  1  0.62789000  0.62005800  0.70292900  1
  Cl  Cl81  1  0.37211000  0.37994200  0.29707100  1
  Cl  Cl82  1  0.24952300  0.37666400  0.49807100  1
  Cl  Cl83  1  0.75047700  0.62333600  0.50192900  1
  Cl  Cl84  1  0.11925200  0.41488400  0.66773400  1
  Cl  Cl85  1  0.88074800  0.58511600  0.33226600  1
  Cl  Cl86  1  0.92730100  0.39263800  0.49496900  1
  Cl  Cl87  1  0.07269900  0.60736200  0.50503100  1
  Cl  Cl88  1  0.07207500  0.19811600  0.51683000  1
  Cl  Cl89  1  0.92792500  0.80188400  0.48317000  1
  Cl  Cl90  1  0.45255200  0.40685800  0.66803600  1
  Cl  Cl91  1  0.54744800  0.59314200  0.33196400  1
  Cl  Cl92  1  0.56400200  0.38530000  0.49051200  1
  Cl  Cl93  1  0.43599800  0.61470000  0.50948800  1
  Cl  Cl94  1  0.43467500  0.19247300  0.51171800  1
  Cl  Cl95  1  0.56532500  0.80752700  0.48828200  1
