# generated using pymatgen
data_YInCu
_symmetry_space_group_name_H-M   'P 1'
_cell_length_a   7.51046123
_cell_length_b   7.51046123
_cell_length_c   3.91529700
_cell_angle_alpha   90.00000000
_cell_angle_beta   90.00000000
_cell_angle_gamma   119.99999324
_symmetry_Int_Tables_number   1
_chemical_formula_structural   YInCu
_chemical_formula_sum   'Y3 In3 Cu3'
_cell_volume   191.26195487
_cell_formula_units_Z   3
loop_
 _symmetry_equiv_pos_site_id
 _symmetry_equiv_pos_as_xyz
  1  'x, y, z'
loop_
 _atom_site_type_symbol
 _atom_site_label
 _atom_site_symmetry_multiplicity
 _atom_site_fract_x
 _atom_site_fract_y
 _atom_site_fract_z
 _atom_site_occupancy
  Y  Y0  1  0.40915400  0.00000000  0.50000000  1
  Y  Y1  1  0.00000000  0.40915400  0.50000000  1
  Y  Y2  1  0.59084600  0.59084600  0.50000000  1
  In  In3  1  0.74615800  0.00000000  0.00000000  1
  In  In4  1  0.00000000  0.74615800  0.00000000  1
  In  In5  1  0.25384200  0.25384200  0.00000000  1
  Cu  Cu6  1  0.33333300  0.66666700  0.00000000  1
  Cu  Cu7  1  0.66666700  0.33333300  0.00000000  1
  Cu  Cu8  1  0.00000000  0.00000000  0.50000000  1
