# generated using pymatgen
data_Yb(NO3)3
_symmetry_space_group_name_H-M   'P 1'
_cell_length_a   6.31577900
_cell_length_b   10.02636600
_cell_length_c   11.36760835
_cell_angle_alpha   88.85058582
_cell_angle_beta   90.00000000
_cell_angle_gamma   90.00000000
_symmetry_Int_Tables_number   1
_chemical_formula_structural   Yb(NO3)3
_chemical_formula_sum   'Yb4 N12 O36'
_cell_volume   719.70113104
_cell_formula_units_Z   4
loop_
 _symmetry_equiv_pos_site_id
 _symmetry_equiv_pos_as_xyz
  1  'x, y, z'
loop_
 _atom_site_type_symbol
 _atom_site_label
 _atom_site_symmetry_multiplicity
 _atom_site_fract_x
 _atom_site_fract_y
 _atom_site_fract_z
 _atom_site_occupancy
  Yb  Yb0  1  0.67789000  0.28128600  0.74527500  1
  Yb  Yb1  1  0.17789000  0.21871400  0.25472500  1
  Yb  Yb2  1  0.32211000  0.71871400  0.25472500  1
  Yb  Yb3  1  0.82211000  0.78128600  0.74527500  1
  N  N4  1  0.37789700  0.17651800  0.48516200  1
  N  N5  1  0.87789700  0.32348200  0.51483800  1
  N  N6  1  0.62210300  0.82348200  0.51483800  1
  N  N7  1  0.12210300  0.67651800  0.48516200  1
  N  N8  1  0.72661400  0.19939400  0.20883400  1
  N  N9  1  0.22661400  0.30060600  0.79116600  1
  N  N10  1  0.27338600  0.80060600  0.79116600  1
  N  N11  1  0.77338600  0.69939400  0.20883400  1
  N  N12  1  0.71541600  0.52927500  0.88124300  1
  N  N13  1  0.21541600  0.97072500  0.11875700  1
  N  N14  1  0.28458400  0.47072500  0.11875700  1
  N  N15  1  0.78458400  0.02927500  0.88124300  1
  O  O16  1  0.41328600  0.28037000  0.42270300  1
  O  O17  1  0.91328600  0.21963000  0.57729700  1
  O  O18  1  0.58671400  0.71963000  0.57729700  1
  O  O19  1  0.08671400  0.78037000  0.42270300  1
  O  O20  1  0.26898700  0.08523500  0.43998200  1
  O  O21  1  0.76898700  0.41476500  0.56001800  1
  O  O22  1  0.73101300  0.91476500  0.56001800  1
  O  O23  1  0.23101300  0.58523500  0.43998200  1
  O  O24  1  0.44741800  0.16533700  0.58788800  1
  O  O25  1  0.94741800  0.33466300  0.41211200  1
  O  O26  1  0.55258200  0.83466300  0.41211200  1
  O  O27  1  0.05258200  0.66533700  0.58788800  1
  O  O28  1  0.81858200  0.11005000  0.26987600  1
  O  O29  1  0.31858200  0.38995000  0.73012400  1
  O  O30  1  0.18141800  0.88995000  0.73012400  1
  O  O31  1  0.68141800  0.61005000  0.26987600  1
  O  O32  1  0.53084900  0.19394500  0.19104000  1
  O  O33  1  0.03084900  0.30605500  0.80896000  1
  O  O34  1  0.46915100  0.80605500  0.80896000  1
  O  O35  1  0.96915100  0.69394500  0.19104000  1
  O  O36  1  0.83548000  0.29355000  0.16573400  1
  O  O37  1  0.33548000  0.20645000  0.83426600  1
  O  O38  1  0.16452000  0.70645000  0.83426600  1
  O  O39  1  0.66452000  0.79355000  0.16573400  1
  O  O40  1  0.73217100  0.54185800  0.76878400  1
  O  O41  1  0.23217100  0.95814200  0.23121600  1
  O  O42  1  0.26782900  0.45814200  0.23121600  1
  O  O43  1  0.76782900  0.04185800  0.76878400  1
  O  O44  1  0.66109900  0.41797700  0.92359800  1
  O  O45  1  0.16109900  0.08202300  0.07640200  1
  O  O46  1  0.33890100  0.58202300  0.07640200  1
  O  O47  1  0.83890100  0.91797700  0.92359800  1
  O  O48  1  0.75500700  0.62778500  0.94311200  1
  O  O49  1  0.25500700  0.87221500  0.05688800  1
  O  O50  1  0.24499300  0.37221500  0.05688800  1
  O  O51  1  0.74499300  0.12778500  0.94311200  1
