# generated using pymatgen
data_Pr10Se19
_symmetry_space_group_name_H-M   'P 1'
_cell_length_a   9.39952600
_cell_length_b   9.39952600
_cell_length_c   17.17786100
_cell_angle_alpha   90.00000000
_cell_angle_beta   90.00000000
_cell_angle_gamma   90.00000000
_symmetry_Int_Tables_number   1
_chemical_formula_structural   Pr10Se19
_chemical_formula_sum   'Pr20 Se38'
_cell_volume   1517.68272646
_cell_formula_units_Z   2
loop_
 _symmetry_equiv_pos_site_id
 _symmetry_equiv_pos_as_xyz
  1  'x, y, z'
loop_
 _atom_site_type_symbol
 _atom_site_label
 _atom_site_symmetry_multiplicity
 _atom_site_fract_x
 _atom_site_fract_y
 _atom_site_fract_z
 _atom_site_occupancy
  Pr  Pr0  1  0.00000000  0.50000000  0.13342300  1
  Pr  Pr1  1  0.00000000  0.50000000  0.63342300  1
  Pr  Pr2  1  0.50000000  0.00000000  0.36657700  1
  Pr  Pr3  1  0.50000000  0.00000000  0.86657700  1
  Pr  Pr4  1  0.39800300  0.30350000  0.64435800  1
  Pr  Pr5  1  0.19650000  0.89800300  0.14435800  1
  Pr  Pr6  1  0.80350000  0.10199700  0.14435800  1
  Pr  Pr7  1  0.60199700  0.69650000  0.64435800  1
  Pr  Pr8  1  0.10199700  0.19650000  0.85564200  1
  Pr  Pr9  1  0.30350000  0.60199700  0.35564200  1
  Pr  Pr10  1  0.69650000  0.39800300  0.35564200  1
  Pr  Pr11  1  0.89800300  0.80350000  0.85564200  1
  Pr  Pr12  1  0.20664400  0.90288200  0.63021000  1
  Pr  Pr13  1  0.59711800  0.70664400  0.13021000  1
  Pr  Pr14  1  0.40288200  0.29335600  0.13021000  1
  Pr  Pr15  1  0.79335600  0.09711800  0.63021000  1
  Pr  Pr16  1  0.29335600  0.59711800  0.86979000  1
  Pr  Pr17  1  0.90288200  0.79335600  0.36979000  1
  Pr  Pr18  1  0.09711800  0.20664400  0.36979000  1
  Pr  Pr19  1  0.70664400  0.40288200  0.86979000  1
  Se  Se20  1  0.00000000  0.50000000  0.81441900  1
  Se  Se21  1  0.00000000  0.50000000  0.31441900  1
  Se  Se22  1  0.50000000  0.00000000  0.68558100  1
  Se  Se23  1  0.50000000  0.00000000  0.18558100  1
  Se  Se24  1  0.39928900  0.30209200  0.31324300  1
  Se  Se25  1  0.19790800  0.89928900  0.81324300  1
  Se  Se26  1  0.80209200  0.10071100  0.81324300  1
  Se  Se27  1  0.60071100  0.69790800  0.31324300  1
  Se  Se28  1  0.10071100  0.19790800  0.18675700  1
  Se  Se29  1  0.30209200  0.60071100  0.68675700  1
  Se  Se30  1  0.69790800  0.39928900  0.68675700  1
  Se  Se31  1  0.89928900  0.80209200  0.18675700  1
  Se  Se32  1  0.79895000  0.09767900  0.32131400  1
  Se  Se33  1  0.40232100  0.29895000  0.82131400  1
  Se  Se34  1  0.59767900  0.70105000  0.82131400  1
  Se  Se35  1  0.20105000  0.90232100  0.32131400  1
  Se  Se36  1  0.70105000  0.40232100  0.17868600  1
  Se  Se37  1  0.09767900  0.20105000  0.67868600  1
  Se  Se38  1  0.90232100  0.79895000  0.67868600  1
  Se  Se39  1  0.29895000  0.59767900  0.17868600  1
  Se  Se40  1  0.81616500  0.63266100  0.99918300  1
  Se  Se41  1  0.86733900  0.31616500  0.49918300  1
  Se  Se42  1  0.13266100  0.68383500  0.49918300  1
  Se  Se43  1  0.18383500  0.36733900  0.99918300  1
  Se  Se44  1  0.68383500  0.86733900  0.50081700  1
  Se  Se45  1  0.63266100  0.18383500  0.00081700  1
  Se  Se46  1  0.36733900  0.81616500  0.00081700  1
  Se  Se47  1  0.31616500  0.13266100  0.50081700  1
  Se  Se48  1  0.07608600  0.72026300  0.00020600  1
  Se  Se49  1  0.77973700  0.57608600  0.50020600  1
  Se  Se50  1  0.22026300  0.42391400  0.50020600  1
  Se  Se51  1  0.92391400  0.27973700  0.00020600  1
  Se  Se52  1  0.42391400  0.77973700  0.49979400  1
  Se  Se53  1  0.72026300  0.92391400  0.99979400  1
  Se  Se54  1  0.27973700  0.07608600  0.99979400  1
  Se  Se55  1  0.57608600  0.22026300  0.49979400  1
  Se  Se56  1  0.00000000  0.00000000  0.50000000  1
  Se  Se57  1  0.50000000  0.50000000  0.00000000  1
