# generated using pymatgen
data_Cs2CeCl6
_symmetry_space_group_name_H-M   'P 1'
_cell_length_a   7.77143600
_cell_length_b   7.77143600
_cell_length_c   6.17599400
_cell_angle_alpha   90.00000000
_cell_angle_beta   90.00000000
_cell_angle_gamma   120.00000000
_symmetry_Int_Tables_number   1
_chemical_formula_structural   Cs2CeCl6
_chemical_formula_sum   'Cs2 Ce1 Cl6'
_cell_volume   323.02790943
_cell_formula_units_Z   1
loop_
 _symmetry_equiv_pos_site_id
 _symmetry_equiv_pos_as_xyz
  1  'x, y, z'
loop_
 _atom_site_type_symbol
 _atom_site_label
 _atom_site_symmetry_multiplicity
 _atom_site_fract_x
 _atom_site_fract_y
 _atom_site_fract_z
 _atom_site_occupancy
  Cs  Cs0  1  0.33333300  0.66666700  0.25321800  1
  Cs  Cs1  1  0.66666700  0.33333300  0.74678200  1
  Ce  Ce2  1  0.00000000  0.00000000  0.00000000  1
  Cl  Cl3  1  0.16347500  0.32695100  0.76309400  1
  Cl  Cl4  1  0.16347500  0.83652500  0.76309400  1
  Cl  Cl5  1  0.67304900  0.83652500  0.76309400  1
  Cl  Cl6  1  0.83652500  0.67304900  0.23690600  1
  Cl  Cl7  1  0.83652500  0.16347500  0.23690600  1
  Cl  Cl8  1  0.32695100  0.16347500  0.23690600  1
