# generated using pymatgen
data_RbVCuF6
_symmetry_space_group_name_H-M   'P 1'
_cell_length_a   6.97103000
_cell_length_b   7.66737300
_cell_length_c   10.45175700
_cell_angle_alpha   90.00000000
_cell_angle_beta   90.00000000
_cell_angle_gamma   90.00000000
_symmetry_Int_Tables_number   1
_chemical_formula_structural   RbVCuF6
_chemical_formula_sum   'Rb4 V4 Cu4 F24'
_cell_volume   558.64105203
_cell_formula_units_Z   4
loop_
 _symmetry_equiv_pos_site_id
 _symmetry_equiv_pos_as_xyz
  1  'x, y, z'
loop_
 _atom_site_type_symbol
 _atom_site_label
 _atom_site_symmetry_multiplicity
 _atom_site_fract_x
 _atom_site_fract_y
 _atom_site_fract_z
 _atom_site_occupancy
  Rb  Rb0  1  0.01048100  0.25000000  0.62433100  1
  Rb  Rb1  1  0.98951900  0.75000000  0.37566900  1
  Rb  Rb2  1  0.48951900  0.75000000  0.12433100  1
  Rb  Rb3  1  0.51048100  0.25000000  0.87566900  1
  V  V4  1  0.00000000  0.00000000  0.00000000  1
  V  V5  1  0.50000000  0.00000000  0.50000000  1
  V  V6  1  0.00000000  0.50000000  0.00000000  1
  V  V7  1  0.50000000  0.50000000  0.50000000  1
  Cu  Cu8  1  0.20938000  0.25000000  0.25631400  1
  Cu  Cu9  1  0.79062000  0.75000000  0.74368600  1
  Cu  Cu10  1  0.29062000  0.75000000  0.75631400  1
  Cu  Cu11  1  0.70938000  0.25000000  0.24368600  1
  F  F12  1  0.26973600  0.05021100  0.40327500  1
  F  F13  1  0.73026400  0.94978900  0.59672500  1
  F  F14  1  0.23026400  0.94978900  0.90327500  1
  F  F15  1  0.73026400  0.55021100  0.59672500  1
  F  F16  1  0.76973600  0.05021100  0.09672500  1
  F  F17  1  0.26973600  0.44978900  0.40327500  1
  F  F18  1  0.76973600  0.44978900  0.09672500  1
  F  F19  1  0.23026400  0.55021100  0.90327500  1
  F  F20  1  0.57044200  0.25000000  0.51455700  1
  F  F21  1  0.42955800  0.75000000  0.48544300  1
  F  F22  1  0.92955800  0.75000000  0.01455700  1
  F  F23  1  0.07044200  0.25000000  0.98544300  1
  F  F24  1  0.14797400  0.50892500  0.15610200  1
  F  F25  1  0.85202600  0.49107500  0.84389800  1
  F  F26  1  0.35202600  0.49107500  0.65610200  1
  F  F27  1  0.85202600  0.00892500  0.84389800  1
  F  F28  1  0.64797400  0.50892500  0.34389800  1
  F  F29  1  0.14797400  0.99107500  0.15610200  1
  F  F30  1  0.64797400  0.99107500  0.34389800  1
  F  F31  1  0.35202600  0.00892500  0.65610200  1
  F  F32  1  0.45379800  0.25000000  0.17539000  1
  F  F33  1  0.54620200  0.75000000  0.82461000  1
  F  F34  1  0.04620200  0.75000000  0.67539000  1
  F  F35  1  0.95379800  0.25000000  0.32461000  1
