# generated using pymatgen
data_Cs5As(PSe3)4
_symmetry_space_group_name_H-M   'P 1'
_cell_length_a   14.24338700
_cell_length_b   14.24338700
_cell_length_c   7.76650400
_cell_angle_alpha   90.00000000
_cell_angle_beta   90.00000000
_cell_angle_gamma   90.00000000
_symmetry_Int_Tables_number   1
_chemical_formula_structural   Cs5As(PSe3)4
_chemical_formula_sum   'Cs10 As2 P8 Se24'
_cell_volume   1575.62230125
_cell_formula_units_Z   2
loop_
 _symmetry_equiv_pos_site_id
 _symmetry_equiv_pos_as_xyz
  1  'x, y, z'
loop_
 _atom_site_type_symbol
 _atom_site_label
 _atom_site_symmetry_multiplicity
 _atom_site_fract_x
 _atom_site_fract_y
 _atom_site_fract_z
 _atom_site_occupancy
  Cs  Cs0  1  0.00000000  0.00000000  0.50000000  1
  Cs  Cs1  1  0.00000000  0.00000000  0.00000000  1
  Cs  Cs2  1  0.31766200  0.34292700  0.50000000  1
  Cs  Cs3  1  0.68233800  0.65707300  0.50000000  1
  Cs  Cs4  1  0.65707300  0.31766200  0.00000000  1
  Cs  Cs5  1  0.34292700  0.68233800  0.00000000  1
  Cs  Cs6  1  0.32230800  0.96770300  0.50000000  1
  Cs  Cs7  1  0.67769200  0.03229700  0.50000000  1
  Cs  Cs8  1  0.03229700  0.32230800  0.00000000  1
  Cs  Cs9  1  0.96770300  0.67769200  0.00000000  1
  As  As10  1  0.00000000  0.50000000  0.50000000  1
  As  As11  1  0.50000000  0.00000000  0.00000000  1
  P  P12  1  0.20112400  0.60842900  0.50000000  1
  P  P13  1  0.79887600  0.39157100  0.50000000  1
  P  P14  1  0.39157100  0.20112400  0.00000000  1
  P  P15  1  0.60842900  0.79887600  0.00000000  1
  P  P16  1  0.11478800  0.74471400  0.50000000  1
  P  P17  1  0.88521200  0.25528600  0.50000000  1
  P  P18  1  0.25528600  0.11478800  0.00000000  1
  P  P19  1  0.74471400  0.88521200  0.00000000  1
  Se  Se20  1  0.15024400  0.81930100  0.26252700  1
  Se  Se21  1  0.84975600  0.18069900  0.26252700  1
  Se  Se22  1  0.18069900  0.15024400  0.76252700  1
  Se  Se23  1  0.81930100  0.84975600  0.76252700  1
  Se  Se24  1  0.84975600  0.18069900  0.73747300  1
  Se  Se25  1  0.15024400  0.81930100  0.73747300  1
  Se  Se26  1  0.81930100  0.84975600  0.23747300  1
  Se  Se27  1  0.18069900  0.15024400  0.23747300  1
  Se  Se28  1  0.03277100  0.31063000  0.50000000  1
  Se  Se29  1  0.96722900  0.68937000  0.50000000  1
  Se  Se30  1  0.68937000  0.03277100  0.00000000  1
  Se  Se31  1  0.31063000  0.96722900  0.00000000  1
  Se  Se32  1  0.34989800  0.63386800  0.50000000  1
  Se  Se33  1  0.65010200  0.36613200  0.50000000  1
  Se  Se34  1  0.36613200  0.34989800  0.00000000  1
  Se  Se35  1  0.63386800  0.65010200  0.00000000  1
  Se  Se36  1  0.14733900  0.52874800  0.27191900  1
  Se  Se37  1  0.85266100  0.47125200  0.27191900  1
  Se  Se38  1  0.47125200  0.14733900  0.77191900  1
  Se  Se39  1  0.52874800  0.85266100  0.77191900  1
  Se  Se40  1  0.85266100  0.47125200  0.72808100  1
  Se  Se41  1  0.14733900  0.52874800  0.72808100  1
  Se  Se42  1  0.52874800  0.85266100  0.22808100  1
  Se  Se43  1  0.47125200  0.14733900  0.22808100  1
