# generated using pymatgen
data_Sm3(GeRh)2
_symmetry_space_group_name_H-M   'P 1'
_cell_length_a   5.65131900
_cell_length_b   8.06831000
_cell_length_c   13.39160800
_cell_angle_alpha   90.00000000
_cell_angle_beta   90.00000000
_cell_angle_gamma   90.00000000
_symmetry_Int_Tables_number   1
_chemical_formula_structural   Sm3(GeRh)2
_chemical_formula_sum   'Sm12 Ge8 Rh8'
_cell_volume   610.61170764
_cell_formula_units_Z   4
loop_
 _symmetry_equiv_pos_site_id
 _symmetry_equiv_pos_as_xyz
  1  'x, y, z'
loop_
 _atom_site_type_symbol
 _atom_site_label
 _atom_site_symmetry_multiplicity
 _atom_site_fract_x
 _atom_site_fract_y
 _atom_site_fract_z
 _atom_site_occupancy
  Sm  Sm0  1  0.14374500  0.39853400  0.10117100  1
  Sm  Sm1  1  0.85625500  0.60146600  0.89882900  1
  Sm  Sm2  1  0.85625500  0.60146600  0.60117100  1
  Sm  Sm3  1  0.85625500  0.89853400  0.39882900  1
  Sm  Sm4  1  0.14374500  0.39853400  0.39882900  1
  Sm  Sm5  1  0.14374500  0.10146600  0.60117100  1
  Sm  Sm6  1  0.14374500  0.10146600  0.89882900  1
  Sm  Sm7  1  0.85625500  0.89853400  0.10117100  1
  Sm  Sm8  1  0.63541300  0.25908300  0.25000000  1
  Sm  Sm9  1  0.36458700  0.74091700  0.75000000  1
  Sm  Sm10  1  0.36458700  0.75908300  0.25000000  1
  Sm  Sm11  1  0.63541300  0.24091700  0.75000000  1
  Ge  Ge12  1  0.14196400  0.11323200  0.25000000  1
  Ge  Ge13  1  0.85803600  0.88676800  0.75000000  1
  Ge  Ge14  1  0.85803600  0.61323200  0.25000000  1
  Ge  Ge15  1  0.14196400  0.38676800  0.75000000  1
  Ge  Ge16  1  0.63885400  0.25000000  0.00000000  1
  Ge  Ge17  1  0.36114600  0.75000000  0.00000000  1
  Ge  Ge18  1  0.36114600  0.75000000  0.50000000  1
  Ge  Ge19  1  0.63885400  0.25000000  0.50000000  1
  Rh  Rh20  1  0.37074400  0.03518700  0.09225100  1
  Rh  Rh21  1  0.62925600  0.96481300  0.90774900  1
  Rh  Rh22  1  0.62925600  0.96481300  0.59225100  1
  Rh  Rh23  1  0.62925600  0.53518700  0.40774900  1
  Rh  Rh24  1  0.37074400  0.03518700  0.40774900  1
  Rh  Rh25  1  0.37074400  0.46481300  0.59225100  1
  Rh  Rh26  1  0.37074400  0.46481300  0.90774900  1
  Rh  Rh27  1  0.62925600  0.53518700  0.09225100  1
