# generated using pymatgen
data_Tm2(SO4)3
_symmetry_space_group_name_H-M   'P 1'
_cell_length_a   9.21353600
_cell_length_b   9.33182200
_cell_length_c   12.80209100
_cell_angle_alpha   90.00000000
_cell_angle_beta   90.00000000
_cell_angle_gamma   90.00000000
_symmetry_Int_Tables_number   1
_chemical_formula_structural   Tm2(SO4)3
_chemical_formula_sum   'Tm8 S12 O48'
_cell_volume   1100.71197992
_cell_formula_units_Z   4
loop_
 _symmetry_equiv_pos_site_id
 _symmetry_equiv_pos_as_xyz
  1  'x, y, z'
loop_
 _atom_site_type_symbol
 _atom_site_label
 _atom_site_symmetry_multiplicity
 _atom_site_fract_x
 _atom_site_fract_y
 _atom_site_fract_z
 _atom_site_occupancy
  Tm  Tm0  1  0.25130800  0.46594400  0.11685800  1
  Tm  Tm1  1  0.74869200  0.53405600  0.88314200  1
  Tm  Tm2  1  0.24869200  0.96594400  0.38314200  1
  Tm  Tm3  1  0.25130800  0.03405600  0.88314200  1
  Tm  Tm4  1  0.75130800  0.03405600  0.61685800  1
  Tm  Tm5  1  0.74869200  0.96594400  0.11685800  1
  Tm  Tm6  1  0.24869200  0.53405600  0.61685800  1
  Tm  Tm7  1  0.75130800  0.46594400  0.38314200  1
  S  S8  1  0.52871500  0.25000000  0.00000000  1
  S  S9  1  0.47128500  0.75000000  0.00000000  1
  S  S10  1  0.97128500  0.75000000  0.50000000  1
  S  S11  1  0.02871500  0.25000000  0.50000000  1
  S  S12  1  0.10517000  0.11774700  0.14453500  1
  S  S13  1  0.89483000  0.88225300  0.85546500  1
  S  S14  1  0.39483000  0.61774700  0.35546500  1
  S  S15  1  0.10517000  0.38225300  0.85546500  1
  S  S16  1  0.60517000  0.38225300  0.64453500  1
  S  S17  1  0.89483000  0.61774700  0.14453500  1
  S  S18  1  0.39483000  0.88225300  0.64453500  1
  S  S19  1  0.60517000  0.11774700  0.35546500  1
  O  O20  1  0.16723400  0.07916100  0.04171700  1
  O  O21  1  0.83276600  0.92083900  0.95828300  1
  O  O22  1  0.33276600  0.57916100  0.45828300  1
  O  O23  1  0.16723400  0.42083900  0.95828300  1
  O  O24  1  0.66723400  0.42083900  0.54171700  1
  O  O25  1  0.83276600  0.57916100  0.04171700  1
  O  O26  1  0.33276600  0.92083900  0.54171700  1
  O  O27  1  0.66723400  0.07916100  0.45828300  1
  O  O28  1  0.17010500  0.02495200  0.22603100  1
  O  O29  1  0.82989500  0.97504800  0.77396900  1
  O  O30  1  0.32989500  0.52495200  0.27396900  1
  O  O31  1  0.17010500  0.47504800  0.77396900  1
  O  O32  1  0.67010500  0.47504800  0.72603100  1
  O  O33  1  0.82989500  0.52495200  0.22603100  1
  O  O34  1  0.32989500  0.97504800  0.72603100  1
  O  O35  1  0.67010500  0.02495200  0.27396900  1
  O  O36  1  0.12208500  0.14510700  0.44557600  1
  O  O37  1  0.87791500  0.85489300  0.55442400  1
  O  O38  1  0.37791500  0.64510700  0.05442400  1
  O  O39  1  0.12208500  0.35489300  0.55442400  1
  O  O40  1  0.62208500  0.35489300  0.94557600  1
  O  O41  1  0.87791500  0.64510700  0.44557600  1
  O  O42  1  0.37791500  0.85489300  0.94557600  1
  O  O43  1  0.62208500  0.14510700  0.05442400  1
  O  O44  1  0.13636100  0.27014700  0.16902600  1
  O  O45  1  0.86363900  0.72985300  0.83097400  1
  O  O46  1  0.36363900  0.77014700  0.33097400  1
  O  O47  1  0.13636100  0.22985300  0.83097400  1
  O  O48  1  0.63636100  0.22985300  0.66902600  1
  O  O49  1  0.86363900  0.77014700  0.16902600  1
  O  O50  1  0.36363900  0.72985300  0.66902600  1
  O  O51  1  0.63636100  0.27014700  0.33097400  1
  O  O52  1  0.43639600  0.32353000  0.07817600  1
  O  O53  1  0.56360400  0.67647000  0.92182400  1
  O  O54  1  0.06360400  0.82353000  0.42182400  1
  O  O55  1  0.43639600  0.17647000  0.92182400  1
  O  O56  1  0.93639600  0.17647000  0.57817600  1
  O  O57  1  0.56360400  0.82353000  0.07817600  1
  O  O58  1  0.06360400  0.67647000  0.57817600  1
  O  O59  1  0.93639600  0.32353000  0.42182400  1
  O  O60  1  0.44589500  0.09663300  0.35758700  1
  O  O61  1  0.55410500  0.90336700  0.64241300  1
  O  O62  1  0.05410500  0.59663300  0.14241300  1
  O  O63  1  0.44589500  0.40336700  0.64241300  1
  O  O64  1  0.94589500  0.40336700  0.85758700  1
  O  O65  1  0.55410500  0.59663300  0.35758700  1
  O  O66  1  0.05410500  0.90336700  0.85758700  1
  O  O67  1  0.94589500  0.09663300  0.14241300  1
