# generated using pymatgen
data_Cs3CoCl5
_symmetry_space_group_name_H-M   'P 1'
_cell_length_a   9.90680006
_cell_length_b   9.90680006
_cell_length_c   9.90680006
_cell_angle_alpha   122.88172547
_cell_angle_beta   122.88172547
_cell_angle_gamma   85.07720847
_symmetry_Int_Tables_number   1
_chemical_formula_structural   Cs3CoCl5
_chemical_formula_sum   'Cs6 Co2 Cl10'
_cell_volume   654.93422713
_cell_formula_units_Z   2
loop_
 _symmetry_equiv_pos_site_id
 _symmetry_equiv_pos_as_xyz
  1  'x, y, z'
loop_
 _atom_site_type_symbol
 _atom_site_label
 _atom_site_symmetry_multiplicity
 _atom_site_fract_x
 _atom_site_fract_y
 _atom_site_fract_z
 _atom_site_occupancy
  Cs  Cs0  1  0.75000000  0.75000000  0.00000000  1
  Cs  Cs1  1  0.25000000  0.25000000  0.00000000  1
  Cs  Cs2  1  0.66865700  0.16865700  0.83731400  1
  Cs  Cs3  1  0.33134300  0.83134300  0.16268600  1
  Cs  Cs4  1  0.16865700  0.33134300  0.50000000  1
  Cs  Cs5  1  0.83134300  0.66865700  0.50000000  1
  Co  Co6  1  0.75000000  0.25000000  0.50000000  1
  Co  Co7  1  0.25000000  0.75000000  0.50000000  1
  Cl  Cl8  1  0.00000000  0.00000000  0.00000000  1
  Cl  Cl9  1  0.50000000  0.50000000  0.00000000  1
  Cl  Cl10  1  0.97820000  0.47820000  0.76922000  1
  Cl  Cl11  1  0.70898100  0.20898100  0.23078000  1
  Cl  Cl12  1  0.47820000  0.70898100  0.50000000  1
  Cl  Cl13  1  0.20898100  0.97820000  0.50000000  1
  Cl  Cl14  1  0.02180000  0.52180000  0.23078000  1
  Cl  Cl15  1  0.29101900  0.79101900  0.76922000  1
  Cl  Cl16  1  0.52180000  0.29101900  0.50000000  1
  Cl  Cl17  1  0.79101900  0.02180000  0.50000000  1
