# generated using pymatgen
data_La2(TlSn)3
_symmetry_space_group_name_H-M   'P 1'
_cell_length_a   4.86655100
_cell_length_b   4.88129200
_cell_length_c   9.67342500
_cell_angle_alpha   90.00000000
_cell_angle_beta   90.00000000
_cell_angle_gamma   90.00000000
_symmetry_Int_Tables_number   1
_chemical_formula_structural   La2(TlSn)3
_chemical_formula_sum   'La2 Tl3 Sn3'
_cell_volume   229.79275707
_cell_formula_units_Z   1
loop_
 _symmetry_equiv_pos_site_id
 _symmetry_equiv_pos_as_xyz
  1  'x, y, z'
loop_
 _atom_site_type_symbol
 _atom_site_label
 _atom_site_symmetry_multiplicity
 _atom_site_fract_x
 _atom_site_fract_y
 _atom_site_fract_z
 _atom_site_occupancy
  La  La0  1  0.00000000  0.00000000  0.25771500  1
  La  La1  1  0.00000000  0.00000000  0.74228500  1
  Tl  Tl2  1  0.00000000  0.50000000  0.00000000  1
  Tl  Tl3  1  0.50000000  0.00000000  0.50000000  1
  Tl  Tl4  1  0.50000000  0.00000000  0.00000000  1
  Sn  Sn5  1  0.50000000  0.50000000  0.25501500  1
  Sn  Sn6  1  0.50000000  0.50000000  0.74498500  1
  Sn  Sn7  1  0.00000000  0.50000000  0.50000000  1
