# generated using pymatgen
data_Y2Si3Rh
_symmetry_space_group_name_H-M   'P 1'
_cell_length_a   8.18048540
_cell_length_b   8.18048540
_cell_length_c   7.94255000
_cell_angle_alpha   90.00000000
_cell_angle_beta   90.00000000
_cell_angle_gamma   119.99999516
_symmetry_Int_Tables_number   1
_chemical_formula_structural   Y2Si3Rh
_chemical_formula_sum   'Y8 Si12 Rh4'
_cell_volume   460.30824951
_cell_formula_units_Z   4
loop_
 _symmetry_equiv_pos_site_id
 _symmetry_equiv_pos_as_xyz
  1  'x, y, z'
loop_
 _atom_site_type_symbol
 _atom_site_label
 _atom_site_symmetry_multiplicity
 _atom_site_fract_x
 _atom_site_fract_y
 _atom_site_fract_z
 _atom_site_occupancy
  Y  Y0  1  0.00000000  0.00000000  0.25000000  1
  Y  Y1  1  0.00000000  0.00000000  0.75000000  1
  Y  Y2  1  0.50858500  0.49141500  0.25000000  1
  Y  Y3  1  0.50858500  0.01717000  0.25000000  1
  Y  Y4  1  0.98283000  0.49141500  0.25000000  1
  Y  Y5  1  0.49141500  0.50858500  0.75000000  1
  Y  Y6  1  0.49141500  0.98283000  0.75000000  1
  Y  Y7  1  0.01717000  0.50858500  0.75000000  1
  Si  Si8  1  0.16692900  0.83307100  0.49946800  1
  Si  Si9  1  0.16692900  0.33385800  0.49946800  1
  Si  Si10  1  0.66614200  0.83307100  0.49946800  1
  Si  Si11  1  0.83307100  0.16692900  0.50053200  1
  Si  Si12  1  0.83307100  0.66614200  0.50053200  1
  Si  Si13  1  0.33385800  0.16692900  0.50053200  1
  Si  Si14  1  0.83307100  0.16692900  0.99946800  1
  Si  Si15  1  0.83307100  0.66614200  0.99946800  1
  Si  Si16  1  0.33385800  0.16692900  0.99946800  1
  Si  Si17  1  0.16692900  0.83307100  0.00053200  1
  Si  Si18  1  0.16692900  0.33385800  0.00053200  1
  Si  Si19  1  0.66614200  0.83307100  0.00053200  1
  Rh  Rh20  1  0.33333300  0.66666700  0.46810800  1
  Rh  Rh21  1  0.66666700  0.33333300  0.53189200  1
  Rh  Rh22  1  0.66666700  0.33333300  0.96810800  1
  Rh  Rh23  1  0.33333300  0.66666700  0.03189200  1
