# generated using pymatgen
data_EuNb2O6
_symmetry_space_group_name_H-M   'P 1'
_cell_length_a   5.57931600
_cell_length_b   7.81055300
_cell_length_c   11.30373377
_cell_angle_alpha   89.74980580
_cell_angle_beta   90.00000000
_cell_angle_gamma   90.00000000
_symmetry_Int_Tables_number   1
_chemical_formula_structural   EuNb2O6
_chemical_formula_sum   'Eu4 Nb8 O24'
_cell_volume   492.58425171
_cell_formula_units_Z   4
loop_
 _symmetry_equiv_pos_site_id
 _symmetry_equiv_pos_as_xyz
  1  'x, y, z'
loop_
 _atom_site_type_symbol
 _atom_site_label
 _atom_site_symmetry_multiplicity
 _atom_site_fract_x
 _atom_site_fract_y
 _atom_site_fract_z
 _atom_site_occupancy
  Eu  Eu0  1  0.54097000  0.74959700  0.04114600  1
  Eu  Eu1  1  0.04097000  0.25040300  0.45885400  1
  Eu  Eu2  1  0.45903000  0.25040300  0.95885400  1
  Eu  Eu3  1  0.95903000  0.74959700  0.54114600  1
  Nb  Nb4  1  0.02844500  0.99047600  0.14364000  1
  Nb  Nb5  1  0.52844500  0.00952400  0.35636000  1
  Nb  Nb6  1  0.97155500  0.00952400  0.85636000  1
  Nb  Nb7  1  0.47155500  0.99047600  0.64364000  1
  Nb  Nb8  1  0.46254900  0.47956500  0.64256200  1
  Nb  Nb9  1  0.96254900  0.52043500  0.85743800  1
  Nb  Nb10  1  0.53745100  0.52043500  0.35743800  1
  Nb  Nb11  1  0.03745100  0.47956500  0.14256200  1
  O  O12  1  0.22637600  0.96314600  0.97424500  1
  O  O13  1  0.72637600  0.03685400  0.52575500  1
  O  O14  1  0.77362400  0.03685400  0.02575500  1
  O  O15  1  0.27362400  0.96314600  0.47424500  1
  O  O16  1  0.27398100  0.53769000  0.47393600  1
  O  O17  1  0.77398100  0.46231000  0.02606400  1
  O  O18  1  0.72601900  0.46231000  0.52606400  1
  O  O19  1  0.22601900  0.53769000  0.97393600  1
  O  O20  1  0.37118700  0.94580300  0.21015800  1
  O  O21  1  0.87118700  0.05419700  0.28984200  1
  O  O22  1  0.62881300  0.05419700  0.78984200  1
  O  O23  1  0.12881300  0.94580300  0.71015800  1
  O  O24  1  0.12904900  0.55250400  0.70910300  1
  O  O25  1  0.62904900  0.44749600  0.79089700  1
  O  O26  1  0.87095100  0.44749600  0.29089700  1
  O  O27  1  0.37095100  0.55250400  0.20910300  1
  O  O28  1  0.95837000  0.74760500  0.14627500  1
  O  O29  1  0.45837000  0.25239500  0.35372500  1
  O  O30  1  0.04163000  0.25239500  0.85372500  1
  O  O31  1  0.54163000  0.74760500  0.64627500  1
  O  O32  1  0.14835400  0.24699400  0.12626500  1
  O  O33  1  0.64835400  0.75300600  0.37373500  1
  O  O34  1  0.85164600  0.75300600  0.87373500  1
  O  O35  1  0.35164600  0.24699400  0.62626500  1
