# generated using pymatgen
data_Sm8Ni18P11
_symmetry_space_group_name_H-M   'P 1'
_cell_length_a   18.13731428
_cell_length_b   18.13731428
_cell_length_c   3.88853700
_cell_angle_alpha   90.00000000
_cell_angle_beta   90.00000000
_cell_angle_gamma   120.00000101
_symmetry_Int_Tables_number   1
_chemical_formula_structural   Sm8Ni18P11
_chemical_formula_sum   'Sm16 Ni36 P22'
_cell_volume   1107.80372132
_cell_formula_units_Z   2
loop_
 _symmetry_equiv_pos_site_id
 _symmetry_equiv_pos_as_xyz
  1  'x, y, z'
loop_
 _atom_site_type_symbol
 _atom_site_label
 _atom_site_symmetry_multiplicity
 _atom_site_fract_x
 _atom_site_fract_y
 _atom_site_fract_z
 _atom_site_occupancy
  Sm  Sm0  1  0.47710900  0.52289100  0.50000000  1
  Sm  Sm1  1  0.47710900  0.95421700  0.50000000  1
  Sm  Sm2  1  0.04578300  0.52289100  0.50000000  1
  Sm  Sm3  1  0.26023000  0.73977000  0.50000000  1
  Sm  Sm4  1  0.26023000  0.52046000  0.50000000  1
  Sm  Sm5  1  0.47954000  0.73977000  0.50000000  1
  Sm  Sm6  1  0.77945900  0.22054100  0.00000000  1
  Sm  Sm7  1  0.77945900  0.55891900  0.00000000  1
  Sm  Sm8  1  0.44108100  0.22054100  0.00000000  1
  Sm  Sm9  1  0.00128000  0.21781700  0.00000000  1
  Sm  Sm10  1  0.78218300  0.78346400  0.00000000  1
  Sm  Sm11  1  0.78218300  0.99872000  0.00000000  1
  Sm  Sm12  1  0.21653600  0.99872000  0.00000000  1
  Sm  Sm13  1  0.21653600  0.21781700  0.00000000  1
  Sm  Sm14  1  0.00128000  0.78346400  0.00000000  1
  Sm  Sm15  1  0.00000000  0.00000000  0.00000000  1
  Ni  Ni16  1  0.71046800  0.28953200  0.50000000  1
  Ni  Ni17  1  0.71046800  0.42093600  0.50000000  1
  Ni  Ni18  1  0.57906400  0.28953200  0.50000000  1
  Ni  Ni19  1  0.07607500  0.36984200  0.50000000  1
  Ni  Ni20  1  0.63015800  0.70623300  0.50000000  1
  Ni  Ni21  1  0.63015800  0.92392500  0.50000000  1
  Ni  Ni22  1  0.29376700  0.92392500  0.50000000  1
  Ni  Ni23  1  0.29376700  0.36984200  0.50000000  1
  Ni  Ni24  1  0.07607500  0.70623300  0.50000000  1
  Ni  Ni25  1  0.40006100  0.03006800  0.00000000  1
  Ni  Ni26  1  0.96993200  0.36999300  0.00000000  1
  Ni  Ni27  1  0.96993200  0.59993900  0.00000000  1
  Ni  Ni28  1  0.63000700  0.59993900  0.00000000  1
  Ni  Ni29  1  0.63000700  0.03006800  0.00000000  1
  Ni  Ni30  1  0.40006100  0.36999300  0.00000000  1
  Ni  Ni31  1  0.18417500  0.81582500  0.00000000  1
  Ni  Ni32  1  0.18417500  0.36834900  0.00000000  1
  Ni  Ni33  1  0.63165100  0.81582500  0.00000000  1
  Ni  Ni34  1  0.40576500  0.59423500  0.00000000  1
  Ni  Ni35  1  0.40576500  0.81153000  0.00000000  1
  Ni  Ni36  1  0.18847000  0.59423500  0.00000000  1
  Ni  Ni37  1  0.07290700  0.92709300  0.50000000  1
  Ni  Ni38  1  0.07290700  0.14581300  0.50000000  1
  Ni  Ni39  1  0.85418700  0.92709300  0.50000000  1
  Ni  Ni40  1  0.49776200  0.12933600  0.50000000  1
  Ni  Ni41  1  0.87066400  0.36842600  0.50000000  1
  Ni  Ni42  1  0.87066400  0.50223800  0.50000000  1
  Ni  Ni43  1  0.63157400  0.50223800  0.50000000  1
  Ni  Ni44  1  0.63157400  0.12933600  0.50000000  1
  Ni  Ni45  1  0.49776200  0.36842600  0.50000000  1
  Ni  Ni46  1  0.61608400  0.38391600  0.00000000  1
  Ni  Ni47  1  0.61608400  0.23216800  0.00000000  1
  Ni  Ni48  1  0.76783200  0.38391600  0.00000000  1
  Ni  Ni49  1  0.85557900  0.14442100  0.50000000  1
  Ni  Ni50  1  0.85557900  0.71115800  0.50000000  1
  Ni  Ni51  1  0.28884200  0.14442100  0.50000000  1
  P  P52  1  0.33333300  0.66666700  0.00000000  1
  P  P53  1  0.14479500  0.85520500  0.50000000  1
  P  P54  1  0.14479500  0.28959000  0.50000000  1
  P  P55  1  0.71041000  0.85520500  0.50000000  1
  P  P56  1  0.11810600  0.45053700  0.00000000  1
  P  P57  1  0.54946300  0.66756900  0.00000000  1
  P  P58  1  0.54946300  0.88189400  0.00000000  1
  P  P59  1  0.33243100  0.88189400  0.00000000  1
  P  P60  1  0.33243100  0.45053700  0.00000000  1
  P  P61  1  0.11810600  0.66756900  0.00000000  1
  P  P62  1  0.54723200  0.45276800  0.00000000  1
  P  P63  1  0.54723200  0.09446300  0.00000000  1
  P  P64  1  0.90553700  0.45276800  0.00000000  1
  P  P65  1  0.35781800  0.07174700  0.50000000  1
  P  P66  1  0.92825300  0.28607100  0.50000000  1
  P  P67  1  0.92825300  0.64218200  0.50000000  1
  P  P68  1  0.71392900  0.64218200  0.50000000  1
  P  P69  1  0.71392900  0.07174700  0.50000000  1
  P  P70  1  0.35781800  0.28607100  0.50000000  1
  P  P71  1  0.92810000  0.07190000  0.50000000  1
  P  P72  1  0.92810000  0.85619900  0.50000000  1
  P  P73  1  0.14380100  0.07190000  0.50000000  1
