# generated using pymatgen
data_NaVPO5
_symmetry_space_group_name_H-M   'P 1'
_cell_length_a   8.57939700
_cell_length_b   6.63100200
_cell_length_c   7.11201582
_cell_angle_alpha   65.11507476
_cell_angle_beta   90.00000000
_cell_angle_gamma   90.00000000
_symmetry_Int_Tables_number   1
_chemical_formula_structural   NaVPO5
_chemical_formula_sum   'Na4 V4 P4 O20'
_cell_volume   367.03714750
_cell_formula_units_Z   4
loop_
 _symmetry_equiv_pos_site_id
 _symmetry_equiv_pos_as_xyz
  1  'x, y, z'
loop_
 _atom_site_type_symbol
 _atom_site_label
 _atom_site_symmetry_multiplicity
 _atom_site_fract_x
 _atom_site_fract_y
 _atom_site_fract_z
 _atom_site_occupancy
  Na  Na0  1  0.58598900  0.74698700  0.28220100  1
  Na  Na1  1  0.08598900  0.25301300  0.21779900  1
  Na  Na2  1  0.41401100  0.25301300  0.71779900  1
  Na  Na3  1  0.91401100  0.74698700  0.78220100  1
  V  V4  1  0.25953200  0.75353000  0.01902500  1
  V  V5  1  0.75953200  0.24647000  0.48097500  1
  V  V6  1  0.74046800  0.24647000  0.98097500  1
  V  V7  1  0.24046800  0.75353000  0.51902500  1
  P  P8  1  0.43395800  0.24999800  0.24912100  1
  P  P9  1  0.93395800  0.75000200  0.25087900  1
  P  P10  1  0.56604200  0.75000200  0.75087900  1
  P  P11  1  0.06604200  0.24999800  0.74912100  1
  O  O12  1  0.31741400  0.74853400  0.25310700  1
  O  O13  1  0.81741400  0.25146600  0.24689300  1
  O  O14  1  0.68258600  0.25146600  0.74689300  1
  O  O15  1  0.18258600  0.74853400  0.75310700  1
  O  O16  1  0.82044500  0.92664000  0.10132700  1
  O  O17  1  0.32044500  0.07336000  0.39867300  1
  O  O18  1  0.17955500  0.07336000  0.89867300  1
  O  O19  1  0.67955500  0.92664000  0.60132700  1
  O  O20  1  0.03724000  0.85586200  0.36611200  1
  O  O21  1  0.53724000  0.14413800  0.13388800  1
  O  O22  1  0.96276000  0.14413800  0.63388800  1
  O  O23  1  0.46276000  0.85586200  0.86611200  1
  O  O24  1  0.32877400  0.43626100  0.09411500  1
  O  O25  1  0.82877400  0.56373900  0.40588500  1
  O  O26  1  0.67122600  0.56373900  0.90588500  1
  O  O27  1  0.17122600  0.43626100  0.59411500  1
  O  O28  1  0.03901200  0.65419400  0.12787500  1
  O  O29  1  0.53901200  0.34580600  0.37212500  1
  O  O30  1  0.96098800  0.34580600  0.87212500  1
  O  O31  1  0.46098800  0.65419400  0.62787500  1
