# generated using pymatgen
data_LiB(S2O7)2
_symmetry_space_group_name_H-M   'P 1'
_cell_length_a   11.15555900
_cell_length_b   11.20169500
_cell_length_c   18.56885900
_cell_angle_alpha   90.00000000
_cell_angle_beta   90.00000000
_cell_angle_gamma   90.00000000
_symmetry_Int_Tables_number   1
_chemical_formula_structural   LiB(S2O7)2
_chemical_formula_sum   'Li8 B8 S32 O112'
_cell_volume   2320.38633641
_cell_formula_units_Z   8
loop_
 _symmetry_equiv_pos_site_id
 _symmetry_equiv_pos_as_xyz
  1  'x, y, z'
loop_
 _atom_site_type_symbol
 _atom_site_label
 _atom_site_symmetry_multiplicity
 _atom_site_fract_x
 _atom_site_fract_y
 _atom_site_fract_z
 _atom_site_occupancy
  Li  Li0  1  0.89373600  0.13750200  0.09381000  1
  Li  Li1  1  0.60626400  0.86249800  0.59381000  1
  Li  Li2  1  0.39373600  0.36249800  0.90619000  1
  Li  Li3  1  0.10626400  0.63750200  0.40619000  1
  Li  Li4  1  0.38023600  0.65536700  0.15365400  1
  Li  Li5  1  0.11976400  0.34463300  0.65365400  1
  Li  Li6  1  0.88023600  0.84463300  0.84634600  1
  Li  Li7  1  0.61976400  0.15536700  0.34634600  1
  B  B8  1  0.09416100  0.14576400  0.37380700  1
  B  B9  1  0.40583900  0.85423600  0.87380700  1
  B  B10  1  0.59416100  0.35423600  0.62619300  1
  B  B11  1  0.90583900  0.64576400  0.12619300  1
  B  B12  1  0.36135300  0.12063700  0.12568900  1
  B  B13  1  0.13864700  0.87936300  0.62568900  1
  B  B14  1  0.86135300  0.37936300  0.87431100  1
  B  B15  1  0.63864700  0.62063700  0.37431100  1
  S  S16  1  0.15889300  0.33720200  0.45977100  1
  S  S17  1  0.34110700  0.66279800  0.95977100  1
  S  S18  1  0.65889300  0.16279800  0.54022900  1
  S  S19  1  0.84110700  0.83720200  0.04022900  1
  S  S20  1  0.31523600  0.23024600  0.35599900  1
  S  S21  1  0.18476400  0.76975400  0.85599900  1
  S  S22  1  0.81523600  0.26975400  0.64400100  1
  S  S23  1  0.68476400  0.73024600  0.14400100  1
  S  S24  1  0.90978600  0.09230100  0.28707200  1
  S  S25  1  0.59021400  0.90769900  0.78707200  1
  S  S26  1  0.40978600  0.40769900  0.71292800  1
  S  S27  1  0.09021400  0.59230100  0.21292800  1
  S  S28  1  0.98453000  0.92794300  0.39653800  1
  S  S29  1  0.51547000  0.07205700  0.89653800  1
  S  S30  1  0.48453000  0.57205700  0.60346200  1
  S  S31  1  0.01547000  0.42794300  0.10346200  1
  S  S32  1  0.27859700  0.92399500  0.19049500  1
  S  S33  1  0.22140300  0.07600500  0.69049500  1
  S  S34  1  0.77859700  0.57600500  0.80950500  1
  S  S35  1  0.72140300  0.42399500  0.30950500  1
  S  S36  1  0.16717900  0.02889200  0.06428800  1
  S  S37  1  0.33282100  0.97110800  0.56428800  1
  S  S38  1  0.66717900  0.47110800  0.93571200  1
  S  S39  1  0.83282100  0.52889200  0.43571200  1
  S  S40  1  0.59306300  0.17353100  0.14556600  1
  S  S41  1  0.90693700  0.82646900  0.64556600  1
  S  S42  1  0.09306300  0.32646900  0.85443400  1
  S  S43  1  0.40693700  0.67353100  0.35443400  1
  S  S44  1  0.41342600  0.34791200  0.10662700  1
  S  S45  1  0.08657400  0.65208800  0.60662700  1
  S  S46  1  0.91342600  0.15208800  0.89337300  1
  S  S47  1  0.58657400  0.84791200  0.39337300  1
  O  O48  1  0.15171200  0.31454000  0.53536800  1
  O  O49  1  0.34828800  0.68546000  0.03536800  1
  O  O50  1  0.65171200  0.18546000  0.46463200  1
  O  O51  1  0.84828800  0.81454000  0.96463200  1
  O  O52  1  0.14473800  0.45570300  0.43300600  1
  O  O53  1  0.35526200  0.54429700  0.93300600  1
  O  O54  1  0.64473800  0.04429700  0.56699400  1
  O  O55  1  0.85526200  0.95570300  0.06699400  1
  O  O56  1  0.43093400  0.17773800  0.36194900  1
  O  O57  1  0.06906600  0.82226200  0.86194900  1
  O  O58  1  0.93093400  0.32226200  0.63805100  1
  O  O59  1  0.56906600  0.67773800  0.13805100  1
  O  O60  1  0.28816500  0.31954300  0.30369300  1
  O  O61  1  0.21183500  0.68045700  0.80369300  1
  O  O62  1  0.78816500  0.18045700  0.69630700  1
  O  O63  1  0.71183500  0.81954300  0.19630700  1
  O  O64  1  0.81312300  0.13508800  0.33118800  1
  O  O65  1  0.68687700  0.86491200  0.83118800  1
  O  O66  1  0.31312300  0.36491200  0.66881200  1
  O  O67  1  0.18687700  0.63508800  0.16881200  1
  O  O68  1  0.89761000  0.08524500  0.21099100  1
  O  O69  1  0.60239000  0.91475500  0.71099100  1
  O  O70  1  0.39761000  0.41475500  0.78900900  1
  O  O71  1  0.10239000  0.58524500  0.28900900  1
  O  O72  1  0.88000100  0.91706300  0.43978800  1
  O  O73  1  0.61999900  0.08293700  0.93978800  1
  O  O74  1  0.38000100  0.58293700  0.56021200  1
  O  O75  1  0.11999900  0.41706300  0.06021200  1
  O  O76  1  0.06725200  0.83111700  0.38878400  1
  O  O77  1  0.43274800  0.16888300  0.88878400  1
  O  O78  1  0.56725200  0.66888300  0.61121600  1
  O  O79  1  0.93274800  0.33111700  0.11121600  1
  O  O80  1  0.21509600  0.90073000  0.25521400  1
  O  O81  1  0.28490400  0.09927000  0.75521400  1
  O  O82  1  0.71509600  0.59927000  0.74478600  1
  O  O83  1  0.78490400  0.40073000  0.24478600  1
  O  O84  1  0.37262900  0.84626100  0.16618500  1
  O  O85  1  0.12737100  0.15373900  0.66618400  1
  O  O86  1  0.87262900  0.65373900  0.83381600  1
  O  O87  1  0.62737100  0.34626100  0.33381500  1
  O  O88  1  0.14170300  0.96813000  0.99894800  1
  O  O89  1  0.35829700  0.03187000  0.49894800  1
  O  O90  1  0.64170300  0.53187000  0.00105200  1
  O  O91  1  0.85829700  0.46813000  0.50105200  1
  O  O92  1  0.08714100  0.11705800  0.09303600  1
  O  O93  1  0.41285900  0.88294200  0.59303600  1
  O  O94  1  0.58714100  0.38294200  0.90696400  1
  O  O95  1  0.91285900  0.61705800  0.40696400  1
  O  O96  1  0.69791000  0.16441800  0.10202000  1
  O  O97  1  0.80209000  0.83558200  0.60202000  1
  O  O98  1  0.19791000  0.33558200  0.89798000  1
  O  O99  1  0.30209000  0.66441800  0.39798000  1
  O  O100  1  0.59707200  0.15011500  0.22116700  1
  O  O101  1  0.90292800  0.84988500  0.72116700  1
  O  O102  1  0.09707200  0.34988500  0.77883300  1
  O  O103  1  0.40292800  0.65011500  0.27883300  1
  O  O104  1  0.38836600  0.45810300  0.14158100  1
  O  O105  1  0.11163400  0.54189700  0.64158100  1
  O  O106  1  0.88836600  0.04189700  0.85841900  1
  O  O107  1  0.61163400  0.95810300  0.35841900  1
  O  O108  1  0.41491700  0.33765600  0.02987000  1
  O  O109  1  0.08508300  0.66234400  0.52987000  1
  O  O110  1  0.91491700  0.16234400  0.97013000  1
  O  O111  1  0.58508300  0.83765600  0.47013000  1
  O  O112  1  0.07382200  0.25468600  0.41717400  1
  O  O113  1  0.42617800  0.74531400  0.91717400  1
  O  O114  1  0.57382200  0.24531400  0.58282600  1
  O  O115  1  0.92617800  0.75468600  0.08282600  1
  O  O116  1  0.22194500  0.12797600  0.35704100  1
  O  O117  1  0.27805500  0.87202400  0.85704100  1
  O  O118  1  0.72194500  0.37202400  0.64295900  1
  O  O119  1  0.77805500  0.62797600  0.14295900  1
  O  O120  1  0.02785500  0.15813300  0.30498500  1
  O  O121  1  0.47214500  0.84186700  0.80498500  1
  O  O122  1  0.52785500  0.34186700  0.69501500  1
  O  O123  1  0.97214500  0.65813300  0.19501500  1
  O  O124  1  0.05077100  0.04436600  0.41697500  1
  O  O125  1  0.44922900  0.95563400  0.91697500  1
  O  O126  1  0.55077100  0.45563400  0.58302500  1
  O  O127  1  0.94922900  0.54436600  0.08302500  1
  O  O128  1  0.32099500  0.05624800  0.19079000  1
  O  O129  1  0.17900500  0.94375200  0.69079000  1
  O  O130  1  0.82099500  0.44375200  0.80921000  1
  O  O131  1  0.67900500  0.55624800  0.30921000  1
  O  O132  1  0.29798600  0.07635500  0.06129500  1
  O  O133  1  0.20201400  0.92364500  0.56129500  1
  O  O134  1  0.79798600  0.42364500  0.93870500  1
  O  O135  1  0.70201400  0.57635500  0.43870500  1
  O  O136  1  0.49044100  0.10317400  0.10849400  1
  O  O137  1  0.00955900  0.89682600  0.60849400  1
  O  O138  1  0.99044100  0.39682600  0.89150600  1
  O  O139  1  0.50955900  0.60317400  0.39150600  1
  O  O140  1  0.33672500  0.24804900  0.14144600  1
  O  O141  1  0.16327500  0.75195100  0.64144600  1
  O  O142  1  0.83672500  0.25195100  0.85855400  1
  O  O143  1  0.66327500  0.74804900  0.35855400  1
  O  O144  1  0.29227400  0.28809400  0.43769300  1
  O  O145  1  0.20772600  0.71190600  0.93769300  1
  O  O146  1  0.79227400  0.21190600  0.56230700  1
  O  O147  1  0.70772600  0.78809400  0.06230700  1
  O  O148  1  0.94297000  0.95592300  0.31165400  1
  O  O149  1  0.55703000  0.04407700  0.81165400  1
  O  O150  1  0.44297000  0.54407700  0.68834600  1
  O  O151  1  0.05703000  0.45592300  0.18834600  1
  O  O152  1  0.17719200  0.92331600  0.12586300  1
  O  O153  1  0.32280800  0.07668400  0.62586300  1
  O  O154  1  0.67719200  0.57668400  0.87413700  1
  O  O155  1  0.82280800  0.42331600  0.37413700  1
  O  O156  1  0.54806600  0.31324100  0.13691800  1
  O  O157  1  0.95193400  0.68675900  0.63691800  1
  O  O158  1  0.04806600  0.18675900  0.86308200  1
  O  O159  1  0.45193400  0.81324100  0.36308200  1
