# generated using pymatgen
data_Li12Cu11As12
_symmetry_space_group_name_H-M   'P 1'
_cell_length_a   4.12339239
_cell_length_b   4.12339201
_cell_length_c   35.99792500
_cell_angle_alpha   89.99734548
_cell_angle_beta   89.99732513
_cell_angle_gamma   59.99102224
_symmetry_Int_Tables_number   1
_chemical_formula_structural   Li12Cu11As12
_chemical_formula_sum   'Li12 Cu11 As12'
_cell_volume   530.00271448
_cell_formula_units_Z   1
loop_
 _symmetry_equiv_pos_site_id
 _symmetry_equiv_pos_as_xyz
  1  'x, y, z'
loop_
 _atom_site_type_symbol
 _atom_site_label
 _atom_site_symmetry_multiplicity
 _atom_site_fract_x
 _atom_site_fract_y
 _atom_site_fract_z
 _atom_site_occupancy
  Li  Li0  1  0.99987800  0.99987600  0.13120000  1
  Li  Li1  1  0.99997400  0.99997400  0.38353700  1
  Li  Li2  1  0.99999700  0.99999600  0.63559300  1
  Li  Li3  1  0.99990600  0.99990700  0.88568900  1
  Li  Li4  1  0.00001000  0.00000900  0.04554400  1
  Li  Li5  1  0.00021600  0.00021500  0.29753500  1
  Li  Li6  1  0.00009900  0.00009900  0.55147000  1
  Li  Li7  1  0.00002000  0.00002000  0.80065100  1
  Li  Li8  1  0.00007200  0.00007100  0.21279600  1
  Li  Li9  1  0.99988300  0.99988300  0.46654100  1
  Li  Li10  1  0.99996600  0.99996500  0.71702900  1
  Li  Li11  1  0.00011400  0.00011300  0.97001200  1
  Cu  Cu12  1  0.66656300  0.66656100  0.09736400  1
  Cu  Cu13  1  0.66669400  0.66669000  0.35067200  1
  Cu  Cu14  1  0.66666000  0.66666000  0.60375600  1
  Cu  Cu15  1  0.66656800  0.66657300  0.85402100  1
  Cu  Cu16  1  0.33340000  0.33340100  0.17491400  1
  Cu  Cu17  1  0.33327800  0.33328600  0.42724400  1
  Cu  Cu18  1  0.33347400  0.33347200  0.67733700  1
  Cu  Cu19  1  0.33346200  0.33346100  0.93604700  1
  Cu  Cu20  1  0.66676900  0.66676900  0.24518900  1
  Cu  Cu21  1  0.66655900  0.66655600  0.49911500  1
  Cu  Cu22  1  0.66662700  0.66663200  0.74887300  1
  As  As23  1  0.33345900  0.33345800  0.26154500  1
  As  As24  1  0.33329500  0.33329300  0.51519600  1
  As  As25  1  0.33331600  0.33331600  0.76500500  1
  As  As26  1  0.33327800  0.33327700  0.00943000  1
  As  As27  1  0.66658900  0.66658900  0.17018100  1
  As  As28  1  0.66648400  0.66648700  0.42439500  1
  As  As29  1  0.66662300  0.66662300  0.67590600  1
  As  As30  1  0.66665700  0.66665800  0.92350800  1
  As  As31  1  0.33329200  0.33329200  0.07837000  1
  As  As32  1  0.33344100  0.33343900  0.33410100  1
  As  As33  1  0.33338100  0.33338000  0.58712600  1
  As  As34  1  0.33329800  0.33329900  0.83635600  1
