# generated using pymatgen
data_Nd6Mg(GeS7)2
_symmetry_space_group_name_H-M   'P 1'
_cell_length_a   10.21753486
_cell_length_b   10.21753486
_cell_length_c   5.83358900
_cell_angle_alpha   90.00000000
_cell_angle_beta   90.00000000
_cell_angle_gamma   120.00000556
_symmetry_Int_Tables_number   1
_chemical_formula_structural   Nd6Mg(GeS7)2
_chemical_formula_sum   'Nd6 Mg1 Ge2 S14'
_cell_volume   527.42254682
_cell_formula_units_Z   1
loop_
 _symmetry_equiv_pos_site_id
 _symmetry_equiv_pos_as_xyz
  1  'x, y, z'
loop_
 _atom_site_type_symbol
 _atom_site_label
 _atom_site_symmetry_multiplicity
 _atom_site_fract_x
 _atom_site_fract_y
 _atom_site_fract_z
 _atom_site_occupancy
  Nd  Nd0  1  0.97462000  0.53511300  0.24172700  1
  Nd  Nd1  1  0.56049300  0.02538000  0.24172700  1
  Nd  Nd2  1  0.46488700  0.43950700  0.24172700  1
  Nd  Nd3  1  0.69039200  0.79826100  0.74669400  1
  Nd  Nd4  1  0.10786900  0.30960800  0.74669400  1
  Nd  Nd5  1  0.20173900  0.89213100  0.74669400  1
  Mg  Mg6  1  0.33333300  0.66666700  0.46674100  1
  Ge  Ge7  1  0.66666700  0.33333300  0.82538900  1
  Ge  Ge8  1  0.00000000  0.00000000  0.32989200  1
  S  S9  1  0.43687200  0.18617200  0.97889200  1
  S  S10  1  0.74930000  0.56312800  0.97889200  1
  S  S11  1  0.81382800  0.25070000  0.97889200  1
  S  S12  1  0.22993800  0.14624300  0.48416300  1
  S  S13  1  0.91630500  0.77006200  0.48416300  1
  S  S14  1  0.85375700  0.08369500  0.48416300  1
  S  S15  1  0.17583500  0.41781800  0.22876700  1
  S  S16  1  0.24198300  0.82416500  0.22876700  1
  S  S17  1  0.58218200  0.75801700  0.22876700  1
  S  S18  1  0.48803400  0.91472500  0.70572100  1
  S  S19  1  0.42669100  0.51196600  0.70572100  1
  S  S20  1  0.08527500  0.57330900  0.70572100  1
  S  S21  1  0.66666700  0.33333300  0.44746400  1
  S  S22  1  0.00000000  0.00000000  0.95292500  1
