# generated using pymatgen
data_ErGaCo
_symmetry_space_group_name_H-M   'P 1'
_cell_length_a   4.08057500
_cell_length_b   6.67198000
_cell_length_c   7.62891500
_cell_angle_alpha   90.00000000
_cell_angle_beta   90.00000000
_cell_angle_gamma   90.00000000
_symmetry_Int_Tables_number   1
_chemical_formula_structural   ErGaCo
_chemical_formula_sum   'Er4 Ga4 Co4'
_cell_volume   207.70113815
_cell_formula_units_Z   4
loop_
 _symmetry_equiv_pos_site_id
 _symmetry_equiv_pos_as_xyz
  1  'x, y, z'
loop_
 _atom_site_type_symbol
 _atom_site_label
 _atom_site_symmetry_multiplicity
 _atom_site_fract_x
 _atom_site_fract_y
 _atom_site_fract_z
 _atom_site_occupancy
  Er  Er0  1  0.25000000  0.52656700  0.68442500  1
  Er  Er1  1  0.25000000  0.02656700  0.81557500  1
  Er  Er2  1  0.75000000  0.97343300  0.18442500  1
  Er  Er3  1  0.75000000  0.47343300  0.31557500  1
  Ga  Ga4  1  0.75000000  0.34730200  0.93633700  1
  Ga  Ga5  1  0.25000000  0.15269800  0.43633700  1
  Ga  Ga6  1  0.25000000  0.65269800  0.06366300  1
  Ga  Ga7  1  0.75000000  0.84730200  0.56366300  1
  Co  Co8  1  0.75000000  0.22888000  0.61933800  1
  Co  Co9  1  0.25000000  0.77112000  0.38066200  1
  Co  Co10  1  0.75000000  0.72888000  0.88066200  1
  Co  Co11  1  0.25000000  0.27112000  0.11933800  1
