# generated using pymatgen
data_Ca6Al7O16F
_symmetry_space_group_name_H-M   'P 1'
_cell_length_a   10.45811037
_cell_length_b   10.45811037
_cell_length_c   10.45811037
_cell_angle_alpha   108.80940951
_cell_angle_beta   108.80940951
_cell_angle_gamma   110.80310901
_symmetry_Int_Tables_number   1
_chemical_formula_structural   Ca6Al7O16F
_chemical_formula_sum   'Ca12 Al14 O32 F2'
_cell_volume   880.15925790
_cell_formula_units_Z   2
loop_
 _symmetry_equiv_pos_site_id
 _symmetry_equiv_pos_as_xyz
  1  'x, y, z'
loop_
 _atom_site_type_symbol
 _atom_site_label
 _atom_site_symmetry_multiplicity
 _atom_site_fract_x
 _atom_site_fract_y
 _atom_site_fract_z
 _atom_site_occupancy
  Ca  Ca0  1  0.12500000  0.50878300  0.88378300  1
  Ca  Ca1  1  0.62500000  0.24121700  0.11621700  1
  Ca  Ca2  1  0.62500000  0.76293300  0.63793300  1
  Ca  Ca3  1  0.12500000  0.98706700  0.36206700  1
  Ca  Ca4  1  0.23706700  0.87500000  0.86206700  1
  Ca  Ca5  1  0.01293300  0.37500000  0.13793300  1
  Ca  Ca6  1  0.49121700  0.37500000  0.61621700  1
  Ca  Ca7  1  0.75878300  0.87500000  0.38378300  1
  Ca  Ca8  1  0.30464900  0.30464900  0.00000000  1
  Ca  Ca9  1  0.94535100  0.44535100  0.50000000  1
  Ca  Ca10  1  0.55464900  0.05464900  0.50000000  1
  Ca  Ca11  1  0.69535100  0.69535100  0.00000000  1
  Al  Al12  1  0.12500000  0.24782000  0.62282000  1
  Al  Al13  1  0.62500000  0.50218000  0.37718000  1
  Al  Al14  1  0.49782000  0.87500000  0.12282000  1
  Al  Al15  1  0.75218000  0.37500000  0.87718000  1
  Al  Al16  1  0.00000000  0.00000000  0.00000000  1
  Al  Al17  1  0.25000000  0.75000000  0.50000000  1
  Al  Al18  1  0.91337700  0.15871600  0.78885500  1
  Al  Al19  1  0.33662300  0.62547800  0.74533800  1
  Al  Al20  1  0.36986100  0.12452200  0.21114500  1
  Al  Al21  1  0.88013900  0.59128400  0.25466200  1
  Al  Al22  1  0.84128400  0.63013900  0.75466200  1
  Al  Al23  1  0.40871600  0.66337700  0.28885500  1
  Al  Al24  1  0.37452200  0.11986100  0.71114500  1
  Al  Al25  1  0.87547800  0.08662300  0.24533800  1
  O  O26  1  0.24243200  0.49855800  0.12059900  1
  O  O27  1  0.00756800  0.62816700  0.75612600  1
  O  O28  1  0.37795900  0.12183300  0.87940100  1
  O  O29  1  0.87204100  0.25144200  0.24387400  1
  O  O30  1  0.50144200  0.62204100  0.74387400  1
  O  O31  1  0.74855800  0.99243200  0.62059900  1
  O  O32  1  0.37183300  0.12795900  0.37940100  1
  O  O33  1  0.87816700  0.75756800  0.25612600  1
  O  O34  1  0.98556200  0.14616100  0.96004600  1
  O  O35  1  0.26443800  0.72448400  0.66060000  1
  O  O36  1  0.18611600  0.02551600  0.03995400  1
  O  O37  1  0.06388400  0.60383900  0.33940000  1
  O  O38  1  0.75973100  0.53198300  0.84469900  1
  O  O39  1  0.49026900  0.83496800  0.27225200  1
  O  O40  1  0.56271600  0.21801700  0.72774800  1
  O  O41  1  0.68728400  0.91503200  0.15530100  1
  O  O42  1  0.16503200  0.43728400  0.65530100  1
  O  O43  1  0.46801700  0.31271600  0.22774800  1
  O  O44  1  0.08496800  0.24026900  0.77225200  1
  O  O45  1  0.78198300  0.50973100  0.34469900  1
  O  O46  1  0.27551600  0.93611600  0.53995400  1
  O  O47  1  0.85383900  0.81388400  0.83940000  1
  O  O48  1  0.39616100  0.73556200  0.46004600  1
  O  O49  1  0.97448400  0.01443800  0.16060000  1
  O  O50  1  0.46278200  0.02990400  0.13411700  1
  O  O51  1  0.89578800  0.32866500  0.86588300  1
  O  O52  1  0.35421200  0.72009600  0.93287700  1
  O  O53  1  0.78721800  0.42133500  0.06712300  1
  O  O54  1  0.57866500  0.64578800  0.36588300  1
  O  O55  1  0.27990400  0.21278200  0.63411700  1
  O  O56  1  0.67133500  0.53721800  0.56712300  1
  O  O57  1  0.97009600  0.10421200  0.43287700  1
  F  F58  1  0.75000000  0.25000000  0.50000000  1
  F  F59  1  0.50000000  0.50000000  0.00000000  1
