# generated using pymatgen
data_Li(TiS2)2
_symmetry_space_group_name_H-M   'P 1'
_cell_length_a   7.09035866
_cell_length_b   7.09035866
_cell_length_c   5.90958924
_cell_angle_alpha   66.17937978
_cell_angle_beta   66.17937978
_cell_angle_gamma   27.93952458
_symmetry_Int_Tables_number   1
_chemical_formula_structural   Li(TiS2)2
_chemical_formula_sum   'Li1 Ti2 S4'
_cell_volume   126.57199782
_cell_formula_units_Z   1
loop_
 _symmetry_equiv_pos_site_id
 _symmetry_equiv_pos_as_xyz
  1  'x, y, z'
loop_
 _atom_site_type_symbol
 _atom_site_label
 _atom_site_symmetry_multiplicity
 _atom_site_fract_x
 _atom_site_fract_y
 _atom_site_fract_z
 _atom_site_occupancy
  Li  Li0  1  0.50000000  0.50000000  0.50000000  1
  Ti  Ti1  1  0.24627200  0.24627200  0.76084800  1
  Ti  Ti2  1  0.75372800  0.75372800  0.23915200  1
  S  S3  1  0.36751000  0.36751000  0.96711300  1
  S  S4  1  0.86437300  0.86437300  0.47393500  1
  S  S5  1  0.13562700  0.13562700  0.52606500  1
  S  S6  1  0.63249000  0.63249000  0.03288700  1
