# generated using pymatgen
data_TbPtF7
_symmetry_space_group_name_H-M   'P 1'
_cell_length_a   5.54606000
_cell_length_b   8.97161500
_cell_length_c   12.03784402
_cell_angle_alpha   62.29509207
_cell_angle_beta   90.00000000
_cell_angle_gamma   90.00000000
_symmetry_Int_Tables_number   1
_chemical_formula_structural   TbPtF7
_chemical_formula_sum   'Tb4 Pt4 F28'
_cell_volume   530.29894307
_cell_formula_units_Z   4
loop_
 _symmetry_equiv_pos_site_id
 _symmetry_equiv_pos_as_xyz
  1  'x, y, z'
loop_
 _atom_site_type_symbol
 _atom_site_label
 _atom_site_symmetry_multiplicity
 _atom_site_fract_x
 _atom_site_fract_y
 _atom_site_fract_z
 _atom_site_occupancy
  Tb  Tb0  1  0.26353600  0.81526100  0.26313600  1
  Tb  Tb1  1  0.73646400  0.18473900  0.73686400  1
  Tb  Tb2  1  0.76353600  0.18473900  0.23686400  1
  Tb  Tb3  1  0.23646400  0.81526100  0.76313600  1
  Pt  Pt4  1  0.75878200  0.72726300  0.04141800  1
  Pt  Pt5  1  0.24121800  0.27273700  0.95858200  1
  Pt  Pt6  1  0.25878200  0.27273700  0.45858200  1
  Pt  Pt7  1  0.74121800  0.72726300  0.54141800  1
  F  F8  1  0.93852700  0.71039900  0.41237400  1
  F  F9  1  0.06147300  0.28960100  0.58762600  1
  F  F10  1  0.43852700  0.28960100  0.08762600  1
  F  F11  1  0.56147300  0.71039900  0.91237400  1
  F  F12  1  0.46551000  0.73011000  0.13243800  1
  F  F13  1  0.53449000  0.26989000  0.86756200  1
  F  F14  1  0.96551000  0.26989000  0.36756200  1
  F  F15  1  0.03449000  0.73011000  0.63243800  1
  F  F16  1  0.95017500  0.74092100  0.17461700  1
  F  F17  1  0.04982500  0.25907900  0.82538300  1
  F  F18  1  0.45017500  0.25907900  0.32538300  1
  F  F19  1  0.54982500  0.74092100  0.67461700  1
  F  F20  1  0.76707000  0.48000600  0.13801100  1
  F  F21  1  0.23293000  0.51999400  0.86198900  1
  F  F22  1  0.26707000  0.51999400  0.36198900  1
  F  F23  1  0.73293000  0.48000600  0.63801100  1
  F  F24  1  0.94214800  0.28111200  0.04328900  1
  F  F25  1  0.05785200  0.71888800  0.95671100  1
  F  F26  1  0.44214800  0.71888800  0.45671100  1
  F  F27  1  0.55785200  0.28111200  0.54328900  1
  F  F28  1  0.73730700  0.97369600  0.44745200  1
  F  F29  1  0.26269300  0.02630400  0.55254800  1
  F  F30  1  0.23730700  0.02630400  0.05254800  1
  F  F31  1  0.76269300  0.97369600  0.94745200  1
  F  F32  1  0.59469100  0.96848000  0.23154400  1
  F  F33  1  0.40530900  0.03152000  0.76845600  1
  F  F34  1  0.09469100  0.03152000  0.26845600  1
  F  F35  1  0.90530900  0.96848000  0.73154400  1
