# generated using pymatgen
data_SrLiAl3N4
_symmetry_space_group_name_H-M   'P 1'
_cell_length_a   5.88490800
_cell_length_b   7.53077125
_cell_length_c   9.99846718
_cell_angle_alpha   83.58023329
_cell_angle_beta   76.82025678
_cell_angle_gamma   79.54867505
_symmetry_Int_Tables_number   1
_chemical_formula_structural   SrLiAl3N4
_chemical_formula_sum   'Sr4 Li4 Al12 N16'
_cell_volume   423.13141699
_cell_formula_units_Z   4
loop_
 _symmetry_equiv_pos_site_id
 _symmetry_equiv_pos_as_xyz
  1  'x, y, z'
loop_
 _atom_site_type_symbol
 _atom_site_label
 _atom_site_symmetry_multiplicity
 _atom_site_fract_x
 _atom_site_fract_y
 _atom_site_fract_z
 _atom_site_occupancy
  Sr  Sr0  1  0.99751400  0.86530300  0.87370000  1
  Sr  Sr1  1  0.00248600  0.13469700  0.12630000  1
  Sr  Sr2  1  0.97624500  0.61646800  0.62832300  1
  Sr  Sr3  1  0.02375500  0.38353200  0.37167700  1
  Li  Li4  1  0.53265100  0.67446800  0.88748600  1
  Li  Li5  1  0.46734900  0.32553200  0.11251400  1
  Li  Li6  1  0.79057100  0.82006900  0.35586100  1
  Li  Li7  1  0.20942900  0.17993100  0.64413900  1
  Al  Al8  1  0.44796300  0.04570800  0.87656500  1
  Al  Al9  1  0.55203700  0.95429200  0.12343500  1
  Al  Al10  1  0.82442300  0.05900700  0.60227800  1
  Al  Al11  1  0.17557700  0.94099300  0.39772200  1
  Al  Al12  1  0.83187800  0.29154300  0.85212000  1
  Al  Al13  1  0.16812200  0.70845700  0.14788000  1
  Al  Al14  1  0.17886900  0.44277200  0.89995400  1
  Al  Al15  1  0.82113100  0.55722800  0.10004600  1
  Al  Al16  1  0.53087900  0.43822800  0.62461500  1
  Al  Al17  1  0.46912100  0.56177200  0.37538500  1
  Al  Al18  1  0.43577300  0.79627700  0.63297300  1
  Al  Al19  1  0.56422700  0.20372300  0.36702700  1
  N  N20  1  0.65117000  0.13189800  0.97105200  1
  N  N21  1  0.34883000  0.86810200  0.02894800  1
  N  N22  1  0.62625600  0.64486200  0.49609000  1
  N  N23  1  0.37374400  0.35513800  0.50391000  1
  N  N24  1  0.61371200  0.91631300  0.72021000  1
  N  N25  1  0.38628800  0.08368700  0.27979000  1
  N  N26  1  0.84920700  0.06914700  0.40774300  1
  N  N27  1  0.15079300  0.93085300  0.59225700  1
  N  N28  1  0.16919000  0.20467500  0.85603400  1
  N  N29  1  0.83081000  0.79532500  0.14396600  1
  N  N30  1  0.83803300  0.52258600  0.91156600  1
  N  N31  1  0.16196700  0.47741400  0.08843400  1
  N  N32  1  0.80198000  0.29056100  0.66733800  1
  N  N33  1  0.19802000  0.70943900  0.33266200  1
  N  N34  1  0.34085500  0.59028400  0.76105700  1
  N  N35  1  0.65914500  0.40971600  0.23894300  1
