# generated using pymatgen
data_Tb3Te3N
_symmetry_space_group_name_H-M   'P 1'
_cell_length_a   12.06799800
_cell_length_b   8.17004100
_cell_length_c   8.70100849
_cell_angle_alpha   70.92630933
_cell_angle_beta   90.00000000
_cell_angle_gamma   90.00000000
_symmetry_Int_Tables_number   1
_chemical_formula_structural   Tb3Te3N
_chemical_formula_sum   'Tb12 Te12 N4'
_cell_volume   810.78628191
_cell_formula_units_Z   4
loop_
 _symmetry_equiv_pos_site_id
 _symmetry_equiv_pos_as_xyz
  1  'x, y, z'
loop_
 _atom_site_type_symbol
 _atom_site_label
 _atom_site_symmetry_multiplicity
 _atom_site_fract_x
 _atom_site_fract_y
 _atom_site_fract_z
 _atom_site_occupancy
  Tb  Tb0  1  0.02224600  0.60307600  0.13811700  1
  Tb  Tb1  1  0.52224600  0.39692400  0.36188300  1
  Tb  Tb2  1  0.97775400  0.39692400  0.86188300  1
  Tb  Tb3  1  0.47775400  0.60307600  0.63811700  1
  Tb  Tb4  1  0.41050200  0.83947300  0.20459800  1
  Tb  Tb5  1  0.91050200  0.16052700  0.29540200  1
  Tb  Tb6  1  0.58949800  0.16052700  0.79540200  1
  Tb  Tb7  1  0.08949800  0.83947300  0.70459800  1
  Tb  Tb8  1  0.70823500  0.76738800  0.34095000  1
  Tb  Tb9  1  0.20823500  0.23261200  0.15905000  1
  Tb  Tb10  1  0.29176500  0.23261200  0.65905000  1
  Tb  Tb11  1  0.79176500  0.76738800  0.84095000  1
  Te  Te12  1  0.97815500  0.77580100  0.41640600  1
  Te  Te13  1  0.47815500  0.22419900  0.08359400  1
  Te  Te14  1  0.02184500  0.22419900  0.58359400  1
  Te  Te15  1  0.52184500  0.77580100  0.91640600  1
  Te  Te16  1  0.26573000  0.50774200  0.31581700  1
  Te  Te17  1  0.76573000  0.49225800  0.18418300  1
  Te  Te18  1  0.73427000  0.49225800  0.68418300  1
  Te  Te19  1  0.23427000  0.50774200  0.81581700  1
  Te  Te20  1  0.31164800  0.95490000  0.48548400  1
  Te  Te21  1  0.81164800  0.04510000  0.01451600  1
  Te  Te22  1  0.68835200  0.04510000  0.51451600  1
  Te  Te23  1  0.18835200  0.95490000  0.98548400  1
  N  N24  1  0.53406300  0.67207100  0.37587900  1
  N  N25  1  0.03406300  0.32792900  0.12412100  1
  N  N26  1  0.46593700  0.32792900  0.62412100  1
  N  N27  1  0.96593700  0.67207100  0.87587900  1
