# generated using pymatgen
data_PuReB4
_symmetry_space_group_name_H-M   'P 1'
_cell_length_a   3.59479800
_cell_length_b   5.99204200
_cell_length_c   11.62275600
_cell_angle_alpha   90.00000000
_cell_angle_beta   90.00000000
_cell_angle_gamma   90.00000000
_symmetry_Int_Tables_number   1
_chemical_formula_structural   PuReB4
_chemical_formula_sum   'Pu4 Re4 B16'
_cell_volume   250.35626328
_cell_formula_units_Z   4
loop_
 _symmetry_equiv_pos_site_id
 _symmetry_equiv_pos_as_xyz
  1  'x, y, z'
loop_
 _atom_site_type_symbol
 _atom_site_label
 _atom_site_symmetry_multiplicity
 _atom_site_fract_x
 _atom_site_fract_y
 _atom_site_fract_z
 _atom_site_occupancy
  Pu  Pu0  1  0.00000000  0.62577800  0.34977700  1
  Pu  Pu1  1  0.00000000  0.37422200  0.65022300  1
  Pu  Pu2  1  0.00000000  0.12577800  0.15022300  1
  Pu  Pu3  1  0.00000000  0.87422200  0.84977700  1
  Re  Re4  1  0.00000000  0.63494400  0.09069600  1
  Re  Re5  1  0.00000000  0.36505600  0.90930400  1
  Re  Re6  1  0.00000000  0.13494400  0.40930400  1
  Re  Re7  1  0.00000000  0.86505600  0.59069600  1
  B  B8  1  0.50000000  0.78676800  0.18675800  1
  B  B9  1  0.50000000  0.21323200  0.81324200  1
  B  B10  1  0.50000000  0.28676800  0.31324200  1
  B  B11  1  0.50000000  0.71323200  0.68675800  1
  B  B12  1  0.50000000  0.86497900  0.03170400  1
  B  B13  1  0.50000000  0.13502100  0.96829600  1
  B  B14  1  0.50000000  0.36497900  0.46829600  1
  B  B15  1  0.50000000  0.63502100  0.53170400  1
  B  B16  1  0.50000000  0.88486000  0.45314200  1
  B  B17  1  0.50000000  0.11514000  0.54685800  1
  B  B18  1  0.50000000  0.38486000  0.04685800  1
  B  B19  1  0.50000000  0.61514000  0.95314200  1
  B  B20  1  0.50000000  0.97283000  0.30806300  1
  B  B21  1  0.50000000  0.02717000  0.69193700  1
  B  B22  1  0.50000000  0.47283000  0.19193700  1
  B  B23  1  0.50000000  0.52717000  0.80806300  1
