# generated using pymatgen
data_BaPPd
_symmetry_space_group_name_H-M   'P 1'
_cell_length_a   6.29757513
_cell_length_b   6.34766999
_cell_length_c   7.99048400
_cell_angle_alpha   90.00000000
_cell_angle_beta   90.00000000
_cell_angle_gamma   102.39163581
_symmetry_Int_Tables_number   1
_chemical_formula_structural   BaPPd
_chemical_formula_sum   'Ba4 P4 Pd4'
_cell_volume   311.97771953
_cell_formula_units_Z   4
loop_
 _symmetry_equiv_pos_site_id
 _symmetry_equiv_pos_as_xyz
  1  'x, y, z'
loop_
 _atom_site_type_symbol
 _atom_site_label
 _atom_site_symmetry_multiplicity
 _atom_site_fract_x
 _atom_site_fract_y
 _atom_site_fract_z
 _atom_site_occupancy
  Ba  Ba0  1  0.18834500  0.81321600  0.50196200  1
  Ba  Ba1  1  0.68834500  0.31321600  0.99803800  1
  Ba  Ba2  1  0.81165500  0.18678400  0.49803800  1
  Ba  Ba3  1  0.31165500  0.68678400  0.00196200  1
  P  P4  1  0.15219700  0.19554400  0.82788400  1
  P  P5  1  0.65219700  0.69554400  0.67211600  1
  P  P6  1  0.84780300  0.80445600  0.17211600  1
  P  P7  1  0.34780300  0.30445600  0.32788400  1
  Pd  Pd8  1  0.37981400  0.37660900  0.62289400  1
  Pd  Pd9  1  0.62018600  0.62339100  0.37710600  1
  Pd  Pd10  1  0.12018600  0.12339100  0.12289400  1
  Pd  Pd11  1  0.87981400  0.87660900  0.87710600  1
