# generated using pymatgen
data_Na3B3(HO2)4
_symmetry_space_group_name_H-M   'P 1'
_cell_length_a   7.53884662
_cell_length_b   7.53884662
_cell_length_c   7.10303079
_cell_angle_alpha   82.82569206
_cell_angle_beta   82.82569206
_cell_angle_gamma   62.08396563
_symmetry_Int_Tables_number   1
_chemical_formula_structural   Na3B3(HO2)4
_chemical_formula_sum   'Na6 B6 H8 O16'
_cell_volume   352.90907322
_cell_formula_units_Z   2
loop_
 _symmetry_equiv_pos_site_id
 _symmetry_equiv_pos_as_xyz
  1  'x, y, z'
loop_
 _atom_site_type_symbol
 _atom_site_label
 _atom_site_symmetry_multiplicity
 _atom_site_fract_x
 _atom_site_fract_y
 _atom_site_fract_z
 _atom_site_occupancy
  Na  Na0  1  0.82816900  0.01528300  0.04537100  1
  Na  Na1  1  0.01528300  0.82816900  0.54537100  1
  Na  Na2  1  0.26394100  0.08001800  0.15142500  1
  Na  Na3  1  0.08001800  0.26394100  0.65142500  1
  Na  Na4  1  0.49919400  0.53223700  0.12210000  1
  Na  Na5  1  0.53223700  0.49919400  0.62210000  1
  B  B6  1  0.09654500  0.53713400  0.25127600  1
  B  B7  1  0.53713400  0.09654500  0.75127600  1
  B  B8  1  0.73885900  0.71340500  0.81073700  1
  B  B9  1  0.71340500  0.73885900  0.31073700  1
  B  B10  1  0.35464300  0.87936300  0.81018300  1
  B  B11  1  0.87936300  0.35464300  0.31018300  1
  H  H12  1  0.37701600  0.87940600  0.51559600  1
  H  H13  1  0.87940600  0.37701600  0.01559600  1
  H  H14  1  0.32563500  0.41193700  0.43103800  1
  H  H15  1  0.41193700  0.32563500  0.93103800  1
  H  H16  1  0.19313200  0.74821800  0.97939100  1
  H  H17  1  0.74821800  0.19313200  0.47939100  1
  H  H18  1  0.08460800  0.53539100  0.95686600  1
  H  H19  1  0.53539100  0.08460800  0.45686600  1
  O  O20  1  0.28854800  0.86243700  0.62601900  1
  O  O21  1  0.86243700  0.28854800  0.12601900  1
  O  O22  1  0.24450600  0.54663000  0.36653500  1
  O  O23  1  0.54663000  0.24450600  0.86653500  1
  O  O24  1  0.20507200  0.87573200  0.96450100  1
  O  O25  1  0.87573200  0.20507200  0.46450100  1
  O  O26  1  0.18453700  0.52652200  0.04626000  1
  O  O27  1  0.52652200  0.18453700  0.54626000  1
  O  O28  1  0.06822700  0.36179500  0.31901700  1
  O  O29  1  0.36179500  0.06822700  0.81901700  1
  O  O30  1  0.90515600  0.73005600  0.26743000  1
  O  O31  1  0.73005600  0.90515600  0.76743000  1
  O  O32  1  0.55679400  0.70128100  0.84035400  1
  O  O33  1  0.70128100  0.55679400  0.34035400  1
  O  O34  1  0.91638400  0.54565000  0.82312000  1
  O  O35  1  0.54565000  0.91638400  0.32312000  1
