# generated using pymatgen
data_Ba(GeAu)2
_symmetry_space_group_name_H-M   'P 1'
_cell_length_a   6.29396750
_cell_length_b   6.29396750
_cell_length_c   6.29396750
_cell_angle_alpha   135.85378333
_cell_angle_beta   135.85378333
_cell_angle_gamma   64.20646963
_symmetry_Int_Tables_number   1
_chemical_formula_structural   Ba(GeAu)2
_chemical_formula_sum   'Ba1 Ge2 Au2'
_cell_volume   119.30344088
_cell_formula_units_Z   1
loop_
 _symmetry_equiv_pos_site_id
 _symmetry_equiv_pos_as_xyz
  1  'x, y, z'
loop_
 _atom_site_type_symbol
 _atom_site_label
 _atom_site_symmetry_multiplicity
 _atom_site_fract_x
 _atom_site_fract_y
 _atom_site_fract_z
 _atom_site_occupancy
  Ba  Ba0  1  0.00000000  0.00000000  0.00000000  1
  Ge  Ge1  1  0.62441200  0.62441200  0.00000000  1
  Ge  Ge2  1  0.37558800  0.37558800  0.00000000  1
  Au  Au3  1  0.75000000  0.25000000  0.50000000  1
  Au  Au4  1  0.25000000  0.75000000  0.50000000  1
