# generated using pymatgen
data_Cs4Nb2S11
_symmetry_space_group_name_H-M   'P 1'
_cell_length_a   14.24491400
_cell_length_b   8.24293400
_cell_length_c   18.75667000
_cell_angle_alpha   90.00000000
_cell_angle_beta   90.00000000
_cell_angle_gamma   90.00000000
_symmetry_Int_Tables_number   1
_chemical_formula_structural   Cs4Nb2S11
_chemical_formula_sum   'Cs16 Nb8 S44'
_cell_volume   2202.40605197
_cell_formula_units_Z   4
loop_
 _symmetry_equiv_pos_site_id
 _symmetry_equiv_pos_as_xyz
  1  'x, y, z'
loop_
 _atom_site_type_symbol
 _atom_site_label
 _atom_site_symmetry_multiplicity
 _atom_site_fract_x
 _atom_site_fract_y
 _atom_site_fract_z
 _atom_site_occupancy
  Cs  Cs0  1  0.54796100  0.29995600  0.30295900  1
  Cs  Cs1  1  0.45203900  0.70004400  0.80295900  1
  Cs  Cs2  1  0.95203900  0.29995600  0.80295900  1
  Cs  Cs3  1  0.04796100  0.70004400  0.30295900  1
  Cs  Cs4  1  0.73711900  0.83804300  0.40907400  1
  Cs  Cs5  1  0.26288100  0.16195700  0.90907400  1
  Cs  Cs6  1  0.76288100  0.83804300  0.90907400  1
  Cs  Cs7  1  0.23711900  0.16195700  0.40907400  1
  Cs  Cs8  1  0.71442800  0.68932000  0.15684700  1
  Cs  Cs9  1  0.28557200  0.31068000  0.65684700  1
  Cs  Cs10  1  0.78557200  0.68932000  0.65684700  1
  Cs  Cs11  1  0.21442800  0.31068000  0.15684700  1
  Cs  Cs12  1  0.57710200  0.32214800  0.00515700  1
  Cs  Cs13  1  0.42289800  0.67785200  0.50515700  1
  Cs  Cs14  1  0.92289800  0.32214800  0.50515700  1
  Cs  Cs15  1  0.07710200  0.67785200  0.00515700  1
  Nb  Nb16  1  0.62154800  0.27916000  0.74913300  1
  Nb  Nb17  1  0.37845200  0.72084000  0.24913300  1
  Nb  Nb18  1  0.87845200  0.27916000  0.24913300  1
  Nb  Nb19  1  0.12154800  0.72084000  0.74913300  1
  Nb  Nb20  1  0.57074000  0.23661600  0.56448400  1
  Nb  Nb21  1  0.42926000  0.76338400  0.06448400  1
  Nb  Nb22  1  0.92926000  0.23661600  0.06448400  1
  Nb  Nb23  1  0.07074000  0.76338400  0.56448400  1
  S  S24  1  0.52594800  0.04367200  0.66163300  1
  S  S25  1  0.47405200  0.95632800  0.16163300  1
  S  S26  1  0.97405200  0.04367200  0.16163300  1
  S  S27  1  0.02594800  0.95632800  0.66163300  1
  S  S28  1  0.74039600  0.25114000  0.65078300  1
  S  S29  1  0.25960400  0.74886000  0.15078300  1
  S  S30  1  0.75960400  0.25114000  0.15078300  1
  S  S31  1  0.24039600  0.74886000  0.65078300  1
  S  S32  1  0.53695700  0.75793300  0.30013600  1
  S  S33  1  0.46304300  0.24206700  0.80013600  1
  S  S34  1  0.96304300  0.75793300  0.80013600  1
  S  S35  1  0.03695700  0.24206700  0.30013600  1
  S  S36  1  0.60266900  0.94353500  0.57802800  1
  S  S37  1  0.39733100  0.05646500  0.07802800  1
  S  S38  1  0.89733100  0.94353500  0.07802800  1
  S  S39  1  0.10266900  0.05646500  0.57802800  1
  S  S40  1  0.68528100  0.23372900  0.46240700  1
  S  S41  1  0.31471900  0.76627100  0.96240700  1
  S  S42  1  0.81471900  0.23372900  0.96240700  1
  S  S43  1  0.18528100  0.76627100  0.46240700  1
  S  S44  1  0.74787100  0.08420500  0.23339300  1
  S  S45  1  0.25212900  0.91579500  0.73339300  1
  S  S46  1  0.75212900  0.08420500  0.73339300  1
  S  S47  1  0.24787100  0.91579500  0.23339300  1
  S  S48  1  0.56336900  0.09230100  0.84618900  1
  S  S49  1  0.43663100  0.90769900  0.34618900  1
  S  S50  1  0.93663100  0.09230100  0.34618900  1
  S  S51  1  0.06336900  0.90769900  0.84618900  1
  S  S52  1  0.66798900  0.45633800  0.51240400  1
  S  S53  1  0.33201100  0.54366200  0.01240400  1
  S  S54  1  0.83201100  0.45633800  0.01240400  1
  S  S55  1  0.16798900  0.54366200  0.51240400  1
  S  S56  1  0.53553000  0.44838600  0.65771900  1
  S  S57  1  0.46447000  0.55161400  0.15771900  1
  S  S58  1  0.96447000  0.44838600  0.15771900  1
  S  S59  1  0.03553000  0.55161400  0.65771900  1
  S  S60  1  0.56410900  0.75091800  0.00148800  1
  S  S61  1  0.43589100  0.24908200  0.50148800  1
  S  S62  1  0.93589100  0.75091800  0.50148800  1
  S  S63  1  0.06410900  0.24908200  0.00148800  1
  S  S64  1  0.68413300  0.48247600  0.81446500  1
  S  S65  1  0.31586700  0.51752400  0.31446500  1
  S  S66  1  0.81586700  0.48247600  0.31446500  1
  S  S67  1  0.18413300  0.51752400  0.81446500  1
