# generated using pymatgen
data_Hf21Re25
_symmetry_space_group_name_H-M   'P 1'
_cell_length_a   15.17703248
_cell_length_b   15.17703248
_cell_length_c   15.17703191
_cell_angle_alpha   116.40865620
_cell_angle_beta   116.40865620
_cell_angle_gamma   116.40865467
_symmetry_Int_Tables_number   1
_chemical_formula_structural   Hf21Re25
_chemical_formula_sum   'Hf42 Re50'
_cell_volume   1678.64952347
_cell_formula_units_Z   2
loop_
 _symmetry_equiv_pos_site_id
 _symmetry_equiv_pos_as_xyz
  1  'x, y, z'
loop_
 _atom_site_type_symbol
 _atom_site_label
 _atom_site_symmetry_multiplicity
 _atom_site_fract_x
 _atom_site_fract_y
 _atom_site_fract_z
 _atom_site_occupancy
  Hf  Hf0  1  0.05463400  0.44536600  0.75000000  1
  Hf  Hf1  1  0.75000000  0.05463400  0.44536600  1
  Hf  Hf2  1  0.44536600  0.75000000  0.05463400  1
  Hf  Hf3  1  0.25000000  0.94536600  0.55463400  1
  Hf  Hf4  1  0.55463400  0.25000000  0.94536600  1
  Hf  Hf5  1  0.94536600  0.55463400  0.25000000  1
  Hf  Hf6  1  0.95322100  0.72695600  0.18611900  1
  Hf  Hf7  1  0.18611900  0.95322100  0.72695600  1
  Hf  Hf8  1  0.72695600  0.18611900  0.95322100  1
  Hf  Hf9  1  0.68611900  0.22695600  0.45322100  1
  Hf  Hf10  1  0.45322100  0.68611900  0.22695600  1
  Hf  Hf11  1  0.22695600  0.45322100  0.68611900  1
  Hf  Hf12  1  0.04677900  0.27304400  0.81388100  1
  Hf  Hf13  1  0.81388100  0.04677900  0.27304400  1
  Hf  Hf14  1  0.27304400  0.81388100  0.04677900  1
  Hf  Hf15  1  0.31388100  0.77304400  0.54677900  1
  Hf  Hf16  1  0.54677900  0.31388100  0.77304400  1
  Hf  Hf17  1  0.77304400  0.54677900  0.31388100  1
  Hf  Hf18  1  0.81864400  0.93401400  0.04950600  1
  Hf  Hf19  1  0.04950600  0.81864400  0.93401400  1
  Hf  Hf20  1  0.93401400  0.04950600  0.81864400  1
  Hf  Hf21  1  0.54950600  0.43401400  0.31864400  1
  Hf  Hf22  1  0.31864400  0.54950600  0.43401400  1
  Hf  Hf23  1  0.43401400  0.31864400  0.54950600  1
  Hf  Hf24  1  0.18135600  0.06598600  0.95049400  1
  Hf  Hf25  1  0.95049400  0.18135600  0.06598600  1
  Hf  Hf26  1  0.06598600  0.95049400  0.18135600  1
  Hf  Hf27  1  0.45049400  0.56598600  0.68135600  1
  Hf  Hf28  1  0.68135600  0.45049400  0.56598600  1
  Hf  Hf29  1  0.56598600  0.68135600  0.45049400  1
  Hf  Hf30  1  0.43916600  0.95741700  0.86210300  1
  Hf  Hf31  1  0.86210300  0.43916600  0.95741700  1
  Hf  Hf32  1  0.95741700  0.86210300  0.43916600  1
  Hf  Hf33  1  0.36210300  0.45741700  0.93916600  1
  Hf  Hf34  1  0.93916600  0.36210300  0.45741700  1
  Hf  Hf35  1  0.45741700  0.93916600  0.36210300  1
  Hf  Hf36  1  0.56083400  0.04258300  0.13789700  1
  Hf  Hf37  1  0.13789700  0.56083400  0.04258300  1
  Hf  Hf38  1  0.04258300  0.13789700  0.56083400  1
  Hf  Hf39  1  0.63789700  0.54258300  0.06083400  1
  Hf  Hf40  1  0.06083400  0.63789700  0.54258300  1
  Hf  Hf41  1  0.54258300  0.06083400  0.63789700  1
  Re  Re42  1  0.00000000  0.00000000  0.00000000  1
  Re  Re43  1  0.50000000  0.50000000  0.50000000  1
  Re  Re44  1  0.68862900  0.81137100  0.75000000  1
  Re  Re45  1  0.75000000  0.68862900  0.81137100  1
  Re  Re46  1  0.81137100  0.75000000  0.68862900  1
  Re  Re47  1  0.25000000  0.31137100  0.18862900  1
  Re  Re48  1  0.18862900  0.25000000  0.31137100  1
  Re  Re49  1  0.31137100  0.18862900  0.25000000  1
  Re  Re50  1  0.30626200  0.19373800  0.75000000  1
  Re  Re51  1  0.75000000  0.30626200  0.19373800  1
  Re  Re52  1  0.19373800  0.75000000  0.30626200  1
  Re  Re53  1  0.25000000  0.69373800  0.80626200  1
  Re  Re54  1  0.80626200  0.25000000  0.69373800  1
  Re  Re55  1  0.69373800  0.80626200  0.25000000  1
  Re  Re56  1  0.69363100  0.63177000  0.93006800  1
  Re  Re57  1  0.93006800  0.69363100  0.63177000  1
  Re  Re58  1  0.63177000  0.93006800  0.69363100  1
  Re  Re59  1  0.43006800  0.13177000  0.19363100  1
  Re  Re60  1  0.19363100  0.43006800  0.13177000  1
  Re  Re61  1  0.13177000  0.19363100  0.43006800  1
  Re  Re62  1  0.30636900  0.36823000  0.06993200  1
  Re  Re63  1  0.06993200  0.30636900  0.36823000  1
  Re  Re64  1  0.36823000  0.06993200  0.30636900  1
  Re  Re65  1  0.56993200  0.86823000  0.80636900  1
  Re  Re66  1  0.80636900  0.56993200  0.86823000  1
  Re  Re67  1  0.86823000  0.80636900  0.56993200  1
  Re  Re68  1  0.51943600  0.81183900  0.92946600  1
  Re  Re69  1  0.92946600  0.51943600  0.81183900  1
  Re  Re70  1  0.81183900  0.92946600  0.51943600  1
  Re  Re71  1  0.42946600  0.31183900  0.01943600  1
  Re  Re72  1  0.01943600  0.42946600  0.31183900  1
  Re  Re73  1  0.31183900  0.01943600  0.42946600  1
  Re  Re74  1  0.48056400  0.18816100  0.07053400  1
  Re  Re75  1  0.07053400  0.48056400  0.18816100  1
  Re  Re76  1  0.18816100  0.07053400  0.48056400  1
  Re  Re77  1  0.57053400  0.68816100  0.98056400  1
  Re  Re78  1  0.98056400  0.57053400  0.68816100  1
  Re  Re79  1  0.68816100  0.98056400  0.57053400  1
  Re  Re80  1  0.76456300  0.11918500  0.11638900  1
  Re  Re81  1  0.11638900  0.76456300  0.11918500  1
  Re  Re82  1  0.11918500  0.11638900  0.76456300  1
  Re  Re83  1  0.61638900  0.61918500  0.26456300  1
  Re  Re84  1  0.26456300  0.61638900  0.61918500  1
  Re  Re85  1  0.61918500  0.26456300  0.61638900  1
  Re  Re86  1  0.23543700  0.88081500  0.88361100  1
  Re  Re87  1  0.88361100  0.23543700  0.88081500  1
  Re  Re88  1  0.88081500  0.88361100  0.23543700  1
  Re  Re89  1  0.38361100  0.38081500  0.73543700  1
  Re  Re90  1  0.73543700  0.38361100  0.38081500  1
  Re  Re91  1  0.38081500  0.73543700  0.38361100  1
