# generated using pymatgen
data_Bi6As4PbO20
_symmetry_space_group_name_H-M   'P 1'
_cell_length_a   7.20124584
_cell_length_b   7.99431815
_cell_length_c   9.50705113
_cell_angle_alpha   106.75700422
_cell_angle_beta   93.78333641
_cell_angle_gamma   111.98308044
_symmetry_Int_Tables_number   1
_chemical_formula_structural   Bi6As4PbO20
_chemical_formula_sum   'Bi6 As4 Pb1 O20'
_cell_volume   476.55562008
_cell_formula_units_Z   1
loop_
 _symmetry_equiv_pos_site_id
 _symmetry_equiv_pos_as_xyz
  1  'x, y, z'
loop_
 _atom_site_type_symbol
 _atom_site_label
 _atom_site_symmetry_multiplicity
 _atom_site_fract_x
 _atom_site_fract_y
 _atom_site_fract_z
 _atom_site_occupancy
  Bi  Bi0  1  0.33604700  0.12199600  0.51451100  1
  Bi  Bi1  1  0.66395300  0.87800400  0.48548900  1
  Bi  Bi2  1  0.43991300  0.79905200  0.08528100  1
  Bi  Bi3  1  0.56008700  0.20094800  0.91471900  1
  Bi  Bi4  1  0.80179300  0.29318800  0.32419300  1
  Bi  Bi5  1  0.19820700  0.70681200  0.67580700  1
  As  As6  1  0.04736900  0.27333600  0.75886300  1
  As  As7  1  0.95263100  0.72666400  0.24113700  1
  As  As8  1  0.34944700  0.40154500  0.25730300  1
  As  As9  1  0.65055300  0.59845500  0.74269700  1
  Pb  Pb10  1  0.00000000  0.00000000  0.00000000  1
  O  O11  1  0.11691200  0.25096700  0.27992100  1
  O  O12  1  0.88308800  0.74903300  0.72007900  1
  O  O13  1  0.15077700  0.51955400  0.83691400  1
  O  O14  1  0.84922300  0.48044600  0.16308600  1
  O  O15  1  0.66737700  0.09298400  0.10089600  1
  O  O16  1  0.33262300  0.90701600  0.89910400  1
  O  O17  1  0.55229100  0.02912900  0.36414500  1
  O  O18  1  0.44770900  0.97087100  0.63585500  1
  O  O19  1  0.37172800  0.63433000  0.31024300  1
  O  O20  1  0.62827200  0.36567000  0.68975700  1
  O  O21  1  0.22762600  0.17676600  0.75502600  1
  O  O22  1  0.77237400  0.82323400  0.24497400  1
  O  O23  1  0.53961600  0.38696700  0.36715600  1
  O  O24  1  0.46038400  0.61303300  0.63284400  1
  O  O25  1  0.06199300  0.80001400  0.42836800  1
  O  O26  1  0.93800700  0.19998600  0.57163200  1
  O  O27  1  0.13050100  0.83050300  0.14422700  1
  O  O28  1  0.86949900  0.16949700  0.85577300  1
  O  O29  1  0.35193800  0.31796700  0.06907400  1
  O  O30  1  0.64806200  0.68203300  0.93092600  1
