# generated using pymatgen
data_Sr3Li6Ta2O11
_symmetry_space_group_name_H-M   'P 1'
_cell_length_a   5.87904000
_cell_length_b   8.43252300
_cell_length_c   10.67961500
_cell_angle_alpha   90.00000000
_cell_angle_beta   90.00000000
_cell_angle_gamma   90.00000000
_symmetry_Int_Tables_number   1
_chemical_formula_structural   Sr3Li6Ta2O11
_chemical_formula_sum   'Sr6 Li12 Ta4 O22'
_cell_volume   529.44340896
_cell_formula_units_Z   2
loop_
 _symmetry_equiv_pos_site_id
 _symmetry_equiv_pos_as_xyz
  1  'x, y, z'
loop_
 _atom_site_type_symbol
 _atom_site_label
 _atom_site_symmetry_multiplicity
 _atom_site_fract_x
 _atom_site_fract_y
 _atom_site_fract_z
 _atom_site_occupancy
  Sr  Sr0  1  0.61675000  0.00000000  0.75000000  1
  Sr  Sr1  1  0.38325000  0.00000000  0.25000000  1
  Sr  Sr2  1  0.50000000  0.26314300  0.50000000  1
  Sr  Sr3  1  0.50000000  0.73685700  0.50000000  1
  Sr  Sr4  1  0.50000000  0.73685700  0.00000000  1
  Sr  Sr5  1  0.50000000  0.26314300  0.00000000  1
  Li  Li6  1  0.78142800  0.31654400  0.75000000  1
  Li  Li7  1  0.21857200  0.68345600  0.25000000  1
  Li  Li8  1  0.78142800  0.68345600  0.75000000  1
  Li  Li9  1  0.21857200  0.31654400  0.25000000  1
  Li  Li10  1  0.00000000  0.35487400  0.50000000  1
  Li  Li11  1  0.00000000  0.64512600  0.50000000  1
  Li  Li12  1  0.00000000  0.64512600  0.00000000  1
  Li  Li13  1  0.00000000  0.35487400  0.00000000  1
  Li  Li14  1  0.14818600  0.14598200  0.75000000  1
  Li  Li15  1  0.85181400  0.85401800  0.25000000  1
  Li  Li16  1  0.14818600  0.85401800  0.75000000  1
  Li  Li17  1  0.85181400  0.14598200  0.25000000  1
  Ta  Ta18  1  0.26499800  0.50000000  0.75000000  1
  Ta  Ta19  1  0.73500200  0.50000000  0.25000000  1
  Ta  Ta20  1  0.00000000  0.00000000  0.50000000  1
  Ta  Ta21  1  0.00000000  0.00000000  0.00000000  1
  O  O22  1  0.25350400  0.50000000  0.56145000  1
  O  O23  1  0.74649600  0.50000000  0.43855000  1
  O  O24  1  0.25350400  0.50000000  0.93855000  1
  O  O25  1  0.74649600  0.50000000  0.06145000  1
  O  O26  1  0.28066800  0.00000000  0.60687700  1
  O  O27  1  0.71933200  0.00000000  0.39312300  1
  O  O28  1  0.28066800  0.00000000  0.89312300  1
  O  O29  1  0.71933200  0.00000000  0.10687700  1
  O  O30  1  0.13286000  0.17295200  0.11025000  1
  O  O31  1  0.86714000  0.82704800  0.88975000  1
  O  O32  1  0.13286000  0.82704800  0.38975000  1
  O  O33  1  0.86714000  0.17295200  0.88975000  1
  O  O34  1  0.86714000  0.17295200  0.61025000  1
  O  O35  1  0.13286000  0.82704800  0.11025000  1
  O  O36  1  0.86714000  0.82704800  0.61025000  1
  O  O37  1  0.13286000  0.17295200  0.38975000  1
  O  O38  1  0.43163500  0.30163100  0.75000000  1
  O  O39  1  0.56836500  0.69836900  0.25000000  1
  O  O40  1  0.43163500  0.69836900  0.75000000  1
  O  O41  1  0.56836500  0.30163100  0.25000000  1
  O  O42  1  0.94572500  0.50000000  0.75000000  1
  O  O43  1  0.05427500  0.50000000  0.25000000  1
