# generated using pymatgen
data_Cs2U(PtS2)3
_symmetry_space_group_name_H-M   'P 1'
_cell_length_a   11.60366697
_cell_length_b   9.90409304
_cell_length_c   9.23000534
_cell_angle_alpha   74.57157702
_cell_angle_beta   55.36335982
_cell_angle_gamma   50.06506316
_symmetry_Int_Tables_number   1
_chemical_formula_structural   Cs2U(PtS2)3
_chemical_formula_sum   'Cs4 U2 Pt6 S12'
_cell_volume   660.94586844
_cell_formula_units_Z   2
loop_
 _symmetry_equiv_pos_site_id
 _symmetry_equiv_pos_as_xyz
  1  'x, y, z'
loop_
 _atom_site_type_symbol
 _atom_site_label
 _atom_site_symmetry_multiplicity
 _atom_site_fract_x
 _atom_site_fract_y
 _atom_site_fract_z
 _atom_site_occupancy
  Cs  Cs0  1  0.75000000  0.75000000  0.75000000  1
  Cs  Cs1  1  0.25000000  0.25000000  0.25000000  1
  Cs  Cs2  1  0.30514600  0.69485400  0.30514600  1
  Cs  Cs3  1  0.69485400  0.30514600  0.69485400  1
  U  U4  1  0.83265700  0.83265700  0.16734300  1
  U  U5  1  0.16734300  0.16734300  0.83265700  1
  Pt  Pt6  1  0.50327900  0.17373100  0.49672100  1
  Pt  Pt7  1  0.82626900  0.49672100  0.17373100  1
  Pt  Pt8  1  0.49672100  0.82626900  0.50327900  1
  Pt  Pt9  1  0.17373100  0.50327900  0.82626900  1
  Pt  Pt10  1  0.83009700  0.16990300  0.16990300  1
  Pt  Pt11  1  0.16990300  0.83009700  0.83009700  1
  S  S12  1  0.81070900  0.98738800  0.39443500  1
  S  S13  1  0.80746700  0.39443500  0.98738800  1
  S  S14  1  0.39443500  0.80746700  0.81070900  1
  S  S15  1  0.98738800  0.81070900  0.80746700  1
  S  S16  1  0.18929100  0.01261200  0.60556500  1
  S  S17  1  0.19253300  0.60556500  0.01261200  1
  S  S18  1  0.60556500  0.19253300  0.18929100  1
  S  S19  1  0.01261200  0.18929100  0.19253300  1
  S  S20  1  0.80328000  0.60042900  0.39957100  1
  S  S21  1  0.19672000  0.39957100  0.60042900  1
  S  S22  1  0.39957100  0.19672000  0.80328000  1
  S  S23  1  0.60042900  0.80328000  0.19672000  1
