# generated using pymatgen
data_Ca3Hf3AgF20
_symmetry_space_group_name_H-M   'P 1'
_cell_length_a   10.69926003
_cell_length_b   10.69926003
_cell_length_c   8.50373800
_cell_angle_alpha   90.00000000
_cell_angle_beta   90.00000000
_cell_angle_gamma   120.00000021
_symmetry_Int_Tables_number   1
_chemical_formula_structural   Ca3Hf3AgF20
_chemical_formula_sum   'Ca6 Hf6 Ag2 F40'
_cell_volume   843.03962348
_cell_formula_units_Z   2
loop_
 _symmetry_equiv_pos_site_id
 _symmetry_equiv_pos_as_xyz
  1  'x, y, z'
loop_
 _atom_site_type_symbol
 _atom_site_label
 _atom_site_symmetry_multiplicity
 _atom_site_fract_x
 _atom_site_fract_y
 _atom_site_fract_z
 _atom_site_occupancy
  Ca  Ca0  1  0.72804300  0.16197600  0.75000000  1
  Ca  Ca1  1  0.27195700  0.83802400  0.25000000  1
  Ca  Ca2  1  0.43393300  0.27195700  0.75000000  1
  Ca  Ca3  1  0.56606700  0.72804300  0.25000000  1
  Ca  Ca4  1  0.83802400  0.56606700  0.75000000  1
  Ca  Ca5  1  0.16197600  0.43393300  0.25000000  1
  Hf  Hf6  1  0.58391100  0.72267500  0.75000000  1
  Hf  Hf7  1  0.41608900  0.27732500  0.25000000  1
  Hf  Hf8  1  0.13876400  0.41608900  0.75000000  1
  Hf  Hf9  1  0.86123600  0.58391100  0.25000000  1
  Hf  Hf10  1  0.27732500  0.86123600  0.75000000  1
  Hf  Hf11  1  0.72267500  0.13876400  0.25000000  1
  Ag  Ag12  1  0.00000000  0.00000000  0.75000000  1
  Ag  Ag13  1  0.00000000  0.00000000  0.25000000  1
  F  F14  1  0.57480300  0.72028200  0.98430900  1
  F  F15  1  0.42519700  0.27971800  0.01569100  1
  F  F16  1  0.14547800  0.42519700  0.98430900  1
  F  F17  1  0.42519700  0.27971800  0.48430900  1
  F  F18  1  0.85452200  0.57480300  0.01569100  1
  F  F19  1  0.57480300  0.72028200  0.51569100  1
  F  F20  1  0.27971800  0.85452200  0.98430900  1
  F  F21  1  0.85452200  0.57480300  0.48430900  1
  F  F22  1  0.72028200  0.14547800  0.01569100  1
  F  F23  1  0.14547800  0.42519700  0.51569100  1
  F  F24  1  0.72028200  0.14547800  0.48430900  1
  F  F25  1  0.27971800  0.85452200  0.51569100  1
  F  F26  1  0.71683400  0.94109000  0.75000000  1
  F  F27  1  0.28316600  0.05891000  0.25000000  1
  F  F28  1  0.22425500  0.28316600  0.75000000  1
  F  F29  1  0.77574500  0.71683400  0.25000000  1
  F  F30  1  0.05891000  0.77574500  0.75000000  1
  F  F31  1  0.94109000  0.22425500  0.25000000  1
  F  F32  1  0.96720100  0.20285700  0.75000000  1
  F  F33  1  0.03279900  0.79714300  0.25000000  1
  F  F34  1  0.23565600  0.03279900  0.75000000  1
  F  F35  1  0.76434400  0.96720100  0.25000000  1
  F  F36  1  0.79714300  0.76434400  0.75000000  1
  F  F37  1  0.20285700  0.23565600  0.25000000  1
  F  F38  1  0.66666700  0.33333300  0.75000000  1
  F  F39  1  0.33333300  0.66666700  0.25000000  1
  F  F40  1  0.36593200  0.55080600  0.75000000  1
  F  F41  1  0.63406800  0.44919400  0.25000000  1
  F  F42  1  0.18487300  0.63406800  0.75000000  1
  F  F43  1  0.81512700  0.36593200  0.25000000  1
  F  F44  1  0.44919400  0.81512700  0.75000000  1
  F  F45  1  0.55080600  0.18487300  0.25000000  1
  F  F46  1  0.94363300  0.41405300  0.75000000  1
  F  F47  1  0.05636700  0.58594700  0.25000000  1
  F  F48  1  0.47042000  0.05636700  0.75000000  1
  F  F49  1  0.52958000  0.94363300  0.25000000  1
  F  F50  1  0.58594700  0.52958000  0.75000000  1
  F  F51  1  0.41405300  0.47042000  0.25000000  1
  F  F52  1  0.00000000  0.00000000  0.00000000  1
  F  F53  1  0.00000000  0.00000000  0.50000000  1
