# generated using pymatgen
data_K2TcH9
_symmetry_space_group_name_H-M   'P 1'
_cell_length_a   9.60458559
_cell_length_b   9.60458559
_cell_length_c   5.59660400
_cell_angle_alpha   90.00000000
_cell_angle_beta   90.00000000
_cell_angle_gamma   119.99999720
_symmetry_Int_Tables_number   1
_chemical_formula_structural   K2TcH9
_chemical_formula_sum   'K6 Tc3 H27'
_cell_volume   447.10804558
_cell_formula_units_Z   3
loop_
 _symmetry_equiv_pos_site_id
 _symmetry_equiv_pos_as_xyz
  1  'x, y, z'
loop_
 _atom_site_type_symbol
 _atom_site_label
 _atom_site_symmetry_multiplicity
 _atom_site_fract_x
 _atom_site_fract_y
 _atom_site_fract_z
 _atom_site_occupancy
  K  K0  1  0.26207300  0.00000000  0.50000000  1
  K  K1  1  0.00000000  0.26207300  0.50000000  1
  K  K2  1  0.73792700  0.73792700  0.50000000  1
  K  K3  1  0.58853400  0.00000000  0.00000000  1
  K  K4  1  0.00000000  0.58853400  0.00000000  1
  K  K5  1  0.41146600  0.41146600  0.00000000  1
  Tc  Tc6  1  0.00000000  0.00000000  0.00000000  1
  Tc  Tc7  1  0.33333300  0.66666700  0.50000000  1
  Tc  Tc8  1  0.66666700  0.33333300  0.50000000  1
  H  H9  1  0.87325400  0.00000000  0.21145300  1
  H  H10  1  0.00000000  0.87325400  0.21145300  1
  H  H11  1  0.87325400  0.00000000  0.78854700  1
  H  H12  1  0.00000000  0.87325400  0.78854700  1
  H  H13  1  0.12674600  0.12674600  0.21145300  1
  H  H14  1  0.12674600  0.12674600  0.78854700  1
  H  H15  1  0.17236900  0.00000000  0.00000000  1
  H  H16  1  0.00000000  0.17236900  0.00000000  1
  H  H17  1  0.82763100  0.82763100  0.00000000  1
  H  H18  1  0.22524000  0.53364000  0.28183500  1
  H  H19  1  0.46636000  0.69160000  0.28183500  1
  H  H20  1  0.22524000  0.53364000  0.71816500  1
  H  H21  1  0.53364000  0.22524000  0.71816500  1
  H  H22  1  0.30840000  0.77476000  0.28183500  1
  H  H23  1  0.46636000  0.69160000  0.71816500  1
  H  H24  1  0.69160000  0.46636000  0.71816500  1
  H  H25  1  0.53364000  0.22524000  0.28183500  1
  H  H26  1  0.30840000  0.77476000  0.71816500  1
  H  H27  1  0.69160000  0.46636000  0.28183500  1
  H  H28  1  0.77476000  0.30840000  0.71816500  1
  H  H29  1  0.77476000  0.30840000  0.28183500  1
  H  H30  1  0.36806500  0.51387600  0.50000000  1
  H  H31  1  0.48612400  0.85418900  0.50000000  1
  H  H32  1  0.51387600  0.36806500  0.50000000  1
  H  H33  1  0.14581100  0.63193500  0.50000000  1
  H  H34  1  0.85418900  0.48612400  0.50000000  1
  H  H35  1  0.63193500  0.14581100  0.50000000  1
