# generated using pymatgen
data_YGaAg
_symmetry_space_group_name_H-M   'P 1'
_cell_length_a   5.76172930
_cell_length_b   5.76172930
_cell_length_c   7.20327834
_cell_angle_alpha   52.02845075
_cell_angle_beta   52.02845075
_cell_angle_gamma   46.97095831
_symmetry_Int_Tables_number   1
_chemical_formula_structural   YGaAg
_chemical_formula_sum   'Y2 Ga2 Ag2'
_cell_volume   129.63668822
_cell_formula_units_Z   2
loop_
 _symmetry_equiv_pos_site_id
 _symmetry_equiv_pos_as_xyz
  1  'x, y, z'
loop_
 _atom_site_type_symbol
 _atom_site_label
 _atom_site_symmetry_multiplicity
 _atom_site_fract_x
 _atom_site_fract_y
 _atom_site_fract_z
 _atom_site_occupancy
  Y  Y0  1  0.53542300  0.53542300  0.70948600  1
  Y  Y1  1  0.46457700  0.46457700  0.29051400  1
  Ga  Ga2  1  0.84099700  0.84099700  0.11605300  1
  Ga  Ga3  1  0.15900300  0.15900300  0.88394700  1
  Ag  Ag4  1  0.17420900  0.17420900  0.27713600  1
  Ag  Ag5  1  0.82579100  0.82579100  0.72286400  1
