# generated using pymatgen
data_Nd12(MnC3)5
_symmetry_space_group_name_H-M   'P 1'
_cell_length_a   5.30014400
_cell_length_b   10.78105431
_cell_length_c   10.78105431
_cell_angle_alpha   120.00000189
_cell_angle_beta   90.00000000
_cell_angle_gamma   90.00000000
_symmetry_Int_Tables_number   1
_chemical_formula_structural   Nd12(MnC3)5
_chemical_formula_sum   'Nd12 Mn5 C15'
_cell_volume   533.50778378
_cell_formula_units_Z   1
loop_
 _symmetry_equiv_pos_site_id
 _symmetry_equiv_pos_as_xyz
  1  'x, y, z'
loop_
 _atom_site_type_symbol
 _atom_site_label
 _atom_site_symmetry_multiplicity
 _atom_site_fract_x
 _atom_site_fract_y
 _atom_site_fract_z
 _atom_site_occupancy
  Nd  Nd0  1  0.50000000  0.20699300  0.20699300  1
  Nd  Nd1  1  0.50000000  0.00000000  0.79300700  1
  Nd  Nd2  1  0.50000000  0.79300700  0.00000000  1
  Nd  Nd3  1  0.00000000  0.72898800  0.18626700  1
  Nd  Nd4  1  0.00000000  0.45727800  0.27101200  1
  Nd  Nd5  1  0.00000000  0.54272200  0.81373300  1
  Nd  Nd6  1  0.00000000  0.81373300  0.54272200  1
  Nd  Nd7  1  0.00000000  0.18626700  0.72898800  1
  Nd  Nd8  1  0.00000000  0.27101200  0.45727800  1
  Nd  Nd9  1  0.50000000  0.57598100  0.57598100  1
  Nd  Nd10  1  0.50000000  0.00000000  0.42401900  1
  Nd  Nd11  1  0.50000000  0.42401900  0.00000000  1
  Mn  Mn12  1  0.00000000  0.84645700  0.84645700  1
  Mn  Mn13  1  0.00000000  0.00000000  0.15354300  1
  Mn  Mn14  1  0.00000000  0.15354300  0.00000000  1
  Mn  Mn15  1  0.50000000  0.66666700  0.33333300  1
  Mn  Mn16  1  0.50000000  0.33333300  0.66666700  1
  C  C17  1  0.00000000  0.67893000  0.67893000  1
  C  C18  1  0.00000000  0.00000000  0.32107000  1
  C  C19  1  0.00000000  0.32107000  0.00000000  1
  C  C20  1  0.00000000  0.19226500  0.19226500  1
  C  C21  1  0.00000000  0.00000000  0.80773500  1
  C  C22  1  0.00000000  0.80773500  0.00000000  1
  C  C23  1  0.00000000  0.55401200  0.55401200  1
  C  C24  1  0.00000000  0.00000000  0.44598800  1
  C  C25  1  0.00000000  0.44598800  0.00000000  1
  C  C26  1  0.50000000  0.71146000  0.19419900  1
  C  C27  1  0.50000000  0.48273900  0.28854000  1
  C  C28  1  0.50000000  0.51726100  0.80580100  1
  C  C29  1  0.50000000  0.80580100  0.51726100  1
  C  C30  1  0.50000000  0.19419900  0.71146000  1
  C  C31  1  0.50000000  0.28854000  0.48273900  1
