# generated using pymatgen
data_Mg3H2(SO5)2
_symmetry_space_group_name_H-M   'P 1'
_cell_length_a   7.54317000
_cell_length_b   7.54317000
_cell_length_c   13.12916900
_cell_angle_alpha   90.00000000
_cell_angle_beta   90.00000000
_cell_angle_gamma   90.00000000
_symmetry_Int_Tables_number   1
_chemical_formula_structural   Mg3H2(SO5)2
_chemical_formula_sum   'Mg12 H8 S8 O40'
_cell_volume   747.04201780
_cell_formula_units_Z   4
loop_
 _symmetry_equiv_pos_site_id
 _symmetry_equiv_pos_as_xyz
  1  'x, y, z'
loop_
 _atom_site_type_symbol
 _atom_site_label
 _atom_site_symmetry_multiplicity
 _atom_site_fract_x
 _atom_site_fract_y
 _atom_site_fract_z
 _atom_site_occupancy
  Mg  Mg0  1  0.39784500  0.14237000  0.24318300  1
  Mg  Mg1  1  0.60215500  0.85763000  0.74318300  1
  Mg  Mg2  1  0.35763000  0.89784500  0.49318300  1
  Mg  Mg3  1  0.10215500  0.64237000  0.00681700  1
  Mg  Mg4  1  0.64237000  0.10215500  0.99318300  1
  Mg  Mg5  1  0.89784500  0.35763000  0.50681700  1
  Mg  Mg6  1  0.14237000  0.39784500  0.75681700  1
  Mg  Mg7  1  0.85763000  0.60215500  0.25681700  1
  Mg  Mg8  1  0.37253300  0.37253300  0.00000000  1
  Mg  Mg9  1  0.62746700  0.62746700  0.50000000  1
  Mg  Mg10  1  0.12746700  0.87253300  0.25000000  1
  Mg  Mg11  1  0.87253300  0.12746700  0.75000000  1
  H  H12  1  0.17738800  0.09787300  0.38783400  1
  H  H13  1  0.82261200  0.90212700  0.88783400  1
  H  H14  1  0.40212700  0.67738800  0.63783400  1
  H  H15  1  0.32261200  0.59787300  0.86216600  1
  H  H16  1  0.59787300  0.32261200  0.13783400  1
  H  H17  1  0.67738800  0.40212700  0.36216600  1
  H  H18  1  0.09787300  0.17738800  0.61216600  1
  H  H19  1  0.90212700  0.82261200  0.11216600  1
  S  S20  1  0.00172800  0.25018200  0.12400400  1
  S  S21  1  0.99827200  0.74981800  0.62400400  1
  S  S22  1  0.24981800  0.50172800  0.37400400  1
  S  S23  1  0.49827200  0.75018200  0.12599600  1
  S  S24  1  0.75018200  0.49827200  0.87400400  1
  S  S25  1  0.50172800  0.24981800  0.62599600  1
  S  S26  1  0.25018200  0.00172800  0.87599600  1
  S  S27  1  0.74981800  0.99827200  0.37599600  1
  O  O28  1  0.14200800  0.39120300  0.44241400  1
  O  O29  1  0.85799200  0.60879700  0.94241400  1
  O  O30  1  0.10879700  0.64200800  0.69241400  1
  O  O31  1  0.35799200  0.89120300  0.80758600  1
  O  O32  1  0.89120300  0.35799200  0.19241400  1
  O  O33  1  0.64200800  0.10879700  0.30758600  1
  O  O34  1  0.39120300  0.14200800  0.55758600  1
  O  O35  1  0.60879700  0.85799200  0.05758600  1
  O  O36  1  0.12282800  0.13149500  0.18372700  1
  O  O37  1  0.87717200  0.86850500  0.68372700  1
  O  O38  1  0.36850500  0.62282800  0.43372700  1
  O  O39  1  0.37717200  0.63149500  0.06627300  1
  O  O40  1  0.63149500  0.37717200  0.93372700  1
  O  O41  1  0.62282800  0.36850500  0.56627300  1
  O  O42  1  0.13149500  0.12282800  0.81627300  1
  O  O43  1  0.86850500  0.87717200  0.31627300  1
  O  O44  1  0.25918500  0.00867900  0.36119400  1
  O  O45  1  0.74081500  0.99132100  0.86119400  1
  O  O46  1  0.49132100  0.75918500  0.61119400  1
  O  O47  1  0.24081500  0.50867900  0.88880600  1
  O  O48  1  0.50867900  0.24081500  0.11119400  1
  O  O49  1  0.75918500  0.49132100  0.38880600  1
  O  O50  1  0.00867900  0.25918500  0.63880600  1
  O  O51  1  0.99132100  0.74081500  0.13880600  1
  O  O52  1  0.35942400  0.39020700  0.30720400  1
  O  O53  1  0.64057600  0.60979300  0.80720400  1
  O  O54  1  0.10979300  0.85942400  0.55720400  1
  O  O55  1  0.14057600  0.89020700  0.94279600  1
  O  O56  1  0.89020700  0.14057600  0.05720400  1
  O  O57  1  0.85942400  0.10979300  0.44279600  1
  O  O58  1  0.39020700  0.35942400  0.69279600  1
  O  O59  1  0.60979300  0.64057600  0.19279600  1
  O  O60  1  0.11794200  0.37077900  0.06211600  1
  O  O61  1  0.88205800  0.62922100  0.56211600  1
  O  O62  1  0.12922100  0.61794200  0.31211600  1
  O  O63  1  0.38205800  0.87077900  0.18788400  1
  O  O64  1  0.87077900  0.38205800  0.81211600  1
  O  O65  1  0.61794200  0.12922100  0.68788400  1
  O  O66  1  0.37077900  0.11794200  0.93788400  1
  O  O67  1  0.62922100  0.88205800  0.43788400  1
