# generated using pymatgen
data_ErWC2
_symmetry_space_group_name_H-M   'P 1'
_cell_length_a   3.35267100
_cell_length_b   5.69895400
_cell_length_c   10.77416900
_cell_angle_alpha   90.00000000
_cell_angle_beta   90.00000000
_cell_angle_gamma   90.00000000
_symmetry_Int_Tables_number   1
_chemical_formula_structural   ErWC2
_chemical_formula_sum   'Er4 W4 C8'
_cell_volume   205.85900668
_cell_formula_units_Z   4
loop_
 _symmetry_equiv_pos_site_id
 _symmetry_equiv_pos_as_xyz
  1  'x, y, z'
loop_
 _atom_site_type_symbol
 _atom_site_label
 _atom_site_symmetry_multiplicity
 _atom_site_fract_x
 _atom_site_fract_y
 _atom_site_fract_z
 _atom_site_occupancy
  Er  Er0  1  0.25000000  0.08516400  0.86298100  1
  Er  Er1  1  0.25000000  0.58516400  0.63701900  1
  Er  Er2  1  0.75000000  0.91483600  0.13701900  1
  Er  Er3  1  0.75000000  0.41483600  0.36298100  1
  W  W4  1  0.25000000  0.40219200  0.11018400  1
  W  W5  1  0.25000000  0.90219200  0.38981600  1
  W  W6  1  0.75000000  0.59780800  0.88981600  1
  W  W7  1  0.75000000  0.09780800  0.61018400  1
  C  C8  1  0.25000000  0.16021200  0.24728000  1
  C  C9  1  0.25000000  0.66021200  0.25272000  1
  C  C10  1  0.75000000  0.83978800  0.75272000  1
  C  C11  1  0.75000000  0.33978800  0.74728000  1
  C  C12  1  0.25000000  0.72693900  0.98658100  1
  C  C13  1  0.25000000  0.22693900  0.51341900  1
  C  C14  1  0.75000000  0.27306100  0.01341900  1
  C  C15  1  0.75000000  0.77306100  0.48658100  1
