# generated using pymatgen
data_SrCuF4
_symmetry_space_group_name_H-M   'P 1'
_cell_length_a   6.72131489
_cell_length_b   6.72131489
_cell_length_c   6.72131489
_cell_angle_alpha   129.29097327
_cell_angle_beta   129.29097327
_cell_angle_gamma   74.54283390
_symmetry_Int_Tables_number   1
_chemical_formula_structural   SrCuF4
_chemical_formula_sum   'Sr2 Cu2 F8'
_cell_volume   177.23231755
_cell_formula_units_Z   2
loop_
 _symmetry_equiv_pos_site_id
 _symmetry_equiv_pos_as_xyz
  1  'x, y, z'
loop_
 _atom_site_type_symbol
 _atom_site_label
 _atom_site_symmetry_multiplicity
 _atom_site_fract_x
 _atom_site_fract_y
 _atom_site_fract_z
 _atom_site_occupancy
  Sr  Sr0  1  0.25000000  0.25000000  0.00000000  1
  Sr  Sr1  1  0.75000000  0.75000000  0.00000000  1
  Cu  Cu2  1  0.50000000  0.00000000  0.50000000  1
  Cu  Cu3  1  0.00000000  0.50000000  0.50000000  1
  F  F4  1  0.95579000  0.45579000  0.16185800  1
  F  F5  1  0.70606800  0.20606800  0.16185800  1
  F  F6  1  0.04421000  0.54421000  0.83814200  1
  F  F7  1  0.54421000  0.70606800  0.50000000  1
  F  F8  1  0.29393200  0.79393200  0.83814200  1
  F  F9  1  0.79393200  0.95579000  0.50000000  1
  F  F10  1  0.45579000  0.29393200  0.50000000  1
  F  F11  1  0.20606800  0.04421000  0.50000000  1
