# generated using pymatgen
data_Sr(CdGa)2
_symmetry_space_group_name_H-M   'P 1'
_cell_length_a   6.60588969
_cell_length_b   6.60588969
_cell_length_c   6.60588969
_cell_angle_alpha   139.21566622
_cell_angle_beta   139.21566622
_cell_angle_gamma   59.04615704
_symmetry_Int_Tables_number   1
_chemical_formula_structural   Sr(CdGa)2
_chemical_formula_sum   'Sr1 Cd2 Ga2'
_cell_volume   121.81967746
_cell_formula_units_Z   1
loop_
 _symmetry_equiv_pos_site_id
 _symmetry_equiv_pos_as_xyz
  1  'x, y, z'
loop_
 _atom_site_type_symbol
 _atom_site_label
 _atom_site_symmetry_multiplicity
 _atom_site_fract_x
 _atom_site_fract_y
 _atom_site_fract_z
 _atom_site_occupancy
  Sr  Sr0  1  0.00000000  0.00000000  0.00000000  1
  Cd  Cd1  1  0.25000000  0.75000000  0.50000000  1
  Cd  Cd2  1  0.75000000  0.25000000  0.50000000  1
  Ga  Ga3  1  0.60938900  0.60938900  0.00000000  1
  Ga  Ga4  1  0.39061100  0.39061100  0.00000000  1
