# generated using pymatgen
data_DyPS
_symmetry_space_group_name_H-M   'P 1'
_cell_length_a   5.31713100
_cell_length_b   5.37457000
_cell_length_c   16.72698600
_cell_angle_alpha   90.00000000
_cell_angle_beta   90.00000000
_cell_angle_gamma   90.00000000
_symmetry_Int_Tables_number   1
_chemical_formula_structural   DyPS
_chemical_formula_sum   'Dy8 P8 S8'
_cell_volume   478.01197589
_cell_formula_units_Z   8
loop_
 _symmetry_equiv_pos_site_id
 _symmetry_equiv_pos_as_xyz
  1  'x, y, z'
loop_
 _atom_site_type_symbol
 _atom_site_label
 _atom_site_symmetry_multiplicity
 _atom_site_fract_x
 _atom_site_fract_y
 _atom_site_fract_z
 _atom_site_occupancy
  Dy  Dy0  1  0.25000000  0.48409100  0.36240700  1
  Dy  Dy1  1  0.25000000  0.98409100  0.13759300  1
  Dy  Dy2  1  0.75000000  0.51590900  0.63759300  1
  Dy  Dy3  1  0.75000000  0.01590900  0.86240700  1
  Dy  Dy4  1  0.25000000  0.01503400  0.64624800  1
  Dy  Dy5  1  0.25000000  0.51503400  0.85375200  1
  Dy  Dy6  1  0.75000000  0.98496600  0.35375200  1
  Dy  Dy7  1  0.75000000  0.48496600  0.14624800  1
  P  P8  1  0.03558200  0.29470500  0.99727500  1
  P  P9  1  0.46441800  0.79470500  0.50272500  1
  P  P10  1  0.53558200  0.70529500  0.00272500  1
  P  P11  1  0.96441800  0.20529500  0.49727500  1
  P  P12  1  0.96441800  0.70529500  0.00272500  1
  P  P13  1  0.53558200  0.20529500  0.49727500  1
  P  P14  1  0.46441800  0.29470500  0.99727500  1
  P  P15  1  0.03558200  0.79470500  0.50272500  1
  S  S16  1  0.25000000  0.48476600  0.18918300  1
  S  S17  1  0.25000000  0.98476600  0.31081700  1
  S  S18  1  0.75000000  0.51523400  0.81081700  1
  S  S19  1  0.75000000  0.01523400  0.68918300  1
  S  S20  1  0.25000000  0.01164100  0.81627600  1
  S  S21  1  0.25000000  0.51164100  0.68372400  1
  S  S22  1  0.75000000  0.98835900  0.18372400  1
  S  S23  1  0.75000000  0.48835900  0.31627600  1
