# generated using pymatgen
data_Cs2WS4
_symmetry_space_group_name_H-M   'P 1'
_cell_length_a   7.39510500
_cell_length_b   10.39569000
_cell_length_c   13.20640200
_cell_angle_alpha   90.00000000
_cell_angle_beta   90.00000000
_cell_angle_gamma   90.00000000
_symmetry_Int_Tables_number   1
_chemical_formula_structural   Cs2WS4
_chemical_formula_sum   'Cs8 W4 S16'
_cell_volume   1015.27146004
_cell_formula_units_Z   4
loop_
 _symmetry_equiv_pos_site_id
 _symmetry_equiv_pos_as_xyz
  1  'x, y, z'
loop_
 _atom_site_type_symbol
 _atom_site_label
 _atom_site_symmetry_multiplicity
 _atom_site_fract_x
 _atom_site_fract_y
 _atom_site_fract_z
 _atom_site_occupancy
  Cs  Cs0  1  0.25000000  0.84683600  0.10106600  1
  Cs  Cs1  1  0.75000000  0.15316400  0.89893400  1
  Cs  Cs2  1  0.25000000  0.34683600  0.39893400  1
  Cs  Cs3  1  0.75000000  0.65316400  0.60106600  1
  Cs  Cs4  1  0.25000000  0.53402500  0.82943700  1
  Cs  Cs5  1  0.75000000  0.46597500  0.17056300  1
  Cs  Cs6  1  0.25000000  0.03402500  0.67056300  1
  Cs  Cs7  1  0.75000000  0.96597500  0.32943700  1
  W  W8  1  0.25000000  0.75415500  0.42437000  1
  W  W9  1  0.75000000  0.24584500  0.57563000  1
  W  W10  1  0.25000000  0.25415500  0.07563000  1
  W  W11  1  0.75000000  0.74584500  0.92437000  1
  S  S12  1  0.50690300  0.33220400  0.64450700  1
  S  S13  1  0.00690300  0.66779600  0.35549300  1
  S  S14  1  0.99309700  0.83220400  0.85549300  1
  S  S15  1  0.49309700  0.16779600  0.14450700  1
  S  S16  1  0.49309700  0.66779600  0.35549300  1
  S  S17  1  0.99309700  0.33220400  0.64450700  1
  S  S18  1  0.00690300  0.16779600  0.14450700  1
  S  S19  1  0.50690300  0.83220400  0.85549300  1
  S  S20  1  0.25000000  0.96419400  0.39737200  1
  S  S21  1  0.75000000  0.03580600  0.60262800  1
  S  S22  1  0.25000000  0.46419400  0.10262800  1
  S  S23  1  0.75000000  0.53580600  0.89737200  1
  S  S24  1  0.75000000  0.78714300  0.08861000  1
  S  S25  1  0.25000000  0.21285700  0.91139000  1
  S  S26  1  0.75000000  0.28714300  0.41139000  1
  S  S27  1  0.25000000  0.71285700  0.58861000  1
