# generated using pymatgen
data_Sn2Pd
_symmetry_space_group_name_H-M   'P 1'
_cell_length_a   13.25238475
_cell_length_b   13.25238475
_cell_length_c   13.25238475
_cell_angle_alpha   151.15491531
_cell_angle_beta   151.15491531
_cell_angle_gamma   41.24870963
_symmetry_Int_Tables_number   1
_chemical_formula_structural   Sn2Pd
_chemical_formula_sum   'Sn16 Pd8'
_cell_volume   540.53307889
_cell_formula_units_Z   8
loop_
 _symmetry_equiv_pos_site_id
 _symmetry_equiv_pos_as_xyz
  1  'x, y, z'
loop_
 _atom_site_type_symbol
 _atom_site_label
 _atom_site_symmetry_multiplicity
 _atom_site_fract_x
 _atom_site_fract_y
 _atom_site_fract_z
 _atom_site_occupancy
  Sn  Sn0  1  0.15859200  0.34140800  0.50000000  1
  Sn  Sn1  1  0.09140800  0.09140800  0.68281600  1
  Sn  Sn2  1  0.40859200  0.40859200  0.31718400  1
  Sn  Sn3  1  0.84140800  0.65859200  0.50000000  1
  Sn  Sn4  1  0.59140800  0.90859200  0.00000000  1
  Sn  Sn5  1  0.65859200  0.15859200  0.81718400  1
  Sn  Sn6  1  0.34140800  0.84140800  0.18281600  1
  Sn  Sn7  1  0.90859200  0.59140800  0.00000000  1
  Sn  Sn8  1  0.37250300  0.87500000  0.99750300  1
  Sn  Sn9  1  0.62500000  0.12749700  0.00249700  1
  Sn  Sn10  1  0.12500000  0.62250300  0.99750300  1
  Sn  Sn11  1  0.87749700  0.37500000  0.00249700  1
  Sn  Sn12  1  0.37749700  0.37500000  0.50249700  1
  Sn  Sn13  1  0.12500000  0.12250300  0.49750300  1
  Sn  Sn14  1  0.62500000  0.62749700  0.50249700  1
  Sn  Sn15  1  0.87250300  0.87500000  0.49750300  1
  Pd  Pd16  1  0.19160400  0.69160400  0.50000000  1
  Pd  Pd17  1  0.44160400  0.44160400  0.00000000  1
  Pd  Pd18  1  0.05839600  0.05839600  0.00000000  1
  Pd  Pd19  1  0.80839600  0.30839600  0.50000000  1
  Pd  Pd20  1  0.55839600  0.55839600  0.00000000  1
  Pd  Pd21  1  0.30839600  0.80839600  0.50000000  1
  Pd  Pd22  1  0.69160400  0.19160400  0.50000000  1
  Pd  Pd23  1  0.94160400  0.94160400  0.00000000  1
