# generated using pymatgen
data_NaNb4Bi5O18
_symmetry_space_group_name_H-M   'P 1'
_cell_length_a   12.89972133
_cell_length_b   12.89972133
_cell_length_c   5.60396157
_cell_angle_alpha   89.91372393
_cell_angle_beta   89.91372393
_cell_angle_gamma   155.18076172
_symmetry_Int_Tables_number   1
_chemical_formula_structural   NaNb4Bi5O18
_chemical_formula_sum   'Na1 Nb4 Bi5 O18'
_cell_volume   391.41994455
_cell_formula_units_Z   1
loop_
 _symmetry_equiv_pos_site_id
 _symmetry_equiv_pos_as_xyz
  1  'x, y, z'
loop_
 _atom_site_type_symbol
 _atom_site_label
 _atom_site_symmetry_multiplicity
 _atom_site_fract_x
 _atom_site_fract_y
 _atom_site_fract_z
 _atom_site_occupancy
  Na  Na0  1  0.74114400  0.74114400  0.50955200  1
  Nb  Nb1  1  0.83213700  0.66486900  0.03867800  1
  Nb  Nb2  1  0.66486900  0.83213700  0.03867800  1
  Nb  Nb3  1  0.15769200  0.32657900  0.53233200  1
  Nb  Nb4  1  0.32657900  0.15769200  0.53233200  1
  Bi  Bi5  1  0.08132000  0.48074400  0.98637900  1
  Bi  Bi6  1  0.48074400  0.08132000  0.98637900  1
  Bi  Bi7  1  0.92005300  0.52038800  0.48656500  1
  Bi  Bi8  1  0.52038800  0.92005300  0.48656500  1
  Bi  Bi9  1  0.23462500  0.23462500  0.98798800  1
  O  O10  1  0.47392000  0.60417300  0.78194200  1
  O  O11  1  0.60417300  0.47392000  0.78194200  1
  O  O12  1  0.52551200  0.39375200  0.27521100  1
  O  O13  1  0.39375200  0.52551200  0.27521100  1
  O  O14  1  0.83755000  0.52315100  0.06255000  1
  O  O15  1  0.52315100  0.83755000  0.06255000  1
  O  O16  1  0.16587200  0.48034800  0.56791200  1
  O  O17  1  0.48034800  0.16587200  0.56791200  1
  O  O18  1  0.97250200  0.14543900  0.86830700  1
  O  O19  1  0.14543900  0.97250200  0.86830700  1
  O  O20  1  0.04059000  0.86167800  0.36180800  1
  O  O21  1  0.86167800  0.04059000  0.36180800  1
  O  O22  1  0.83311100  0.83311100  0.07997900  1
  O  O23  1  0.18033500  0.18033500  0.59315400  1
  O  O24  1  0.76232200  0.25901400  0.76143400  1
  O  O25  1  0.25901400  0.76232200  0.76143400  1
  O  O26  1  0.23937900  0.74180100  0.26134600  1
  O  O27  1  0.74180100  0.23937900  0.26134600  1
