# generated using pymatgen
data_Ag3Ge5P6
_symmetry_space_group_name_H-M   'P 1'
_cell_length_a   9.04424451
_cell_length_b   9.04424451
_cell_length_c   9.04424451
_cell_angle_alpha   109.47122063
_cell_angle_beta   109.47122063
_cell_angle_gamma   109.47122063
_symmetry_Int_Tables_number   1
_chemical_formula_structural   Ag3Ge5P6
_chemical_formula_sum   'Ag6 Ge10 P12'
_cell_volume   569.50165883
_cell_formula_units_Z   2
loop_
 _symmetry_equiv_pos_site_id
 _symmetry_equiv_pos_as_xyz
  1  'x, y, z'
loop_
 _atom_site_type_symbol
 _atom_site_label
 _atom_site_symmetry_multiplicity
 _atom_site_fract_x
 _atom_site_fract_y
 _atom_site_fract_z
 _atom_site_occupancy
  Ag  Ag0  1  0.80281500  0.00000000  0.80281500  1
  Ag  Ag1  1  0.19718600  0.19718600  0.00000000  1
  Ag  Ag2  1  0.80281500  0.80281500  0.00000000  1
  Ag  Ag3  1  0.00000000  0.19718600  0.19718500  1
  Ag  Ag4  1  0.00000000  0.80281500  0.80281400  1
  Ag  Ag5  1  0.19718600  0.00000000  0.19718600  1
  Ge  Ge6  1  0.50000000  0.25000000  0.75000000  1
  Ge  Ge7  1  0.75000000  0.25000000  0.50000000  1
  Ge  Ge8  1  0.25000000  0.75000000  0.50000000  1
  Ge  Ge9  1  0.75000000  0.50000000  0.25000000  1
  Ge  Ge10  1  0.42212400  0.42212400  0.42212400  1
  Ge  Ge11  1  0.00000000  0.57787600  0.00000000  1
  Ge  Ge12  1  0.57787600  0.00000000  0.00000000  1
  Ge  Ge13  1  0.00000000  0.00000000  0.57787600  1
  Ge  Ge14  1  0.25000000  0.50000000  0.75000000  1
  Ge  Ge15  1  0.50000000  0.75000000  0.25000000  1
  P  P16  1  0.51109800  0.51109800  0.74270600  1
  P  P17  1  0.00000000  0.23160800  0.48890200  1
  P  P18  1  0.23160800  0.00000000  0.48890200  1
  P  P19  1  0.76839200  0.25729400  0.76839200  1
  P  P20  1  0.25729400  0.76839200  0.76839200  1
  P  P21  1  0.74270600  0.51109800  0.51109800  1
  P  P22  1  0.51109800  0.74270600  0.51109800  1
  P  P23  1  0.23160800  0.48890200  0.00000000  1
  P  P24  1  0.48890200  0.23160800  0.00000000  1
  P  P25  1  0.76839200  0.76839200  0.25729400  1
  P  P26  1  0.48890200  0.00000000  0.23160800  1
  P  P27  1  0.00000000  0.48890200  0.23160800  1
