# generated using pymatgen
data_Zn(GaTe2)2
_symmetry_space_group_name_H-M   'P 1'
_cell_length_a   7.38847381
_cell_length_b   7.38847381
_cell_length_c   7.38847381
_cell_angle_alpha   131.46755022
_cell_angle_beta   131.46755022
_cell_angle_gamma   71.07128468
_symmetry_Int_Tables_number   1
_chemical_formula_structural   Zn(GaTe2)2
_chemical_formula_sum   'Zn1 Ga2 Te4'
_cell_volume   221.74431699
_cell_formula_units_Z   1
loop_
 _symmetry_equiv_pos_site_id
 _symmetry_equiv_pos_as_xyz
  1  'x, y, z'
loop_
 _atom_site_type_symbol
 _atom_site_label
 _atom_site_symmetry_multiplicity
 _atom_site_fract_x
 _atom_site_fract_y
 _atom_site_fract_z
 _atom_site_occupancy
  Zn  Zn0  1  0.00000000  0.00000000  0.00000000  1
  Ga  Ga1  1  0.50000000  0.50000000  0.00000000  1
  Ga  Ga2  1  0.25000000  0.75000000  0.50000000  1
  Te  Te3  1  0.10252300  0.59963800  0.96895100  1
  Te  Te4  1  0.86642800  0.89747700  0.49711500  1
  Te  Te5  1  0.40036200  0.36931300  0.50288500  1
  Te  Te6  1  0.63068700  0.13357200  0.03104900  1
