# generated using pymatgen
data_Zr(VGa2)2
_symmetry_space_group_name_H-M   'P 1'
_cell_length_a   5.27677036
_cell_length_b   5.27677036
_cell_length_c   5.27677036
_cell_angle_alpha   104.09447319
_cell_angle_beta   104.09447319
_cell_angle_gamma   120.86100143
_symmetry_Int_Tables_number   1
_chemical_formula_structural   Zr(VGa2)2
_chemical_formula_sum   'Zr1 V2 Ga4'
_cell_volume   109.69827796
_cell_formula_units_Z   1
loop_
 _symmetry_equiv_pos_site_id
 _symmetry_equiv_pos_as_xyz
  1  'x, y, z'
loop_
 _atom_site_type_symbol
 _atom_site_label
 _atom_site_symmetry_multiplicity
 _atom_site_fract_x
 _atom_site_fract_y
 _atom_site_fract_z
 _atom_site_occupancy
  Zr  Zr0  1  0.00000000  0.00000000  0.00000000  1
  V  V1  1  0.25000000  0.75000000  0.50000000  1
  V  V2  1  0.75000000  0.25000000  0.50000000  1
  Ga  Ga3  1  0.30276000  0.30276000  0.60552000  1
  Ga  Ga4  1  0.69724000  0.69724000  0.39448000  1
  Ga  Ga5  1  0.69724000  0.30276000  0.00000000  1
  Ga  Ga6  1  0.30276000  0.69724000  0.00000000  1
