# generated using pymatgen
data_BaNdCuTe3
_symmetry_space_group_name_H-M   'P 1'
_cell_length_a   7.85574056
_cell_length_b   7.85574056
_cell_length_c   11.72308700
_cell_angle_alpha   90.00000000
_cell_angle_beta   90.00000000
_cell_angle_gamma   146.71786727
_symmetry_Int_Tables_number   1
_chemical_formula_structural   BaNdCuTe3
_chemical_formula_sum   'Ba2 Nd2 Cu2 Te6'
_cell_volume   397.00904543
_cell_formula_units_Z   2
loop_
 _symmetry_equiv_pos_site_id
 _symmetry_equiv_pos_as_xyz
  1  'x, y, z'
loop_
 _atom_site_type_symbol
 _atom_site_label
 _atom_site_symmetry_multiplicity
 _atom_site_fract_x
 _atom_site_fract_y
 _atom_site_fract_z
 _atom_site_occupancy
  Ba  Ba0  1  0.25228100  0.74771900  0.25000000  1
  Ba  Ba1  1  0.74771900  0.25228100  0.75000000  1
  Nd  Nd2  1  0.00000000  0.00000000  0.00000000  1
  Nd  Nd3  1  0.00000000  0.00000000  0.50000000  1
  Cu  Cu4  1  0.53427200  0.46572800  0.25000000  1
  Cu  Cu5  1  0.46572800  0.53427200  0.75000000  1
  Te  Te6  1  0.63950000  0.36050000  0.06721800  1
  Te  Te7  1  0.36050000  0.63950000  0.93278200  1
  Te  Te8  1  0.36050000  0.63950000  0.56721800  1
  Te  Te9  1  0.63950000  0.36050000  0.43278200  1
  Te  Te10  1  0.92979600  0.07020400  0.25000000  1
  Te  Te11  1  0.07020400  0.92979600  0.75000000  1
