# generated using pymatgen
data_La2CuBiS5
_symmetry_space_group_name_H-M   'P 1'
_cell_length_a   4.00389400
_cell_length_b   12.01458100
_cell_length_c   17.07793300
_cell_angle_alpha   90.00000000
_cell_angle_beta   90.00000000
_cell_angle_gamma   90.00000000
_symmetry_Int_Tables_number   1
_chemical_formula_structural   La2CuBiS5
_chemical_formula_sum   'La8 Cu4 Bi4 S20'
_cell_volume   821.53582468
_cell_formula_units_Z   4
loop_
 _symmetry_equiv_pos_site_id
 _symmetry_equiv_pos_as_xyz
  1  'x, y, z'
loop_
 _atom_site_type_symbol
 _atom_site_label
 _atom_site_symmetry_multiplicity
 _atom_site_fract_x
 _atom_site_fract_y
 _atom_site_fract_z
 _atom_site_occupancy
  La  La0  1  0.25000000  0.03228900  0.67404700  1
  La  La1  1  0.25000000  0.53228900  0.82595300  1
  La  La2  1  0.75000000  0.96771100  0.32595300  1
  La  La3  1  0.75000000  0.46771100  0.17404700  1
  La  La4  1  0.25000000  0.37383300  0.59767400  1
  La  La5  1  0.25000000  0.87383300  0.90232600  1
  La  La6  1  0.75000000  0.62616700  0.40232600  1
  La  La7  1  0.75000000  0.12616700  0.09767400  1
  Cu  Cu8  1  0.25000000  0.40164100  0.99702600  1
  Cu  Cu9  1  0.25000000  0.90164100  0.50297400  1
  Cu  Cu10  1  0.75000000  0.59835900  0.00297400  1
  Cu  Cu11  1  0.75000000  0.09835900  0.49702600  1
  Bi  Bi12  1  0.25000000  0.29962900  0.36293600  1
  Bi  Bi13  1  0.25000000  0.79962900  0.13706400  1
  Bi  Bi14  1  0.75000000  0.70037100  0.63706400  1
  Bi  Bi15  1  0.75000000  0.20037100  0.86293600  1
  S  S16  1  0.25000000  0.01191000  0.20186000  1
  S  S17  1  0.25000000  0.51191000  0.29814000  1
  S  S18  1  0.75000000  0.98809000  0.79814000  1
  S  S19  1  0.75000000  0.48809000  0.70186000  1
  S  S20  1  0.25000000  0.08526200  0.42651900  1
  S  S21  1  0.25000000  0.58526200  0.07348100  1
  S  S22  1  0.75000000  0.91473800  0.57348100  1
  S  S23  1  0.75000000  0.41473800  0.92651900  1
  S  S24  1  0.25000000  0.10666700  0.96949700  1
  S  S25  1  0.25000000  0.60666700  0.53050300  1
  S  S26  1  0.75000000  0.89333300  0.03050300  1
  S  S27  1  0.75000000  0.39333300  0.46949700  1
  S  S28  1  0.25000000  0.26560100  0.76574700  1
  S  S29  1  0.25000000  0.76560100  0.73425300  1
  S  S30  1  0.75000000  0.73439900  0.23425300  1
  S  S31  1  0.75000000  0.23439900  0.26574700  1
  S  S32  1  0.25000000  0.30867500  0.11272700  1
  S  S33  1  0.25000000  0.80867500  0.38727300  1
  S  S34  1  0.75000000  0.69132500  0.88727300  1
  S  S35  1  0.75000000  0.19132500  0.61272700  1
