# generated using pymatgen
data_Te16Rh9
_symmetry_space_group_name_H-M   'P 1'
_cell_length_a   8.00580500
_cell_length_b   8.81882300
_cell_length_c   8.90572227
_cell_angle_alpha   77.45747313
_cell_angle_beta   90.00000000
_cell_angle_gamma   90.00000000
_symmetry_Int_Tables_number   1
_chemical_formula_structural   Te16Rh9
_chemical_formula_sum   'Te16 Rh9'
_cell_volume   613.75452292
_cell_formula_units_Z   1
loop_
 _symmetry_equiv_pos_site_id
 _symmetry_equiv_pos_as_xyz
  1  'x, y, z'
loop_
 _atom_site_type_symbol
 _atom_site_label
 _atom_site_symmetry_multiplicity
 _atom_site_fract_x
 _atom_site_fract_y
 _atom_site_fract_z
 _atom_site_occupancy
  Te  Te0  1  0.74850600  0.04477100  0.78359400  1
  Te  Te1  1  0.00000000  0.29826600  0.03795200  1
  Te  Te2  1  0.50000000  0.79487900  0.53681400  1
  Te  Te3  1  0.25457900  0.54266100  0.28930100  1
  Te  Te4  1  0.25149400  0.95522900  0.21640600  1
  Te  Te5  1  0.50000000  0.20512100  0.46318600  1
  Te  Te6  1  0.00000000  0.70173400  0.96204800  1
  Te  Te7  1  0.74542100  0.45733900  0.71069900  1
  Te  Te8  1  0.00000000  0.79216400  0.54112500  1
  Te  Te9  1  0.74542100  0.54266100  0.28930100  1
  Te  Te10  1  0.50000000  0.29144900  0.04143400  1
  Te  Te11  1  0.25149400  0.04477100  0.78359400  1
  Te  Te12  1  0.50000000  0.70855100  0.95856600  1
  Te  Te13  1  0.25457900  0.45733900  0.71069900  1
  Te  Te14  1  0.00000000  0.20783600  0.45887500  1
  Te  Te15  1  0.74850600  0.95522900  0.21640600  1
  Rh  Rh16  1  0.50000000  0.25114000  0.75498000  1
  Rh  Rh17  1  0.74526400  0.50000000  0.00000000  1
  Rh  Rh18  1  0.24421800  0.00000000  0.50000000  1
  Rh  Rh19  1  0.00000000  0.74413600  0.25556300  1
  Rh  Rh20  1  0.50000000  0.74886000  0.24502000  1
  Rh  Rh21  1  0.75578200  0.00000000  0.50000000  1
  Rh  Rh22  1  0.25473600  0.50000000  0.00000000  1
  Rh  Rh23  1  0.00000000  0.25586400  0.74443700  1
  Rh  Rh24  1  0.00000000  0.00000000  0.00000000  1
