# generated using pymatgen
data_US2O9
_symmetry_space_group_name_H-M   'P 1'
_cell_length_a   11.12717300
_cell_length_b   8.28793000
_cell_length_c   16.84126300
_cell_angle_alpha   90.00000000
_cell_angle_beta   90.00000000
_cell_angle_gamma   90.00000000
_symmetry_Int_Tables_number   1
_chemical_formula_structural   US2O9
_chemical_formula_sum   'U8 S16 O72'
_cell_volume   1553.12200414
_cell_formula_units_Z   8
loop_
 _symmetry_equiv_pos_site_id
 _symmetry_equiv_pos_as_xyz
  1  'x, y, z'
loop_
 _atom_site_type_symbol
 _atom_site_label
 _atom_site_symmetry_multiplicity
 _atom_site_fract_x
 _atom_site_fract_y
 _atom_site_fract_z
 _atom_site_occupancy
  U  U0  1  0.19363600  0.53275400  0.88175600  1
  U  U1  1  0.80636400  0.46724600  0.38175600  1
  U  U2  1  0.30636400  0.53275400  0.38175600  1
  U  U3  1  0.69363600  0.46724600  0.88175600  1
  U  U4  1  0.95358900  0.03677700  0.15393000  1
  U  U5  1  0.04641100  0.96322300  0.65393000  1
  U  U6  1  0.54641100  0.03677700  0.65393000  1
  U  U7  1  0.45358900  0.96322300  0.15393000  1
  S  S8  1  0.22310600  0.29728900  0.19302300  1
  S  S9  1  0.77689400  0.70271100  0.69302300  1
  S  S10  1  0.27689400  0.29728900  0.69302300  1
  S  S11  1  0.72310600  0.70271100  0.19302300  1
  S  S12  1  0.05480300  0.42962100  0.08099500  1
  S  S13  1  0.94519700  0.57037900  0.58099500  1
  S  S14  1  0.44519700  0.42962100  0.58099500  1
  S  S15  1  0.55480300  0.57037900  0.08099500  1
  S  S16  1  0.79605000  0.08089700  0.95868800  1
  S  S17  1  0.20395000  0.91910300  0.45868800  1
  S  S18  1  0.70395000  0.08089700  0.45868800  1
  S  S19  1  0.29605000  0.91910300  0.95868800  1
  S  S20  1  0.96003000  0.20321600  0.83934800  1
  S  S21  1  0.03997000  0.79678400  0.33934800  1
  S  S22  1  0.53997000  0.20321600  0.33934800  1
  S  S23  1  0.46003000  0.79678400  0.83934800  1
  O  O24  1  0.30867900  0.41253900  0.92533300  1
  O  O25  1  0.69132100  0.58746100  0.42533300  1
  O  O26  1  0.19132100  0.41253900  0.42533300  1
  O  O27  1  0.80867900  0.58746100  0.92533300  1
  O  O28  1  0.07765900  0.65506700  0.84067100  1
  O  O29  1  0.92234100  0.34493300  0.34067100  1
  O  O30  1  0.42234100  0.65506700  0.34067100  1
  O  O31  1  0.57765900  0.34493300  0.84067100  1
  O  O32  1  0.83751800  0.15131400  0.20013600  1
  O  O33  1  0.16248200  0.84868600  0.70013600  1
  O  O34  1  0.66248200  0.15131400  0.70013600  1
  O  O35  1  0.33751800  0.84868600  0.20013600  1
  O  O36  1  0.06874100  0.92509600  0.10520100  1
  O  O37  1  0.93125900  0.07490400  0.60520100  1
  O  O38  1  0.43125900  0.92509600  0.60520100  1
  O  O39  1  0.56874100  0.07490400  0.10520100  1
  O  O40  1  0.25102300  0.42269300  0.25061100  1
  O  O41  1  0.74897700  0.57730700  0.75061100  1
  O  O42  1  0.24897700  0.42269300  0.75061100  1
  O  O43  1  0.75102300  0.57730700  0.25061100  1
  O  O44  1  0.32681200  0.19788400  0.17312300  1
  O  O45  1  0.67318800  0.80211600  0.67312300  1
  O  O46  1  0.17318800  0.19788400  0.67312300  1
  O  O47  1  0.82681200  0.80211600  0.17312300  1
  O  O48  1  0.11447400  0.20663300  0.21297500  1
  O  O49  1  0.88552600  0.79336700  0.71297500  1
  O  O50  1  0.38552600  0.20663300  0.71297500  1
  O  O51  1  0.61447400  0.79336700  0.21297500  1
  O  O52  1  0.19767600  0.38913900  0.10994300  1
  O  O53  1  0.80232400  0.61086100  0.60994300  1
  O  O54  1  0.30232400  0.38913900  0.60994300  1
  O  O55  1  0.69767600  0.61086100  0.10994300  1
  O  O56  1  0.00183900  0.53058200  0.14001800  1
  O  O57  1  0.99816100  0.46941800  0.64001800  1
  O  O58  1  0.49816100  0.53058200  0.64001800  1
  O  O59  1  0.50183900  0.46941800  0.14001800  1
  O  O60  1  0.00085700  0.26843500  0.07132600  1
  O  O61  1  0.99914300  0.73156500  0.57132600  1
  O  O62  1  0.49914300  0.26843500  0.57132600  1
  O  O63  1  0.50085700  0.73156500  0.07132600  1
  O  O64  1  0.08061300  0.50201100  0.00377500  1
  O  O65  1  0.91938700  0.49798900  0.50377500  1
  O  O66  1  0.41938700  0.50201100  0.50377500  1
  O  O67  1  0.58061300  0.49798900  0.00377500  1
  O  O68  1  0.72865600  0.98078900  0.90614500  1
  O  O69  1  0.27134400  0.01921100  0.40614500  1
  O  O70  1  0.77134400  0.98078900  0.40614500  1
  O  O71  1  0.22865600  0.01921100  0.90614500  1
  O  O72  1  0.83243400  0.01109800  0.03456200  1
  O  O73  1  0.16756600  0.98890200  0.53456200  1
  O  O74  1  0.66756600  0.01109800  0.53456200  1
  O  O75  1  0.33243400  0.98890200  0.03456200  1
  O  O76  1  0.75345300  0.24801800  0.96825000  1
  O  O77  1  0.24654700  0.75198200  0.46825000  1
  O  O78  1  0.74654700  0.24801800  0.46825000  1
  O  O79  1  0.25345300  0.75198200  0.96825000  1
  O  O80  1  0.93600000  0.10193300  0.91897800  1
  O  O81  1  0.06400000  0.89806700  0.41897800  1
  O  O82  1  0.56400000  0.10193300  0.41897800  1
  O  O83  1  0.43600000  0.89806700  0.91897800  1
  O  O84  1  0.98671100  0.08275500  0.77898600  1
  O  O85  1  0.01328900  0.91724500  0.27898600  1
  O  O86  1  0.51328900  0.08275500  0.27898600  1
  O  O87  1  0.48671100  0.91724500  0.77898600  1
  O  O88  1  0.06462400  0.30095100  0.85967700  1
  O  O89  1  0.93537600  0.69904900  0.35967700  1
  O  O90  1  0.43537600  0.30095100  0.35967700  1
  O  O91  1  0.56462400  0.69904900  0.85967700  1
  O  O92  1  0.85165900  0.29613200  0.82184300  1
  O  O93  1  0.14834100  0.70386800  0.32184300  1
  O  O94  1  0.64834100  0.29613200  0.32184300  1
  O  O95  1  0.35165900  0.70386800  0.82184300  1
