# generated using pymatgen
data_Ba2TbWO6
_symmetry_space_group_name_H-M   'P 1'
_cell_length_a   6.03023701
_cell_length_b   6.03023701
_cell_length_c   6.08487041
_cell_angle_alpha   59.67145368
_cell_angle_beta   59.67145368
_cell_angle_gamma   60.57396130
_symmetry_Int_Tables_number   1
_chemical_formula_structural   Ba2TbWO6
_chemical_formula_sum   'Ba2 Tb1 W1 O6'
_cell_volume   156.33627881
_cell_formula_units_Z   1
loop_
 _symmetry_equiv_pos_site_id
 _symmetry_equiv_pos_as_xyz
  1  'x, y, z'
loop_
 _atom_site_type_symbol
 _atom_site_label
 _atom_site_symmetry_multiplicity
 _atom_site_fract_x
 _atom_site_fract_y
 _atom_site_fract_z
 _atom_site_occupancy
  Ba  Ba0  1  0.24890900  0.24890900  0.25554400  1
  Ba  Ba1  1  0.75109100  0.75109100  0.74445600  1
  Tb  Tb2  1  0.50000000  0.50000000  0.50000000  1
  W  W3  1  0.00000000  0.00000000  0.00000000  1
  O  O4  1  0.76851100  0.76851100  0.20216900  1
  O  O5  1  0.23148900  0.23148900  0.79783100  1
  O  O6  1  0.74463700  0.22122000  0.25505900  1
  O  O7  1  0.25536300  0.77878000  0.74494100  1
  O  O8  1  0.77878000  0.25536300  0.74494100  1
  O  O9  1  0.22122000  0.74463700  0.25505900  1
