# generated using pymatgen
data_K3ErF6
_symmetry_space_group_name_H-M   'P 1'
_cell_length_a   6.58375600
_cell_length_b   6.36614100
_cell_length_c   11.08819258
_cell_angle_alpha   55.31611969
_cell_angle_beta   90.00000000
_cell_angle_gamma   90.00000000
_symmetry_Int_Tables_number   1
_chemical_formula_structural   K3ErF6
_chemical_formula_sum   'K6 Er2 F12'
_cell_volume   382.15824465
_cell_formula_units_Z   2
loop_
 _symmetry_equiv_pos_site_id
 _symmetry_equiv_pos_as_xyz
  1  'x, y, z'
loop_
 _atom_site_type_symbol
 _atom_site_label
 _atom_site_symmetry_multiplicity
 _atom_site_fract_x
 _atom_site_fract_y
 _atom_site_fract_z
 _atom_site_occupancy
  K  K0  1  0.50000000  0.50000000  0.00000000  1
  K  K1  1  0.00000000  0.50000000  0.50000000  1
  K  K2  1  0.04993200  0.73372800  0.75337900  1
  K  K3  1  0.95006800  0.26627200  0.24662100  1
  K  K4  1  0.54993200  0.26627200  0.74662100  1
  K  K5  1  0.45006800  0.73372800  0.25337900  1
  Er  Er6  1  0.50000000  0.00000000  0.50000000  1
  Er  Er7  1  0.00000000  0.00000000  0.00000000  1
  F  F8  1  0.77204400  0.76717400  0.56519900  1
  F  F9  1  0.22795600  0.23282600  0.43480100  1
  F  F10  1  0.27204400  0.23282600  0.93480100  1
  F  F11  1  0.72795600  0.76717400  0.06519900  1
  F  F12  1  0.44869300  0.88363900  0.72306500  1
  F  F13  1  0.55130700  0.11636100  0.27693500  1
  F  F14  1  0.94869300  0.11636100  0.77693500  1
  F  F15  1  0.05130700  0.88363900  0.22306500  1
  F  F16  1  0.32529800  0.67366100  0.54823300  1
  F  F17  1  0.67470200  0.32633900  0.45176700  1
  F  F18  1  0.82529800  0.32633900  0.95176700  1
  F  F19  1  0.17470200  0.67366100  0.04823300  1
