# generated using pymatgen
data_Rb2SmBr5
_symmetry_space_group_name_H-M   'P 1'
_cell_length_a   8.81131000
_cell_length_b   9.31216000
_cell_length_c   14.15664500
_cell_angle_alpha   90.00000000
_cell_angle_beta   90.00000000
_cell_angle_gamma   90.00000000
_symmetry_Int_Tables_number   1
_chemical_formula_structural   Rb2SmBr5
_chemical_formula_sum   'Rb8 Sm4 Br20'
_cell_volume   1161.58568642
_cell_formula_units_Z   4
loop_
 _symmetry_equiv_pos_site_id
 _symmetry_equiv_pos_as_xyz
  1  'x, y, z'
loop_
 _atom_site_type_symbol
 _atom_site_label
 _atom_site_symmetry_multiplicity
 _atom_site_fract_x
 _atom_site_fract_y
 _atom_site_fract_z
 _atom_site_occupancy
  Rb  Rb0  1  0.94584600  0.00439400  0.82752900  1
  Rb  Rb1  1  0.05415400  0.99560600  0.17247100  1
  Rb  Rb2  1  0.44584600  0.99560600  0.67247100  1
  Rb  Rb3  1  0.05415400  0.50439400  0.17247100  1
  Rb  Rb4  1  0.55415400  0.00439400  0.32752900  1
  Rb  Rb5  1  0.94584600  0.49560600  0.82752900  1
  Rb  Rb6  1  0.55415400  0.49560600  0.32752900  1
  Rb  Rb7  1  0.44584600  0.50439400  0.67247100  1
  Sm  Sm8  1  0.92644900  0.75000000  0.50400000  1
  Sm  Sm9  1  0.07355100  0.25000000  0.49600000  1
  Sm  Sm10  1  0.42644900  0.25000000  0.99600000  1
  Sm  Sm11  1  0.57355100  0.75000000  0.00400000  1
  Br  Br12  1  0.11721700  0.75000000  0.67163400  1
  Br  Br13  1  0.88278300  0.25000000  0.32836600  1
  Br  Br14  1  0.61721700  0.25000000  0.82836600  1
  Br  Br15  1  0.38278300  0.75000000  0.17163400  1
  Br  Br16  1  0.84011500  0.04291200  0.57195200  1
  Br  Br17  1  0.15988500  0.95708800  0.42804800  1
  Br  Br18  1  0.34011500  0.95708800  0.92804800  1
  Br  Br19  1  0.15988500  0.54291200  0.42804800  1
  Br  Br20  1  0.65988500  0.04291200  0.07195200  1
  Br  Br21  1  0.84011500  0.45708800  0.57195200  1
  Br  Br22  1  0.65988500  0.45708800  0.07195200  1
  Br  Br23  1  0.34011500  0.54291200  0.92804800  1
  Br  Br24  1  0.59217800  0.75000000  0.51118700  1
  Br  Br25  1  0.40782200  0.25000000  0.48881300  1
  Br  Br26  1  0.09217800  0.25000000  0.98881300  1
  Br  Br27  1  0.90782200  0.75000000  0.01118700  1
  Br  Br28  1  0.65568000  0.75000000  0.80440200  1
  Br  Br29  1  0.34432000  0.25000000  0.19559800  1
  Br  Br30  1  0.15568000  0.25000000  0.69559800  1
  Br  Br31  1  0.84432000  0.75000000  0.30440200  1
