# generated using pymatgen
data_Ba2B5BrO9
_symmetry_space_group_name_H-M   'P 1'
_cell_length_a   6.73401300
_cell_length_b   11.92135600
_cell_length_c   11.97400100
_cell_angle_alpha   90.00000000
_cell_angle_beta   90.00000000
_cell_angle_gamma   90.00000000
_symmetry_Int_Tables_number   1
_chemical_formula_structural   Ba2B5BrO9
_chemical_formula_sum   'Ba8 B20 Br4 O36'
_cell_volume   961.25563293
_cell_formula_units_Z   4
loop_
 _symmetry_equiv_pos_site_id
 _symmetry_equiv_pos_as_xyz
  1  'x, y, z'
loop_
 _atom_site_type_symbol
 _atom_site_label
 _atom_site_symmetry_multiplicity
 _atom_site_fract_x
 _atom_site_fract_y
 _atom_site_fract_z
 _atom_site_occupancy
  Ba  Ba0  1  0.15457500  0.03902100  0.75103000  1
  Ba  Ba1  1  0.15457500  0.96097900  0.24897000  1
  Ba  Ba2  1  0.65457500  0.53902100  0.74897000  1
  Ba  Ba3  1  0.65457500  0.46097900  0.25103000  1
  Ba  Ba4  1  0.31270700  0.26116100  0.46940800  1
  Ba  Ba5  1  0.31270700  0.73883900  0.53059200  1
  Ba  Ba6  1  0.81270700  0.76116100  0.03059200  1
  Ba  Ba7  1  0.81270700  0.23883900  0.96940800  1
  B  B8  1  0.31465300  0.71380200  0.19456800  1
  B  B9  1  0.31465300  0.28619800  0.80543200  1
  B  B10  1  0.81465300  0.21380200  0.30543200  1
  B  B11  1  0.81465300  0.78619800  0.69456800  1
  B  B12  1  0.34476500  0.25199900  0.02884000  1
  B  B13  1  0.34476500  0.74800100  0.97116000  1
  B  B14  1  0.84476500  0.75199900  0.47116000  1
  B  B15  1  0.84476500  0.24800100  0.52884000  1
  B  B16  1  0.18349400  0.51648800  0.23453500  1
  B  B17  1  0.18349400  0.48351200  0.76546500  1
  B  B18  1  0.68349400  0.01648800  0.26546500  1
  B  B19  1  0.68349400  0.98351200  0.73453500  1
  B  B20  1  0.46455900  0.18315000  0.22055100  1
  B  B21  1  0.46455900  0.81685000  0.77944900  1
  B  B22  1  0.96455900  0.68315000  0.27944900  1
  B  B23  1  0.96455900  0.31685000  0.72055100  1
  B  B24  1  0.13708700  0.29036400  0.19742100  1
  B  B25  1  0.13708700  0.70963600  0.80257900  1
  B  B26  1  0.63708700  0.79036400  0.30257900  1
  B  B27  1  0.63708700  0.20963600  0.69742100  1
  Br  Br28  1  0.00615800  0.00000000  0.00000000  1
  Br  Br29  1  0.50615800  0.50000000  0.50000000  1
  Br  Br30  1  0.24068300  0.00000000  0.50000000  1
  Br  Br31  1  0.74068300  0.50000000  0.00000000  1
  O  O32  1  0.49558000  0.21670200  0.10138800  1
  O  O33  1  0.49558000  0.78329800  0.89861200  1
  O  O34  1  0.99558000  0.71670200  0.39861200  1
  O  O35  1  0.99558000  0.28329800  0.60138800  1
  O  O36  1  0.39528000  0.74968300  0.08267800  1
  O  O37  1  0.39528000  0.25031700  0.91732200  1
  O  O38  1  0.89528000  0.24968300  0.41732200  1
  O  O39  1  0.89528000  0.75031700  0.58267800  1
  O  O40  1  0.33692900  0.58960600  0.20762300  1
  O  O41  1  0.33692900  0.41039400  0.79237700  1
  O  O42  1  0.83692900  0.08960600  0.29237700  1
  O  O43  1  0.83692900  0.91039400  0.70762300  1
  O  O44  1  0.60074300  0.24323000  0.29682100  1
  O  O45  1  0.60074300  0.75676900  0.70317900  1
  O  O46  1  0.10074300  0.74323100  0.20317900  1
  O  O47  1  0.10074300  0.25676900  0.79682100  1
  O  O48  1  0.42439200  0.22188800  0.71845600  1
  O  O49  1  0.42439200  0.77811200  0.28154400  1
  O  O50  1  0.92439200  0.72188800  0.78154400  1
  O  O51  1  0.92439200  0.27811200  0.21845600  1
  O  O52  1  0.50300100  0.05916600  0.23145900  1
  O  O53  1  0.50300100  0.94083400  0.76854100  1
  O  O54  1  0.00300100  0.55916600  0.26854100  1
  O  O55  1  0.00300100  0.44083400  0.73145900  1
  O  O56  1  0.25664000  0.20232200  0.25226000  1
  O  O57  1  0.25664000  0.79767800  0.74774000  1
  O  O58  1  0.75664000  0.70232200  0.24774000  1
  O  O59  1  0.75664000  0.29767800  0.75226000  1
  O  O60  1  0.16507400  0.28467500  0.07153600  1
  O  O61  1  0.16507400  0.71532500  0.92846400  1
  O  O62  1  0.66507400  0.78467500  0.42846400  1
  O  O63  1  0.66507400  0.21532500  0.57153600  1
  O  O64  1  0.22584800  0.40324500  0.23483200  1
  O  O65  1  0.22584800  0.59675500  0.76516800  1
  O  O66  1  0.72584800  0.90324500  0.26516800  1
  O  O67  1  0.72584800  0.09675500  0.73483200  1
