# generated using pymatgen
data_Ho3Te3N
_symmetry_space_group_name_H-M   'P 1'
_cell_length_a   11.95082700
_cell_length_b   8.09345800
_cell_length_c   8.65559525
_cell_angle_alpha   71.05407458
_cell_angle_beta   90.00000000
_cell_angle_gamma   90.00000000
_symmetry_Int_Tables_number   1
_chemical_formula_structural   Ho3Te3N
_chemical_formula_sum   'Ho12 Te12 N4'
_cell_volume   791.84467060
_cell_formula_units_Z   4
loop_
 _symmetry_equiv_pos_site_id
 _symmetry_equiv_pos_as_xyz
  1  'x, y, z'
loop_
 _atom_site_type_symbol
 _atom_site_label
 _atom_site_symmetry_multiplicity
 _atom_site_fract_x
 _atom_site_fract_y
 _atom_site_fract_z
 _atom_site_occupancy
  Ho  Ho0  1  0.02269400  0.60213200  0.13683100  1
  Ho  Ho1  1  0.52269400  0.39786800  0.36316900  1
  Ho  Ho2  1  0.97730600  0.39786800  0.86316900  1
  Ho  Ho3  1  0.47730600  0.60213200  0.63683100  1
  Ho  Ho4  1  0.41228000  0.83946800  0.20496100  1
  Ho  Ho5  1  0.91228000  0.16053200  0.29503900  1
  Ho  Ho6  1  0.58772000  0.16053200  0.79503900  1
  Ho  Ho7  1  0.08772000  0.83946800  0.70496100  1
  Ho  Ho8  1  0.70957500  0.76578000  0.34616800  1
  Ho  Ho9  1  0.20957500  0.23422000  0.15383200  1
  Ho  Ho10  1  0.29042500  0.23422000  0.65383200  1
  Ho  Ho11  1  0.79042500  0.76578000  0.84616800  1
  Te  Te12  1  0.98002700  0.77557200  0.41421600  1
  Te  Te13  1  0.48002700  0.22442800  0.08578400  1
  Te  Te14  1  0.01997300  0.22442800  0.58578400  1
  Te  Te15  1  0.51997300  0.77557200  0.91421600  1
  Te  Te16  1  0.26594300  0.50875900  0.31280200  1
  Te  Te17  1  0.76594300  0.49124100  0.18719800  1
  Te  Te18  1  0.73405700  0.49124100  0.68719800  1
  Te  Te19  1  0.23405700  0.50875900  0.81280200  1
  Te  Te20  1  0.30863500  0.95484100  0.48256300  1
  Te  Te21  1  0.80863500  0.04515900  0.01743700  1
  Te  Te22  1  0.69136500  0.04515900  0.51743700  1
  Te  Te23  1  0.19136500  0.95484100  0.98256300  1
  N  N24  1  0.53490500  0.67312900  0.37618000  1
  N  N25  1  0.03490500  0.32687100  0.12382000  1
  N  N26  1  0.46509500  0.32687100  0.62382000  1
  N  N27  1  0.96509500  0.67312900  0.87618000  1
