# generated using pymatgen
data_Eu2CuTe4
_symmetry_space_group_name_H-M   'P 1'
_cell_length_a   4.47014300
_cell_length_b   4.47014300
_cell_length_c   10.10238400
_cell_angle_alpha   90.00000000
_cell_angle_beta   90.00000000
_cell_angle_gamma   90.00000000
_symmetry_Int_Tables_number   1
_chemical_formula_structural   Eu2CuTe4
_chemical_formula_sum   'Eu2 Cu1 Te4'
_cell_volume   201.86763976
_cell_formula_units_Z   1
loop_
 _symmetry_equiv_pos_site_id
 _symmetry_equiv_pos_as_xyz
  1  'x, y, z'
loop_
 _atom_site_type_symbol
 _atom_site_label
 _atom_site_symmetry_multiplicity
 _atom_site_fract_x
 _atom_site_fract_y
 _atom_site_fract_z
 _atom_site_occupancy
  Eu  Eu0  1  0.00000000  0.50000000  0.25940300  1
  Eu  Eu1  1  0.50000000  0.00000000  0.74059700  1
  Cu  Cu2  1  0.50000000  0.50000000  0.50000000  1
  Te  Te3  1  0.50000000  0.00000000  0.35857700  1
  Te  Te4  1  0.00000000  0.50000000  0.64142300  1
  Te  Te5  1  0.50000000  0.50000000  0.00000000  1
  Te  Te6  1  0.00000000  0.00000000  0.00000000  1
