# generated using pymatgen
data_ThTlCuSe3
_symmetry_space_group_name_H-M   'P 1'
_cell_length_a   7.54876298
_cell_length_b   7.54876298
_cell_length_c   10.97762400
_cell_angle_alpha   90.00000000
_cell_angle_beta   90.00000000
_cell_angle_gamma   147.57642555
_symmetry_Int_Tables_number   1
_chemical_formula_structural   ThTlCuSe3
_chemical_formula_sum   'Th2 Tl2 Cu2 Se6'
_cell_volume   335.40211856
_cell_formula_units_Z   2
loop_
 _symmetry_equiv_pos_site_id
 _symmetry_equiv_pos_as_xyz
  1  'x, y, z'
loop_
 _atom_site_type_symbol
 _atom_site_label
 _atom_site_symmetry_multiplicity
 _atom_site_fract_x
 _atom_site_fract_y
 _atom_site_fract_z
 _atom_site_occupancy
  Th  Th0  1  0.00000000  0.00000000  0.50000000  1
  Th  Th1  1  0.00000000  0.00000000  0.00000000  1
  Tl  Tl2  1  0.25152400  0.74847600  0.25000000  1
  Tl  Tl3  1  0.74847600  0.25152400  0.75000000  1
  Cu  Cu4  1  0.53464200  0.46535800  0.25000000  1
  Cu  Cu5  1  0.46535800  0.53464200  0.75000000  1
  Se  Se6  1  0.63045400  0.36954600  0.43482800  1
  Se  Se7  1  0.36954600  0.63045400  0.56517200  1
  Se  Se8  1  0.63045400  0.36954600  0.06517200  1
  Se  Se9  1  0.36954600  0.63045400  0.93482800  1
  Se  Se10  1  0.93352700  0.06647300  0.25000000  1
  Se  Se11  1  0.06647300  0.93352700  0.75000000  1
