# generated using pymatgen
data_SmRe2SiC
_symmetry_space_group_name_H-M   'P 1'
_cell_length_a   5.81540873
_cell_length_b   5.81540873
_cell_length_c   7.33355100
_cell_angle_alpha   90.00000000
_cell_angle_beta   90.00000000
_cell_angle_gamma   139.75942903
_symmetry_Int_Tables_number   1
_chemical_formula_structural   SmRe2SiC
_chemical_formula_sum   'Sm2 Re4 Si2 C2'
_cell_volume   160.21612583
_cell_formula_units_Z   2
loop_
 _symmetry_equiv_pos_site_id
 _symmetry_equiv_pos_as_xyz
  1  'x, y, z'
loop_
 _atom_site_type_symbol
 _atom_site_label
 _atom_site_symmetry_multiplicity
 _atom_site_fract_x
 _atom_site_fract_y
 _atom_site_fract_z
 _atom_site_occupancy
  Sm  Sm0  1  0.54399800  0.45600200  0.25000000  1
  Sm  Sm1  1  0.45600200  0.54399800  0.75000000  1
  Re  Re2  1  0.82555100  0.17444900  0.06126700  1
  Re  Re3  1  0.17444900  0.82555100  0.93873300  1
  Re  Re4  1  0.17444900  0.82555100  0.56126700  1
  Re  Re5  1  0.82555100  0.17444900  0.43873300  1
  Si  Si6  1  0.26596900  0.73403100  0.25000000  1
  Si  Si7  1  0.73403100  0.26596900  0.75000000  1
  C  C8  1  0.00000000  0.00000000  0.00000000  1
  C  C9  1  0.00000000  0.00000000  0.50000000  1
