# generated using pymatgen
data_BaLa2(SiS4)2
_symmetry_space_group_name_H-M   'P 1'
_cell_length_a   9.32351740
_cell_length_b   9.24656012
_cell_length_c   10.66776014
_cell_angle_alpha   89.38508764
_cell_angle_beta   115.91446189
_cell_angle_gamma   59.72331120
_symmetry_Int_Tables_number   1
_chemical_formula_structural   BaLa2(SiS4)2
_chemical_formula_sum   'Ba2 La4 Si4 S16'
_cell_volume   682.02726459
_cell_formula_units_Z   2
loop_
 _symmetry_equiv_pos_site_id
 _symmetry_equiv_pos_as_xyz
  1  'x, y, z'
loop_
 _atom_site_type_symbol
 _atom_site_label
 _atom_site_symmetry_multiplicity
 _atom_site_fract_x
 _atom_site_fract_y
 _atom_site_fract_z
 _atom_site_occupancy
  Ba  Ba0  1  0.50478000  0.91582400  0.25178700  1
  Ba  Ba1  1  0.83117200  0.41581300  0.75177700  1
  La  La2  1  0.18955900  0.56039600  0.24896000  1
  La  La3  1  0.80958200  0.24772300  0.24783400  1
  La  La4  1  0.49902100  0.06037700  0.74896800  1
  La  La5  1  0.19050400  0.74770200  0.74786400  1
  Si  Si6  1  0.67816300  0.15515000  0.52047700  1
  Si  Si7  1  0.68715400  0.65509300  0.02046700  1
  Si  Si8  1  0.30704900  0.84709900  0.48035700  1
  Si  Si9  1  0.32628600  0.34706400  0.98038600  1
  S  S10  1  0.83634100  0.95504500  0.44678800  1
  S  S11  1  0.39434000  0.22626400  0.45368300  1
  S  S12  1  0.63873600  0.38739700  0.42612600  1
  S  S13  1  0.83306000  0.72623100  0.95366900  1
  S  S14  1  0.65541700  0.45501400  0.94678700  1
  S  S15  1  0.39997600  0.88737800  0.92615500  1
  S  S16  1  0.15853300  0.06027500  0.55241000  1
  S  S17  1  0.58459900  0.79836200  0.56815800  1
  S  S18  1  0.32697200  0.61867600  0.55270600  1
  S  S19  1  0.18521300  0.29837500  0.06814700  1
  S  S20  1  0.33361700  0.56026600  0.05242200  1
  S  S21  1  0.60715900  0.11862100  0.05275500  1
  S  S22  1  0.14258600  0.92040900  0.24673800  1
  S  S23  1  0.18379300  0.42039500  0.74673600  1
  S  S24  1  0.84024900  0.05751800  0.75402400  1
  S  S25  1  0.85627100  0.55746700  0.25401600  1
