# generated using pymatgen
data_Nd(PdO2)2
_symmetry_space_group_name_H-M   'P 1'
_cell_length_a   6.63651093
_cell_length_b   6.63651093
_cell_length_c   6.63651093
_cell_angle_alpha   126.81985220
_cell_angle_beta   126.81985220
_cell_angle_gamma   78.54477972
_symmetry_Int_Tables_number   1
_chemical_formula_structural   Nd(PdO2)2
_chemical_formula_sum   'Nd2 Pd4 O8'
_cell_volume   181.33857301
_cell_formula_units_Z   2
loop_
 _symmetry_equiv_pos_site_id
 _symmetry_equiv_pos_as_xyz
  1  'x, y, z'
loop_
 _atom_site_type_symbol
 _atom_site_label
 _atom_site_symmetry_multiplicity
 _atom_site_fract_x
 _atom_site_fract_y
 _atom_site_fract_z
 _atom_site_occupancy
  Nd  Nd0  1  0.50000000  0.50000000  0.00000000  1
  Nd  Nd1  1  0.25000000  0.75000000  0.50000000  1
  Pd  Pd2  1  0.87500000  0.12500000  0.75000000  1
  Pd  Pd3  1  0.87500000  0.62500000  0.75000000  1
  Pd  Pd4  1  0.87500000  0.12500000  0.25000000  1
  Pd  Pd5  1  0.37500000  0.12500000  0.25000000  1
  O  O6  1  0.50009500  0.45306500  0.35132600  1
  O  O7  1  0.20306500  0.35173900  0.45297000  1
  O  O8  1  0.89877000  0.75009500  0.54703000  1
  O  O9  1  0.10173900  0.14877000  0.64867400  1
  O  O10  1  0.24990500  0.79693500  0.14867400  1
  O  O11  1  0.54693500  0.89826100  0.04703000  1
  O  O12  1  0.64826100  0.10123000  0.85132600  1
  O  O13  1  0.85123000  0.49990500  0.95297000  1
