# generated using pymatgen
data_CsEuTa6Cl18
_symmetry_space_group_name_H-M   'P 1'
_cell_length_a   9.46518641
_cell_length_b   9.46518641
_cell_length_c   17.62161800
_cell_angle_alpha   90.00000000
_cell_angle_beta   90.00000000
_cell_angle_gamma   120.00000286
_symmetry_Int_Tables_number   1
_chemical_formula_structural   CsEuTa6Cl18
_chemical_formula_sum   'Cs2 Eu2 Ta12 Cl36'
_cell_volume   1367.20848350
_cell_formula_units_Z   2
loop_
 _symmetry_equiv_pos_site_id
 _symmetry_equiv_pos_as_xyz
  1  'x, y, z'
loop_
 _atom_site_type_symbol
 _atom_site_label
 _atom_site_symmetry_multiplicity
 _atom_site_fract_x
 _atom_site_fract_y
 _atom_site_fract_z
 _atom_site_occupancy
  Cs  Cs0  1  0.33333300  0.66666700  0.75000000  1
  Cs  Cs1  1  0.66666700  0.33333300  0.25000000  1
  Eu  Eu2  1  0.66666700  0.33333300  0.75000000  1
  Eu  Eu3  1  0.33333300  0.66666700  0.25000000  1
  Ta  Ta4  1  0.84327100  0.03736800  0.56750600  1
  Ta  Ta5  1  0.15672900  0.96263200  0.43249400  1
  Ta  Ta6  1  0.96263200  0.80590200  0.56750600  1
  Ta  Ta7  1  0.84327100  0.80590200  0.93249400  1
  Ta  Ta8  1  0.03736800  0.19409800  0.43249400  1
  Ta  Ta9  1  0.15672900  0.19409800  0.06750600  1
  Ta  Ta10  1  0.19409800  0.15672900  0.56750600  1
  Ta  Ta11  1  0.96263200  0.15672900  0.93249400  1
  Ta  Ta12  1  0.80590200  0.84327100  0.43249400  1
  Ta  Ta13  1  0.03736800  0.84327100  0.06750600  1
  Ta  Ta14  1  0.19409800  0.03736800  0.93249400  1
  Ta  Ta15  1  0.80590200  0.96263200  0.06750600  1
  Cl  Cl16  1  0.64000800  0.07318500  0.65521700  1
  Cl  Cl17  1  0.35999200  0.92681500  0.34478300  1
  Cl  Cl18  1  0.92681500  0.56682300  0.65521700  1
  Cl  Cl19  1  0.64000800  0.56682300  0.84478300  1
  Cl  Cl20  1  0.07318500  0.43317700  0.34478300  1
  Cl  Cl21  1  0.35999200  0.43317700  0.15521700  1
  Cl  Cl22  1  0.43317700  0.35999200  0.65521700  1
  Cl  Cl23  1  0.92681500  0.35999200  0.84478300  1
  Cl  Cl24  1  0.56682300  0.64000800  0.34478300  1
  Cl  Cl25  1  0.07318500  0.64000800  0.15521700  1
  Cl  Cl26  1  0.43317700  0.07318500  0.84478300  1
  Cl  Cl27  1  0.56682300  0.92681500  0.15521700  1
  Cl  Cl28  1  0.04343300  0.22851400  0.65856100  1
  Cl  Cl29  1  0.95656700  0.77148600  0.34143900  1
  Cl  Cl30  1  0.77148600  0.81491900  0.65856100  1
  Cl  Cl31  1  0.04343300  0.81491900  0.84143900  1
  Cl  Cl32  1  0.22851400  0.18508100  0.34143900  1
  Cl  Cl33  1  0.95656700  0.18508100  0.15856100  1
  Cl  Cl34  1  0.18508100  0.95656700  0.65856100  1
  Cl  Cl35  1  0.77148600  0.95656700  0.84143900  1
  Cl  Cl36  1  0.81491900  0.04343300  0.34143900  1
  Cl  Cl37  1  0.22851400  0.04343300  0.15856100  1
  Cl  Cl38  1  0.18508100  0.22851400  0.84143900  1
  Cl  Cl39  1  0.81491900  0.77148600  0.15856100  1
  Cl  Cl40  1  0.27215200  0.41197800  0.50002200  1
  Cl  Cl41  1  0.72784800  0.58802200  0.49997800  1
  Cl  Cl42  1  0.58802200  0.86017400  0.50002200  1
  Cl  Cl43  1  0.27215200  0.86017400  0.99997800  1
  Cl  Cl44  1  0.41197800  0.13982600  0.49997800  1
  Cl  Cl45  1  0.72784800  0.13982600  0.00002200  1
  Cl  Cl46  1  0.13982600  0.72784800  0.50002200  1
  Cl  Cl47  1  0.58802200  0.72784800  0.99997800  1
  Cl  Cl48  1  0.86017400  0.27215200  0.49997800  1
  Cl  Cl49  1  0.41197800  0.27215200  0.00002200  1
  Cl  Cl50  1  0.13982600  0.41197800  0.99997800  1
  Cl  Cl51  1  0.86017400  0.58802200  0.00002200  1
