# generated using pymatgen
data_Ba2GdTaO6
_symmetry_space_group_name_H-M   'P 1'
_cell_length_a   6.07637352
_cell_length_b   6.07637352
_cell_length_c   6.07637352
_cell_angle_alpha   120.21793988
_cell_angle_beta   120.21793988
_cell_angle_gamma   89.62292974
_symmetry_Int_Tables_number   1
_chemical_formula_structural   Ba2GdTaO6
_chemical_formula_sum   'Ba2 Gd1 Ta1 O6'
_cell_volume   158.11577511
_cell_formula_units_Z   1
loop_
 _symmetry_equiv_pos_site_id
 _symmetry_equiv_pos_as_xyz
  1  'x, y, z'
loop_
 _atom_site_type_symbol
 _atom_site_label
 _atom_site_symmetry_multiplicity
 _atom_site_fract_x
 _atom_site_fract_y
 _atom_site_fract_z
 _atom_site_occupancy
  Ba  Ba0  1  0.75000000  0.25000000  0.50000000  1
  Ba  Ba1  1  0.25000000  0.75000000  0.50000000  1
  Gd  Gd2  1  0.50000000  0.50000000  0.00000000  1
  Ta  Ta3  1  0.00000000  0.00000000  0.00000000  1
  O  O4  1  0.26383200  0.20300600  0.46683900  1
  O  O5  1  0.73616800  0.79699400  0.53316100  1
  O  O6  1  0.20300600  0.73616800  0.93917400  1
  O  O7  1  0.79699400  0.26383200  0.06082600  1
  O  O8  1  0.23427300  0.23427300  0.00000000  1
  O  O9  1  0.76572700  0.76572700  0.00000000  1
