# generated using pymatgen
data_KNb(CuS2)2
_symmetry_space_group_name_H-M   'P 1'
_cell_length_a   9.59673894
_cell_length_b   9.59673894
_cell_length_c   7.43031800
_cell_angle_alpha   90.00000000
_cell_angle_beta   90.00000000
_cell_angle_gamma   146.41197020
_symmetry_Int_Tables_number   1
_chemical_formula_structural   KNb(CuS2)2
_chemical_formula_sum   'K2 Nb2 Cu4 S8'
_cell_volume   378.57391939
_cell_formula_units_Z   2
loop_
 _symmetry_equiv_pos_site_id
 _symmetry_equiv_pos_as_xyz
  1  'x, y, z'
loop_
 _atom_site_type_symbol
 _atom_site_label
 _atom_site_symmetry_multiplicity
 _atom_site_fract_x
 _atom_site_fract_y
 _atom_site_fract_z
 _atom_site_occupancy
  K  K0  1  0.92818800  0.56346300  0.75000000  1
  K  K1  1  0.56346300  0.92818800  0.25000000  1
  Nb  Nb2  1  0.38705300  0.61297700  0.75000000  1
  Nb  Nb3  1  0.61297700  0.38705300  0.25000000  1
  Cu  Cu4  1  0.47886100  0.47886100  0.50000000  1
  Cu  Cu5  1  0.47886100  0.47886100  0.00000000  1
  Cu  Cu6  1  0.89123800  0.10864200  0.75000000  1
  Cu  Cu7  1  0.10864200  0.89123800  0.25000000  1
  S  S8  1  0.72897700  0.74520700  0.75000000  1
  S  S9  1  0.74520700  0.72897700  0.25000000  1
  S  S10  1  0.54098800  0.96495800  0.75000000  1
  S  S11  1  0.96495800  0.54098800  0.25000000  1
  S  S12  1  0.36153800  0.14675500  0.50240800  1
  S  S13  1  0.14675500  0.36153800  0.49759200  1
  S  S14  1  0.36153800  0.14675500  0.99759200  1
  S  S15  1  0.14675500  0.36153800  0.00240800  1
