# generated using pymatgen
data_CdCo3(PO3)8
_symmetry_space_group_name_H-M   'P 1'
_cell_length_a   7.39475714
_cell_length_b   7.39475714
_cell_length_c   10.04139602
_cell_angle_alpha   67.32201129
_cell_angle_beta   67.32201129
_cell_angle_gamma   70.55926215
_symmetry_Int_Tables_number   1
_chemical_formula_structural   CdCo3(PO3)8
_chemical_formula_sum   'Cd1 Co3 P8 O24'
_cell_volume   456.39545542
_cell_formula_units_Z   1
loop_
 _symmetry_equiv_pos_site_id
 _symmetry_equiv_pos_as_xyz
  1  'x, y, z'
loop_
 _atom_site_type_symbol
 _atom_site_label
 _atom_site_symmetry_multiplicity
 _atom_site_fract_x
 _atom_site_fract_y
 _atom_site_fract_z
 _atom_site_occupancy
  Cd  Cd0  1  0.55015900  0.44984100  0.00000000  1
  Co  Co1  1  0.00643200  0.49968000  0.74683000  1
  Co  Co2  1  0.50032000  0.99356800  0.25317000  1
  Co  Co3  1  0.45561400  0.54438600  0.50000000  1
  P  P4  1  0.18450200  0.19499300  0.05637000  1
  P  P5  1  0.80500700  0.81549800  0.94363000  1
  P  P6  1  0.80652700  0.80013600  0.45270100  1
  P  P7  1  0.19986400  0.19347300  0.54729900  1
  P  P8  1  0.21862700  0.75912600  0.23066500  1
  P  P9  1  0.24087400  0.78137300  0.76933500  1
  P  P10  1  0.77248300  0.23588400  0.28193100  1
  P  P11  1  0.76411600  0.22751700  0.71806900  1
  O  O12  1  0.31916700  0.58378500  0.17273900  1
  O  O13  1  0.41621500  0.68083300  0.82726100  1
  O  O14  1  0.66398100  0.41055000  0.34196500  1
  O  O15  1  0.58945000  0.33601900  0.65803500  1
  O  O16  1  0.37181400  0.20702400  0.07693500  1
  O  O17  1  0.79297600  0.62818600  0.92306500  1
  O  O18  1  0.62228800  0.78055400  0.43154100  1
  O  O19  1  0.21944600  0.37771200  0.56845900  1
  O  O20  1  0.98933500  0.74196900  0.31376800  1
  O  O21  1  0.25803100  0.01066500  0.68623200  1
  O  O22  1  0.00042200  0.26025100  0.19439900  1
  O  O23  1  0.73974900  0.99957800  0.80560100  1
  O  O24  1  0.19294400  0.96075800  0.09202600  1
  O  O25  1  0.03924200  0.80705600  0.90797400  1
  O  O26  1  0.79522600  0.03493000  0.42108700  1
  O  O27  1  0.96507000  0.20477400  0.57891300  1
  O  O28  1  0.30986500  0.79158700  0.33122700  1
  O  O29  1  0.20841300  0.69013500  0.66877300  1
  O  O30  1  0.69234500  0.19284600  0.18061900  1
  O  O31  1  0.80715400  0.30765500  0.81938100  1
  O  O32  1  0.14667700  0.30589600  0.90768800  1
  O  O33  1  0.69410400  0.85332300  0.09231200  1
  O  O34  1  0.85025400  0.68869000  0.59859700  1
  O  O35  1  0.31131000  0.14974600  0.40140300  1
