# generated using pymatgen
data_GdSnF7
_symmetry_space_group_name_H-M   'P 1'
_cell_length_a   5.72789700
_cell_length_b   9.11161700
_cell_length_c   12.25171534
_cell_angle_alpha   62.33913403
_cell_angle_beta   90.00000000
_cell_angle_gamma   90.00000000
_symmetry_Int_Tables_number   1
_chemical_formula_structural   GdSnF7
_chemical_formula_sum   'Gd4 Sn4 F28'
_cell_volume   566.34301734
_cell_formula_units_Z   4
loop_
 _symmetry_equiv_pos_site_id
 _symmetry_equiv_pos_as_xyz
  1  'x, y, z'
loop_
 _atom_site_type_symbol
 _atom_site_label
 _atom_site_symmetry_multiplicity
 _atom_site_fract_x
 _atom_site_fract_y
 _atom_site_fract_z
 _atom_site_occupancy
  Gd  Gd0  1  0.75793900  0.81298700  0.26539400  1
  Gd  Gd1  1  0.25793900  0.18701300  0.23460600  1
  Gd  Gd2  1  0.24206100  0.18701300  0.73460600  1
  Gd  Gd3  1  0.74206100  0.81298700  0.76539400  1
  Sn  Sn4  1  0.24356800  0.72700100  0.54325700  1
  Sn  Sn5  1  0.74356800  0.27299900  0.95674300  1
  Sn  Sn6  1  0.75643200  0.27299900  0.45674300  1
  Sn  Sn7  1  0.25643200  0.72700100  0.04325700  1
  F  F8  1  0.95254900  0.71798000  0.45467400  1
  F  F9  1  0.45254900  0.28202000  0.04532600  1
  F  F10  1  0.04745100  0.28202000  0.54532600  1
  F  F11  1  0.54745100  0.71798000  0.95467400  1
  F  F12  1  0.04770600  0.70795200  0.91973200  1
  F  F13  1  0.54770600  0.29204800  0.58026800  1
  F  F14  1  0.95229400  0.29204800  0.08026800  1
  F  F15  1  0.45229400  0.70795200  0.41973200  1
  F  F16  1  0.72972200  0.51904700  0.85931800  1
  F  F17  1  0.22972200  0.48095300  0.64068200  1
  F  F18  1  0.27027800  0.48095300  0.14068200  1
  F  F19  1  0.77027800  0.51904700  0.35931800  1
  F  F20  1  0.74075500  0.02631400  0.05335900  1
  F  F21  1  0.24075500  0.97368600  0.44664100  1
  F  F22  1  0.25924500  0.97368600  0.94664100  1
  F  F23  1  0.75924500  0.02631400  0.55335900  1
  F  F24  1  0.04337700  0.74468800  0.67140400  1
  F  F25  1  0.54337700  0.25531200  0.82859600  1
  F  F26  1  0.95662300  0.25531200  0.32859600  1
  F  F27  1  0.45662300  0.74468800  0.17140400  1
  F  F28  1  0.01971800  0.26985600  0.85768200  1
  F  F29  1  0.51971800  0.73014400  0.64231800  1
  F  F30  1  0.98028200  0.73014400  0.14231800  1
  F  F31  1  0.48028200  0.26985600  0.35768200  1
  F  F32  1  0.07961400  0.97056000  0.23366200  1
  F  F33  1  0.57961400  0.02944000  0.26633800  1
  F  F34  1  0.92038600  0.02944000  0.76633800  1
  F  F35  1  0.42038600  0.97056000  0.73366200  1
