# generated using pymatgen
data_BiRhSe
_symmetry_space_group_name_H-M   'P 1'
_cell_length_a   6.38227500
_cell_length_b   6.38227500
_cell_length_c   6.38227500
_cell_angle_alpha   90.00000000
_cell_angle_beta   90.00000000
_cell_angle_gamma   90.00000000
_symmetry_Int_Tables_number   1
_chemical_formula_structural   BiRhSe
_chemical_formula_sum   'Bi4 Rh4 Se4'
_cell_volume   259.97197860
_cell_formula_units_Z   4
loop_
 _symmetry_equiv_pos_site_id
 _symmetry_equiv_pos_as_xyz
  1  'x, y, z'
loop_
 _atom_site_type_symbol
 _atom_site_label
 _atom_site_symmetry_multiplicity
 _atom_site_fract_x
 _atom_site_fract_y
 _atom_site_fract_z
 _atom_site_occupancy
  Bi  Bi0  1  0.13013700  0.63013700  0.86986300  1
  Bi  Bi1  1  0.63013700  0.86986300  0.13013700  1
  Bi  Bi2  1  0.86986300  0.13013700  0.63013700  1
  Bi  Bi3  1  0.36986300  0.36986300  0.36986300  1
  Rh  Rh4  1  0.48551500  0.98551500  0.51448500  1
  Rh  Rh5  1  0.98551500  0.51448500  0.48551500  1
  Rh  Rh6  1  0.51448500  0.48551500  0.98551500  1
  Rh  Rh7  1  0.01448500  0.01448500  0.01448500  1
  Se  Se8  1  0.87974300  0.37974300  0.12025700  1
  Se  Se9  1  0.37974300  0.12025700  0.87974300  1
  Se  Se10  1  0.12025700  0.87974300  0.37974300  1
  Se  Se11  1  0.62025700  0.62025700  0.62025700  1
