# generated using pymatgen
data_Nd5Co2
_symmetry_space_group_name_H-M   'P 1'
_cell_length_a   8.90671920
_cell_length_b   8.90671920
_cell_length_c   7.08537865
_cell_angle_alpha   83.91925850
_cell_angle_beta   83.91925850
_cell_angle_gamma   42.93571400
_symmetry_Int_Tables_number   1
_chemical_formula_structural   Nd5Co2
_chemical_formula_sum   'Nd10 Co4'
_cell_volume   380.38809975
_cell_formula_units_Z   2
loop_
 _symmetry_equiv_pos_site_id
 _symmetry_equiv_pos_as_xyz
  1  'x, y, z'
loop_
 _atom_site_type_symbol
 _atom_site_label
 _atom_site_symmetry_multiplicity
 _atom_site_fract_x
 _atom_site_fract_y
 _atom_site_fract_z
 _atom_site_occupancy
  Nd  Nd0  1  0.01637900  0.79513900  0.91342100  1
  Nd  Nd1  1  0.20486100  0.98362100  0.58657900  1
  Nd  Nd2  1  0.98362100  0.20486100  0.08657900  1
  Nd  Nd3  1  0.79513900  0.01637900  0.41342100  1
  Nd  Nd4  1  0.35489100  0.21501700  0.81705200  1
  Nd  Nd5  1  0.78498300  0.64510900  0.68294800  1
  Nd  Nd6  1  0.64510900  0.78498300  0.18294800  1
  Nd  Nd7  1  0.21501700  0.35489100  0.31705200  1
  Nd  Nd8  1  0.57231100  0.42768900  0.75000000  1
  Nd  Nd9  1  0.42768900  0.57231100  0.25000000  1
  Co  Co10  1  0.17847300  0.59899600  0.57489000  1
  Co  Co11  1  0.40100400  0.82152700  0.92511000  1
  Co  Co12  1  0.82152700  0.40100400  0.42511000  1
  Co  Co13  1  0.59899600  0.17847300  0.07489000  1
