# generated using pymatgen
data_Cs2RuO4
_symmetry_space_group_name_H-M   'P 1'
_cell_length_a   6.61790100
_cell_length_b   8.66416400
_cell_length_c   11.76095000
_cell_angle_alpha   90.00000000
_cell_angle_beta   90.00000000
_cell_angle_gamma   90.00000000
_symmetry_Int_Tables_number   1
_chemical_formula_structural   Cs2RuO4
_chemical_formula_sum   'Cs8 Ru4 O16'
_cell_volume   674.35616774
_cell_formula_units_Z   4
loop_
 _symmetry_equiv_pos_site_id
 _symmetry_equiv_pos_as_xyz
  1  'x, y, z'
loop_
 _atom_site_type_symbol
 _atom_site_label
 _atom_site_symmetry_multiplicity
 _atom_site_fract_x
 _atom_site_fract_y
 _atom_site_fract_z
 _atom_site_occupancy
  Cs  Cs0  1  0.25000000  0.66883000  0.58072500  1
  Cs  Cs1  1  0.75000000  0.33117000  0.41927500  1
  Cs  Cs2  1  0.25000000  0.16883000  0.91927500  1
  Cs  Cs3  1  0.75000000  0.83117000  0.08072500  1
  Cs  Cs4  1  0.75000000  0.00691100  0.70415100  1
  Cs  Cs5  1  0.25000000  0.99308900  0.29584900  1
  Cs  Cs6  1  0.75000000  0.50691100  0.79584900  1
  Cs  Cs7  1  0.25000000  0.49308900  0.20415100  1
  Ru  Ru8  1  0.75000000  0.27619800  0.07906100  1
  Ru  Ru9  1  0.25000000  0.72380200  0.92093900  1
  Ru  Ru10  1  0.75000000  0.77619800  0.42093900  1
  Ru  Ru11  1  0.25000000  0.22380200  0.57906100  1
  O  O12  1  0.97310200  0.70248600  0.35191400  1
  O  O13  1  0.47310200  0.29751400  0.64808600  1
  O  O14  1  0.52689800  0.20248600  0.14808600  1
  O  O15  1  0.02689800  0.79751400  0.85191400  1
  O  O16  1  0.02689800  0.29751400  0.64808600  1
  O  O17  1  0.52689800  0.70248600  0.35191400  1
  O  O18  1  0.47310200  0.79751400  0.85191400  1
  O  O19  1  0.97310200  0.20248600  0.14808600  1
  O  O20  1  0.25000000  0.01718900  0.57952200  1
  O  O21  1  0.75000000  0.98281100  0.42047800  1
  O  O22  1  0.25000000  0.51718900  0.92047800  1
  O  O23  1  0.75000000  0.48281100  0.07952200  1
  O  O24  1  0.75000000  0.20286700  0.93493300  1
  O  O25  1  0.25000000  0.79713300  0.06506700  1
  O  O26  1  0.75000000  0.70286700  0.56506700  1
  O  O27  1  0.25000000  0.29713300  0.43493300  1
