# generated using pymatgen
data_BaMn2V2O8
_symmetry_space_group_name_H-M   'P 1'
_cell_length_a   10.08841011
_cell_length_b   10.08841011
_cell_length_c   10.08841011
_cell_angle_alpha   101.09306077
_cell_angle_beta   101.09306077
_cell_angle_gamma   127.96600082
_symmetry_Int_Tables_number   1
_chemical_formula_structural   BaMn2V2O8
_chemical_formula_sum   'Ba4 Mn8 V8 O32'
_cell_volume   727.44283014
_cell_formula_units_Z   4
loop_
 _symmetry_equiv_pos_site_id
 _symmetry_equiv_pos_as_xyz
  1  'x, y, z'
loop_
 _atom_site_type_symbol
 _atom_site_label
 _atom_site_symmetry_multiplicity
 _atom_site_fract_x
 _atom_site_fract_y
 _atom_site_fract_z
 _atom_site_occupancy
  Ba  Ba0  1  0.50000000  0.50000000  0.00000000  1
  Ba  Ba1  1  0.75000000  0.25000000  0.50000000  1
  Ba  Ba2  1  0.00000000  0.00000000  0.00000000  1
  Ba  Ba3  1  0.25000000  0.75000000  0.50000000  1
  Mn  Mn4  1  0.66772200  0.16772200  0.83544300  1
  Mn  Mn5  1  0.41772200  0.08227800  0.00000000  1
  Mn  Mn6  1  0.08227800  0.41772200  0.00000000  1
  Mn  Mn7  1  0.33227800  0.83227800  0.16455700  1
  Mn  Mn8  1  0.58227800  0.58227800  0.66455700  1
  Mn  Mn9  1  0.83227800  0.66772200  0.50000000  1
  Mn  Mn10  1  0.16772200  0.33227800  0.50000000  1
  Mn  Mn11  1  0.91772200  0.91772200  0.33544300  1
  V  V12  1  0.37500000  0.70479300  0.82979300  1
  V  V13  1  0.95479300  0.62500000  0.82979300  1
  V  V14  1  0.79520700  0.12500000  0.17020700  1
  V  V15  1  0.87500000  0.54520700  0.17020700  1
  V  V16  1  0.87500000  0.04520700  0.67020700  1
  V  V17  1  0.29520700  0.12500000  0.67020700  1
  V  V18  1  0.45479300  0.62500000  0.32979300  1
  V  V19  1  0.37500000  0.20479300  0.32979300  1
  O  O20  1  0.87466900  0.53684500  0.34054000  1
  O  O21  1  0.19630600  0.53412900  0.65946000  1
  O  O22  1  0.78684500  0.94630600  0.16217600  1
  O  O23  1  0.78412900  0.62466900  0.83782400  1
  O  O24  1  0.55369400  0.71315500  0.83782400  1
  O  O25  1  0.96315500  0.62533100  0.65946000  1
  O  O26  1  0.96587100  0.30369400  0.34054000  1
  O  O27  1  0.87533100  0.71587100  0.16217600  1
  O  O28  1  0.37533100  0.21315500  0.15946000  1
  O  O29  1  0.05369400  0.21587100  0.84054000  1
  O  O30  1  0.46315500  0.80369400  0.33782400  1
  O  O31  1  0.46587100  0.12533100  0.66217600  1
  O  O32  1  0.69630600  0.03684500  0.66217600  1
  O  O33  1  0.28684500  0.12466900  0.84054000  1
  O  O34  1  0.28412900  0.44630600  0.15946000  1
  O  O35  1  0.37466900  0.03412900  0.33782400  1
  O  O36  1  0.07775200  0.60112700  0.16530700  1
  O  O37  1  0.43582000  0.91244500  0.83469300  1
  O  O38  1  0.85112700  0.18582000  0.02337500  1
  O  O39  1  0.16244500  0.82775200  0.97662500  1
  O  O40  1  0.57775200  0.41244500  0.47662500  1
  O  O41  1  0.66244500  0.68582000  0.33469300  1
  O  O42  1  0.35112700  0.32775200  0.66530700  1
  O  O43  1  0.93582000  0.10112700  0.52337500  1
  O  O44  1  0.08755500  0.92224800  0.52337500  1
  O  O45  1  0.39887300  0.56418000  0.47662500  1
  O  O46  1  0.81418000  0.83755500  0.66530700  1
  O  O47  1  0.17224800  0.14887300  0.33469300  1
  O  O48  1  0.67224800  0.33755500  0.02337500  1
  O  O49  1  0.58755500  0.06418000  0.16530700  1
  O  O50  1  0.89887300  0.42224800  0.83469300  1
  O  O51  1  0.31418000  0.64887300  0.97662500  1
