# generated using pymatgen
data_Nd2(Ga3Co)3
_symmetry_space_group_name_H-M   'P 1'
_cell_length_a   7.44603660
_cell_length_b   7.44603660
_cell_length_c   9.53761500
_cell_angle_alpha   90.00000000
_cell_angle_beta   90.00000000
_cell_angle_gamma   119.76741451
_symmetry_Int_Tables_number   1
_chemical_formula_structural   Nd2(Ga3Co)3
_chemical_formula_sum   'Nd4 Ga18 Co6'
_cell_volume   459.02235715
_cell_formula_units_Z   2
loop_
 _symmetry_equiv_pos_site_id
 _symmetry_equiv_pos_as_xyz
  1  'x, y, z'
loop_
 _atom_site_type_symbol
 _atom_site_label
 _atom_site_symmetry_multiplicity
 _atom_site_fract_x
 _atom_site_fract_y
 _atom_site_fract_z
 _atom_site_occupancy
  Nd  Nd0  1  0.33177400  0.00333500  0.25000000  1
  Nd  Nd1  1  0.99666500  0.66822600  0.75000000  1
  Nd  Nd2  1  0.66822600  0.99666500  0.75000000  1
  Nd  Nd3  1  0.00333500  0.33177400  0.25000000  1
  Ga  Ga4  1  0.33401200  0.00169000  0.92846100  1
  Ga  Ga5  1  0.99831000  0.66598800  0.07153900  1
  Ga  Ga6  1  0.33401200  0.00169000  0.57153900  1
  Ga  Ga7  1  0.99831000  0.66598800  0.42846100  1
  Ga  Ga8  1  0.66598800  0.99831000  0.07153900  1
  Ga  Ga9  1  0.00169000  0.33401200  0.92846100  1
  Ga  Ga10  1  0.66598800  0.99831000  0.42846100  1
  Ga  Ga11  1  0.00169000  0.33401200  0.57153900  1
  Ga  Ga12  1  0.66393800  0.66393800  0.94431000  1
  Ga  Ga13  1  0.33606200  0.33606200  0.05569000  1
  Ga  Ga14  1  0.66393800  0.66393800  0.55569000  1
  Ga  Ga15  1  0.33606200  0.33606200  0.44431000  1
  Ga  Ga16  1  0.12318400  0.12318400  0.75000000  1
  Ga  Ga17  1  0.87681600  0.87681600  0.25000000  1
  Ga  Ga18  1  0.45217700  0.66474800  0.25000000  1
  Ga  Ga19  1  0.33525200  0.54782300  0.75000000  1
  Ga  Ga20  1  0.54782300  0.33525200  0.75000000  1
  Ga  Ga21  1  0.66474800  0.45217700  0.25000000  1
  Co  Co22  1  0.00000000  0.00000000  0.00000000  1
  Co  Co23  1  0.00000000  0.00000000  0.50000000  1
  Co  Co24  1  0.32901400  0.67098600  0.00000000  1
  Co  Co25  1  0.32901400  0.67098600  0.50000000  1
  Co  Co26  1  0.67098600  0.32901400  0.00000000  1
  Co  Co27  1  0.67098600  0.32901400  0.50000000  1
