# generated using pymatgen
data_Rb2UF7
_symmetry_space_group_name_H-M   'P 1'
_cell_length_a   13.80904400
_cell_length_b   6.56489400
_cell_length_c   9.73033609
_cell_angle_alpha   88.89849564
_cell_angle_beta   90.00000000
_cell_angle_gamma   90.00000000
_symmetry_Int_Tables_number   1
_chemical_formula_structural   Rb2UF7
_chemical_formula_sum   'Rb8 U4 F28'
_cell_volume   881.93973781
_cell_formula_units_Z   4
loop_
 _symmetry_equiv_pos_site_id
 _symmetry_equiv_pos_as_xyz
  1  'x, y, z'
loop_
 _atom_site_type_symbol
 _atom_site_label
 _atom_site_symmetry_multiplicity
 _atom_site_fract_x
 _atom_site_fract_y
 _atom_site_fract_z
 _atom_site_occupancy
  Rb  Rb0  1  0.21648700  0.27971900  0.55939800  1
  Rb  Rb1  1  0.78351300  0.72028100  0.44060200  1
  Rb  Rb2  1  0.71648700  0.72028100  0.94060200  1
  Rb  Rb3  1  0.28351300  0.27971900  0.05939800  1
  Rb  Rb4  1  0.04990700  0.70539900  0.86181400  1
  Rb  Rb5  1  0.95009300  0.29460100  0.13818600  1
  Rb  Rb6  1  0.54990700  0.29460100  0.63818600  1
  Rb  Rb7  1  0.45009300  0.70539900  0.36181400  1
  U  U8  1  0.36829300  0.80181100  0.81488500  1
  U  U9  1  0.63170700  0.19818900  0.18511500  1
  U  U10  1  0.86829300  0.19818900  0.68511500  1
  U  U11  1  0.13170700  0.80181100  0.31488500  1
  F  F12  1  0.74135800  0.02013700  0.69255300  1
  F  F13  1  0.25864200  0.97986300  0.30744700  1
  F  F14  1  0.24135800  0.97986300  0.80744700  1
  F  F15  1  0.75864200  0.02013700  0.19255300  1
  F  F16  1  0.15902500  0.73458000  0.52262100  1
  F  F17  1  0.84097500  0.26542000  0.47737900  1
  F  F18  1  0.65902500  0.26542000  0.97737900  1
  F  F19  1  0.34097500  0.73458000  0.02262100  1
  F  F20  1  0.28391200  0.54445400  0.77715400  1
  F  F21  1  0.71608800  0.45554600  0.22284600  1
  F  F22  1  0.78391200  0.45554600  0.72284600  1
  F  F23  1  0.21608800  0.54445400  0.27715400  1
  F  F24  1  0.38869700  0.40082800  0.51603700  1
  F  F25  1  0.61130300  0.59917200  0.48396300  1
  F  F26  1  0.88869700  0.59917200  0.98396300  1
  F  F27  1  0.11130300  0.40082800  0.01603700  1
  F  F28  1  0.94017000  0.93203300  0.62749600  1
  F  F29  1  0.05983000  0.06796700  0.37250400  1
  F  F30  1  0.44017000  0.06796700  0.87250400  1
  F  F31  1  0.55983000  0.93203300  0.12749600  1
  F  F32  1  0.99728300  0.36470800  0.67360900  1
  F  F33  1  0.00271700  0.63529200  0.32639100  1
  F  F34  1  0.49728300  0.63529200  0.82639100  1
  F  F35  1  0.50271700  0.36470800  0.17360900  1
  F  F36  1  0.39273300  0.89890200  0.61269000  1
  F  F37  1  0.60726700  0.10109800  0.38731000  1
  F  F38  1  0.89273300  0.10109800  0.88731000  1
  F  F39  1  0.10726700  0.89890200  0.11269000  1
