# generated using pymatgen
data_CsTaWO6
_symmetry_space_group_name_H-M   'P 1'
_cell_length_a   7.44957810
_cell_length_b   7.44957810
_cell_length_c   7.44957810
_cell_angle_alpha   120.16162209
_cell_angle_beta   119.94981711
_cell_angle_gamma   89.90361593
_symmetry_Int_Tables_number   1
_chemical_formula_structural   CsTaWO6
_chemical_formula_sum   'Cs2 Ta2 W2 O12'
_cell_volume   292.08657341
_cell_formula_units_Z   2
loop_
 _symmetry_equiv_pos_site_id
 _symmetry_equiv_pos_as_xyz
  1  'x, y, z'
loop_
 _atom_site_type_symbol
 _atom_site_label
 _atom_site_symmetry_multiplicity
 _atom_site_fract_x
 _atom_site_fract_y
 _atom_site_fract_z
 _atom_site_occupancy
  Cs  Cs0  1  0.62426600  0.87426600  0.75000000  1
  Cs  Cs1  1  0.37573400  0.12573400  0.25000000  1
  Ta  Ta2  1  0.50000000  0.50000000  0.00000000  1
  Ta  Ta3  1  0.00000000  0.50000000  0.50000000  1
  W  W4  1  0.00000000  0.50000000  0.00000000  1
  W  W5  1  0.00000000  0.00000000  0.50000000  1
  O  O6  1  0.05893900  0.80893900  0.25000000  1
  O  O7  1  0.68707700  0.43707700  0.25000000  1
  O  O8  1  0.05981700  0.81578900  0.62154100  1
  O  O9  1  0.69424800  0.43827600  0.87845900  1
  O  O10  1  0.69424800  0.81578900  0.25597200  1
  O  O11  1  0.05981700  0.43827600  0.24402800  1
  O  O12  1  0.94106100  0.19106100  0.75000000  1
  O  O13  1  0.31292300  0.56292300  0.75000000  1
  O  O14  1  0.94018300  0.18421100  0.37845900  1
  O  O15  1  0.30575200  0.56172400  0.12154100  1
  O  O16  1  0.30575200  0.18421100  0.74402800  1
  O  O17  1  0.94018300  0.56172400  0.75597200  1
