# generated using pymatgen
data_PrSiNi
_symmetry_space_group_name_H-M   'P 1'
_cell_length_a   7.60143623
_cell_length_b   7.60143623
_cell_length_c   7.60143623
_cell_angle_alpha   148.19513345
_cell_angle_beta   148.19513345
_cell_angle_gamma   45.59739183
_symmetry_Int_Tables_number   1
_chemical_formula_structural   PrSiNi
_chemical_formula_sum   'Pr2 Si2 Ni2'
_cell_volume   121.59588958
_cell_formula_units_Z   2
loop_
 _symmetry_equiv_pos_site_id
 _symmetry_equiv_pos_as_xyz
  1  'x, y, z'
loop_
 _atom_site_type_symbol
 _atom_site_label
 _atom_site_symmetry_multiplicity
 _atom_site_fract_x
 _atom_site_fract_y
 _atom_site_fract_z
 _atom_site_occupancy
  Pr  Pr0  1  0.58005800  0.58005800  0.00000000  1
  Pr  Pr1  1  0.33005800  0.83005800  0.50000000  1
  Si  Si2  1  0.99902600  0.99902600  0.00000000  1
  Si  Si3  1  0.74902600  0.24902600  0.50000000  1
  Ni  Ni4  1  0.16791600  0.16791600  0.00000000  1
  Ni  Ni5  1  0.91791600  0.41791600  0.50000000  1
