# generated using pymatgen
data_Ca2YAs(WO6)2
_symmetry_space_group_name_H-M   'P 1'
_cell_length_a   17.67691197
_cell_length_b   17.67691197
_cell_length_c   17.67691197
_cell_angle_alpha   163.05470856
_cell_angle_beta   163.05470856
_cell_angle_gamma   24.05325957
_symmetry_Int_Tables_number   1
_chemical_formula_structural   Ca2YAs(WO6)2
_chemical_formula_sum   'Ca4 Y2 As2 W4 O24'
_cell_volume   469.10012540
_cell_formula_units_Z   2
loop_
 _symmetry_equiv_pos_site_id
 _symmetry_equiv_pos_as_xyz
  1  'x, y, z'
loop_
 _atom_site_type_symbol
 _atom_site_label
 _atom_site_symmetry_multiplicity
 _atom_site_fract_x
 _atom_site_fract_y
 _atom_site_fract_z
 _atom_site_occupancy
  Ca  Ca0  1  0.91366500  0.41366500  0.50000000  1
  Ca  Ca1  1  0.16366500  0.16366500  0.00000000  1
  Ca  Ca2  1  0.83633500  0.83633500  0.00000000  1
  Ca  Ca3  1  0.58633500  0.08633500  0.50000000  1
  Y  Y4  1  0.50000000  0.50000000  0.00000000  1
  Y  Y5  1  0.25000000  0.75000000  0.50000000  1
  As  As6  1  0.75000000  0.25000000  0.50000000  1
  As  As7  1  0.00000000  0.00000000  0.00000000  1
  W  W8  1  0.07470200  0.57470200  0.50000000  1
  W  W9  1  0.67529800  0.67529800  0.00000000  1
  W  W10  1  0.42529800  0.92529800  0.50000000  1
  W  W11  1  0.32470200  0.32470200  0.00000000  1
  O  O12  1  0.52980400  0.01889800  0.10296300  1
  O  O13  1  0.17684100  0.77980400  0.01090600  1
  O  O14  1  0.76889800  0.16593500  0.98909400  1
  O  O15  1  0.91593500  0.42684100  0.89703700  1
  O  O16  1  0.22019600  0.23110200  0.39703700  1
  O  O17  1  0.57315900  0.47019600  0.48909400  1
  O  O18  1  0.98110200  0.08406500  0.51090600  1
  O  O19  1  0.83406500  0.82315900  0.60296300  1
  O  O20  1  0.98237800  0.86372300  0.45354300  1
  O  O21  1  0.27883600  0.23237800  0.61865500  1
  O  O22  1  0.61372300  0.66018100  0.38134500  1
  O  O23  1  0.41018100  0.52883600  0.54645700  1
  O  O24  1  0.97412500  0.84791400  0.60807000  1
  O  O25  1  0.11605500  0.22412500  0.62621100  1
  O  O26  1  0.59791400  0.48984400  0.37378900  1
  O  O27  1  0.23984400  0.36605500  0.39193000  1
  O  O28  1  0.77587500  0.40208600  0.89193000  1
  O  O29  1  0.63394500  0.02587500  0.87378900  1
  O  O30  1  0.15208600  0.76015600  0.12621100  1
  O  O31  1  0.51015600  0.88394500  0.10807000  1
  O  O32  1  0.33981900  0.72116400  0.95354300  1
  O  O33  1  0.13627700  0.58981900  0.11865500  1
  O  O34  1  0.47116400  0.01762200  0.88134500  1
  O  O35  1  0.76762200  0.38627700  0.04645700  1
