# generated using pymatgen
data_Cs2PrCl5
_symmetry_space_group_name_H-M   'P 1'
_cell_length_a   8.69728000
_cell_length_b   9.20323100
_cell_length_c   14.16570000
_cell_angle_alpha   90.00000000
_cell_angle_beta   90.00000000
_cell_angle_gamma   90.00000000
_symmetry_Int_Tables_number   1
_chemical_formula_structural   Cs2PrCl5
_chemical_formula_sum   'Cs8 Pr4 Cl20'
_cell_volume   1133.86621461
_cell_formula_units_Z   4
loop_
 _symmetry_equiv_pos_site_id
 _symmetry_equiv_pos_as_xyz
  1  'x, y, z'
loop_
 _atom_site_type_symbol
 _atom_site_label
 _atom_site_symmetry_multiplicity
 _atom_site_fract_x
 _atom_site_fract_y
 _atom_site_fract_z
 _atom_site_occupancy
  Cs  Cs0  1  0.94735200  0.00621800  0.82807100  1
  Cs  Cs1  1  0.05264800  0.99378200  0.17192900  1
  Cs  Cs2  1  0.44735200  0.99378200  0.67192900  1
  Cs  Cs3  1  0.05264800  0.50621800  0.17192900  1
  Cs  Cs4  1  0.55264800  0.00621800  0.32807100  1
  Cs  Cs5  1  0.94735200  0.49378200  0.82807100  1
  Cs  Cs6  1  0.55264800  0.49378200  0.32807100  1
  Cs  Cs7  1  0.44735200  0.50621800  0.67192900  1
  Pr  Pr8  1  0.93273000  0.75000000  0.50279100  1
  Pr  Pr9  1  0.06727000  0.25000000  0.49720900  1
  Pr  Pr10  1  0.43273000  0.25000000  0.99720900  1
  Pr  Pr11  1  0.56727000  0.75000000  0.00279100  1
  Cl  Cl12  1  0.11110200  0.75000000  0.66630400  1
  Cl  Cl13  1  0.88889800  0.25000000  0.33369600  1
  Cl  Cl14  1  0.61110200  0.25000000  0.83369600  1
  Cl  Cl15  1  0.38889800  0.75000000  0.16630400  1
  Cl  Cl16  1  0.84654000  0.03979300  0.56902400  1
  Cl  Cl17  1  0.15346000  0.96020700  0.43097600  1
  Cl  Cl18  1  0.34654000  0.96020700  0.93097600  1
  Cl  Cl19  1  0.15346000  0.53979300  0.43097600  1
  Cl  Cl20  1  0.65346000  0.03979300  0.06902400  1
  Cl  Cl21  1  0.84654000  0.46020700  0.56902400  1
  Cl  Cl22  1  0.65346000  0.46020700  0.06902400  1
  Cl  Cl23  1  0.34654000  0.53979300  0.93097600  1
  Cl  Cl24  1  0.60877300  0.75000000  0.51197400  1
  Cl  Cl25  1  0.39122700  0.25000000  0.48802600  1
  Cl  Cl26  1  0.10877300  0.25000000  0.98802600  1
  Cl  Cl27  1  0.89122700  0.75000000  0.01197400  1
  Cl  Cl28  1  0.65076000  0.75000000  0.81153500  1
  Cl  Cl29  1  0.34924000  0.25000000  0.18846500  1
  Cl  Cl30  1  0.15076000  0.25000000  0.68846500  1
  Cl  Cl31  1  0.84924000  0.75000000  0.31153500  1
