# generated using pymatgen
data_BaCaAlF7
_symmetry_space_group_name_H-M   'P 1'
_cell_length_a   5.46624700
_cell_length_b   5.43845100
_cell_length_c   19.61875867
_cell_angle_alpha   76.33184150
_cell_angle_beta   90.00000000
_cell_angle_gamma   90.00000000
_symmetry_Int_Tables_number   1
_chemical_formula_structural   BaCaAlF7
_chemical_formula_sum   'Ba4 Ca4 Al4 F28'
_cell_volume   566.70823610
_cell_formula_units_Z   4
loop_
 _symmetry_equiv_pos_site_id
 _symmetry_equiv_pos_as_xyz
  1  'x, y, z'
loop_
 _atom_site_type_symbol
 _atom_site_label
 _atom_site_symmetry_multiplicity
 _atom_site_fract_x
 _atom_site_fract_y
 _atom_site_fract_z
 _atom_site_occupancy
  Ba  Ba0  1  0.75741700  0.31573600  0.93237900  1
  Ba  Ba1  1  0.75741700  0.68426400  0.56762100  1
  Ba  Ba2  1  0.24258300  0.68426400  0.06762100  1
  Ba  Ba3  1  0.24258300  0.31573600  0.43237900  1
  Ca  Ca4  1  0.32208400  0.50000000  0.75000000  1
  Ca  Ca5  1  0.79220300  0.00000000  0.75000000  1
  Ca  Ca6  1  0.67791600  0.50000000  0.25000000  1
  Ca  Ca7  1  0.20779700  0.00000000  0.25000000  1
  Al  Al8  1  0.22475500  0.17975800  0.61951600  1
  Al  Al9  1  0.22475500  0.82024200  0.88048400  1
  Al  Al10  1  0.77524500  0.17975800  0.11951600  1
  Al  Al11  1  0.77524500  0.82024200  0.38048400  1
  F  F12  1  0.04416200  0.84327600  0.43456200  1
  F  F13  1  0.04416200  0.15672400  0.06543800  1
  F  F14  1  0.95583800  0.15672400  0.56543800  1
  F  F15  1  0.95583800  0.84327600  0.93456200  1
  F  F16  1  0.02920300  0.34040800  0.67500500  1
  F  F17  1  0.02920300  0.65959200  0.82499500  1
  F  F18  1  0.97079700  0.65959200  0.32499500  1
  F  F19  1  0.97079700  0.34040800  0.17500500  1
  F  F20  1  0.28225100  0.49160900  0.56049400  1
  F  F21  1  0.28225100  0.50839100  0.93950600  1
  F  F22  1  0.71774900  0.50839100  0.43950600  1
  F  F23  1  0.71774900  0.49160900  0.06049400  1
  F  F24  1  0.59322300  0.03426500  0.06457500  1
  F  F25  1  0.59322300  0.96573500  0.43542500  1
  F  F26  1  0.40677700  0.96573500  0.93542500  1
  F  F27  1  0.40677700  0.03426500  0.56457500  1
  F  F28  1  0.86189800  0.88370800  0.18110900  1
  F  F29  1  0.86189800  0.11629200  0.31889100  1
  F  F30  1  0.13810200  0.11629200  0.81889100  1
  F  F31  1  0.13810200  0.88370800  0.68110900  1
  F  F32  1  0.48105300  0.76278000  0.82583800  1
  F  F33  1  0.48105300  0.23722000  0.67416200  1
  F  F34  1  0.51894700  0.23722000  0.17416200  1
  F  F35  1  0.51894700  0.76278000  0.32583800  1
  F  F36  1  0.36264900  0.72390200  0.19273900  1
  F  F37  1  0.36264900  0.27609800  0.30726100  1
  F  F38  1  0.63735100  0.27609800  0.80726100  1
  F  F39  1  0.63735100  0.72390200  0.69273900  1
