# generated using pymatgen
data_Cr2Ir2C
_symmetry_space_group_name_H-M   'P 1'
_cell_length_a   8.95746584
_cell_length_b   8.95746584
_cell_length_c   8.95746549
_cell_angle_alpha   17.65818994
_cell_angle_beta   17.65818994
_cell_angle_gamma   17.65818594
_symmetry_Int_Tables_number   1
_chemical_formula_structural   Cr2Ir2C
_chemical_formula_sum   'Cr2 Ir2 C1'
_cell_volume   57.72481586
_cell_formula_units_Z   1
loop_
 _symmetry_equiv_pos_site_id
 _symmetry_equiv_pos_as_xyz
  1  'x, y, z'
loop_
 _atom_site_type_symbol
 _atom_site_label
 _atom_site_symmetry_multiplicity
 _atom_site_fract_x
 _atom_site_fract_y
 _atom_site_fract_z
 _atom_site_occupancy
  Cr  Cr0  1  0.37710800  0.37710800  0.37710800  1
  Cr  Cr1  1  0.62289200  0.62289200  0.62289200  1
  Ir  Ir2  1  0.87799400  0.87799400  0.87799400  1
  Ir  Ir3  1  0.12200600  0.12200600  0.12200600  1
  C  C4  1  0.00000000  0.00000000  0.00000000  1
