# generated using pymatgen
data_BiSe2
_symmetry_space_group_name_H-M   'P 1'
_cell_length_a   8.71604101
_cell_length_b   8.71604101
_cell_length_c   12.33466329
_cell_angle_alpha   53.85619756
_cell_angle_beta   53.85619756
_cell_angle_gamma   28.17966117
_symmetry_Int_Tables_number   1
_chemical_formula_structural   BiSe2
_chemical_formula_sum   'Bi4 Se8'
_cell_volume   351.29112045
_cell_formula_units_Z   4
loop_
 _symmetry_equiv_pos_site_id
 _symmetry_equiv_pos_as_xyz
  1  'x, y, z'
loop_
 _atom_site_type_symbol
 _atom_site_label
 _atom_site_symmetry_multiplicity
 _atom_site_fract_x
 _atom_site_fract_y
 _atom_site_fract_z
 _atom_site_occupancy
  Bi  Bi0  1  0.69862800  0.69862800  0.90808000  1
  Bi  Bi1  1  0.30137200  0.30137200  0.09192000  1
  Bi  Bi2  1  0.38774100  0.38774100  0.39704700  1
  Bi  Bi3  1  0.61225900  0.61225900  0.60295300  1
  Se  Se4  1  0.03749700  0.03749700  0.05712800  1
  Se  Se5  1  0.96250300  0.96250300  0.94287200  1
  Se  Se6  1  0.91509300  0.91509300  0.54228100  1
  Se  Se7  1  0.08490700  0.08490700  0.45771900  1
  Se  Se8  1  0.65573200  0.65573200  0.16191600  1
  Se  Se9  1  0.34426800  0.34426800  0.83808400  1
  Se  Se10  1  0.20959300  0.20959300  0.65575800  1
  Se  Se11  1  0.79040700  0.79040700  0.34424200  1
