# generated using pymatgen
data_CsNb3(PO5)3
_symmetry_space_group_name_H-M   'P 1'
_cell_length_a   6.52580500
_cell_length_b   13.72401600
_cell_length_c   15.06654500
_cell_angle_alpha   90.00000000
_cell_angle_beta   90.00000000
_cell_angle_gamma   90.00000000
_symmetry_Int_Tables_number   1
_chemical_formula_structural   CsNb3(PO5)3
_chemical_formula_sum   'Cs4 Nb12 P12 O60'
_cell_volume   1349.36357048
_cell_formula_units_Z   4
loop_
 _symmetry_equiv_pos_site_id
 _symmetry_equiv_pos_as_xyz
  1  'x, y, z'
loop_
 _atom_site_type_symbol
 _atom_site_label
 _atom_site_symmetry_multiplicity
 _atom_site_fract_x
 _atom_site_fract_y
 _atom_site_fract_z
 _atom_site_occupancy
  Cs  Cs0  1  0.00000000  0.50951400  0.32885200  1
  Cs  Cs1  1  0.00000000  0.49048600  0.67114800  1
  Cs  Cs2  1  0.50000000  0.99048600  0.82885200  1
  Cs  Cs3  1  0.50000000  0.00951400  0.17114800  1
  Nb  Nb4  1  0.00000000  0.06183500  0.61251000  1
  Nb  Nb5  1  0.00000000  0.93816500  0.38749000  1
  Nb  Nb6  1  0.50000000  0.43816500  0.11251000  1
  Nb  Nb7  1  0.50000000  0.56183500  0.88749000  1
  Nb  Nb8  1  0.00000000  0.18808900  0.27263500  1
  Nb  Nb9  1  0.00000000  0.81191100  0.72736500  1
  Nb  Nb10  1  0.50000000  0.31191100  0.77263500  1
  Nb  Nb11  1  0.50000000  0.68808900  0.22736500  1
  Nb  Nb12  1  0.00000000  0.14061500  0.02232100  1
  Nb  Nb13  1  0.00000000  0.85938500  0.97767900  1
  Nb  Nb14  1  0.50000000  0.35938500  0.52232100  1
  Nb  Nb15  1  0.50000000  0.64061500  0.47767900  1
  P  P16  1  0.00000000  0.77131800  0.20459000  1
  P  P17  1  0.00000000  0.22868200  0.79541000  1
  P  P18  1  0.50000000  0.72868200  0.70459000  1
  P  P19  1  0.50000000  0.27131800  0.29541000  1
  P  P20  1  0.00000000  0.28781800  0.49183400  1
  P  P21  1  0.00000000  0.71218200  0.50816600  1
  P  P22  1  0.50000000  0.21218200  0.99183400  1
  P  P23  1  0.50000000  0.78781800  0.00816600  1
  P  P24  1  0.00000000  0.36837600  0.11797500  1
  P  P25  1  0.00000000  0.63162400  0.88202500  1
  P  P26  1  0.50000000  0.13162400  0.61797500  1
  P  P27  1  0.50000000  0.86837600  0.38202500  1
  O  O28  1  0.00000000  0.06066100  0.32384500  1
  O  O29  1  0.00000000  0.93933900  0.67615500  1
  O  O30  1  0.50000000  0.43933900  0.82384500  1
  O  O31  1  0.50000000  0.56066100  0.17615500  1
  O  O32  1  0.00000000  0.81293200  0.11010500  1
  O  O33  1  0.00000000  0.18706800  0.88989500  1
  O  O34  1  0.50000000  0.68706800  0.61010500  1
  O  O35  1  0.50000000  0.31293200  0.38989500  1
  O  O36  1  0.00000000  0.00000000  0.00000000  1
  O  O37  1  0.50000000  0.50000000  0.50000000  1
  O  O38  1  0.00000000  0.14202400  0.73053600  1
  O  O39  1  0.00000000  0.85797600  0.26946400  1
  O  O40  1  0.50000000  0.35797600  0.23053600  1
  O  O41  1  0.50000000  0.64202400  0.76946400  1
  O  O42  1  0.00000000  0.00000000  0.50000000  1
  O  O43  1  0.50000000  0.50000000  0.00000000  1
  O  O44  1  0.31193500  0.20366000  0.27835600  1
  O  O45  1  0.68806500  0.79634000  0.72164400  1
  O  O46  1  0.31193500  0.79634000  0.72164400  1
  O  O47  1  0.18806500  0.29634000  0.77835600  1
  O  O48  1  0.68806500  0.20366000  0.27835600  1
  O  O49  1  0.81193500  0.70366000  0.22164400  1
  O  O50  1  0.18806500  0.70366000  0.22164400  1
  O  O51  1  0.81193500  0.29634000  0.77835600  1
  O  O52  1  0.00000000  0.13479500  0.15054600  1
  O  O53  1  0.00000000  0.86520500  0.84945400  1
  O  O54  1  0.50000000  0.36520500  0.65054600  1
  O  O55  1  0.50000000  0.63479500  0.34945400  1
  O  O56  1  0.19036000  0.43576100  0.11235000  1
  O  O57  1  0.80964000  0.56423900  0.88765000  1
  O  O58  1  0.19036000  0.56423900  0.88765000  1
  O  O59  1  0.30964000  0.06423900  0.61235000  1
  O  O60  1  0.80964000  0.43576100  0.11235000  1
  O  O61  1  0.69036000  0.93576100  0.38765000  1
  O  O62  1  0.30964000  0.93576100  0.38765000  1
  O  O63  1  0.69036000  0.06423900  0.61235000  1
  O  O64  1  0.00000000  0.19780100  0.55102900  1
  O  O65  1  0.00000000  0.80219900  0.44897100  1
  O  O66  1  0.50000000  0.30219900  0.05102900  1
  O  O67  1  0.50000000  0.69780100  0.94897100  1
  O  O68  1  0.31284700  0.14561600  0.01375000  1
  O  O69  1  0.68715300  0.85438400  0.98625000  1
  O  O70  1  0.31284700  0.85438400  0.98625000  1
  O  O71  1  0.18715300  0.35438400  0.51375000  1
  O  O72  1  0.68715300  0.14561600  0.01375000  1
  O  O73  1  0.81284700  0.64561600  0.48625000  1
  O  O74  1  0.18715300  0.64561600  0.48625000  1
  O  O75  1  0.81284700  0.35438400  0.51375000  1
  O  O76  1  0.00000000  0.26368400  0.39263700  1
  O  O77  1  0.00000000  0.73631600  0.60736300  1
  O  O78  1  0.50000000  0.23631600  0.89263700  1
  O  O79  1  0.50000000  0.76368400  0.10736300  1
  O  O80  1  0.00000000  0.32446500  0.21236900  1
  O  O81  1  0.00000000  0.67553500  0.78763100  1
  O  O82  1  0.50000000  0.17553500  0.71236900  1
  O  O83  1  0.50000000  0.82446500  0.28763100  1
  O  O84  1  0.00000000  0.29323900  0.04308600  1
  O  O85  1  0.00000000  0.70676100  0.95691400  1
  O  O86  1  0.50000000  0.20676100  0.54308600  1
  O  O87  1  0.50000000  0.79323900  0.45691400  1
