# generated using pymatgen
data_Ce2(B2Rh3)3
_symmetry_space_group_name_H-M   'P 1'
_cell_length_a   5.64762563
_cell_length_b   5.64325560
_cell_length_c   8.59962607
_cell_angle_alpha   90.01001893
_cell_angle_beta   90.02002378
_cell_angle_gamma   59.97438049
_symmetry_Int_Tables_number   1
_chemical_formula_structural   Ce2(B2Rh3)3
_chemical_formula_sum   'Ce2 B6 Rh9'
_cell_volume   237.29774941
_cell_formula_units_Z   1
loop_
 _symmetry_equiv_pos_site_id
 _symmetry_equiv_pos_as_xyz
  1  'x, y, z'
loop_
 _atom_site_type_symbol
 _atom_site_label
 _atom_site_symmetry_multiplicity
 _atom_site_fract_x
 _atom_site_fract_y
 _atom_site_fract_z
 _atom_site_occupancy
  Ce  Ce0  1  0.99951500  0.00000000  0.29671900  1
  Ce  Ce1  1  0.00023400  0.00000000  0.70096200  1
  B  B2  1  0.66654100  0.66694900  0.00005800  1
  B  B3  1  0.33349000  0.33305100  0.00005800  1
  B  B4  1  0.66658100  0.66690300  0.33295900  1
  B  B5  1  0.33348400  0.33309700  0.33295900  1
  B  B6  1  0.33357700  0.33310500  0.66770300  1
  B  B7  1  0.66668200  0.66689500  0.66770300  1
  Rh  Rh8  1  0.49974100  0.00000000  0.16351900  1
  Rh  Rh9  1  0.99975100  0.50002100  0.16359000  1
  Rh  Rh10  1  0.49977200  0.49997900  0.16359000  1
  Rh  Rh11  1  0.50008800  0.00000000  0.83666200  1
  Rh  Rh12  1  0.00019100  0.49995700  0.83657300  1
  Rh  Rh13  1  0.50014800  0.50004300  0.83657300  1
  Rh  Rh14  1  0.50003400  0.00000000  0.50012200  1
  Rh  Rh15  1  0.00004600  0.49998000  0.50012500  1
  Rh  Rh16  1  0.50002600  0.50002000  0.50012500  1
