# generated using pymatgen
data_NdSI
_symmetry_space_group_name_H-M   'P 1'
_cell_length_a   7.08136400
_cell_length_b   7.31796700
_cell_length_c   14.41517400
_cell_angle_alpha   90.00000000
_cell_angle_beta   90.00000000
_cell_angle_gamma   90.00000000
_symmetry_Int_Tables_number   1
_chemical_formula_structural   NdSI
_chemical_formula_sum   'Nd8 S8 I8'
_cell_volume   747.01144287
_cell_formula_units_Z   8
loop_
 _symmetry_equiv_pos_site_id
 _symmetry_equiv_pos_as_xyz
  1  'x, y, z'
loop_
 _atom_site_type_symbol
 _atom_site_label
 _atom_site_symmetry_multiplicity
 _atom_site_fract_x
 _atom_site_fract_y
 _atom_site_fract_z
 _atom_site_occupancy
  Nd  Nd0  1  0.25828400  0.96982800  0.91658600  1
  Nd  Nd1  1  0.74171600  0.03017200  0.08341400  1
  Nd  Nd2  1  0.24171600  0.46982800  0.08341400  1
  Nd  Nd3  1  0.74171600  0.53017200  0.41658600  1
  Nd  Nd4  1  0.75828400  0.53017200  0.91658600  1
  Nd  Nd5  1  0.25828400  0.46982800  0.58341400  1
  Nd  Nd6  1  0.75828400  0.03017200  0.58341400  1
  Nd  Nd7  1  0.24171600  0.96982800  0.41658600  1
  S  S8  1  0.99861300  0.74217300  0.52360100  1
  S  S9  1  0.00138700  0.25782700  0.47639900  1
  S  S10  1  0.50138700  0.24217300  0.47639900  1
  S  S11  1  0.00138700  0.75782700  0.02360100  1
  S  S12  1  0.49861300  0.75782700  0.52360100  1
  S  S13  1  0.99861300  0.24217300  0.97639900  1
  S  S14  1  0.49861300  0.25782700  0.97639900  1
  S  S15  1  0.50138700  0.74217300  0.02360100  1
  I  I16  1  0.18201200  0.59474700  0.80001300  1
  I  I17  1  0.81798800  0.40525300  0.19998700  1
  I  I18  1  0.31798800  0.09474700  0.19998700  1
  I  I19  1  0.81798800  0.90525300  0.30001300  1
  I  I20  1  0.68201200  0.90525300  0.80001300  1
  I  I21  1  0.18201200  0.09474700  0.69998700  1
  I  I22  1  0.68201200  0.40525300  0.69998700  1
  I  I23  1  0.31798800  0.59474700  0.30001300  1
