# generated using pymatgen
data_Sm6Ni20As13
_symmetry_space_group_name_H-M   'P 1'
_cell_length_a   13.22950216
_cell_length_b   13.22950216
_cell_length_c   3.94837900
_cell_angle_alpha   90.00000000
_cell_angle_beta   90.00000000
_cell_angle_gamma   120.00000082
_symmetry_Int_Tables_number   1
_chemical_formula_structural   Sm6Ni20As13
_chemical_formula_sum   'Sm6 Ni20 As13'
_cell_volume   598.46184179
_cell_formula_units_Z   1
loop_
 _symmetry_equiv_pos_site_id
 _symmetry_equiv_pos_as_xyz
  1  'x, y, z'
loop_
 _atom_site_type_symbol
 _atom_site_label
 _atom_site_symmetry_multiplicity
 _atom_site_fract_x
 _atom_site_fract_y
 _atom_site_fract_z
 _atom_site_occupancy
  Sm  Sm0  1  0.18653300  0.46863800  0.00000000  1
  Sm  Sm1  1  0.53136200  0.71789500  0.00000000  1
  Sm  Sm2  1  0.28210500  0.81346700  0.00000000  1
  Sm  Sm3  1  0.72026200  0.18783700  0.50000000  1
  Sm  Sm4  1  0.81216300  0.53242500  0.50000000  1
  Sm  Sm5  1  0.46757500  0.27973800  0.50000000  1
  Ni  Ni6  1  0.08879000  0.19797900  0.00000000  1
  Ni  Ni7  1  0.80202100  0.89081100  0.00000000  1
  Ni  Ni8  1  0.10918900  0.91121000  0.00000000  1
  Ni  Ni9  1  0.33333300  0.66666700  0.50000000  1
  Ni  Ni10  1  0.92378300  0.06631600  0.50000000  1
  Ni  Ni11  1  0.93368400  0.85746700  0.50000000  1
  Ni  Ni12  1  0.14253300  0.07621700  0.50000000  1
  Ni  Ni13  1  0.66666700  0.33333300  0.00000000  1
  Ni  Ni14  1  0.41564500  0.43831400  0.00000000  1
  Ni  Ni15  1  0.56168600  0.97733100  0.00000000  1
  Ni  Ni16  1  0.02266900  0.58435500  0.00000000  1
  Ni  Ni17  1  0.24197700  0.31139900  0.50000000  1
  Ni  Ni18  1  0.68860100  0.93057800  0.50000000  1
  Ni  Ni19  1  0.06942200  0.75802300  0.50000000  1
  Ni  Ni20  1  0.43708800  0.02335600  0.50000000  1
  Ni  Ni21  1  0.97664400  0.41373200  0.50000000  1
  Ni  Ni22  1  0.58626800  0.56291200  0.50000000  1
  Ni  Ni23  1  0.92395700  0.24391000  0.00000000  1
  Ni  Ni24  1  0.75609000  0.68004700  0.00000000  1
  Ni  Ni25  1  0.31995300  0.07604300  0.00000000  1
  As  As26  1  0.38496700  0.52163000  0.50000000  1
  As  As27  1  0.47837000  0.86333700  0.50000000  1
  As  As28  1  0.13666300  0.61503300  0.50000000  1
  As  As29  1  0.04321200  0.27682800  0.50000000  1
  As  As30  1  0.72317200  0.76638400  0.50000000  1
  As  As31  1  0.23361600  0.95678800  0.50000000  1
  As  As32  1  0.52388500  0.13717100  0.00000000  1
  As  As33  1  0.86282900  0.38671400  0.00000000  1
  As  As34  1  0.61328600  0.47611500  0.00000000  1
  As  As35  1  0.76710300  0.04726700  0.00000000  1
  As  As36  1  0.95273300  0.71983600  0.00000000  1
  As  As37  1  0.28016400  0.23289700  0.00000000  1
  As  As38  1  0.00000000  0.00000000  0.00000000  1
