# generated using pymatgen
data_Ca11AlSb9
_symmetry_space_group_name_H-M   'P 1'
_cell_length_a   12.04463141
_cell_length_b   12.04463141
_cell_length_c   12.04463141
_cell_angle_alpha   120.99890994
_cell_angle_beta   117.28913764
_cell_angle_gamma   91.51835281
_symmetry_Int_Tables_number   1
_chemical_formula_structural   Ca11AlSb9
_chemical_formula_sum   'Ca22 Al2 Sb18'
_cell_volume   1249.48801477
_cell_formula_units_Z   2
loop_
 _symmetry_equiv_pos_site_id
 _symmetry_equiv_pos_as_xyz
  1  'x, y, z'
loop_
 _atom_site_type_symbol
 _atom_site_label
 _atom_site_symmetry_multiplicity
 _atom_site_fract_x
 _atom_site_fract_y
 _atom_site_fract_z
 _atom_site_occupancy
  Ca  Ca0  1  0.49858200  0.51110300  0.66257100  1
  Ca  Ca1  1  0.84853200  0.83601100  0.33742900  1
  Ca  Ca2  1  0.34853200  0.01110300  0.01252100  1
  Ca  Ca3  1  0.99858200  0.33601100  0.98747900  1
  Ca  Ca4  1  0.29122700  0.08711600  0.35005700  1
  Ca  Ca5  1  0.73705900  0.94117000  0.64994300  1
  Ca  Ca6  1  0.23705900  0.58711600  0.79588800  1
  Ca  Ca7  1  0.79122700  0.44117000  0.20411200  1
  Ca  Ca8  1  0.36069300  0.61731300  0.37302000  1
  Ca  Ca9  1  0.24429300  0.98767300  0.62698000  1
  Ca  Ca10  1  0.74429300  0.11731300  0.25662000  1
  Ca  Ca11  1  0.86069300  0.48767300  0.74338000  1
  Ca  Ca12  1  0.99836500  0.99836500  0.00000000  1
  Ca  Ca13  1  0.49836500  0.49836500  0.00000000  1
  Ca  Ca14  1  0.09812600  0.36001500  0.37036900  1
  Ca  Ca15  1  0.98964600  0.72775700  0.62963100  1
  Ca  Ca16  1  0.48964600  0.86001500  0.26188900  1
  Ca  Ca17  1  0.59812600  0.22775700  0.73811100  1
  Ca  Ca18  1  0.60597300  0.42117600  0.36242800  1
  Ca  Ca19  1  0.05874800  0.24354500  0.63757200  1
  Ca  Ca20  1  0.55874800  0.92117600  0.81520300  1
  Ca  Ca21  1  0.10597300  0.74354500  0.18479700  1
  Al  Al22  1  0.27846800  0.27846800  0.00000000  1
  Al  Al23  1  0.77846800  0.77846800  0.00000000  1
  Sb  Sb24  1  0.72466200  0.71650900  0.71861000  1
  Sb  Sb25  1  0.99789900  0.00605200  0.28139000  1
  Sb  Sb26  1  0.49789900  0.21650900  0.99184700  1
  Sb  Sb27  1  0.22466200  0.50605200  0.00815300  1
  Sb  Sb28  1  0.56555500  0.21095600  0.42532700  1
  Sb  Sb29  1  0.78562900  0.14022900  0.57467300  1
  Sb  Sb30  1  0.28562900  0.71095600  0.64540000  1
  Sb  Sb31  1  0.06555500  0.64022900  0.35460000  1
  Sb  Sb32  1  0.28597000  0.30102200  0.24414600  1
  Sb  Sb33  1  0.05687600  0.04182400  0.75585400  1
  Sb  Sb34  1  0.55687600  0.80102200  0.01505200  1
  Sb  Sb35  1  0.78597000  0.54182400  0.98494800  1
  Sb  Sb36  1  0.66766900  0.66686700  0.35357700  1
  Sb  Sb37  1  0.31329000  0.31409200  0.64642300  1
  Sb  Sb38  1  0.81329000  0.16686700  0.99919800  1
  Sb  Sb39  1  0.16766900  0.81409200  0.00080200  1
  Sb  Sb40  1  0.92143800  0.42143800  0.50000000  1
  Sb  Sb41  1  0.42143800  0.92143800  0.50000000  1
