# generated using pymatgen
data_ThAl2Fe3
_symmetry_space_group_name_H-M   'P 1'
_cell_length_a   5.10378105
_cell_length_b   5.10378105
_cell_length_c   4.12260500
_cell_angle_alpha   90.00000000
_cell_angle_beta   90.00000000
_cell_angle_gamma   116.93361070
_symmetry_Int_Tables_number   1
_chemical_formula_structural   ThAl2Fe3
_chemical_formula_sum   'Th1 Al2 Fe3'
_cell_volume   95.73984422
_cell_formula_units_Z   1
loop_
 _symmetry_equiv_pos_site_id
 _symmetry_equiv_pos_as_xyz
  1  'x, y, z'
loop_
 _atom_site_type_symbol
 _atom_site_label
 _atom_site_symmetry_multiplicity
 _atom_site_fract_x
 _atom_site_fract_y
 _atom_site_fract_z
 _atom_site_occupancy
  Th  Th0  1  0.50000000  0.50000000  0.00000000  1
  Al  Al1  1  0.00000000  0.50000000  0.50000000  1
  Al  Al2  1  0.50000000  0.00000000  0.50000000  1
  Fe  Fe3  1  0.16010900  0.83989100  0.00000000  1
  Fe  Fe4  1  0.83989100  0.16010900  0.00000000  1
  Fe  Fe5  1  0.00000000  0.00000000  0.50000000  1
