# generated using pymatgen
data_Ni9Te5(PbO5)6
_symmetry_space_group_name_H-M   'P 1'
_cell_length_a   10.43912933
_cell_length_b   10.43912933
_cell_length_c   13.71275300
_cell_angle_alpha   90.00000000
_cell_angle_beta   90.00000000
_cell_angle_gamma   119.99999576
_symmetry_Int_Tables_number   1
_chemical_formula_structural   Ni9Te5(PbO5)6
_chemical_formula_sum   'Ni18 Te10 Pb12 O60'
_cell_volume   1294.14774469
_cell_formula_units_Z   2
loop_
 _symmetry_equiv_pos_site_id
 _symmetry_equiv_pos_as_xyz
  1  'x, y, z'
loop_
 _atom_site_type_symbol
 _atom_site_label
 _atom_site_symmetry_multiplicity
 _atom_site_fract_x
 _atom_site_fract_y
 _atom_site_fract_z
 _atom_site_occupancy
  Ni  Ni0  1  0.66666700  0.33333300  0.11166200  1
  Ni  Ni1  1  0.33333300  0.66666700  0.88833800  1
  Ni  Ni2  1  0.33333300  0.66666700  0.61166200  1
  Ni  Ni3  1  0.66666700  0.33333300  0.38833800  1
  Ni  Ni4  1  0.16855100  0.33710300  0.25000000  1
  Ni  Ni5  1  0.66289700  0.83144900  0.25000000  1
  Ni  Ni6  1  0.16855100  0.83144900  0.25000000  1
  Ni  Ni7  1  0.33710300  0.16855100  0.75000000  1
  Ni  Ni8  1  0.83144900  0.66289700  0.75000000  1
  Ni  Ni9  1  0.83144900  0.16855100  0.75000000  1
  Ni  Ni10  1  0.49709200  0.99418300  0.25000000  1
  Ni  Ni11  1  0.00581700  0.50290800  0.25000000  1
  Ni  Ni12  1  0.49709200  0.50290800  0.25000000  1
  Ni  Ni13  1  0.99418300  0.49709200  0.75000000  1
  Ni  Ni14  1  0.50290800  0.00581700  0.75000000  1
  Ni  Ni15  1  0.50290800  0.49709200  0.75000000  1
  Ni  Ni16  1  0.00000000  0.00000000  0.25000000  1
  Ni  Ni17  1  0.00000000  0.00000000  0.75000000  1
  Te  Te18  1  0.66666700  0.33333300  0.90125400  1
  Te  Te19  1  0.33333300  0.66666700  0.09874600  1
  Te  Te20  1  0.33333300  0.66666700  0.40125400  1
  Te  Te21  1  0.66666700  0.33333300  0.59874600  1
  Te  Te22  1  0.33491300  0.16745600  0.25000000  1
  Te  Te23  1  0.83254400  0.16745600  0.25000000  1
  Te  Te24  1  0.83254400  0.66508700  0.25000000  1
  Te  Te25  1  0.16745600  0.33491300  0.75000000  1
  Te  Te26  1  0.16745600  0.83254400  0.75000000  1
  Te  Te27  1  0.66508700  0.83254400  0.75000000  1
  Pb  Pb28  1  0.73644100  0.73644100  0.00000000  1
  Pb  Pb29  1  0.26355900  0.00000000  0.00000000  1
  Pb  Pb30  1  0.00000000  0.26355900  0.00000000  1
  Pb  Pb31  1  0.26355900  0.26355900  0.50000000  1
  Pb  Pb32  1  0.73644100  0.00000000  0.50000000  1
  Pb  Pb33  1  0.00000000  0.73644100  0.50000000  1
  Pb  Pb34  1  0.00000000  0.61294600  0.00000000  1
  Pb  Pb35  1  0.38705400  0.38705400  0.00000000  1
  Pb  Pb36  1  0.61294600  0.00000000  0.00000000  1
  Pb  Pb37  1  0.00000000  0.38705400  0.50000000  1
  Pb  Pb38  1  0.61294600  0.61294600  0.50000000  1
  Pb  Pb39  1  0.38705400  0.00000000  0.50000000  1
  O  O40  1  0.33535500  0.32744900  0.32812500  1
  O  O41  1  0.67255100  0.00790700  0.32812500  1
  O  O42  1  0.99209300  0.66464500  0.32812500  1
  O  O43  1  0.32744900  0.33535500  0.67187500  1
  O  O44  1  0.00790700  0.67255100  0.67187500  1
  O  O45  1  0.66464500  0.99209300  0.67187500  1
  O  O46  1  0.66464500  0.67255100  0.82812500  1
  O  O47  1  0.32744900  0.99209300  0.82812500  1
  O  O48  1  0.00790700  0.33535500  0.82812500  1
  O  O49  1  0.67255100  0.66464500  0.17187500  1
  O  O50  1  0.99209300  0.32744900  0.17187500  1
  O  O51  1  0.33535500  0.00790700  0.17187500  1
  O  O52  1  0.17832100  0.16721600  0.17092800  1
  O  O53  1  0.83278400  0.01110500  0.17092800  1
  O  O54  1  0.98889500  0.82167900  0.17092800  1
  O  O55  1  0.16721600  0.17832100  0.82907200  1
  O  O56  1  0.01110500  0.83278400  0.82907200  1
  O  O57  1  0.82167900  0.98889500  0.82907200  1
  O  O58  1  0.82167900  0.83278400  0.67092800  1
  O  O59  1  0.16721600  0.98889500  0.67092800  1
  O  O60  1  0.01110500  0.17832100  0.67092800  1
  O  O61  1  0.83278400  0.82167900  0.32907200  1
  O  O62  1  0.98889500  0.16721600  0.32907200  1
  O  O63  1  0.17832100  0.01110500  0.32907200  1
  O  O64  1  0.48422000  0.15695900  0.33065900  1
  O  O65  1  0.84304100  0.32726000  0.33065900  1
  O  O66  1  0.67274000  0.51578000  0.33065900  1
  O  O67  1  0.15695900  0.48422000  0.66934100  1
  O  O68  1  0.32726000  0.84304100  0.66934100  1
  O  O69  1  0.51578000  0.67274000  0.66934100  1
  O  O70  1  0.51578000  0.84304100  0.83065900  1
  O  O71  1  0.15695900  0.67274000  0.83065900  1
  O  O72  1  0.32726000  0.48422000  0.83065900  1
  O  O73  1  0.84304100  0.51578000  0.16934100  1
  O  O74  1  0.67274000  0.15695900  0.16934100  1
  O  O75  1  0.48422000  0.32726000  0.16934100  1
  O  O76  1  0.17008700  0.50065700  0.33669600  1
  O  O77  1  0.49934300  0.66943000  0.33669600  1
  O  O78  1  0.33057000  0.82991300  0.33669600  1
  O  O79  1  0.50065700  0.17008700  0.66330400  1
  O  O80  1  0.66943000  0.49934300  0.66330400  1
  O  O81  1  0.82991300  0.33057000  0.66330400  1
  O  O82  1  0.82991300  0.49934300  0.83669600  1
  O  O83  1  0.50065700  0.33057000  0.83669600  1
  O  O84  1  0.66943000  0.17008700  0.83669600  1
  O  O85  1  0.49934300  0.82991300  0.16330400  1
  O  O86  1  0.33057000  0.50065700  0.16330400  1
  O  O87  1  0.17008700  0.66943000  0.16330400  1
  O  O88  1  0.65371100  0.47396200  0.99738000  1
  O  O89  1  0.52603800  0.17974900  0.99738000  1
  O  O90  1  0.82025100  0.34628900  0.99738000  1
  O  O91  1  0.47396200  0.65371100  0.00262000  1
  O  O92  1  0.17974900  0.52603800  0.00262000  1
  O  O93  1  0.34628900  0.82025100  0.00262000  1
  O  O94  1  0.34628900  0.52603800  0.49738000  1
  O  O95  1  0.47396200  0.82025100  0.49738000  1
  O  O96  1  0.17974900  0.65371100  0.49738000  1
  O  O97  1  0.52603800  0.34628900  0.50262000  1
  O  O98  1  0.82025100  0.47396200  0.50262000  1
  O  O99  1  0.65371100  0.17974900  0.50262000  1
