# generated using pymatgen
data_NaYbCu2F8
_symmetry_space_group_name_H-M   'P 1'
_cell_length_a   6.35062052
_cell_length_b   6.35062052
_cell_length_c   6.35062052
_cell_angle_alpha   129.37831639
_cell_angle_beta   129.37831639
_cell_angle_gamma   74.40260360
_symmetry_Int_Tables_number   1
_chemical_formula_structural   NaYbCu2F8
_chemical_formula_sum   'Na1 Yb1 Cu2 F8'
_cell_volume   149.15372291
_cell_formula_units_Z   1
loop_
 _symmetry_equiv_pos_site_id
 _symmetry_equiv_pos_as_xyz
  1  'x, y, z'
loop_
 _atom_site_type_symbol
 _atom_site_label
 _atom_site_symmetry_multiplicity
 _atom_site_fract_x
 _atom_site_fract_y
 _atom_site_fract_z
 _atom_site_occupancy
  Na  Na0  1  0.50000000  0.50000000  0.00000000  1
  Yb  Yb1  1  0.00000000  0.00000000  0.00000000  1
  Cu  Cu2  1  0.75000000  0.25000000  0.50000000  1
  Cu  Cu3  1  0.25000000  0.75000000  0.50000000  1
  F  F4  1  0.44291200  0.28764400  0.48474800  1
  F  F5  1  0.80289600  0.95816400  0.51525200  1
  F  F6  1  0.28764400  0.80289600  0.84473200  1
  F  F7  1  0.19710400  0.71235600  0.15526800  1
  F  F8  1  0.95816400  0.44291200  0.15526800  1
  F  F9  1  0.55708800  0.04183600  0.84473200  1
  F  F10  1  0.04183600  0.19710400  0.48474800  1
  F  F11  1  0.71235600  0.55708800  0.51525200  1
