# generated using pymatgen
data_Ba5SrNd2Fe4O15
_symmetry_space_group_name_H-M   'P 1'
_cell_length_a   11.86432714
_cell_length_b   11.86432714
_cell_length_c   7.09378428
_cell_angle_alpha   89.96495468
_cell_angle_beta   89.96495468
_cell_angle_gamma   119.84776975
_symmetry_Int_Tables_number   1
_chemical_formula_structural   Ba5SrNd2Fe4O15
_chemical_formula_sum   'Ba10 Sr2 Nd4 Fe8 O30'
_cell_volume   866.08131009
_cell_formula_units_Z   2
loop_
 _symmetry_equiv_pos_site_id
 _symmetry_equiv_pos_as_xyz
  1  'x, y, z'
loop_
 _atom_site_type_symbol
 _atom_site_label
 _atom_site_symmetry_multiplicity
 _atom_site_fract_x
 _atom_site_fract_y
 _atom_site_fract_z
 _atom_site_occupancy
  Ba  Ba0  1  0.00005100  0.00016000  0.49853900  1
  Ba  Ba1  1  0.00016000  0.00005100  0.99853900  1
  Ba  Ba2  1  0.33304900  0.66892000  0.01853400  1
  Ba  Ba3  1  0.66892000  0.33304900  0.51853400  1
  Ba  Ba4  1  0.82851900  0.65193600  0.83382800  1
  Ba  Ba5  1  0.34665700  0.17093400  0.83651300  1
  Ba  Ba6  1  0.82611400  0.17406200  0.83446400  1
  Ba  Ba7  1  0.17093400  0.34665700  0.33651300  1
  Ba  Ba8  1  0.65193600  0.82851900  0.33382800  1
  Ba  Ba9  1  0.17406200  0.82611400  0.33446400  1
  Sr  Sr10  1  0.52159100  0.04362600  0.16635700  1
  Sr  Sr11  1  0.04362600  0.52159100  0.66635700  1
  Nd  Nd12  1  0.95688600  0.47818800  0.16511700  1
  Nd  Nd13  1  0.52147100  0.47789900  0.16217300  1
  Nd  Nd14  1  0.47818800  0.95688600  0.66511700  1
  Nd  Nd15  1  0.47789900  0.52147100  0.66217300  1
  Fe  Fe16  1  0.66490400  0.33097000  0.97578500  1
  Fe  Fe17  1  0.33097000  0.66490400  0.47578500  1
  Fe  Fe18  1  0.17663900  0.81916000  0.83651700  1
  Fe  Fe19  1  0.17912200  0.35818700  0.83992700  1
  Fe  Fe20  1  0.64366600  0.81980700  0.83620600  1
  Fe  Fe21  1  0.81916000  0.17663900  0.33651700  1
  Fe  Fe22  1  0.81980700  0.64366600  0.33620600  1
  Fe  Fe23  1  0.35818700  0.17912200  0.33992700  1
  O  O24  1  0.93563400  0.32845800  0.46603300  1
  O  O25  1  0.66558200  0.60391500  0.47237100  1
  O  O26  1  0.39272200  0.06434200  0.48242500  1
  O  O27  1  0.93492000  0.60647600  0.46559800  1
  O  O28  1  0.67033000  0.06268200  0.48216100  1
  O  O29  1  0.39589800  0.33325100  0.47333100  1
  O  O30  1  0.06268200  0.67033000  0.98216100  1
  O  O31  1  0.33325100  0.39589800  0.97333100  1
  O  O32  1  0.60647600  0.93492000  0.96559800  1
  O  O33  1  0.06434200  0.39272200  0.98242500  1
  O  O34  1  0.32845800  0.93563400  0.96603300  1
  O  O35  1  0.60391500  0.66558200  0.97237100  1
  O  O36  1  0.41825700  0.58118000  0.33326600  1
  O  O37  1  0.41579900  0.82961700  0.33892700  1
  O  O38  1  0.16831300  0.58303300  0.32466200  1
  O  O39  1  0.58118000  0.41825700  0.83326600  1
  O  O40  1  0.58303300  0.16831300  0.82466200  1
  O  O41  1  0.82961700  0.41579900  0.83892700  1
  O  O42  1  0.75534700  0.25610500  0.16009500  1
  O  O43  1  0.74833500  0.50139300  0.15962200  1
  O  O44  1  0.49895400  0.25709300  0.16070800  1
  O  O45  1  0.25610500  0.75534700  0.66009500  1
  O  O46  1  0.25709300  0.49895400  0.66070800  1
  O  O47  1  0.50139300  0.74833500  0.65962200  1
  O  O48  1  0.09707900  0.19342600  0.73476900  1
  O  O49  1  0.80905900  0.90281800  0.73322200  1
  O  O50  1  0.09443800  0.90286600  0.73333400  1
  O  O51  1  0.90281800  0.80905900  0.23322200  1
  O  O52  1  0.19342600  0.09707900  0.23476900  1
  O  O53  1  0.90286600  0.09443800  0.23333400  1
