# generated using pymatgen
data_SmMgAg
_symmetry_space_group_name_H-M   'P 1'
_cell_length_a   7.72818565
_cell_length_b   7.72818565
_cell_length_c   4.31446300
_cell_angle_alpha   90.00000000
_cell_angle_beta   90.00000000
_cell_angle_gamma   119.99999703
_symmetry_Int_Tables_number   1
_chemical_formula_structural   SmMgAg
_chemical_formula_sum   'Sm3 Mg3 Ag3'
_cell_volume   223.15801343
_cell_formula_units_Z   3
loop_
 _symmetry_equiv_pos_site_id
 _symmetry_equiv_pos_as_xyz
  1  'x, y, z'
loop_
 _atom_site_type_symbol
 _atom_site_label
 _atom_site_symmetry_multiplicity
 _atom_site_fract_x
 _atom_site_fract_y
 _atom_site_fract_z
 _atom_site_occupancy
  Sm  Sm0  1  0.00000000  0.41450700  0.50000000  1
  Sm  Sm1  1  0.58549300  0.58549300  0.50000000  1
  Sm  Sm2  1  0.41450700  0.00000000  0.50000000  1
  Mg  Mg3  1  0.00000000  0.75746000  0.00000000  1
  Mg  Mg4  1  0.24254000  0.24254000  0.00000000  1
  Mg  Mg5  1  0.75746000  0.00000000  0.00000000  1
  Ag  Ag6  1  0.33333300  0.66666700  0.00000000  1
  Ag  Ag7  1  0.66666700  0.33333300  0.00000000  1
  Ag  Ag8  1  0.00000000  0.00000000  0.50000000  1
