# generated using pymatgen
data_Ba(MnP)2
_symmetry_space_group_name_H-M   'P 1'
_cell_length_a   6.98383405
_cell_length_b   6.98383405
_cell_length_c   6.98383405
_cell_angle_alpha   148.26985332
_cell_angle_beta   148.26985332
_cell_angle_gamma   45.48716532
_symmetry_Int_Tables_number   1
_chemical_formula_structural   Ba(MnP)2
_chemical_formula_sum   'Ba1 Mn2 P2'
_cell_volume   93.90714328
_cell_formula_units_Z   1
loop_
 _symmetry_equiv_pos_site_id
 _symmetry_equiv_pos_as_xyz
  1  'x, y, z'
loop_
 _atom_site_type_symbol
 _atom_site_label
 _atom_site_symmetry_multiplicity
 _atom_site_fract_x
 _atom_site_fract_y
 _atom_site_fract_z
 _atom_site_occupancy
  Ba  Ba0  1  0.00000000  0.00000000  0.00000000  1
  Mn  Mn1  1  0.75000000  0.25000000  0.50000000  1
  Mn  Mn2  1  0.25000000  0.75000000  0.50000000  1
  P  P3  1  0.65352000  0.65352000  0.00000000  1
  P  P4  1  0.34648000  0.34648000  0.00000000  1
