# generated using pymatgen
data_K(Ti3Se4)4
_symmetry_space_group_name_H-M   'P 1'
_cell_length_a   7.16844400
_cell_length_b   9.96427378
_cell_length_c   10.56827898
_cell_angle_alpha   118.06553372
_cell_angle_beta   109.78009972
_cell_angle_gamma   90.03423622
_symmetry_Int_Tables_number   1
_chemical_formula_structural   K(Ti3Se4)4
_chemical_formula_sum   'K1 Ti12 Se16'
_cell_volume   615.08838511
_cell_formula_units_Z   1
loop_
 _symmetry_equiv_pos_site_id
 _symmetry_equiv_pos_as_xyz
  1  'x, y, z'
loop_
 _atom_site_type_symbol
 _atom_site_label
 _atom_site_symmetry_multiplicity
 _atom_site_fract_x
 _atom_site_fract_y
 _atom_site_fract_z
 _atom_site_occupancy
  K  K0  1  0.00000000  0.00000000  0.00000000  1
  Ti  Ti1  1  0.55854600  0.35972000  0.86829000  1
  Ti  Ti2  1  0.06035100  0.36024200  0.86874100  1
  Ti  Ti3  1  0.37108100  0.13118800  0.49122800  1
  Ti  Ti4  1  0.86888200  0.13214400  0.49090600  1
  Ti  Ti5  1  0.44449700  0.50914800  0.64122400  1
  Ti  Ti6  1  0.94578700  0.50873400  0.64003100  1
  Ti  Ti7  1  0.93964900  0.63975800  0.13125900  1
  Ti  Ti8  1  0.44145400  0.64028000  0.13171000  1
  Ti  Ti9  1  0.13111800  0.86785600  0.50909400  1
  Ti  Ti10  1  0.62891900  0.86881200  0.50877200  1
  Ti  Ti11  1  0.05421300  0.49126600  0.35996900  1
  Ti  Ti12  1  0.55550300  0.49085200  0.35877600  1
  Se  Se13  1  0.97460400  0.05054100  0.69745500  1
  Se  Se14  1  0.47407000  0.05023300  0.69854900  1
  Se  Se15  1  0.80084900  0.30145100  0.35154600  1
  Se  Se16  1  0.30278100  0.30254300  0.35303500  1
  Se  Se17  1  0.10082700  0.64736400  0.94956200  1
  Se  Se18  1  0.59982900  0.64828600  0.94972800  1
  Se  Se19  1  0.52593000  0.94976700  0.30145100  1
  Se  Se20  1  0.02539600  0.94945900  0.30254500  1
  Se  Se21  1  0.69721900  0.69745700  0.64696500  1
  Se  Se22  1  0.19915100  0.69854900  0.64845400  1
  Se  Se23  1  0.40017100  0.35171400  0.05027200  1
  Se  Se24  1  0.89917300  0.35263600  0.05043800  1
  Se  Se25  1  0.79201300  0.66706100  0.33363400  1
  Se  Se26  1  0.29175300  0.66644800  0.33311700  1
  Se  Se27  1  0.70824700  0.33355200  0.66688300  1
  Se  Se28  1  0.20798700  0.33293900  0.66636600  1
