# generated using pymatgen
data_HoCu4Au
_symmetry_space_group_name_H-M   'P 1'
_cell_length_a   5.04791652
_cell_length_b   5.04791652
_cell_length_c   5.04791652
_cell_angle_alpha   60.00000000
_cell_angle_beta   60.00000000
_cell_angle_gamma   60.00000000
_symmetry_Int_Tables_number   1
_chemical_formula_structural   HoCu4Au
_chemical_formula_sum   'Ho1 Cu4 Au1'
_cell_volume   90.95393518
_cell_formula_units_Z   1
loop_
 _symmetry_equiv_pos_site_id
 _symmetry_equiv_pos_as_xyz
  1  'x, y, z'
loop_
 _atom_site_type_symbol
 _atom_site_label
 _atom_site_symmetry_multiplicity
 _atom_site_fract_x
 _atom_site_fract_y
 _atom_site_fract_z
 _atom_site_occupancy
  Ho  Ho0  1  0.25000000  0.25000000  0.25000000  1
  Cu  Cu1  1  0.62580900  0.62580900  0.62580900  1
  Cu  Cu2  1  0.62580900  0.62580900  0.12257200  1
  Cu  Cu3  1  0.62580900  0.12257200  0.62580900  1
  Cu  Cu4  1  0.12257200  0.62580900  0.62580900  1
  Au  Au5  1  0.00000000  0.00000000  0.00000000  1
