# generated using pymatgen
data_BaGdCuTe3
_symmetry_space_group_name_H-M   'P 1'
_cell_length_a   7.77835233
_cell_length_b   7.77835233
_cell_length_c   11.51433800
_cell_angle_alpha   90.00000000
_cell_angle_beta   90.00000000
_cell_angle_gamma   146.38464386
_symmetry_Int_Tables_number   1
_chemical_formula_structural   BaGdCuTe3
_chemical_formula_sum   'Ba2 Gd2 Cu2 Te6'
_cell_volume   385.67533028
_cell_formula_units_Z   2
loop_
 _symmetry_equiv_pos_site_id
 _symmetry_equiv_pos_as_xyz
  1  'x, y, z'
loop_
 _atom_site_type_symbol
 _atom_site_label
 _atom_site_symmetry_multiplicity
 _atom_site_fract_x
 _atom_site_fract_y
 _atom_site_fract_z
 _atom_site_occupancy
  Ba  Ba0  1  0.25028000  0.74972000  0.25000000  1
  Ba  Ba1  1  0.74972000  0.25028000  0.75000000  1
  Gd  Gd2  1  0.00000000  0.00000000  0.50000000  1
  Gd  Gd3  1  0.00000000  0.00000000  0.00000000  1
  Cu  Cu4  1  0.53346500  0.46653500  0.25000000  1
  Cu  Cu5  1  0.46653500  0.53346500  0.75000000  1
  Te  Te6  1  0.63792300  0.36207700  0.43749500  1
  Te  Te7  1  0.36207700  0.63792300  0.56250500  1
  Te  Te8  1  0.63792300  0.36207700  0.06250500  1
  Te  Te9  1  0.36207700  0.63792300  0.93749500  1
  Te  Te10  1  0.92950900  0.07049100  0.25000000  1
  Te  Te11  1  0.07049100  0.92950900  0.75000000  1
