# generated using pymatgen
data_ScMnGe2
_symmetry_space_group_name_H-M   'P 1'
_cell_length_a   8.10746100
_cell_length_b   9.30872400
_cell_length_c   10.15860100
_cell_angle_alpha   90.00000000
_cell_angle_beta   90.00000000
_cell_angle_gamma   90.00000000
_symmetry_Int_Tables_number   1
_chemical_formula_structural   ScMnGe2
_chemical_formula_sum   'Sc12 Mn12 Ge24'
_cell_volume   766.67080389
_cell_formula_units_Z   12
loop_
 _symmetry_equiv_pos_site_id
 _symmetry_equiv_pos_as_xyz
  1  'x, y, z'
loop_
 _atom_site_type_symbol
 _atom_site_label
 _atom_site_symmetry_multiplicity
 _atom_site_fract_x
 _atom_site_fract_y
 _atom_site_fract_z
 _atom_site_occupancy
  Sc  Sc0  1  0.74247900  0.82833900  0.04701200  1
  Sc  Sc1  1  0.74247900  0.17166100  0.95298800  1
  Sc  Sc2  1  0.25752100  0.67166100  0.54701200  1
  Sc  Sc3  1  0.25752100  0.32833900  0.45298800  1
  Sc  Sc4  1  0.25752100  0.17166100  0.95298800  1
  Sc  Sc5  1  0.25752100  0.82833900  0.04701200  1
  Sc  Sc6  1  0.74247900  0.32833900  0.45298800  1
  Sc  Sc7  1  0.74247900  0.67166100  0.54701200  1
  Sc  Sc8  1  0.50000000  0.83610300  0.32040800  1
  Sc  Sc9  1  0.50000000  0.16389700  0.67959200  1
  Sc  Sc10  1  0.50000000  0.66389700  0.82040800  1
  Sc  Sc11  1  0.50000000  0.33610300  0.17959200  1
  Mn  Mn12  1  0.75057400  0.58481200  0.24911000  1
  Mn  Mn13  1  0.75057400  0.41518800  0.75089000  1
  Mn  Mn14  1  0.24942600  0.91518800  0.74911000  1
  Mn  Mn15  1  0.24942600  0.08481200  0.25089000  1
  Mn  Mn16  1  0.24942600  0.41518800  0.75089000  1
  Mn  Mn17  1  0.24942600  0.58481200  0.24911000  1
  Mn  Mn18  1  0.75057400  0.08481200  0.25089000  1
  Mn  Mn19  1  0.75057400  0.91518800  0.74911000  1
  Mn  Mn20  1  0.74655400  0.00000000  0.50000000  1
  Mn  Mn21  1  0.25344600  0.50000000  0.00000000  1
  Mn  Mn22  1  0.25344600  0.00000000  0.50000000  1
  Mn  Mn23  1  0.74655400  0.50000000  0.00000000  1
  Ge  Ge24  1  0.84024000  0.83550900  0.31815700  1
  Ge  Ge25  1  0.84024000  0.16449100  0.68184300  1
  Ge  Ge26  1  0.15976000  0.66449100  0.81815700  1
  Ge  Ge27  1  0.15976000  0.33550900  0.18184300  1
  Ge  Ge28  1  0.15976000  0.16449100  0.68184300  1
  Ge  Ge29  1  0.15976000  0.83550900  0.31815700  1
  Ge  Ge30  1  0.84024000  0.33550900  0.18184300  1
  Ge  Ge31  1  0.84024000  0.66449100  0.81815700  1
  Ge  Ge32  1  0.50000000  0.54067800  0.37843200  1
  Ge  Ge33  1  0.50000000  0.45932200  0.62156800  1
  Ge  Ge34  1  0.50000000  0.95932200  0.87843200  1
  Ge  Ge35  1  0.50000000  0.04067800  0.12156800  1
  Ge  Ge36  1  0.00000000  0.54181100  0.37795400  1
  Ge  Ge37  1  0.00000000  0.45818900  0.62204600  1
  Ge  Ge38  1  0.00000000  0.95818900  0.87795400  1
  Ge  Ge39  1  0.00000000  0.04181100  0.12204600  1
  Ge  Ge40  1  0.50000000  0.63011900  0.10135100  1
  Ge  Ge41  1  0.50000000  0.36988100  0.89864900  1
  Ge  Ge42  1  0.50000000  0.86988100  0.60135100  1
  Ge  Ge43  1  0.50000000  0.13011900  0.39864900  1
  Ge  Ge44  1  0.00000000  0.62491300  0.09504500  1
  Ge  Ge45  1  0.00000000  0.37508700  0.90495500  1
  Ge  Ge46  1  0.00000000  0.87508700  0.59504500  1
  Ge  Ge47  1  0.00000000  0.12491300  0.40495500  1
