# generated using pymatgen
data_Li2FeSiO4
_symmetry_space_group_name_H-M   'P 1'
_cell_length_a   6.33912300
_cell_length_b   7.37291262
_cell_length_c   7.37015738
_cell_angle_alpha   85.61398669
_cell_angle_beta   89.99953914
_cell_angle_gamma   89.99802836
_symmetry_Int_Tables_number   1
_chemical_formula_structural   Li2FeSiO4
_chemical_formula_sum   'Li8 Fe4 Si4 O16'
_cell_volume   343.45615867
_cell_formula_units_Z   4
loop_
 _symmetry_equiv_pos_site_id
 _symmetry_equiv_pos_as_xyz
  1  'x, y, z'
loop_
 _atom_site_type_symbol
 _atom_site_label
 _atom_site_symmetry_multiplicity
 _atom_site_fract_x
 _atom_site_fract_y
 _atom_site_fract_z
 _atom_site_occupancy
  Li  Li0  1  0.75032400  0.36287700  0.30540000  1
  Li  Li1  1  0.75032300  0.86288200  0.80538400  1
  Li  Li2  1  0.74969900  0.44456700  0.88713800  1
  Li  Li3  1  0.74968500  0.94457800  0.38712000  1
  Li  Li4  1  0.25030100  0.44457000  0.88713300  1
  Li  Li5  1  0.25031200  0.94455800  0.38713400  1
  Li  Li6  1  0.24968000  0.36289100  0.30541200  1
  Li  Li7  1  0.24969300  0.86287900  0.80540400  1
  Fe  Fe8  1  0.49998100  0.61720700  0.55370500  1
  Fe  Fe9  1  0.99997100  0.19635600  0.63259400  1
  Fe  Fe10  1  0.49992400  0.11729000  0.05360500  1
  Fe  Fe11  1  0.00007300  0.69626400  0.13248400  1
  Si  Si12  1  0.00001000  0.10986900  0.06046500  1
  Si  Si13  1  0.00000500  0.60990700  0.56046900  1
  Si  Si14  1  0.49998500  0.68962600  0.14010500  1
  Si  Si15  1  0.49999900  0.18959900  0.64011000  1
  O  O16  1  0.99998800  0.44984200  0.72998200  1
  O  O17  1  0.00004700  0.94983200  0.22998400  1
  O  O18  1  0.49999400  0.52018000  0.30017900  1
  O  O19  1  0.50003700  0.02013600  0.80016700  1
  O  O20  1  0.49997900  0.38532400  0.73767900  1
  O  O21  1  0.49999200  0.88528700  0.23768000  1
  O  O22  1  0.99999500  0.51238900  0.36465900  1
  O  O23  1  0.00000800  0.01235200  0.86463400  1
  O  O24  1  0.78613500  0.23696100  0.07727000  1
  O  O25  1  0.78613900  0.73697100  0.57730400  1
  O  O26  1  0.28607900  0.67270600  0.01305200  1
  O  O27  1  0.28611600  0.17272200  0.51303700  1
  O  O28  1  0.71388100  0.67273500  0.01305000  1
  O  O29  1  0.71389600  0.17272100  0.51303300  1
  O  O30  1  0.21388500  0.23695200  0.07731600  1
  O  O31  1  0.21386500  0.73697200  0.57731200  1
