# generated using pymatgen
data_HfBi
_symmetry_space_group_name_H-M   'P 1'
_cell_length_a   5.76893677
_cell_length_b   5.76893677
_cell_length_c   14.35201100
_cell_angle_alpha   90.00000000
_cell_angle_beta   90.00000000
_cell_angle_gamma   141.07879347
_symmetry_Int_Tables_number   1
_chemical_formula_structural   HfBi
_chemical_formula_sum   'Hf6 Bi6'
_cell_volume   300.08034302
_cell_formula_units_Z   6
loop_
 _symmetry_equiv_pos_site_id
 _symmetry_equiv_pos_as_xyz
  1  'x, y, z'
loop_
 _atom_site_type_symbol
 _atom_site_label
 _atom_site_symmetry_multiplicity
 _atom_site_fract_x
 _atom_site_fract_y
 _atom_site_fract_z
 _atom_site_occupancy
  Hf  Hf0  1  0.59909800  0.40090200  0.25000000  1
  Hf  Hf1  1  0.40090200  0.59909800  0.75000000  1
  Hf  Hf2  1  0.93061600  0.06938400  0.11055700  1
  Hf  Hf3  1  0.06938400  0.93061600  0.88944300  1
  Hf  Hf4  1  0.06938400  0.93061600  0.61055700  1
  Hf  Hf5  1  0.93061600  0.06938400  0.38944300  1
  Bi  Bi6  1  0.31558700  0.68441300  0.25000000  1
  Bi  Bi7  1  0.68441300  0.31558700  0.75000000  1
  Bi  Bi8  1  0.64204200  0.35795800  0.04987400  1
  Bi  Bi9  1  0.35795800  0.64204200  0.95012600  1
  Bi  Bi10  1  0.35795800  0.64204200  0.54987400  1
  Bi  Bi11  1  0.64204200  0.35795800  0.45012600  1
