# generated using pymatgen
data_La2USe5
_symmetry_space_group_name_H-M   'P 1'
_cell_length_a   7.97784600
_cell_length_b   8.55310400
_cell_length_c   12.50448300
_cell_angle_alpha   90.00000000
_cell_angle_beta   90.00000000
_cell_angle_gamma   90.00000000
_symmetry_Int_Tables_number   1
_chemical_formula_structural   La2USe5
_chemical_formula_sum   'La8 U4 Se20'
_cell_volume   853.24773073
_cell_formula_units_Z   4
loop_
 _symmetry_equiv_pos_site_id
 _symmetry_equiv_pos_as_xyz
  1  'x, y, z'
loop_
 _atom_site_type_symbol
 _atom_site_label
 _atom_site_symmetry_multiplicity
 _atom_site_fract_x
 _atom_site_fract_y
 _atom_site_fract_z
 _atom_site_occupancy
  La  La0  1  0.52929900  0.49996500  0.32279700  1
  La  La1  1  0.97070100  0.00003500  0.82279700  1
  La  La2  1  0.47070100  0.99996500  0.67720300  1
  La  La3  1  0.02929900  0.50003500  0.17720300  1
  La  La4  1  0.47070100  0.50003500  0.67720300  1
  La  La5  1  0.02929900  0.99996500  0.17720300  1
  La  La6  1  0.52929900  0.00003500  0.32279700  1
  La  La7  1  0.97070100  0.49996500  0.82279700  1
  U  U8  1  0.07291900  0.75000000  0.49089300  1
  U  U9  1  0.42708100  0.75000000  0.99089300  1
  U  U10  1  0.92708100  0.25000000  0.50910700  1
  U  U11  1  0.57291900  0.25000000  0.00910700  1
  Se  Se12  1  0.83450600  0.95628100  0.59103800  1
  Se  Se13  1  0.66549400  0.54371900  0.09103800  1
  Se  Se14  1  0.16549400  0.45628100  0.40896200  1
  Se  Se15  1  0.33450600  0.04371900  0.90896200  1
  Se  Se16  1  0.16549400  0.04371900  0.40896200  1
  Se  Se17  1  0.33450600  0.45628100  0.90896200  1
  Se  Se18  1  0.83450600  0.54371900  0.59103800  1
  Se  Se19  1  0.66549400  0.95628100  0.09103800  1
  Se  Se20  1  0.83524300  0.75000000  0.31315000  1
  Se  Se21  1  0.66475700  0.75000000  0.81315000  1
  Se  Se22  1  0.16475700  0.25000000  0.68685000  1
  Se  Se23  1  0.33524300  0.25000000  0.18685000  1
  Se  Se24  1  0.45535700  0.75000000  0.49910500  1
  Se  Se25  1  0.04464300  0.75000000  0.99910500  1
  Se  Se26  1  0.54464300  0.25000000  0.50089500  1
  Se  Se27  1  0.95535700  0.25000000  0.00089500  1
  Se  Se28  1  0.19188000  0.75000000  0.71511000  1
  Se  Se29  1  0.30812000  0.75000000  0.21511000  1
  Se  Se30  1  0.80812000  0.25000000  0.28489000  1
  Se  Se31  1  0.69188000  0.25000000  0.78489000  1
