# generated using pymatgen
data_TiNbTlO5
_symmetry_space_group_name_H-M   'P 1'
_cell_length_a   3.83978800
_cell_length_b   6.52782800
_cell_length_c   19.19722000
_cell_angle_alpha   90.00000000
_cell_angle_beta   90.00000000
_cell_angle_gamma   90.00000000
_symmetry_Int_Tables_number   1
_chemical_formula_structural   TiNbTlO5
_chemical_formula_sum   'Ti4 Nb4 Tl4 O20'
_cell_volume   481.18744989
_cell_formula_units_Z   4
loop_
 _symmetry_equiv_pos_site_id
 _symmetry_equiv_pos_as_xyz
  1  'x, y, z'
loop_
 _atom_site_type_symbol
 _atom_site_label
 _atom_site_symmetry_multiplicity
 _atom_site_fract_x
 _atom_site_fract_y
 _atom_site_fract_z
 _atom_site_occupancy
  Ti  Ti0  1  0.25000000  0.31712000  0.96689200  1
  Ti  Ti1  1  0.25000000  0.81712000  0.53310800  1
  Ti  Ti2  1  0.75000000  0.68288000  0.03310800  1
  Ti  Ti3  1  0.75000000  0.18288000  0.46689200  1
  Nb  Nb4  1  0.25000000  0.77191500  0.89266400  1
  Nb  Nb5  1  0.25000000  0.27191500  0.60733600  1
  Nb  Nb6  1  0.75000000  0.22808500  0.10733600  1
  Nb  Nb7  1  0.75000000  0.72808500  0.39266400  1
  Tl  Tl8  1  0.25000000  0.77069100  0.19581000  1
  Tl  Tl9  1  0.25000000  0.27069100  0.30419000  1
  Tl  Tl10  1  0.75000000  0.22930900  0.80419000  1
  Tl  Tl11  1  0.75000000  0.72930900  0.69581000  1
  O  O12  1  0.25000000  0.24058400  0.07762600  1
  O  O13  1  0.25000000  0.74058400  0.42237400  1
  O  O14  1  0.75000000  0.75941600  0.92237400  1
  O  O15  1  0.75000000  0.25941600  0.57762600  1
  O  O16  1  0.25000000  0.46407100  0.88316800  1
  O  O17  1  0.25000000  0.96407100  0.61683200  1
  O  O18  1  0.75000000  0.53592900  0.11683200  1
  O  O19  1  0.75000000  0.03592900  0.38316800  1
  O  O20  1  0.25000000  0.06447900  0.92937200  1
  O  O21  1  0.25000000  0.56447900  0.57062800  1
  O  O22  1  0.75000000  0.93552100  0.07062800  1
  O  O23  1  0.75000000  0.43552100  0.42937200  1
  O  O24  1  0.25000000  0.64458100  0.00976100  1
  O  O25  1  0.25000000  0.14458100  0.49023900  1
  O  O26  1  0.75000000  0.35541900  0.99023900  1
  O  O27  1  0.75000000  0.85541900  0.50976100  1
  O  O28  1  0.25000000  0.83192700  0.80055900  1
  O  O29  1  0.25000000  0.33192700  0.69944100  1
  O  O30  1  0.75000000  0.16807300  0.19944100  1
  O  O31  1  0.75000000  0.66807300  0.30055900  1
