# generated using pymatgen
data_RbCrCoF6
_symmetry_space_group_name_H-M   'P 1'
_cell_length_a   7.40317838
_cell_length_b   7.40317838
_cell_length_c   7.40317838
_cell_angle_alpha   120.37873455
_cell_angle_beta   120.01523079
_cell_angle_gamma   89.65944327
_symmetry_Int_Tables_number   1
_chemical_formula_structural   RbCrCoF6
_chemical_formula_sum   'Rb2 Cr2 Co2 F12'
_cell_volume   286.04267626
_cell_formula_units_Z   2
loop_
 _symmetry_equiv_pos_site_id
 _symmetry_equiv_pos_as_xyz
  1  'x, y, z'
loop_
 _atom_site_type_symbol
 _atom_site_label
 _atom_site_symmetry_multiplicity
 _atom_site_fract_x
 _atom_site_fract_y
 _atom_site_fract_z
 _atom_site_occupancy
  Rb  Rb0  1  0.87135200  0.12135200  0.75000000  1
  Rb  Rb1  1  0.12864800  0.87864800  0.25000000  1
  Cr  Cr2  1  0.50000000  0.50000000  0.00000000  1
  Cr  Cr3  1  0.00000000  0.50000000  0.50000000  1
  Co  Co4  1  0.50000000  0.50000000  0.50000000  1
  Co  Co5  1  0.50000000  0.00000000  0.00000000  1
  F  F6  1  0.81548500  0.56548500  0.25000000  1
  F  F7  1  0.42263000  0.17263000  0.25000000  1
  F  F8  1  0.83217300  0.18515300  0.26340500  1
  F  F9  1  0.42174900  0.56876900  0.23659500  1
  F  F10  1  0.83217300  0.56876900  0.64702000  1
  F  F11  1  0.42174900  0.18515300  0.85298000  1
  F  F12  1  0.18451500  0.43451500  0.75000000  1
  F  F13  1  0.57737000  0.82737000  0.75000000  1
  F  F14  1  0.16782700  0.81484700  0.73659500  1
  F  F15  1  0.57825100  0.43123100  0.76340500  1
  F  F16  1  0.16782700  0.43123100  0.35298000  1
  F  F17  1  0.57825100  0.81484700  0.14702000  1
