# generated using pymatgen
data_NdHCO4
_symmetry_space_group_name_H-M   'P 1'
_cell_length_a   4.99121700
_cell_length_b   7.33697800
_cell_length_c   8.66358800
_cell_angle_alpha   90.00000000
_cell_angle_beta   90.00000000
_cell_angle_gamma   90.00000000
_symmetry_Int_Tables_number   1
_chemical_formula_structural   NdHCO4
_chemical_formula_sum   'Nd4 H4 C4 O16'
_cell_volume   317.26448530
_cell_formula_units_Z   4
loop_
 _symmetry_equiv_pos_site_id
 _symmetry_equiv_pos_as_xyz
  1  'x, y, z'
loop_
 _atom_site_type_symbol
 _atom_site_label
 _atom_site_symmetry_multiplicity
 _atom_site_fract_x
 _atom_site_fract_y
 _atom_site_fract_z
 _atom_site_occupancy
  Nd  Nd0  1  0.75151100  0.14202900  0.33641500  1
  Nd  Nd1  1  0.74848900  0.64202900  0.16358500  1
  Nd  Nd2  1  0.25151100  0.85797100  0.66358500  1
  Nd  Nd3  1  0.24848900  0.35797100  0.83641500  1
  H  H4  1  0.85475800  0.50275500  0.47323900  1
  H  H5  1  0.64524200  0.00275500  0.02676100  1
  H  H6  1  0.35475800  0.49724500  0.52676100  1
  H  H7  1  0.14524200  0.99724500  0.97323900  1
  C  C8  1  0.25117300  0.30376000  0.17616700  1
  C  C9  1  0.24882700  0.80376000  0.32383300  1
  C  C10  1  0.75117300  0.69624000  0.82383300  1
  C  C11  1  0.74882700  0.19624000  0.67616700  1
  O  O12  1  0.74171400  0.46012200  0.38843400  1
  O  O13  1  0.75828600  0.96012200  0.11156600  1
  O  O14  1  0.24171400  0.53987800  0.61156600  1
  O  O15  1  0.25828600  0.03987800  0.88843400  1
  O  O16  1  0.02802900  0.34761000  0.10889200  1
  O  O17  1  0.47197100  0.84761000  0.39110800  1
  O  O18  1  0.52802900  0.65239000  0.89110800  1
  O  O19  1  0.97197100  0.15239000  0.60889200  1
  O  O20  1  0.97782100  0.65159000  0.88739400  1
  O  O21  1  0.52217900  0.15159000  0.61260600  1
  O  O22  1  0.47782100  0.34841000  0.11260600  1
  O  O23  1  0.02217900  0.84841000  0.38739400  1
  O  O24  1  0.24943600  0.20718900  0.30095000  1
  O  O25  1  0.25056400  0.70718900  0.19905000  1
  O  O26  1  0.74943600  0.79281100  0.69905000  1
  O  O27  1  0.75056400  0.29281100  0.80095000  1
