# generated using pymatgen
data_Y3Ga15Ru4
_symmetry_space_group_name_H-M   'P 1'
_cell_length_a   8.82023400
_cell_length_b   9.74049700
_cell_length_c   17.97892900
_cell_angle_alpha   90.00000000
_cell_angle_beta   90.00000000
_cell_angle_gamma   90.00000000
_symmetry_Int_Tables_number   1
_chemical_formula_structural   Y3Ga15Ru4
_chemical_formula_sum   'Y12 Ga60 Ru16'
_cell_volume   1544.63204812
_cell_formula_units_Z   4
loop_
 _symmetry_equiv_pos_site_id
 _symmetry_equiv_pos_as_xyz
  1  'x, y, z'
loop_
 _atom_site_type_symbol
 _atom_site_label
 _atom_site_symmetry_multiplicity
 _atom_site_fract_x
 _atom_site_fract_y
 _atom_site_fract_z
 _atom_site_occupancy
  Y  Y0  1  0.37437000  0.25000000  0.16850700  1
  Y  Y1  1  0.62563000  0.75000000  0.83149300  1
  Y  Y2  1  0.12563000  0.75000000  0.66850700  1
  Y  Y3  1  0.87437000  0.25000000  0.33149300  1
  Y  Y4  1  0.37453700  0.25000000  0.74803300  1
  Y  Y5  1  0.62546300  0.75000000  0.25196700  1
  Y  Y6  1  0.12546300  0.75000000  0.24803300  1
  Y  Y7  1  0.87453700  0.25000000  0.75196700  1
  Y  Y8  1  0.12556500  0.25000000  0.52306400  1
  Y  Y9  1  0.87443500  0.75000000  0.47693600  1
  Y  Y10  1  0.37443500  0.75000000  0.02306400  1
  Y  Y11  1  0.62556500  0.25000000  0.97693600  1
  Ga  Ga12  1  0.12746700  0.06177300  0.25279600  1
  Ga  Ga13  1  0.87253300  0.93822700  0.74720400  1
  Ga  Ga14  1  0.37253300  0.93822700  0.75279600  1
  Ga  Ga15  1  0.87253300  0.56177300  0.74720400  1
  Ga  Ga16  1  0.62746700  0.06177300  0.24720400  1
  Ga  Ga17  1  0.12746700  0.43822700  0.25279600  1
  Ga  Ga18  1  0.62746700  0.43822700  0.24720400  1
  Ga  Ga19  1  0.37253300  0.56177300  0.75279600  1
  Ga  Ga20  1  0.00725200  0.25000000  0.16896200  1
  Ga  Ga21  1  0.99274800  0.75000000  0.83103800  1
  Ga  Ga22  1  0.49274800  0.75000000  0.66896200  1
  Ga  Ga23  1  0.50725200  0.25000000  0.33103800  1
  Ga  Ga24  1  0.13328000  0.25000000  0.04243700  1
  Ga  Ga25  1  0.86671900  0.75000000  0.95756300  1
  Ga  Ga26  1  0.36671900  0.75000000  0.54243700  1
  Ga  Ga27  1  0.63328100  0.25000000  0.45756300  1
  Ga  Ga28  1  0.37406600  0.57684900  0.33280500  1
  Ga  Ga29  1  0.62593400  0.42315100  0.66719500  1
  Ga  Ga30  1  0.12593400  0.42315100  0.83280500  1
  Ga  Ga31  1  0.62593400  0.07684900  0.66719500  1
  Ga  Ga32  1  0.87406600  0.57684900  0.16719500  1
  Ga  Ga33  1  0.37406600  0.92315100  0.33280500  1
  Ga  Ga34  1  0.87406600  0.92315100  0.16719500  1
  Ga  Ga35  1  0.12593400  0.07684900  0.83280500  1
  Ga  Ga36  1  0.22007000  0.25000000  0.35908800  1
  Ga  Ga37  1  0.77993000  0.75000000  0.64091200  1
  Ga  Ga38  1  0.27993000  0.75000000  0.85908800  1
  Ga  Ga39  1  0.72007000  0.25000000  0.14091200  1
  Ga  Ga40  1  0.12375500  0.08553000  0.67123300  1
  Ga  Ga41  1  0.87624500  0.91447000  0.32876700  1
  Ga  Ga42  1  0.37624500  0.91447000  0.17123300  1
  Ga  Ga43  1  0.87624500  0.58553000  0.32876700  1
  Ga  Ga44  1  0.62375500  0.08553000  0.82876700  1
  Ga  Ga45  1  0.12375500  0.41447000  0.67123300  1
  Ga  Ga46  1  0.62375500  0.41447000  0.82876700  1
  Ga  Ga47  1  0.37624500  0.58553000  0.17123300  1
  Ga  Ga48  1  0.37898700  0.06038500  0.46599900  1
  Ga  Ga49  1  0.62101300  0.93961500  0.53400100  1
  Ga  Ga50  1  0.12101300  0.93961500  0.96599900  1
  Ga  Ga51  1  0.62101300  0.56038500  0.53400100  1
  Ga  Ga52  1  0.87898700  0.06038500  0.03400100  1
  Ga  Ga53  1  0.37898700  0.43961500  0.46599900  1
  Ga  Ga54  1  0.87898700  0.43961500  0.03400100  1
  Ga  Ga55  1  0.12101300  0.56038500  0.96599900  1
  Ga  Ga56  1  0.45134600  0.25000000  0.57769900  1
  Ga  Ga57  1  0.54865400  0.75000000  0.42230100  1
  Ga  Ga58  1  0.04865400  0.75000000  0.07769900  1
  Ga  Ga59  1  0.95134600  0.25000000  0.92230100  1
  Ga  Ga60  1  0.30376500  0.25000000  0.91791800  1
  Ga  Ga61  1  0.69623500  0.75000000  0.08208200  1
  Ga  Ga62  1  0.19623500  0.75000000  0.41791800  1
  Ga  Ga63  1  0.80376500  0.25000000  0.58208200  1
  Ga  Ga64  1  0.37228500  0.06867200  0.03213700  1
  Ga  Ga65  1  0.62771400  0.93132800  0.96786300  1
  Ga  Ga66  1  0.12771500  0.93132800  0.53213700  1
  Ga  Ga67  1  0.62771400  0.56867200  0.96786300  1
  Ga  Ga68  1  0.87228600  0.06867200  0.46786300  1
  Ga  Ga69  1  0.37228500  0.43132800  0.03213700  1
  Ga  Ga70  1  0.87228600  0.43132800  0.46786300  1
  Ga  Ga71  1  0.12771500  0.56867200  0.53213700  1
  Ru  Ru72  1  0.11725700  0.00209000  0.39027200  1
  Ru  Ru73  1  0.88274300  0.99791000  0.60972800  1
  Ru  Ru74  1  0.38274300  0.99791000  0.89027200  1
  Ru  Ru75  1  0.88274300  0.50209000  0.60972800  1
  Ru  Ru76  1  0.61725700  0.00209000  0.10972800  1
  Ru  Ru77  1  0.11725700  0.49791000  0.39027200  1
  Ru  Ru78  1  0.61725700  0.49791000  0.10972800  1
  Ru  Ru79  1  0.38274300  0.50209000  0.89027200  1
  Ru  Ru80  1  0.12999900  0.00308400  0.11389600  1
  Ru  Ru81  1  0.87000100  0.99691600  0.88610400  1
  Ru  Ru82  1  0.37000100  0.99691600  0.61389600  1
  Ru  Ru83  1  0.87000100  0.50308400  0.88610400  1
  Ru  Ru84  1  0.62999900  0.00308400  0.38610400  1
  Ru  Ru85  1  0.12999900  0.49691600  0.11389600  1
  Ru  Ru86  1  0.62999900  0.49691600  0.38610400  1
  Ru  Ru87  1  0.37000100  0.50308400  0.61389600  1
