# generated using pymatgen
data_ErGaIr
_symmetry_space_group_name_H-M   'P 1'
_cell_length_a   4.36322900
_cell_length_b   6.75462900
_cell_length_c   7.68431800
_cell_angle_alpha   90.00000000
_cell_angle_beta   90.00000000
_cell_angle_gamma   90.00000000
_symmetry_Int_Tables_number   1
_chemical_formula_structural   ErGaIr
_chemical_formula_sum   'Er4 Ga4 Ir4'
_cell_volume   226.47216736
_cell_formula_units_Z   4
loop_
 _symmetry_equiv_pos_site_id
 _symmetry_equiv_pos_as_xyz
  1  'x, y, z'
loop_
 _atom_site_type_symbol
 _atom_site_label
 _atom_site_symmetry_multiplicity
 _atom_site_fract_x
 _atom_site_fract_y
 _atom_site_fract_z
 _atom_site_occupancy
  Er  Er0  1  0.25000000  0.98405600  0.30710400  1
  Er  Er1  1  0.25000000  0.48405600  0.19289600  1
  Er  Er2  1  0.75000000  0.01594400  0.69289600  1
  Er  Er3  1  0.75000000  0.51594400  0.80710400  1
  Ga  Ga4  1  0.25000000  0.33357600  0.57331800  1
  Ga  Ga5  1  0.25000000  0.83357600  0.92668200  1
  Ga  Ga6  1  0.75000000  0.66642400  0.42668200  1
  Ga  Ga7  1  0.75000000  0.16642400  0.07331800  1
  Ir  Ir8  1  0.25000000  0.22582900  0.89615000  1
  Ir  Ir9  1  0.25000000  0.72582900  0.60385000  1
  Ir  Ir10  1  0.75000000  0.77417100  0.10385000  1
  Ir  Ir11  1  0.75000000  0.27417100  0.39615000  1
