# generated using pymatgen
data_Ce4S3O4
_symmetry_space_group_name_H-M   'P 1'
_cell_length_a   3.95291900
_cell_length_b   6.84262700
_cell_length_c   14.78281300
_cell_angle_alpha   90.00000000
_cell_angle_beta   90.00000000
_cell_angle_gamma   90.00000000
_symmetry_Int_Tables_number   1
_chemical_formula_structural   Ce4S3O4
_chemical_formula_sum   'Ce8 S6 O8'
_cell_volume   399.85070412
_cell_formula_units_Z   2
loop_
 _symmetry_equiv_pos_site_id
 _symmetry_equiv_pos_as_xyz
  1  'x, y, z'
loop_
 _atom_site_type_symbol
 _atom_site_label
 _atom_site_symmetry_multiplicity
 _atom_site_fract_x
 _atom_site_fract_y
 _atom_site_fract_z
 _atom_site_occupancy
  Ce  Ce0  1  0.50000000  0.29247400  0.65736400  1
  Ce  Ce1  1  0.50000000  0.70752600  0.34263600  1
  Ce  Ce2  1  0.50000000  0.79247400  0.84263600  1
  Ce  Ce3  1  0.50000000  0.20752600  0.15736400  1
  Ce  Ce4  1  0.00000000  0.21901300  0.92218800  1
  Ce  Ce5  1  0.00000000  0.78098700  0.07781200  1
  Ce  Ce6  1  0.00000000  0.71901300  0.57781200  1
  Ce  Ce7  1  0.00000000  0.28098700  0.42218800  1
  S  S8  1  0.00000000  0.00164200  0.28001700  1
  S  S9  1  0.00000000  0.99835800  0.71998300  1
  S  S10  1  0.00000000  0.50164200  0.21998300  1
  S  S11  1  0.00000000  0.49835800  0.78001700  1
  S  S12  1  0.50000000  0.00000000  0.50000000  1
  S  S13  1  0.50000000  0.50000000  0.00000000  1
  O  O14  1  0.50000000  0.11749300  0.87652500  1
  O  O15  1  0.50000000  0.88250700  0.12347500  1
  O  O16  1  0.50000000  0.61749300  0.62347500  1
  O  O17  1  0.50000000  0.38250700  0.37652500  1
  O  O18  1  0.00000000  0.35891800  0.57325700  1
  O  O19  1  0.00000000  0.64108200  0.42674300  1
  O  O20  1  0.00000000  0.85891800  0.92674300  1
  O  O21  1  0.00000000  0.14108200  0.07325700  1
