# generated using pymatgen
data_EuAlF5
_symmetry_space_group_name_H-M   'P 1'
_cell_length_a   14.54470383
_cell_length_b   16.05637701
_cell_length_c   16.05637701
_cell_angle_alpha   78.16218460
_cell_angle_beta   63.06842419
_cell_angle_gamma   63.06842419
_symmetry_Int_Tables_number   1
_chemical_formula_structural   EuAlF5
_chemical_formula_sum   'Eu32 Al32 F160'
_cell_volume   2980.50264415
_cell_formula_units_Z   32
loop_
 _symmetry_equiv_pos_site_id
 _symmetry_equiv_pos_as_xyz
  1  'x, y, z'
loop_
 _atom_site_type_symbol
 _atom_site_label
 _atom_site_symmetry_multiplicity
 _atom_site_fract_x
 _atom_site_fract_y
 _atom_site_fract_z
 _atom_site_occupancy
  Eu  Eu0  1  0.04716091  0.19414871  0.46708497  1
  Eu  Eu1  1  0.20839459  0.30585129  0.03291503  1
  Eu  Eu2  1  0.01424588  0.53291503  0.69414871  1
  Eu  Eu3  1  0.74130962  0.96708497  0.80585129  1
  Eu  Eu4  1  0.95283909  0.80585129  0.53291503  1
  Eu  Eu5  1  0.79160541  0.69414871  0.96708497  1
  Eu  Eu6  1  0.98575412  0.46708497  0.30585129  1
  Eu  Eu7  1  0.25869038  0.03291503  0.19414871  1
  Eu  Eu8  1  0.53902621  0.19681997  0.46673736  1
  Eu  Eu9  1  0.70258355  0.30318003  0.03326264  1
  Eu  Eu10  1  0.50576357  0.53326264  0.69681997  1
  Eu  Eu11  1  0.23584619  0.96673736  0.80318003  1
  Eu  Eu12  1  0.46097379  0.80318003  0.53326264  1
  Eu  Eu13  1  0.29741645  0.69681997  0.96673736  1
  Eu  Eu14  1  0.49423643  0.46673736  0.30318003  1
  Eu  Eu15  1  0.76415381  0.03326264  0.19681997  1
  Eu  Eu16  1  0.71387913  0.31851269  0.50349260  1
  Eu  Eu17  1  0.03588442  0.18148731  0.99650740  1
  Eu  Eu18  1  0.71737173  0.49650740  0.81851269  1
  Eu  Eu19  1  0.53239182  0.00349260  0.68148731  1
  Eu  Eu20  1  0.28612087  0.68148731  0.49650740  1
  Eu  Eu21  1  0.96411558  0.81851269  0.00349260  1
  Eu  Eu22  1  0.28262827  0.50349260  0.18148731  1
  Eu  Eu23  1  0.46760818  0.99650740  0.31851269  1
  Eu  Eu24  1  0.21426746  0.50030534  0.81931085  1
  Eu  Eu25  1  0.03388364  0.99969466  0.68068915  1
  Eu  Eu26  1  0.53357831  0.18068915  0.00030534  1
  Eu  Eu27  1  0.21457280  0.31931085  0.49969466  1
  Eu  Eu28  1  0.78573254  0.49969466  0.18068915  1
  Eu  Eu29  1  0.96611636  0.00030534  0.31931085  1
  Eu  Eu30  1  0.46642169  0.81931085  0.99969466  1
  Eu  Eu31  1  0.78542720  0.68068915  0.50030534  1
  Al  Al32  1  0.79663051  0.08485303  0.56954608  1
  Al  Al33  1  0.95102961  0.41514697  0.93045392  1
  Al  Al34  1  0.86617659  0.43045392  0.58485303  1
  Al  Al35  1  0.38148354  0.06954608  0.91514697  1
  Al  Al36  1  0.20336949  0.91514697  0.43045392  1
  Al  Al37  1  0.04897039  0.58485303  0.06954608  1
  Al  Al38  1  0.13382341  0.56954608  0.41514697  1
  Al  Al39  1  0.61851646  0.93045392  0.08485303  1
  Al  Al40  1  0.37406801  0.25316048  0.74985806  1
  Al  Al41  1  0.87708654  0.24683952  0.75014194  1
  Al  Al42  1  0.62392607  0.25014194  0.75316048  1
  Al  Al43  1  0.12722849  0.24985806  0.74683952  1
  Al  Al44  1  0.62593199  0.74683952  0.25014194  1
  Al  Al45  1  0.12291346  0.75316048  0.24985806  1
  Al  Al46  1  0.37607393  0.74985806  0.24683952  1
  Al  Al47  1  0.87277151  0.75014194  0.25316048  1
  Al  Al48  1  0.36861006  0.43292715  0.58051383  1
  Al  Al49  1  0.88205103  0.06707285  0.91948617  1
  Al  Al50  1  0.44912388  0.41948617  0.93292715  1
  Al  Al51  1  0.30153720  0.08051383  0.56707285  1
  Al  Al52  1  0.63138994  0.56707285  0.41948617  1
  Al  Al53  1  0.11794897  0.93292715  0.08051383  1
  Al  Al54  1  0.55087612  0.58051383  0.06707285  1
  Al  Al55  1  0.69846280  0.91948617  0.43292715  1
  Al  Al56  1  0.77057555  0.25000000  0.25000000  1
  Al  Al57  1  0.52057555  0.75000000  0.75000000  1
  Al  Al58  1  0.22942445  0.75000000  0.75000000  1
  Al  Al59  1  0.47942445  0.25000000  0.25000000  1
  Al  Al60  1  0.98064676  0.25000000  0.25000000  1
  Al  Al61  1  0.73064676  0.75000000  0.75000000  1
  Al  Al62  1  0.01935324  0.75000000  0.75000000  1
  Al  Al63  1  0.26935324  0.25000000  0.25000000  1
  F  F64  1  0.11266253  0.01597092  0.50561414  1
  F  F65  1  0.13424759  0.48402908  0.99438586  1
  F  F66  1  0.11827667  0.49438586  0.51597092  1
  F  F67  1  0.62863345  0.00561414  0.98402908  1
  F  F68  1  0.88733747  0.98402908  0.49438586  1
  F  F69  1  0.86575241  0.51597092  0.00561414  1
  F  F70  1  0.88172333  0.50561414  0.48402908  1
  F  F71  1  0.37136655  0.99438586  0.01597092  1
  F  F72  1  0.61261880  0.02229662  0.50557817  1
  F  F73  1  0.64049359  0.47770338  0.99442183  1
  F  F74  1  0.61819697  0.49442183  0.52229662  1
  F  F75  1  0.13491542  0.00557817  0.97770338  1
  F  F76  1  0.38738120  0.97770338  0.49442183  1
  F  F77  1  0.35950641  0.52229662  0.00557817  1
  F  F78  1  0.38180303  0.50557817  0.47770338  1
  F  F79  1  0.86508458  0.99442183  0.02229662  1
  F  F80  1  0.73610890  0.36436854  0.20045680  1
  F  F81  1  0.80093424  0.13563146  0.29954320  1
  F  F82  1  0.43656570  0.79954320  0.86436854  1
  F  F83  1  0.60047744  0.70045680  0.63563146  1
  F  F84  1  0.26389110  0.63563146  0.79954320  1
  F  F85  1  0.19906576  0.86436854  0.70045680  1
  F  F86  1  0.56343430  0.20045680  0.13563146  1
  F  F87  1  0.39952256  0.29954320  0.36436854  1
  F  F88  1  0.82128905  0.28267069  0.32595765  1
  F  F89  1  0.92991739  0.21732931  0.17404235  1
  F  F90  1  0.64724670  0.67404235  0.78267069  1
  F  F91  1  0.60395974  0.82595765  0.71732931  1
  F  F92  1  0.17871095  0.71732931  0.67404235  1
  F  F93  1  0.07008261  0.78267069  0.82595765  1
  F  F94  1  0.35275330  0.32595765  0.21732931  1
  F  F95  1  0.39604026  0.17404235  0.28267069  1
  F  F96  1  0.98790896  0.29383166  0.34107133  1
  F  F97  1  0.12281195  0.20616834  0.15892867  1
  F  F98  1  0.82898030  0.65892867  0.79383166  1
  F  F99  1  0.78174062  0.84107133  0.70616834  1
  F  F100  1  0.01209104  0.70616834  0.65892867  1
  F  F101  1  0.87718805  0.79383166  0.84107133  1
  F  F102  1  0.17101970  0.34107133  0.20616834  1
  F  F103  1  0.21825938  0.15892867  0.29383166  1
  F  F104  1  0.62836152  0.29324758  0.34095902  1
  F  F105  1  0.76256812  0.20675242  0.15904098  1
  F  F106  1  0.46932054  0.65904098  0.79324758  1
  F  F107  1  0.42160910  0.84095902  0.70675242  1
  F  F108  1  0.37163848  0.70675242  0.65904098  1
  F  F109  1  0.23743188  0.79324758  0.84095902  1
  F  F110  1  0.53067946  0.34095902  0.20675242  1
  F  F111  1  0.57839090  0.15904098  0.29324758  1
  F  F112  1  0.71408728  0.14785954  0.49947670  1
  F  F113  1  0.86142351  0.35214046  0.00052330  1
  F  F114  1  0.71356397  0.50052330  0.64785954  1
  F  F115  1  0.36194681  0.99947670  0.85214046  1
  F  F116  1  0.28591272  0.85214046  0.50052330  1
  F  F117  1  0.13857649  0.64785954  0.99947670  1
  F  F118  1  0.28643603  0.49947670  0.35214046  1
  F  F119  1  0.63805319  0.00052330  0.14785954  1
  F  F120  1  0.88571363  0.14949351  0.50125728  1
  F  F121  1  0.03646442  0.35050649  0.99874272  1
  F  F122  1  0.88697091  0.49874272  0.64949351  1
  F  F123  1  0.53520714  0.00125728  0.85050649  1
  F  F124  1  0.11428637  0.85050649  0.49874272  1
  F  F125  1  0.96353558  0.64949351  0.00125728  1
  F  F126  1  0.11302909  0.50125728  0.35050649  1
  F  F127  1  0.46479286  0.99874272  0.14949351  1
  F  F128  1  0.96362941  0.18079454  0.64146666  1
  F  F129  1  0.28589061  0.31920546  0.85853334  1
  F  F130  1  0.10509607  0.35853334  0.68079454  1
  F  F131  1  0.64442395  0.14146666  0.81920546  1
  F  F132  1  0.03637059  0.81920546  0.35853334  1
  F  F133  1  0.71410939  0.68079454  0.14146666  1
  F  F134  1  0.89490393  0.64146666  0.31920546  1
  F  F135  1  0.35557605  0.85853334  0.18079454  1
  F  F136  1  0.46324810  0.18605304  0.64157158  1
  F  F137  1  0.79087271  0.31394696  0.85842842  1
  F  F138  1  0.60481967  0.35842842  0.68605304  1
  F  F139  1  0.14930113  0.14157158  0.81394696  1
  F  F140  1  0.53675190  0.81394696  0.35842842  1
  F  F141  1  0.20912729  0.68605304  0.14157158  1
  F  F142  1  0.39518033  0.64157158  0.31394696  1
  F  F143  1  0.85069887  0.85842842  0.18605304  1
  F  F144  1  0.70455684  0.19331324  0.64109685  1
  F  F145  1  0.03896693  0.30668676  0.85890315  1
  F  F146  1  0.84565369  0.35890315  0.69331324  1
  F  F147  1  0.39787008  0.14109685  0.80668676  1
  F  F148  1  0.29544316  0.80668676  0.35890315  1
  F  F149  1  0.96103307  0.69331324  0.14109685  1
  F  F150  1  0.15434631  0.64109685  0.30668676  1
  F  F151  1  0.60212992  0.85890315  0.19331324  1
  F  F152  1  0.51925994  0.35347633  0.53212503  1
  F  F153  1  0.90486130  0.14652367  0.96787497  1
  F  F154  1  0.55138497  0.46787497  0.85347633  1
  F  F155  1  0.37273627  0.03212503  0.64652367  1
  F  F156  1  0.48074006  0.64652367  0.46787497  1
  F  F157  1  0.09513870  0.85347633  0.03212503  1
  F  F158  1  0.44861503  0.53212503  0.14652367  1
  F  F159  1  0.62726373  0.96787497  0.35347633  1
  F  F160  1  0.34733580  0.35059725  0.53583588  1
  F  F161  1  0.73376893  0.14940275  0.96416412  1
  F  F162  1  0.38317168  0.46416412  0.85059725  1
  F  F163  1  0.19793306  0.03583588  0.64940275  1
  F  F164  1  0.65266420  0.64940275  0.46416412  1
  F  F165  1  0.26623107  0.85059725  0.03583588  1
  F  F166  1  0.61682832  0.53583588  0.14940275  1
  F  F167  1  0.80206694  0.96416412  0.35059725  1
  F  F168  1  0.84515865  0.35215349  0.53291765  1
  F  F169  1  0.23022979  0.14784651  0.96708235  1
  F  F170  1  0.87807630  0.46708235  0.85215349  1
  F  F171  1  0.69731214  0.03291765  0.64784651  1
  F  F172  1  0.15484135  0.64784651  0.46708235  1
  F  F173  1  0.76977021  0.85215349  0.03291765  1
  F  F174  1  0.12192370  0.53291765  0.14784651  1
  F  F175  1  0.30268786  0.96708235  0.35215349  1
  F  F176  1  0.24916989  0.25416387  0.74808458  1
  F  F177  1  0.75141834  0.24583613  0.75191542  1
  F  F178  1  0.49725447  0.25191542  0.75416387  1
  F  F179  1  0.00333376  0.24808458  0.74583613  1
  F  F180  1  0.75083011  0.74583613  0.25191542  1
  F  F181  1  0.24858166  0.75416387  0.24808458  1
  F  F182  1  0.50274553  0.74808458  0.24583613  1
  F  F183  1  0.99666624  0.75191542  0.25416387  1
  F  F184  1  0.34982032  0.36480291  0.69209855  1
  F  F185  1  0.90672178  0.13519709  0.80790145  1
  F  F186  1  0.54191886  0.30790145  0.86480291  1
  F  F187  1  0.21462323  0.19209855  0.63519709  1
  F  F188  1  0.65017968  0.63519709  0.30790145  1
  F  F189  1  0.09327822  0.86480291  0.19209855  1
  F  F190  1  0.45808114  0.69209855  0.13519709  1
  F  F191  1  0.78537677  0.80790145  0.36480291  1
  F  F192  1  0.21621652  0.50458936  0.64081475  1
  F  F193  1  0.86162063  0.99541064  0.85918525  1
  F  F194  1  0.35703127  0.35918525  0.00458936  1
  F  F195  1  0.22080588  0.14081475  0.49541064  1
  F  F196  1  0.78378348  0.49541064  0.35918525  1
  F  F197  1  0.13837937  0.00458936  0.14081475  1
  F  F198  1  0.64296873  0.64081475  0.99541064  1
  F  F199  1  0.77919412  0.85918525  0.50458936  1
  F  F200  1  0.38842446  0.50636341  0.63891137  1
  F  F201  1  0.03369924  0.99363659  0.86108863  1
  F  F202  1  0.52733582  0.36108863  0.00636341  1
  F  F203  1  0.39478787  0.13891137  0.49363659  1
  F  F204  1  0.61157554  0.49363659  0.36108863  1
  F  F205  1  0.96630076  0.00636341  0.13891137  1
  F  F206  1  0.47266418  0.63891137  0.99363659  1
  F  F207  1  0.60521213  0.86108863  0.50636341  1
  F  F208  1  0.13518978  0.96262232  0.34952938  1
  F  F209  1  0.94734148  0.53737768  0.15047062  1
  F  F210  1  0.98471917  0.65047062  0.46262232  1
  F  F211  1  0.59781210  0.84952938  0.03737768  1
  F  F212  1  0.86481022  0.03737768  0.65047062  1
  F  F213  1  0.05265852  0.46262232  0.84952938  1
  F  F214  1  0.01528083  0.34952938  0.53737768  1
  F  F215  1  0.40218790  0.15047062  0.96262232  1
  F  F216  1  0.04875071  0.63598028  0.80064682  1
  F  F217  1  0.98537781  0.86401972  0.69935318  1
  F  F218  1  0.34939753  0.19935318  0.13598028  1
  F  F219  1  0.18473099  0.30064682  0.36401972  1
  F  F220  1  0.95124929  0.36401972  0.19935318  1
  F  F221  1  0.01462219  0.13598028  0.30064682  1
  F  F222  1  0.65060247  0.80064682  0.86401972  1
  F  F223  1  0.81526901  0.69935318  0.63598028  1
