# generated using pymatgen
data_Na4Dy2(IrO4)3
_symmetry_space_group_name_H-M   'P 1'
_cell_length_a   3.20415900
_cell_length_b   9.45593395
_cell_length_c   9.45593395
_cell_angle_alpha   119.99999963
_cell_angle_beta   90.00000000
_cell_angle_gamma   90.00000000
_symmetry_Int_Tables_number   1
_chemical_formula_structural   Na4Dy2(IrO4)3
_chemical_formula_sum   'Na4 Dy2 Ir3 O12'
_cell_volume   248.11530353
_cell_formula_units_Z   1
loop_
 _symmetry_equiv_pos_site_id
 _symmetry_equiv_pos_as_xyz
  1  'x, y, z'
loop_
 _atom_site_type_symbol
 _atom_site_label
 _atom_site_symmetry_multiplicity
 _atom_site_fract_x
 _atom_site_fract_y
 _atom_site_fract_z
 _atom_site_occupancy
  Na  Na0  1  0.50000000  0.30050900  0.30050900  1
  Na  Na1  1  0.50000000  0.00000000  0.69949100  1
  Na  Na2  1  0.50000000  0.69949100  0.00000000  1
  Na  Na3  1  0.00000000  0.00000000  0.00000000  1
  Dy  Dy4  1  0.50000000  0.66666700  0.33333300  1
  Dy  Dy5  1  0.50000000  0.33333300  0.66666700  1
  Ir  Ir6  1  0.00000000  0.66992400  0.66992400  1
  Ir  Ir7  1  0.00000000  0.00000000  0.33007600  1
  Ir  Ir8  1  0.00000000  0.33007600  0.00000000  1
  O  O9  1  0.00000000  0.75608600  0.21665300  1
  O  O10  1  0.00000000  0.46056700  0.24391400  1
  O  O11  1  0.00000000  0.53943300  0.78334700  1
  O  O12  1  0.00000000  0.78334700  0.53943300  1
  O  O13  1  0.00000000  0.21665300  0.75608600  1
  O  O14  1  0.00000000  0.24391400  0.46056700  1
  O  O15  1  0.50000000  0.54268700  0.54268700  1
  O  O16  1  0.50000000  0.00000000  0.45731300  1
  O  O17  1  0.50000000  0.45731300  0.00000000  1
  O  O18  1  0.50000000  0.80333200  0.80333200  1
  O  O19  1  0.50000000  0.00000000  0.19666800  1
  O  O20  1  0.50000000  0.19666800  0.00000000  1
