# generated using pymatgen
data_LiMnVO4
_symmetry_space_group_name_H-M   'P 1'
_cell_length_a   5.30230089
_cell_length_b   6.42921100
_cell_length_c   5.30230026
_cell_angle_alpha   90.00000000
_cell_angle_beta   112.92650721
_cell_angle_gamma   90.00000000
_symmetry_Int_Tables_number   1
_chemical_formula_structural   LiMnVO4
_chemical_formula_sum   'Li2 Mn2 V2 O8'
_cell_volume   166.47479414
_cell_formula_units_Z   2
loop_
 _symmetry_equiv_pos_site_id
 _symmetry_equiv_pos_as_xyz
  1  'x, y, z'
loop_
 _atom_site_type_symbol
 _atom_site_label
 _atom_site_symmetry_multiplicity
 _atom_site_fract_x
 _atom_site_fract_y
 _atom_site_fract_z
 _atom_site_occupancy
  Li  Li0  1  0.33794200  0.75000000  0.66205800  1
  Li  Li1  1  0.66205700  0.25000100  0.33794300  1
  Mn  Mn2  1  0.00000000  0.50000000  0.00000000  1
  Mn  Mn3  1  0.00000000  0.00000000  0.00000000  1
  V  V4  1  0.64472000  0.75000000  0.35528000  1
  V  V5  1  0.35528100  0.25000100  0.64471900  1
  O  O6  1  0.24094400  0.25000100  0.28135500  1
  O  O7  1  0.75905500  0.75000000  0.71864300  1
  O  O8  1  0.28135500  0.75000000  0.24094300  1
  O  O9  1  0.71864400  0.25000100  0.75905500  1
  O  O10  1  0.75622600  0.53005100  0.24377400  1
  O  O11  1  0.24377300  0.03005200  0.75622700  1
  O  O12  1  0.24377300  0.46994800  0.75622700  1
  O  O13  1  0.75622600  0.96994900  0.24377400  1
