# generated using pymatgen
data_Pu2B6Os
_symmetry_space_group_name_H-M   'P 1'
_cell_length_a   3.57294500
_cell_length_b   9.30744400
_cell_length_c   11.33406500
_cell_angle_alpha   90.00000000
_cell_angle_beta   90.00000000
_cell_angle_gamma   90.00000000
_symmetry_Int_Tables_number   1
_chemical_formula_structural   Pu2B6Os
_chemical_formula_sum   'Pu8 B24 Os4'
_cell_volume   376.91416726
_cell_formula_units_Z   4
loop_
 _symmetry_equiv_pos_site_id
 _symmetry_equiv_pos_as_xyz
  1  'x, y, z'
loop_
 _atom_site_type_symbol
 _atom_site_label
 _atom_site_symmetry_multiplicity
 _atom_site_fract_x
 _atom_site_fract_y
 _atom_site_fract_z
 _atom_site_occupancy
  Pu  Pu0  1  0.00000000  0.33850000  0.40674500  1
  Pu  Pu1  1  0.00000000  0.66150000  0.59325500  1
  Pu  Pu2  1  0.00000000  0.83850000  0.09325500  1
  Pu  Pu3  1  0.00000000  0.16150000  0.90674500  1
  Pu  Pu4  1  0.00000000  0.95993500  0.40448100  1
  Pu  Pu5  1  0.00000000  0.04006500  0.59551900  1
  Pu  Pu6  1  0.00000000  0.45993500  0.09551900  1
  Pu  Pu7  1  0.00000000  0.54006500  0.90448100  1
  B  B8  1  0.50000000  0.55193400  0.43104900  1
  B  B9  1  0.50000000  0.44806600  0.56895100  1
  B  B10  1  0.50000000  0.05193400  0.06895100  1
  B  B11  1  0.50000000  0.94806600  0.93104900  1
  B  B12  1  0.50000000  0.74296900  0.42325100  1
  B  B13  1  0.50000000  0.25703100  0.57674900  1
  B  B14  1  0.50000000  0.24296900  0.07674900  1
  B  B15  1  0.50000000  0.75703100  0.92325100  1
  B  B16  1  0.50000000  0.80585100  0.27431500  1
  B  B17  1  0.50000000  0.19414900  0.72568500  1
  B  B18  1  0.50000000  0.30585100  0.22568500  1
  B  B19  1  0.50000000  0.69414900  0.77431500  1
  B  B20  1  0.50000000  0.64597800  0.18768500  1
  B  B21  1  0.50000000  0.35402200  0.81231500  1
  B  B22  1  0.50000000  0.14597800  0.31231500  1
  B  B23  1  0.50000000  0.85402200  0.68768500  1
  B  B24  1  0.50000000  0.98797400  0.22168800  1
  B  B25  1  0.50000000  0.01202600  0.77831200  1
  B  B26  1  0.50000000  0.48797400  0.27831200  1
  B  B27  1  0.50000000  0.51202600  0.72168800  1
  B  B28  1  0.50000000  0.64446100  0.03952100  1
  B  B29  1  0.50000000  0.35553900  0.96047900  1
  B  B30  1  0.50000000  0.14446100  0.46047900  1
  B  B31  1  0.50000000  0.85553900  0.53952100  1
  Os  Os32  1  0.00000000  0.64661200  0.31872600  1
  Os  Os33  1  0.00000000  0.35338800  0.68127400  1
  Os  Os34  1  0.00000000  0.14661200  0.18127400  1
  Os  Os35  1  0.00000000  0.85338800  0.81872600  1
