# generated using pymatgen
data_Rb2Be3Cd2F12
_symmetry_space_group_name_H-M   'P 1'
_cell_length_a   10.61965000
_cell_length_b   10.61965000
_cell_length_c   10.61965000
_cell_angle_alpha   90.00000000
_cell_angle_beta   90.00000000
_cell_angle_gamma   90.00000000
_symmetry_Int_Tables_number   1
_chemical_formula_structural   Rb2Be3Cd2F12
_chemical_formula_sum   'Rb8 Be12 Cd8 F48'
_cell_volume   1197.65190828
_cell_formula_units_Z   4
loop_
 _symmetry_equiv_pos_site_id
 _symmetry_equiv_pos_as_xyz
  1  'x, y, z'
loop_
 _atom_site_type_symbol
 _atom_site_label
 _atom_site_symmetry_multiplicity
 _atom_site_fract_x
 _atom_site_fract_y
 _atom_site_fract_z
 _atom_site_occupancy
  Rb  Rb0  1  0.05698800  0.05698800  0.05698800  1
  Rb  Rb1  1  0.44301200  0.94301200  0.55698800  1
  Rb  Rb2  1  0.55698800  0.44301200  0.94301200  1
  Rb  Rb3  1  0.94301200  0.55698800  0.44301200  1
  Rb  Rb4  1  0.29654600  0.29654600  0.29654600  1
  Rb  Rb5  1  0.20345400  0.70345400  0.79654600  1
  Rb  Rb6  1  0.79654600  0.20345400  0.70345400  1
  Rb  Rb7  1  0.70345400  0.79654600  0.20345400  1
  Be  Be8  1  0.62459700  0.47435200  0.26193000  1
  Be  Be9  1  0.87540300  0.52564800  0.76193000  1
  Be  Be10  1  0.37540300  0.97435200  0.23807000  1
  Be  Be11  1  0.12459700  0.02564800  0.73807000  1
  Be  Be12  1  0.97435200  0.23807000  0.37540300  1
  Be  Be13  1  0.73807000  0.12459700  0.02564800  1
  Be  Be14  1  0.23807000  0.37540300  0.97435200  1
  Be  Be15  1  0.52564800  0.76193000  0.87540300  1
  Be  Be16  1  0.76193000  0.87540300  0.52564800  1
  Be  Be17  1  0.02564800  0.73807000  0.12459700  1
  Be  Be18  1  0.47435200  0.26193000  0.62459700  1
  Be  Be19  1  0.26193000  0.62459700  0.47435200  1
  Cd  Cd20  1  0.57906000  0.57906000  0.57906000  1
  Cd  Cd21  1  0.92094000  0.42094000  0.07906000  1
  Cd  Cd22  1  0.07906000  0.92094000  0.42094000  1
  Cd  Cd23  1  0.42094000  0.07906000  0.92094000  1
  Cd  Cd24  1  0.83765100  0.83765100  0.83765100  1
  Cd  Cd25  1  0.66234900  0.16234900  0.33765100  1
  Cd  Cd26  1  0.33765100  0.66234900  0.16234900  1
  Cd  Cd27  1  0.16234900  0.33765100  0.66234900  1
  F  F28  1  0.39759200  0.66686500  0.51147400  1
  F  F29  1  0.42973500  0.83724800  0.24054700  1
  F  F30  1  0.07026500  0.16275200  0.74054700  1
  F  F31  1  0.83724800  0.24054700  0.42973500  1
  F  F32  1  0.97556900  0.43103000  0.70995400  1
  F  F33  1  0.52443100  0.56897000  0.20995400  1
  F  F34  1  0.20995400  0.52443100  0.56897000  1
  F  F35  1  0.56897000  0.20995400  0.52443100  1
  F  F36  1  0.93103000  0.79004600  0.02443100  1
  F  F37  1  0.70995400  0.97556900  0.43103000  1
  F  F38  1  0.43103000  0.70995400  0.97556900  1
  F  F39  1  0.29004600  0.47556900  0.06897000  1
  F  F40  1  0.79004600  0.02443100  0.93103000  1
  F  F41  1  0.06897000  0.29004600  0.47556900  1
  F  F42  1  0.02443100  0.93103000  0.79004600  1
  F  F43  1  0.47556900  0.06897000  0.29004600  1
  F  F44  1  0.66686500  0.51147400  0.39759200  1
  F  F45  1  0.92973500  0.66275200  0.75945300  1
  F  F46  1  0.51147400  0.39759200  0.66686500  1
  F  F47  1  0.98852600  0.60240800  0.16686500  1
  F  F48  1  0.89759200  0.83313500  0.48852600  1
  F  F49  1  0.48852600  0.89759200  0.83313500  1
  F  F50  1  0.10240800  0.33313500  0.01147400  1
  F  F51  1  0.60240800  0.16686500  0.98852600  1
  F  F52  1  0.01147400  0.10240800  0.33313500  1
  F  F53  1  0.16686500  0.98852600  0.60240800  1
  F  F54  1  0.33313500  0.01147400  0.10240800  1
  F  F55  1  0.83313500  0.48852600  0.89759200  1
  F  F56  1  0.73919300  0.48506900  0.17011100  1
  F  F57  1  0.17011100  0.73919300  0.48506900  1
  F  F58  1  0.48506900  0.17011100  0.73919300  1
  F  F59  1  0.01493100  0.82988900  0.23919300  1
  F  F60  1  0.67011100  0.76080700  0.51493100  1
  F  F61  1  0.51493100  0.67011100  0.76080700  1
  F  F62  1  0.32988900  0.26080700  0.98506900  1
  F  F63  1  0.82988900  0.23919300  0.01493100  1
  F  F64  1  0.98506900  0.32988900  0.26080700  1
  F  F65  1  0.23919300  0.01493100  0.82988900  1
  F  F66  1  0.26080700  0.98506900  0.32988900  1
  F  F67  1  0.76080700  0.51493100  0.67011100  1
  F  F68  1  0.57026500  0.33724800  0.25945300  1
  F  F69  1  0.25945300  0.57026500  0.33724800  1
  F  F70  1  0.33724800  0.25945300  0.57026500  1
  F  F71  1  0.16275200  0.74054700  0.07026500  1
  F  F72  1  0.75945300  0.92973500  0.66275200  1
  F  F73  1  0.74054700  0.07026500  0.16275200  1
  F  F74  1  0.24054700  0.42973500  0.83724800  1
  F  F75  1  0.66275200  0.75945300  0.92973500  1
