# generated using pymatgen
data_Sm2GaCo2
_symmetry_space_group_name_H-M   'P 1'
_cell_length_a   5.49920408
_cell_length_b   5.49920408
_cell_length_c   5.49920408
_cell_angle_alpha   136.17731449
_cell_angle_beta   119.92874210
_cell_angle_gamma   77.26696229
_symmetry_Int_Tables_number   1
_chemical_formula_structural   Sm2GaCo2
_chemical_formula_sum   'Sm2 Ga1 Co2'
_cell_volume   97.06060562
_cell_formula_units_Z   1
loop_
 _symmetry_equiv_pos_site_id
 _symmetry_equiv_pos_as_xyz
  1  'x, y, z'
loop_
 _atom_site_type_symbol
 _atom_site_label
 _atom_site_symmetry_multiplicity
 _atom_site_fract_x
 _atom_site_fract_y
 _atom_site_fract_z
 _atom_site_occupancy
  Sm  Sm0  1  0.29351500  0.79351500  0.50000000  1
  Sm  Sm1  1  0.70648500  0.20648500  0.50000000  1
  Ga  Ga2  1  0.00000000  0.00000000  0.00000000  1
  Co  Co3  1  0.71368600  0.50000000  0.21368600  1
  Co  Co4  1  0.28631400  0.50000000  0.78631400  1
