# generated using pymatgen
data_Ca2Cu
_symmetry_space_group_name_H-M   'P 1'
_cell_length_a   4.14922800
_cell_length_b   6.03252100
_cell_length_c   14.50215500
_cell_angle_alpha   90.00000000
_cell_angle_beta   90.00000000
_cell_angle_gamma   90.00000000
_symmetry_Int_Tables_number   1
_chemical_formula_structural   Ca2Cu
_chemical_formula_sum   'Ca8 Cu4'
_cell_volume   362.99336344
_cell_formula_units_Z   4
loop_
 _symmetry_equiv_pos_site_id
 _symmetry_equiv_pos_as_xyz
  1  'x, y, z'
loop_
 _atom_site_type_symbol
 _atom_site_label
 _atom_site_symmetry_multiplicity
 _atom_site_fract_x
 _atom_site_fract_y
 _atom_site_fract_z
 _atom_site_occupancy
  Ca  Ca0  1  0.75000000  0.13108900  0.83429400  1
  Ca  Ca1  1  0.25000000  0.86891100  0.16570600  1
  Ca  Ca2  1  0.75000000  0.63108900  0.66570600  1
  Ca  Ca3  1  0.25000000  0.36891100  0.33429400  1
  Ca  Ca4  1  0.75000000  0.36781400  0.09196800  1
  Ca  Ca5  1  0.25000000  0.63218600  0.90803200  1
  Ca  Ca6  1  0.75000000  0.86781400  0.40803200  1
  Ca  Ca7  1  0.25000000  0.13218600  0.59196800  1
  Cu  Cu8  1  0.75000000  0.38903300  0.48347000  1
  Cu  Cu9  1  0.25000000  0.61096700  0.51653000  1
  Cu  Cu10  1  0.75000000  0.88903300  0.01653000  1
  Cu  Cu11  1  0.25000000  0.11096700  0.98347000  1
