# generated using pymatgen
data_NdZnSbO
_symmetry_space_group_name_H-M   'P 1'
_cell_length_a   4.19380500
_cell_length_b   4.19380500
_cell_length_c   9.65432600
_cell_angle_alpha   90.00000000
_cell_angle_beta   90.00000000
_cell_angle_gamma   90.00000000
_symmetry_Int_Tables_number   1
_chemical_formula_structural   NdZnSbO
_chemical_formula_sum   'Nd2 Zn2 Sb2 O2'
_cell_volume   169.80028934
_cell_formula_units_Z   2
loop_
 _symmetry_equiv_pos_site_id
 _symmetry_equiv_pos_as_xyz
  1  'x, y, z'
loop_
 _atom_site_type_symbol
 _atom_site_label
 _atom_site_symmetry_multiplicity
 _atom_site_fract_x
 _atom_site_fract_y
 _atom_site_fract_z
 _atom_site_occupancy
  Nd  Nd0  1  0.00000000  0.50000000  0.88389300  1
  Nd  Nd1  1  0.50000000  0.00000000  0.11610700  1
  Zn  Zn2  1  0.00000000  0.00000000  0.50000000  1
  Zn  Zn3  1  0.50000000  0.50000000  0.50000000  1
  Sb  Sb4  1  0.50000000  0.00000000  0.68309600  1
  Sb  Sb5  1  0.00000000  0.50000000  0.31690400  1
  O  O6  1  0.50000000  0.50000000  0.00000000  1
  O  O7  1  0.00000000  0.00000000  0.00000000  1
