# generated using pymatgen
data_K4Zr6FeBr18
_symmetry_space_group_name_H-M   'P 1'
_cell_length_a   10.66217532
_cell_length_b   10.79986010
_cell_length_c   10.90768668
_cell_angle_alpha   118.52823011
_cell_angle_beta   100.03339802
_cell_angle_gamma   103.75203789
_symmetry_Int_Tables_number   1
_chemical_formula_structural   K4Zr6FeBr18
_chemical_formula_sum   'K4 Zr6 Fe1 Br18'
_cell_volume   1009.11017033
_cell_formula_units_Z   1
loop_
 _symmetry_equiv_pos_site_id
 _symmetry_equiv_pos_as_xyz
  1  'x, y, z'
loop_
 _atom_site_type_symbol
 _atom_site_label
 _atom_site_symmetry_multiplicity
 _atom_site_fract_x
 _atom_site_fract_y
 _atom_site_fract_z
 _atom_site_occupancy
  K  K0  1  0.65360300  0.53864900  0.22788000  1
  K  K1  1  0.34639700  0.46135100  0.77212000  1
  K  K2  1  0.68693500  0.22392000  0.56334400  1
  K  K3  1  0.31306500  0.77608000  0.43665600  1
  Zr  Zr4  1  0.15244300  0.05729900  0.23438700  1
  Zr  Zr5  1  0.84755700  0.94270100  0.76561300  1
  Zr  Zr6  1  0.85851600  0.12841700  0.13501000  1
  Zr  Zr7  1  0.14148400  0.87158300  0.86499000  1
  Zr  Zr8  1  0.14764200  0.24296600  0.04599000  1
  Zr  Zr9  1  0.85235800  0.75703400  0.95401000  1
  Fe  Fe10  1  0.00000000  0.00000000  0.00000000  1
  Br  Br11  1  0.00707600  0.40850400  0.19672100  1
  Br  Br12  1  0.99292400  0.59149600  0.80327900  1
  Br  Br13  1  0.32761600  0.33301800  0.31060500  1
  Br  Br14  1  0.67238400  0.66698200  0.68939500  1
  Br  Br15  1  0.32208000  0.52419700  0.10039700  1
  Br  Br16  1  0.67792000  0.47580300  0.89960300  1
  Br  Br17  1  0.00390900  0.79628600  0.20872400  1
  Br  Br18  1  0.99609100  0.20371400  0.79127600  1
  Br  Br19  1  0.70091600  0.27629300  0.28891600  1
  Br  Br20  1  0.29908400  0.72370700  0.71108400  1
  Br  Br21  1  0.31643300  0.12731500  0.90336500  1
  Br  Br22  1  0.68356700  0.87268500  0.09663500  1
  Br  Br23  1  0.01359700  0.20431400  0.40737200  1
  Br  Br24  1  0.98640300  0.79568600  0.59262800  1
  Br  Br25  1  0.32012000  0.92295600  0.10984300  1
  Br  Br26  1  0.67988000  0.07704400  0.89015700  1
  Br  Br27  1  0.33287600  0.12109600  0.50355700  1
  Br  Br28  1  0.66712400  0.87890400  0.49644300  1
