# generated using pymatgen
data_KNaV2O6
_symmetry_space_group_name_H-M   'P 1'
_cell_length_a   7.47269925
_cell_length_b   7.47269925
_cell_length_c   5.93297937
_cell_angle_alpha   79.28910732
_cell_angle_beta   79.28910732
_cell_angle_gamma   87.03322198
_symmetry_Int_Tables_number   1
_chemical_formula_structural   KNaV2O6
_chemical_formula_sum   'K2 Na2 V4 O12'
_cell_volume   319.81026920
_cell_formula_units_Z   2
loop_
 _symmetry_equiv_pos_site_id
 _symmetry_equiv_pos_as_xyz
  1  'x, y, z'
loop_
 _atom_site_type_symbol
 _atom_site_label
 _atom_site_symmetry_multiplicity
 _atom_site_fract_x
 _atom_site_fract_y
 _atom_site_fract_z
 _atom_site_occupancy
  K  K0  1  0.19803700  0.80196300  0.25000000  1
  K  K1  1  0.80196300  0.19803700  0.75000000  1
  Na  Na2  1  0.59456800  0.40543200  0.25000000  1
  Na  Na3  1  0.40543200  0.59456800  0.75000000  1
  V  V4  1  0.87066300  0.70105300  0.77761500  1
  V  V5  1  0.29894700  0.12933700  0.72238500  1
  V  V6  1  0.12933700  0.29894700  0.22238500  1
  V  V7  1  0.70105300  0.87066300  0.27761500  1
  O  O8  1  0.61285900  0.08023100  0.21443200  1
  O  O9  1  0.91976900  0.38714100  0.28556800  1
  O  O10  1  0.38714100  0.91976900  0.78556800  1
  O  O11  1  0.08023100  0.61285900  0.71443200  1
  O  O12  1  0.16876900  0.14163700  0.48601100  1
  O  O13  1  0.85836300  0.83123100  0.01398900  1
  O  O14  1  0.83123100  0.85836300  0.51398900  1
  O  O15  1  0.14163700  0.16876900  0.98601100  1
  O  O16  1  0.71291800  0.53773600  0.85059300  1
  O  O17  1  0.46226400  0.28708200  0.64940700  1
  O  O18  1  0.28708200  0.46226400  0.14940700  1
  O  O19  1  0.53773600  0.71291800  0.35059300  1
