# generated using pymatgen
data_CsNpMoO6
_symmetry_space_group_name_H-M   'P 1'
_cell_length_a   8.75332500
_cell_length_b   7.79923700
_cell_length_c   10.63463960
_cell_angle_alpha   77.65263058
_cell_angle_beta   90.00000000
_cell_angle_gamma   90.00000000
_symmetry_Int_Tables_number   1
_chemical_formula_structural   CsNpMoO6
_chemical_formula_sum   'Cs4 Np4 Mo4 O24'
_cell_volume   709.22547683
_cell_formula_units_Z   4
loop_
 _symmetry_equiv_pos_site_id
 _symmetry_equiv_pos_as_xyz
  1  'x, y, z'
loop_
 _atom_site_type_symbol
 _atom_site_label
 _atom_site_symmetry_multiplicity
 _atom_site_fract_x
 _atom_site_fract_y
 _atom_site_fract_z
 _atom_site_occupancy
  Cs  Cs0  1  0.75746000  0.45862300  0.35344500  1
  Cs  Cs1  1  0.24254000  0.54137700  0.64655500  1
  Cs  Cs2  1  0.25746000  0.54137700  0.14655500  1
  Cs  Cs3  1  0.74254000  0.45862300  0.85344500  1
  Np  Np4  1  0.47765400  0.98755300  0.32479300  1
  Np  Np5  1  0.52234600  0.01244700  0.67520700  1
  Np  Np6  1  0.97765400  0.01244700  0.17520700  1
  Np  Np7  1  0.02234600  0.98755300  0.82479300  1
  Mo  Mo8  1  0.64759900  0.88899700  0.05375100  1
  Mo  Mo9  1  0.35240100  0.11100300  0.94624900  1
  Mo  Mo10  1  0.14759900  0.11100300  0.44624900  1
  Mo  Mo11  1  0.85240100  0.88899700  0.55375100  1
  O  O12  1  0.43642200  0.95858700  0.10829100  1
  O  O13  1  0.56357800  0.04141300  0.89170900  1
  O  O14  1  0.93642200  0.04141300  0.39170900  1
  O  O15  1  0.06357800  0.95858700  0.60829100  1
  O  O16  1  0.93748800  0.24733200  0.12809700  1
  O  O17  1  0.06251200  0.75266800  0.87190300  1
  O  O18  1  0.43748800  0.75266800  0.37190300  1
  O  O19  1  0.56251200  0.24733200  0.62809700  1
  O  O20  1  0.50932500  0.22328100  0.27335200  1
  O  O21  1  0.49067500  0.77671900  0.72664800  1
  O  O22  1  0.00932500  0.77671900  0.22664800  1
  O  O23  1  0.99067500  0.22328100  0.77335200  1
  O  O24  1  0.63608900  0.66339600  0.06163100  1
  O  O25  1  0.36391100  0.33660400  0.93836900  1
  O  O26  1  0.13608900  0.33660400  0.43836900  1
  O  O27  1  0.86391100  0.66339600  0.56163100  1
  O  O28  1  0.70990700  0.94119100  0.21712100  1
  O  O29  1  0.29009300  0.05880900  0.78287900  1
  O  O30  1  0.20990700  0.05880900  0.28287900  1
  O  O31  1  0.79009300  0.94119100  0.71712100  1
  O  O32  1  0.64844000  0.96952400  0.48843600  1
  O  O33  1  0.35156000  0.03047600  0.51156400  1
  O  O34  1  0.14844000  0.03047600  0.01156400  1
  O  O35  1  0.85156000  0.96952400  0.98843600  1
