# generated using pymatgen
data_TbCoSi3
_symmetry_space_group_name_H-M   'P 1'
_cell_length_a   5.56452680
_cell_length_b   5.56452680
_cell_length_c   5.56452680
_cell_angle_alpha   137.29742845
_cell_angle_beta   137.29742845
_cell_angle_gamma   61.98074163
_symmetry_Int_Tables_number   1
_chemical_formula_structural   TbCoSi3
_chemical_formula_sum   'Tb1 Co1 Si3'
_cell_volume   78.31768357
_cell_formula_units_Z   1
loop_
 _symmetry_equiv_pos_site_id
 _symmetry_equiv_pos_as_xyz
  1  'x, y, z'
loop_
 _atom_site_type_symbol
 _atom_site_label
 _atom_site_symmetry_multiplicity
 _atom_site_fract_x
 _atom_site_fract_y
 _atom_site_fract_z
 _atom_site_occupancy
  Tb  Tb0  1  0.00283400  0.00283400  0.00000000  1
  Co  Co1  1  0.66077700  0.66077700  0.00000000  1
  Si  Si2  1  0.42904100  0.42904100  0.00000000  1
  Si  Si3  1  0.26117400  0.76117400  0.50000000  1
  Si  Si4  1  0.76117400  0.26117400  0.50000000  1
