# generated using pymatgen
data_Ta3RhS6
_symmetry_space_group_name_H-M   'P 1'
_cell_length_a   5.76774552
_cell_length_b   5.76774552
_cell_length_c   12.18669000
_cell_angle_alpha   90.00000000
_cell_angle_beta   90.00000000
_cell_angle_gamma   119.99999445
_symmetry_Int_Tables_number   1
_chemical_formula_structural   Ta3RhS6
_chemical_formula_sum   'Ta6 Rh2 S12'
_cell_volume   351.09819790
_cell_formula_units_Z   2
loop_
 _symmetry_equiv_pos_site_id
 _symmetry_equiv_pos_as_xyz
  1  'x, y, z'
loop_
 _atom_site_type_symbol
 _atom_site_label
 _atom_site_symmetry_multiplicity
 _atom_site_fract_x
 _atom_site_fract_y
 _atom_site_fract_z
 _atom_site_occupancy
  Ta  Ta0  1  0.00000000  0.00000000  0.50000000  1
  Ta  Ta1  1  0.00000000  0.00000000  0.00000000  1
  Ta  Ta2  1  0.33333300  0.66666700  0.99742000  1
  Ta  Ta3  1  0.66666700  0.33333300  0.00258000  1
  Ta  Ta4  1  0.66666700  0.33333300  0.49742000  1
  Ta  Ta5  1  0.33333300  0.66666700  0.50258000  1
  Rh  Rh6  1  0.33333300  0.66666700  0.25000000  1
  Rh  Rh7  1  0.66666700  0.33333300  0.75000000  1
  S  S8  1  0.33313900  0.32978600  0.37068700  1
  S  S9  1  0.67021400  0.00335400  0.37068700  1
  S  S10  1  0.99664600  0.66686100  0.37068700  1
  S  S11  1  0.32978600  0.33313900  0.62931300  1
  S  S12  1  0.00335400  0.67021400  0.62931300  1
  S  S13  1  0.66686100  0.99664600  0.62931300  1
  S  S14  1  0.66686100  0.67021400  0.87068700  1
  S  S15  1  0.32978600  0.99664600  0.87068700  1
  S  S16  1  0.00335400  0.33313900  0.87068700  1
  S  S17  1  0.67021400  0.66686100  0.12931300  1
  S  S18  1  0.99664600  0.32978600  0.12931300  1
  S  S19  1  0.33313900  0.00335400  0.12931300  1
