# generated using pymatgen
data_Cs2MnSO4F3
_symmetry_space_group_name_H-M   'P 1'
_cell_length_a   11.94097400
_cell_length_b   7.56489100
_cell_length_c   9.40642096
_cell_angle_alpha   87.44459790
_cell_angle_beta   90.00000000
_cell_angle_gamma   90.00000000
_symmetry_Int_Tables_number   1
_chemical_formula_structural   Cs2MnSO4F3
_chemical_formula_sum   'Cs8 Mn4 S4 O16 F12'
_cell_volume   848.85742315
_cell_formula_units_Z   4
loop_
 _symmetry_equiv_pos_site_id
 _symmetry_equiv_pos_as_xyz
  1  'x, y, z'
loop_
 _atom_site_type_symbol
 _atom_site_label
 _atom_site_symmetry_multiplicity
 _atom_site_fract_x
 _atom_site_fract_y
 _atom_site_fract_z
 _atom_site_occupancy
  Cs  Cs0  1  0.18777600  0.79141000  0.33054400  1
  Cs  Cs1  1  0.68777600  0.20859000  0.16945600  1
  Cs  Cs2  1  0.81222400  0.20859000  0.66945600  1
  Cs  Cs3  1  0.31222400  0.79141000  0.83054400  1
  Cs  Cs4  1  0.30963200  0.28828500  0.17525300  1
  Cs  Cs5  1  0.80963200  0.71171500  0.32474700  1
  Cs  Cs6  1  0.69036800  0.71171500  0.82474700  1
  Cs  Cs7  1  0.19036800  0.28828500  0.67525300  1
  Mn  Mn8  1  0.00000000  0.50000000  0.00000000  1
  Mn  Mn9  1  0.50000000  0.50000000  0.50000000  1
  Mn  Mn10  1  0.00000000  0.00000000  0.00000000  1
  Mn  Mn11  1  0.50000000  0.00000000  0.50000000  1
  S  S12  1  0.99799000  0.25420600  0.29059400  1
  S  S13  1  0.49799000  0.74579400  0.20940600  1
  S  S14  1  0.00201000  0.74579400  0.70940600  1
  S  S15  1  0.50201000  0.25420600  0.79059400  1
  O  O16  1  0.45317400  0.89218800  0.29575500  1
  O  O17  1  0.95317400  0.10781200  0.20424500  1
  O  O18  1  0.54682600  0.10781200  0.70424500  1
  O  O19  1  0.04682600  0.89218800  0.79575500  1
  O  O20  1  0.04710700  0.39897100  0.18834300  1
  O  O21  1  0.54710700  0.60102900  0.31165700  1
  O  O22  1  0.95289300  0.60102900  0.81165700  1
  O  O23  1  0.45289300  0.39897100  0.68834300  1
  O  O24  1  0.90617000  0.32916200  0.37276200  1
  O  O25  1  0.40617000  0.67083800  0.12723800  1
  O  O26  1  0.09383000  0.67083800  0.62723800  1
  O  O27  1  0.59383000  0.32916200  0.87276200  1
  O  O28  1  0.09257500  0.19172900  0.37975300  1
  O  O29  1  0.59257500  0.80827100  0.12024700  1
  O  O30  1  0.90742500  0.80827100  0.62024700  1
  O  O31  1  0.40742500  0.19172900  0.87975300  1
  F  F32  1  0.34736700  0.51793000  0.45330800  1
  F  F33  1  0.84736700  0.48207000  0.04669200  1
  F  F34  1  0.65263300  0.48207000  0.54669200  1
  F  F35  1  0.15263300  0.51793000  0.95330800  1
  F  F36  1  0.15276700  0.01955400  0.03759000  1
  F  F37  1  0.65276700  0.98044600  0.46241000  1
  F  F38  1  0.84723300  0.98044600  0.96241000  1
  F  F39  1  0.34723300  0.01955400  0.53759000  1
  F  F40  1  0.00154700  0.76261100  0.09110700  1
  F  F41  1  0.50154700  0.23738900  0.40889300  1
  F  F42  1  0.99845300  0.23738900  0.90889300  1
  F  F43  1  0.49845300  0.76261100  0.59110700  1
