# generated using pymatgen
data_NaYb(PS3)2
_symmetry_space_group_name_H-M   'P 1'
_cell_length_a   7.32236700
_cell_length_b   7.34485249
_cell_length_c   9.87572317
_cell_angle_alpha   87.28203634
_cell_angle_beta   75.24000696
_cell_angle_gamma   87.97242783
_symmetry_Int_Tables_number   1
_chemical_formula_structural   NaYb(PS3)2
_chemical_formula_sum   'Na2 Yb2 P4 S12'
_cell_volume   512.87959287
_cell_formula_units_Z   2
loop_
 _symmetry_equiv_pos_site_id
 _symmetry_equiv_pos_as_xyz
  1  'x, y, z'
loop_
 _atom_site_type_symbol
 _atom_site_label
 _atom_site_symmetry_multiplicity
 _atom_site_fract_x
 _atom_site_fract_y
 _atom_site_fract_z
 _atom_site_occupancy
  Na  Na0  1  0.52388700  0.37250600  0.32964900  1
  Na  Na1  1  0.47611300  0.62749400  0.67035100  1
  Yb  Yb2  1  0.95089000  0.11700200  0.71750800  1
  Yb  Yb3  1  0.04911000  0.88299800  0.28249200  1
  P  P4  1  0.73471300  0.03008500  0.05993900  1
  P  P5  1  0.26528700  0.96991500  0.94006100  1
  P  P6  1  0.05392000  0.60522000  0.55895200  1
  P  P7  1  0.94608000  0.39478000  0.44104800  1
  S  S8  1  0.66851800  0.00310600  0.26619000  1
  S  S9  1  0.67062100  0.25552100  0.96753600  1
  S  S10  1  0.91267800  0.51620200  0.26143600  1
  S  S11  1  0.33148200  0.99689400  0.73381000  1
  S  S12  1  0.84992600  0.80847300  0.57550400  1
  S  S13  1  0.08732200  0.48379800  0.73856400  1
  S  S14  1  0.15007400  0.19152700  0.42449600  1
  S  S15  1  0.85590600  0.82767900  0.94515300  1
  S  S16  1  0.29904800  0.69697300  0.42669200  1
  S  S17  1  0.70095200  0.30302700  0.57330800  1
  S  S18  1  0.14409400  0.17232100  0.05484700  1
  S  S19  1  0.32937900  0.74447900  0.03246400  1
