# generated using pymatgen
data_Sm3(AgSn)4
_symmetry_space_group_name_H-M   'P 1'
_cell_length_a   8.90513341
_cell_length_b   8.90513341
_cell_length_c   8.90513341
_cell_angle_alpha   149.68960666
_cell_angle_beta   130.78311526
_cell_angle_gamma   58.90212912
_symmetry_Int_Tables_number   1
_chemical_formula_structural   Sm3(AgSn)4
_chemical_formula_sum   'Sm3 Ag4 Sn4'
_cell_volume   267.77911543
_cell_formula_units_Z   1
loop_
 _symmetry_equiv_pos_site_id
 _symmetry_equiv_pos_as_xyz
  1  'x, y, z'
loop_
 _atom_site_type_symbol
 _atom_site_label
 _atom_site_symmetry_multiplicity
 _atom_site_fract_x
 _atom_site_fract_y
 _atom_site_fract_z
 _atom_site_occupancy
  Sm  Sm0  1  0.37088400  0.87088400  0.50000000  1
  Sm  Sm1  1  0.62911600  0.12911600  0.50000000  1
  Sm  Sm2  1  0.00000000  0.00000000  0.00000000  1
  Ag  Ag3  1  0.63583300  0.33027500  0.30555900  1
  Ag  Ag4  1  0.36416700  0.66972500  0.69444100  1
  Ag  Ag5  1  0.02471600  0.33027500  0.69444100  1
  Ag  Ag6  1  0.97528400  0.66972500  0.30555900  1
  Sn  Sn7  1  0.21598500  0.21598500  0.00000000  1
  Sn  Sn8  1  0.78401500  0.78401500  0.00000000  1
  Sn  Sn9  1  0.69420100  0.50000000  0.19420100  1
  Sn  Sn10  1  0.30579900  0.50000000  0.80579900  1
