# generated using pymatgen
data_Tm2Mn(GeO3)4
_symmetry_space_group_name_H-M   'P 1'
_cell_length_a   4.99877200
_cell_length_b   9.95749682
_cell_length_c   9.95749682
_cell_angle_alpha   90.47852991
_cell_angle_beta   90.00000000
_cell_angle_gamma   90.00000000
_symmetry_Int_Tables_number   1
_chemical_formula_structural   Tm2Mn(GeO3)4
_chemical_formula_sum   'Tm4 Mn2 Ge8 O24'
_cell_volume   495.61967013
_cell_formula_units_Z   2
loop_
 _symmetry_equiv_pos_site_id
 _symmetry_equiv_pos_as_xyz
  1  'x, y, z'
loop_
 _atom_site_type_symbol
 _atom_site_label
 _atom_site_symmetry_multiplicity
 _atom_site_fract_x
 _atom_site_fract_y
 _atom_site_fract_z
 _atom_site_occupancy
  Tm  Tm0  1  0.50000000  0.00000000  0.50000000  1
  Tm  Tm1  1  0.50000000  0.50000000  0.00000000  1
  Tm  Tm2  1  0.50000000  0.75000000  0.75000000  1
  Tm  Tm3  1  0.50000000  0.25000000  0.25000000  1
  Mn  Mn4  1  0.50000000  0.50000000  0.50000000  1
  Mn  Mn5  1  0.50000000  0.00000000  0.00000000  1
  Ge  Ge6  1  0.99617400  0.74708900  0.48003700  1
  Ge  Ge7  1  0.00382600  0.25291100  0.51996300  1
  Ge  Ge8  1  0.00382600  0.24708900  0.98003700  1
  Ge  Ge9  1  0.99617400  0.75291100  0.01996300  1
  Ge  Ge10  1  0.00382600  0.48003700  0.74708900  1
  Ge  Ge11  1  0.99617400  0.51996300  0.25291100  1
  Ge  Ge12  1  0.99617400  0.98003700  0.24708900  1
  Ge  Ge13  1  0.00382600  0.01996300  0.75291100  1
  O  O14  1  0.26165600  0.56611800  0.66827900  1
  O  O15  1  0.25546700  0.06404400  0.33097500  1
  O  O16  1  0.25546700  0.43595600  0.16902500  1
  O  O17  1  0.26165600  0.93388200  0.83172100  1
  O  O18  1  0.73834400  0.43388200  0.33172100  1
  O  O19  1  0.74453300  0.93595600  0.66902500  1
  O  O20  1  0.74453300  0.56404400  0.83097500  1
  O  O21  1  0.73834400  0.06611800  0.16827900  1
  O  O22  1  0.73834400  0.66827900  0.56611800  1
  O  O23  1  0.74453300  0.33097500  0.06404400  1
  O  O24  1  0.74453300  0.16902500  0.43595600  1
  O  O25  1  0.73834400  0.83172100  0.93388200  1
  O  O26  1  0.26165600  0.33172100  0.43388200  1
  O  O27  1  0.25546700  0.66902500  0.93595600  1
  O  O28  1  0.25546700  0.83097500  0.56404400  1
  O  O29  1  0.26165600  0.16827900  0.06611800  1
  O  O30  1  0.83141400  0.36952300  0.63047700  1
  O  O31  1  0.82821200  0.87392500  0.37392500  1
  O  O32  1  0.82821200  0.62607500  0.12607500  1
  O  O33  1  0.83141400  0.13047700  0.86952300  1
  O  O34  1  0.16858600  0.63047700  0.36952300  1
  O  O35  1  0.17178800  0.12607500  0.62607500  1
  O  O36  1  0.17178800  0.37392500  0.87392500  1
  O  O37  1  0.16858600  0.86952300  0.13047700  1
