# generated using pymatgen
data_NbCoAs
_symmetry_space_group_name_H-M   'P 1'
_cell_length_a   3.76177900
_cell_length_b   6.30208000
_cell_length_c   7.15489900
_cell_angle_alpha   90.00000000
_cell_angle_beta   90.00000000
_cell_angle_gamma   90.00000000
_symmetry_Int_Tables_number   1
_chemical_formula_structural   NbCoAs
_chemical_formula_sum   'Nb4 Co4 As4'
_cell_volume   169.62142098
_cell_formula_units_Z   4
loop_
 _symmetry_equiv_pos_site_id
 _symmetry_equiv_pos_as_xyz
  1  'x, y, z'
loop_
 _atom_site_type_symbol
 _atom_site_label
 _atom_site_symmetry_multiplicity
 _atom_site_fract_x
 _atom_site_fract_y
 _atom_site_fract_z
 _atom_site_occupancy
  Nb  Nb0  1  0.25000000  0.02466600  0.32759000  1
  Nb  Nb1  1  0.25000000  0.52466600  0.17241000  1
  Nb  Nb2  1  0.75000000  0.97533400  0.67241000  1
  Nb  Nb3  1  0.75000000  0.47533400  0.82759000  1
  Co  Co4  1  0.25000000  0.14991100  0.93691200  1
  Co  Co5  1  0.25000000  0.64991100  0.56308800  1
  Co  Co6  1  0.75000000  0.85008900  0.06308800  1
  Co  Co7  1  0.75000000  0.35008900  0.43691200  1
  As  As8  1  0.25000000  0.27825900  0.62107100  1
  As  As9  1  0.25000000  0.77825900  0.87892900  1
  As  As10  1  0.75000000  0.72174100  0.37892900  1
  As  As11  1  0.75000000  0.22174100  0.12107100  1
