# generated using pymatgen
data_GdZn2
_symmetry_space_group_name_H-M   'P 1'
_cell_length_a   5.70916647
_cell_length_b   5.70916647
_cell_length_c   5.70916647
_cell_angle_alpha   133.02129089
_cell_angle_beta   101.88039204
_cell_angle_gamma   96.42258296
_symmetry_Int_Tables_number   1
_chemical_formula_structural   GdZn2
_chemical_formula_sum   'Gd2 Zn4'
_cell_volume   124.58011541
_cell_formula_units_Z   2
loop_
 _symmetry_equiv_pos_site_id
 _symmetry_equiv_pos_as_xyz
  1  'x, y, z'
loop_
 _atom_site_type_symbol
 _atom_site_label
 _atom_site_symmetry_multiplicity
 _atom_site_fract_x
 _atom_site_fract_y
 _atom_site_fract_z
 _atom_site_occupancy
  Gd  Gd0  1  0.22007100  0.47007100  0.75000000  1
  Gd  Gd1  1  0.77992900  0.52992900  0.25000000  1
  Zn  Zn2  1  0.37778800  0.83386100  0.54392700  1
  Zn  Zn3  1  0.62221200  0.16613900  0.45607300  1
  Zn  Zn4  1  0.21006700  0.16613900  0.04392700  1
  Zn  Zn5  1  0.78993300  0.83386100  0.95607300  1
