# generated using pymatgen
data_Tm5Ni2Bi
_symmetry_space_group_name_H-M   'P 1'
_cell_length_a   8.64605529
_cell_length_b   8.64605529
_cell_length_c   8.64605529
_cell_angle_alpha   128.49949551
_cell_angle_beta   128.49949551
_cell_angle_gamma   75.81725078
_symmetry_Int_Tables_number   1
_chemical_formula_structural   Tm5Ni2Bi
_chemical_formula_sum   'Tm10 Ni4 Bi2'
_cell_volume   385.00329414
_cell_formula_units_Z   2
loop_
 _symmetry_equiv_pos_site_id
 _symmetry_equiv_pos_as_xyz
  1  'x, y, z'
loop_
 _atom_site_type_symbol
 _atom_site_label
 _atom_site_symmetry_multiplicity
 _atom_site_fract_x
 _atom_site_fract_y
 _atom_site_fract_z
 _atom_site_occupancy
  Tm  Tm0  1  0.00000000  0.00000000  0.00000000  1
  Tm  Tm1  1  0.50000000  0.50000000  0.00000000  1
  Tm  Tm2  1  0.78958300  0.28958300  0.81304300  1
  Tm  Tm3  1  0.21041700  0.71041700  0.18695700  1
  Tm  Tm4  1  0.47654000  0.97654000  0.18695700  1
  Tm  Tm5  1  0.28958300  0.47654000  0.50000000  1
  Tm  Tm6  1  0.02346000  0.21041700  0.50000000  1
  Tm  Tm7  1  0.52346000  0.02346000  0.81304300  1
  Tm  Tm8  1  0.71041700  0.52346000  0.50000000  1
  Tm  Tm9  1  0.97654000  0.78958300  0.50000000  1
  Ni  Ni10  1  0.13089600  0.63089600  0.76179300  1
  Ni  Ni11  1  0.86910400  0.36910400  0.23820700  1
  Ni  Ni12  1  0.63089600  0.86910400  0.50000000  1
  Ni  Ni13  1  0.36910400  0.13089600  0.50000000  1
  Bi  Bi14  1  0.25000000  0.25000000  0.00000000  1
  Bi  Bi15  1  0.75000000  0.75000000  0.00000000  1
