# generated using pymatgen
data_GaBi3Sb2O11
_symmetry_space_group_name_H-M   'P 1'
_cell_length_a   9.62048700
_cell_length_b   9.54294000
_cell_length_c   13.55590429
_cell_angle_alpha   45.32881617
_cell_angle_beta   90.00000000
_cell_angle_gamma   90.00000000
_symmetry_Int_Tables_number   1
_chemical_formula_structural   GaBi3Sb2O11
_chemical_formula_sum   'Ga4 Bi12 Sb8 O44'
_cell_volume   885.05626495
_cell_formula_units_Z   4
loop_
 _symmetry_equiv_pos_site_id
 _symmetry_equiv_pos_as_xyz
  1  'x, y, z'
loop_
 _atom_site_type_symbol
 _atom_site_label
 _atom_site_symmetry_multiplicity
 _atom_site_fract_x
 _atom_site_fract_y
 _atom_site_fract_z
 _atom_site_occupancy
  Ga  Ga0  1  0.24890400  0.83956400  0.25308300  1
  Ga  Ga1  1  0.75187400  0.65981100  0.08868400  1
  Ga  Ga2  1  0.75109600  0.83956400  0.75308300  1
  Ga  Ga3  1  0.24812600  0.65981100  0.58868400  1
  Bi  Bi4  1  0.99967800  0.98516800  0.51039800  1
  Bi  Bi5  1  0.51919200  0.51804500  0.99482600  1
  Bi  Bi6  1  0.48080800  0.51804500  0.49482600  1
  Bi  Bi7  1  0.00032200  0.98516800  0.01039800  1
  Bi  Bi8  1  0.38034700  0.00765900  0.87615800  1
  Bi  Bi9  1  0.12361600  0.26604500  0.62411000  1
  Bi  Bi10  1  0.11504100  0.74456700  0.87328800  1
  Bi  Bi11  1  0.38176600  0.98463700  0.62730300  1
  Bi  Bi12  1  0.61823400  0.98463700  0.12730300  1
  Bi  Bi13  1  0.88495900  0.74456700  0.37328800  1
  Bi  Bi14  1  0.87638400  0.26604500  0.12411000  1
  Bi  Bi15  1  0.61965300  0.00765900  0.37615800  1
  Sb  Sb16  1  0.25015700  0.14709800  0.25319500  1
  Sb  Sb17  1  0.74934400  0.34275000  0.40500100  1
  Sb  Sb18  1  0.90955400  0.50331000  0.74828000  1
  Sb  Sb19  1  0.59015800  0.50498600  0.74785400  1
  Sb  Sb20  1  0.74984300  0.14709800  0.75319500  1
  Sb  Sb21  1  0.25065600  0.34275000  0.90500100  1
  Sb  Sb22  1  0.09044600  0.50331000  0.24828000  1
  Sb  Sb23  1  0.40984200  0.50498600  0.24785400  1
  O  O24  1  0.25124200  0.35860500  0.74930300  1
  O  O25  1  0.24821900  0.63739200  0.75095900  1
  O  O26  1  0.25026900  0.64024200  0.11099100  1
  O  O27  1  0.24970000  0.36582300  0.38552800  1
  O  O28  1  0.89159800  0.99779400  0.75062600  1
  O  O29  1  0.60773000  0.99639900  0.75304400  1
  O  O30  1  0.75178100  0.63739200  0.25095900  1
  O  O31  1  0.74875800  0.35860500  0.24930300  1
  O  O32  1  0.75030000  0.36582300  0.88552800  1
  O  O33  1  0.74973100  0.64024200  0.61099100  1
  O  O34  1  0.10840200  0.99779400  0.25062600  1
  O  O35  1  0.39227000  0.99639900  0.25304400  1
  O  O36  1  0.14838700  0.00247400  0.64597500  1
  O  O37  1  0.35116300  0.79511300  0.85337600  1
  O  O38  1  0.35220000  0.20493800  0.64638900  1
  O  O39  1  0.14816900  0.99911400  0.85315800  1
  O  O40  1  0.85183100  0.99911400  0.35315800  1
  O  O41  1  0.64780000  0.20493800  0.14638900  1
  O  O42  1  0.64883700  0.79511300  0.35337600  1
  O  O43  1  0.85161300  0.00247400  0.14597500  1
  O  O44  1  0.24417000  0.04936400  0.03789100  1
  O  O45  1  0.25759300  0.62086700  0.46370000  1
  O  O46  1  0.24999200  0.37124200  0.03956200  1
  O  O47  1  0.24346900  0.95127600  0.46315700  1
  O  O48  1  0.96444400  0.66884300  0.08499300  1
  O  O49  1  0.53645000  0.66039600  0.08540200  1
  O  O50  1  0.96415200  0.33454100  0.41306300  1
  O  O51  1  0.53597700  0.33577000  0.41356600  1
  O  O52  1  0.91276800  0.28668500  0.75170100  1
  O  O53  1  0.91554800  0.71991500  0.74302000  1
  O  O54  1  0.58825900  0.29139200  0.74724700  1
  O  O55  1  0.58418700  0.70817300  0.75517200  1
  O  O56  1  0.75653100  0.95127600  0.96315700  1
  O  O57  1  0.75000800  0.37124200  0.53956200  1
  O  O58  1  0.74240700  0.62086700  0.96370000  1
  O  O59  1  0.75583000  0.04936400  0.53789100  1
  O  O60  1  0.03584800  0.33454100  0.91306300  1
  O  O61  1  0.46402300  0.33577000  0.91356600  1
  O  O62  1  0.03555600  0.66884300  0.58499300  1
  O  O63  1  0.46355000  0.66039600  0.58540200  1
  O  O64  1  0.08445200  0.71991500  0.24302000  1
  O  O65  1  0.08723200  0.28668500  0.25170100  1
  O  O66  1  0.41581300  0.70817300  0.25517200  1
  O  O67  1  0.41174100  0.29139200  0.24724700  1
