# generated using pymatgen
data_Cs2Ge(TeO4)3
_symmetry_space_group_name_H-M   'P 1'
_cell_length_a   7.13067677
_cell_length_b   7.13067677
_cell_length_c   7.13067709
_cell_angle_alpha   61.57816662
_cell_angle_beta   61.57816662
_cell_angle_gamma   61.57816490
_symmetry_Int_Tables_number   1
_chemical_formula_structural   Cs2Ge(TeO4)3
_chemical_formula_sum   'Cs2 Ge1 Te3 O12'
_cell_volume   265.45327534
_cell_formula_units_Z   1
loop_
 _symmetry_equiv_pos_site_id
 _symmetry_equiv_pos_as_xyz
  1  'x, y, z'
loop_
 _atom_site_type_symbol
 _atom_site_label
 _atom_site_symmetry_multiplicity
 _atom_site_fract_x
 _atom_site_fract_y
 _atom_site_fract_z
 _atom_site_occupancy
  Cs  Cs0  1  0.37263400  0.37263400  0.37263400  1
  Cs  Cs1  1  0.62736600  0.62736600  0.62736600  1
  Ge  Ge2  1  0.00000000  0.00000000  0.00000000  1
  Te  Te3  1  0.50000000  0.00000000  0.00000000  1
  Te  Te4  1  0.00000000  0.00000000  0.50000000  1
  Te  Te5  1  0.00000000  0.50000000  0.00000000  1
  O  O6  1  0.93227200  0.32509700  0.32509700  1
  O  O7  1  0.31735700  0.93053700  0.93053700  1
  O  O8  1  0.32509700  0.32509700  0.93227200  1
  O  O9  1  0.93053700  0.93053700  0.31735700  1
  O  O10  1  0.93053700  0.31735700  0.93053700  1
  O  O11  1  0.32509700  0.93227200  0.32509700  1
  O  O12  1  0.06772800  0.67490300  0.67490300  1
  O  O13  1  0.68264300  0.06946300  0.06946300  1
  O  O14  1  0.67490300  0.67490300  0.06772800  1
  O  O15  1  0.06946300  0.06946300  0.68264300  1
  O  O16  1  0.06946300  0.68264300  0.06946300  1
  O  O17  1  0.67490300  0.06772800  0.67490300  1
