# generated using pymatgen
data_Pr5(C2Br)3
_symmetry_space_group_name_H-M   'P 1'
_cell_length_a   3.87680400
_cell_length_b   11.80684335
_cell_length_c   14.10952171
_cell_angle_alpha   80.68029096
_cell_angle_beta   82.10358642
_cell_angle_gamma   80.55062172
_symmetry_Int_Tables_number   1
_chemical_formula_structural   Pr5(C2Br)3
_chemical_formula_sum   'Pr10 C12 Br6'
_cell_volume   624.57446566
_cell_formula_units_Z   2
loop_
 _symmetry_equiv_pos_site_id
 _symmetry_equiv_pos_as_xyz
  1  'x, y, z'
loop_
 _atom_site_type_symbol
 _atom_site_label
 _atom_site_symmetry_multiplicity
 _atom_site_fract_x
 _atom_site_fract_y
 _atom_site_fract_z
 _atom_site_occupancy
  Pr  Pr0  1  0.49942900  0.89530100  0.10584100  1
  Pr  Pr1  1  0.50057100  0.10469900  0.89415900  1
  Pr  Pr2  1  0.49989100  0.60560400  0.39461300  1
  Pr  Pr3  1  0.50010900  0.39439600  0.60538700  1
  Pr  Pr4  1  0.83819800  0.67518800  0.64841500  1
  Pr  Pr5  1  0.16180200  0.32481200  0.35158500  1
  Pr  Pr6  1  0.17210300  0.53689500  0.11889900  1
  Pr  Pr7  1  0.82789700  0.46310500  0.88110100  1
  Pr  Pr8  1  0.83469900  0.22781100  0.10279200  1
  Pr  Pr9  1  0.16530100  0.77218900  0.89720800  1
  C  C10  1  0.96576000  0.53297900  0.53550200  1
  C  C11  1  0.03424000  0.46702100  0.46449800  1
  C  C12  1  0.62962600  0.71132400  0.02942400  1
  C  C13  1  0.37037400  0.28867600  0.97057600  1
  C  C14  1  0.69856600  0.38452500  0.21834300  1
  C  C15  1  0.30143400  0.61547500  0.78165700  1
  C  C16  1  0.30252600  0.38210200  0.01284700  1
  C  C17  1  0.69747400  0.61789800  0.98715300  1
  C  C18  1  0.96565400  0.04788400  0.02080700  1
  C  C19  1  0.03434600  0.95211600  0.97919300  1
  C  C20  1  0.62977600  0.47237700  0.26807200  1
  C  C21  1  0.37022400  0.52762300  0.73192800  1
  Br  Br22  1  0.66624000  0.17980900  0.48771100  1
  Br  Br23  1  0.33376000  0.82019100  0.51228900  1
  Br  Br24  1  0.33125500  0.08863200  0.24885700  1
  Br  Br25  1  0.66874500  0.91136800  0.75114300  1
  Br  Br26  1  0.98737200  0.76567800  0.25957900  1
  Br  Br27  1  0.01262800  0.23432200  0.74042100  1
