# generated using pymatgen
data_Tl2B4O7
_symmetry_space_group_name_H-M   'P 1'
_cell_length_a   6.85498000
_cell_length_b   13.60919831
_cell_length_c   13.61006633
_cell_angle_alpha   119.28223310
_cell_angle_beta   91.65792363
_cell_angle_gamma   91.70175301
_symmetry_Int_Tables_number   1
_chemical_formula_structural   Tl2B4O7
_chemical_formula_sum   'Tl12 B24 O42'
_cell_volume   1105.58904470
_cell_formula_units_Z   6
loop_
 _symmetry_equiv_pos_site_id
 _symmetry_equiv_pos_as_xyz
  1  'x, y, z'
loop_
 _atom_site_type_symbol
 _atom_site_label
 _atom_site_symmetry_multiplicity
 _atom_site_fract_x
 _atom_site_fract_y
 _atom_site_fract_z
 _atom_site_occupancy
  Tl  Tl0  1  0.12462600  0.41626000  0.54586900  1
  Tl  Tl1  1  0.87537400  0.58374000  0.45413100  1
  Tl  Tl2  1  0.21964200  0.55783000  0.98021500  1
  Tl  Tl3  1  0.78035800  0.44217000  0.01978500  1
  Tl  Tl4  1  0.60462500  0.12023100  0.67069900  1
  Tl  Tl5  1  0.39537500  0.87976900  0.32930100  1
  Tl  Tl6  1  0.70280000  0.05777800  0.94287400  1
  Tl  Tl7  1  0.29720000  0.94222200  0.05712600  1
  Tl  Tl8  1  0.44915100  0.63939600  0.73624700  1
  Tl  Tl9  1  0.55084900  0.36060400  0.26375300  1
  Tl  Tl10  1  0.01753500  0.94642700  0.60069000  1
  Tl  Tl11  1  0.98246500  0.05357300  0.39931000  1
  B  B12  1  0.95644300  0.71648900  0.78578000  1
  B  B13  1  0.04355700  0.28351100  0.21422000  1
  B  B14  1  0.83096300  0.54046000  0.79385400  1
  B  B15  1  0.16903700  0.45954000  0.20614600  1
  B  B16  1  0.75214100  0.81289500  0.70162400  1
  B  B17  1  0.24785900  0.18710500  0.29837600  1
  B  B18  1  0.73741800  0.69178700  0.97996000  1
  B  B19  1  0.26258200  0.30821300  0.02004000  1
  B  B20  1  0.40700000  0.22177500  0.49156900  1
  B  B21  1  0.59300000  0.77822500  0.50843100  1
  B  B22  1  0.64607500  0.37457000  0.63661300  1
  B  B23  1  0.35392500  0.62543000  0.36338700  1
  B  B24  1  0.09221100  0.23646800  0.83015400  1
  B  B25  1  0.90778900  0.76353200  0.16984600  1
  B  B26  1  0.16600700  0.11010000  0.91049100  1
  B  B27  1  0.83399300  0.88990000  0.08950900  1
  B  B28  1  0.91041200  0.33872000  0.74320500  1
  B  B29  1  0.08958800  0.66128000  0.25679500  1
  B  B30  1  0.21599700  0.23542500  0.65879100  1
  B  B31  1  0.78400300  0.76457500  0.34120900  1
  B  B32  1  0.08672000  0.89760400  0.80453400  1
  B  B33  1  0.91328000  0.10239600  0.19546600  1
  B  B34  1  0.40267200  0.85606700  0.67670200  1
  B  B35  1  0.59732800  0.14393300  0.32329800  1
  O  O36  1  0.05319000  0.13310800  0.83999900  1
  O  O37  1  0.94681000  0.86689200  0.16000100  1
  O  O38  1  0.72453200  0.30420600  0.67172200  1
  O  O39  1  0.27546800  0.69579400  0.32827800  1
  O  O40  1  0.17727100  0.32984800  0.94104300  1
  O  O41  1  0.82272900  0.67015200  0.05895700  1
  O  O42  1  0.49077300  0.34142700  0.55864700  1
  O  O43  1  0.50922700  0.65857300  0.44135300  1
  O  O44  1  0.80189500  0.71496600  0.71673700  1
  O  O45  1  0.19810500  0.28503400  0.28326300  1
  O  O46  1  0.16274000  0.00617000  0.90441700  1
  O  O47  1  0.83726000  0.99383000  0.09558300  1
  O  O48  1  0.92099000  0.46087700  0.82218400  1
  O  O49  1  0.07901000  0.53912300  0.17781600  1
  O  O50  1  0.91350700  0.27226000  0.80104700  1
  O  O51  1  0.08649300  0.72774000  0.19895300  1
  O  O52  1  0.24021500  0.21927500  0.41907800  1
  O  O53  1  0.75978500  0.78072500  0.58092200  1
  O  O54  1  0.88717200  0.90993300  0.77138000  1
  O  O55  1  0.11282800  0.09006700  0.22862000  1
  O  O56  1  0.72665600  0.48338900  0.68118700  1
  O  O57  1  0.27334400  0.51661100  0.31881300  1
  O  O58  1  0.54798900  0.84234400  0.74097500  1
  O  O59  1  0.45201100  0.15765600  0.25902500  1
  O  O60  1  0.07617000  0.30709900  0.66198600  1
  O  O61  1  0.92383000  0.69290100  0.33801400  1
  O  O62  1  0.23869200  0.20738100  0.74281900  1
  O  O63  1  0.76130800  0.79261900  0.25718100  1
  O  O64  1  0.33990500  0.18411400  0.57093500  1
  O  O65  1  0.66009500  0.81588600  0.42906500  1
  O  O66  1  0.09395300  0.80653300  0.83365700  1
  O  O67  1  0.90604700  0.19346700  0.16634300  1
  O  O68  1  0.21275700  0.87392800  0.70822300  1
  O  O69  1  0.78724300  0.12607200  0.29177700  1
  O  O70  1  0.71468000  0.80325000  0.00308600  1
  O  O71  1  0.28532000  0.19675000  0.99691400  1
  O  O72  1  0.44056700  0.85169300  0.57568700  1
  O  O73  1  0.55943300  0.14830700  0.42431300  1
  O  O74  1  0.67321700  0.60473900  0.87609700  1
  O  O75  1  0.32678300  0.39526100  0.12390300  1
  O  O76  1  0.98138000  0.62693800  0.80483600  1
  O  O77  1  0.01862000  0.37306200  0.19516400  1
