# generated using pymatgen
data_Er14Ag51
_symmetry_space_group_name_H-M   'P 1'
_cell_length_a   12.72477440
_cell_length_b   12.72477440
_cell_length_c   9.34994000
_cell_angle_alpha   90.00000000
_cell_angle_beta   90.00000000
_cell_angle_gamma   120.00000206
_symmetry_Int_Tables_number   1
_chemical_formula_structural   Er14Ag51
_chemical_formula_sum   'Er14 Ag51'
_cell_volume   1311.11150755
_cell_formula_units_Z   1
loop_
 _symmetry_equiv_pos_site_id
 _symmetry_equiv_pos_as_xyz
  1  'x, y, z'
loop_
 _atom_site_type_symbol
 _atom_site_label
 _atom_site_symmetry_multiplicity
 _atom_site_fract_x
 _atom_site_fract_y
 _atom_site_fract_z
 _atom_site_occupancy
  Er  Er0  1  0.46733100  0.32955000  0.50000000  1
  Er  Er1  1  0.86222000  0.53266900  0.50000000  1
  Er  Er2  1  0.67045000  0.13778000  0.50000000  1
  Er  Er3  1  0.53272500  0.67165200  0.50000000  1
  Er  Er4  1  0.13892700  0.46727500  0.50000000  1
  Er  Er5  1  0.32834800  0.86107300  0.50000000  1
  Er  Er6  1  0.11287900  0.72702300  0.00000000  1
  Er  Er7  1  0.61414300  0.88712100  0.00000000  1
  Er  Er8  1  0.27297700  0.38585700  0.00000000  1
  Er  Er9  1  0.88307500  0.28342600  0.00000000  1
  Er  Er10  1  0.40035100  0.11692500  0.00000000  1
  Er  Er11  1  0.71657400  0.59964900  0.00000000  1
  Er  Er12  1  0.00000000  0.00000000  0.69162100  1
  Er  Er13  1  0.00000000  0.00000000  0.30837900  1
  Ag  Ag14  1  0.49276100  0.37785600  0.84822300  1
  Ag  Ag15  1  0.88509500  0.50723900  0.84822300  1
  Ag  Ag16  1  0.62214400  0.11490500  0.84822300  1
  Ag  Ag17  1  0.50513400  0.62073600  0.84873900  1
  Ag  Ag18  1  0.11560200  0.49486600  0.84873900  1
  Ag  Ag19  1  0.37926400  0.88439800  0.84873900  1
  Ag  Ag20  1  0.50513400  0.62073600  0.15126100  1
  Ag  Ag21  1  0.11560200  0.49486600  0.15126100  1
  Ag  Ag22  1  0.37926400  0.88439800  0.15126100  1
  Ag  Ag23  1  0.49276100  0.37785600  0.15177700  1
  Ag  Ag24  1  0.88509500  0.50723900  0.15177700  1
  Ag  Ag25  1  0.62214400  0.11490500  0.15177700  1
  Ag  Ag26  1  0.05937100  0.82170200  0.50000000  1
  Ag  Ag27  1  0.76233100  0.94062900  0.50000000  1
  Ag  Ag28  1  0.17829800  0.23766900  0.50000000  1
  Ag  Ag29  1  0.93980600  0.17832400  0.50000000  1
  Ag  Ag30  1  0.23851800  0.06019400  0.50000000  1
  Ag  Ag31  1  0.82167600  0.76148200  0.50000000  1
  Ag  Ag32  1  0.66666700  0.33333300  0.00000000  1
  Ag  Ag33  1  0.33333300  0.66666700  0.00000000  1
  Ag  Ag34  1  0.10506900  0.66568700  0.66712800  1
  Ag  Ag35  1  0.56061800  0.89493100  0.66712800  1
  Ag  Ag36  1  0.33431300  0.43938200  0.66712800  1
  Ag  Ag37  1  0.89440300  0.33495100  0.66662400  1
  Ag  Ag38  1  0.44054800  0.10559700  0.66662400  1
  Ag  Ag39  1  0.66504900  0.55945200  0.66662400  1
  Ag  Ag40  1  0.89440300  0.33495100  0.33337600  1
  Ag  Ag41  1  0.44054800  0.10559700  0.33337600  1
  Ag  Ag42  1  0.66504900  0.55945200  0.33337600  1
  Ag  Ag43  1  0.10506900  0.66568700  0.33287200  1
  Ag  Ag44  1  0.56061800  0.89493100  0.33287200  1
  Ag  Ag45  1  0.33431300  0.43938200  0.33287200  1
  Ag  Ag46  1  0.19140000  0.92290300  0.76175000  1
  Ag  Ag47  1  0.73150300  0.80860000  0.76175000  1
  Ag  Ag48  1  0.07709700  0.26849700  0.76175000  1
  Ag  Ag49  1  0.81050200  0.07402300  0.76825200  1
  Ag  Ag50  1  0.26352100  0.18949800  0.76825200  1
  Ag  Ag51  1  0.92597700  0.73647900  0.76825200  1
  Ag  Ag52  1  0.81050200  0.07402300  0.23174800  1
  Ag  Ag53  1  0.26352100  0.18949800  0.23174800  1
  Ag  Ag54  1  0.92597700  0.73647900  0.23174800  1
  Ag  Ag55  1  0.19140000  0.92290300  0.23825000  1
  Ag  Ag56  1  0.73150300  0.80860000  0.23825000  1
  Ag  Ag57  1  0.07709700  0.26849700  0.23825000  1
  Ag  Ag58  1  0.66666700  0.33333300  0.69459100  1
  Ag  Ag59  1  0.33333300  0.66666700  0.69479000  1
  Ag  Ag60  1  0.33333300  0.66666700  0.30521000  1
  Ag  Ag61  1  0.66666700  0.33333300  0.30540900  1
  Ag  Ag62  1  0.13545000  0.02033600  0.00000000  1
  Ag  Ag63  1  0.88488600  0.86455000  0.00000000  1
  Ag  Ag64  1  0.97966400  0.11511400  0.00000000  1
