# generated using pymatgen
data_Sr2LiMgSi3
_symmetry_space_group_name_H-M   'P 1'
_cell_length_a   10.01309334
_cell_length_b   10.01309334
_cell_length_c   7.18534000
_cell_angle_alpha   90.00000000
_cell_angle_beta   90.00000000
_cell_angle_gamma   153.30907219
_symmetry_Int_Tables_number   1
_chemical_formula_structural   Sr2LiMgSi3
_chemical_formula_sum   'Sr4 Li2 Mg2 Si6'
_cell_volume   323.59505897
_cell_formula_units_Z   2
loop_
 _symmetry_equiv_pos_site_id
 _symmetry_equiv_pos_as_xyz
  1  'x, y, z'
loop_
 _atom_site_type_symbol
 _atom_site_label
 _atom_site_symmetry_multiplicity
 _atom_site_fract_x
 _atom_site_fract_y
 _atom_site_fract_z
 _atom_site_occupancy
  Sr  Sr0  1  0.44419000  0.55581000  0.75198600  1
  Sr  Sr1  1  0.55581000  0.44419000  0.25198600  1
  Sr  Sr2  1  0.65394200  0.34605800  0.73884400  1
  Sr  Sr3  1  0.34605800  0.65394200  0.23884400  1
  Li  Li4  1  0.80960500  0.19039500  0.94934900  1
  Li  Li5  1  0.19039500  0.80960500  0.44934900  1
  Mg  Mg6  1  0.19088100  0.80911900  0.05638500  1
  Mg  Mg7  1  0.80911900  0.19088100  0.55638500  1
  Si  Si8  1  0.27837200  0.72162800  0.75104000  1
  Si  Si9  1  0.72162800  0.27837200  0.25104000  1
  Si  Si10  1  0.94678000  0.05322000  0.41787400  1
  Si  Si11  1  0.05259000  0.94741000  0.58452200  1
  Si  Si12  1  0.94741000  0.05259000  0.08452200  1
  Si  Si13  1  0.05322000  0.94678000  0.91787400  1
