# generated using pymatgen
data_K2Rb4Fe2O5
_symmetry_space_group_name_H-M   'P 1'
_cell_length_a   6.97757748
_cell_length_b   6.99724387
_cell_length_c   12.03509900
_cell_angle_alpha   89.99911434
_cell_angle_beta   89.99963859
_cell_angle_gamma   90.09763847
_symmetry_Int_Tables_number   1
_chemical_formula_structural   K2Rb4Fe2O5
_chemical_formula_sum   'K4 Rb8 Fe4 O10'
_cell_volume   587.59854885
_cell_formula_units_Z   2
loop_
 _symmetry_equiv_pos_site_id
 _symmetry_equiv_pos_as_xyz
  1  'x, y, z'
loop_
 _atom_site_type_symbol
 _atom_site_label
 _atom_site_symmetry_multiplicity
 _atom_site_fract_x
 _atom_site_fract_y
 _atom_site_fract_z
 _atom_site_occupancy
  K  K0  1  0.49999900  0.49997900  0.72291000  1
  K  K1  1  0.50000500  0.00002200  0.22291300  1
  K  K2  1  0.49999300  0.49998000  0.27708900  1
  K  K3  1  0.50000300  0.00001900  0.77708300  1
  Rb  Rb4  1  0.00000700  0.49998400  0.74172000  1
  Rb  Rb5  1  0.99999100  0.00000700  0.24172000  1
  Rb  Rb6  1  0.00000700  0.49999300  0.25828200  1
  Rb  Rb7  1  0.99999000  0.00000200  0.75827600  1
  Rb  Rb8  1  0.68373400  0.33562500  0.99999800  1
  Rb  Rb9  1  0.68376600  0.83564500  0.49999900  1
  Rb  Rb10  1  0.31624600  0.66435100  0.99999500  1
  Rb  Rb11  1  0.31626000  0.16435700  0.50000100  1
  Fe  Fe12  1  0.80480100  0.30200900  0.49999200  1
  Fe  Fe13  1  0.19516800  0.19802600  0.99998400  1
  Fe  Fe14  1  0.80479700  0.80200600  0.00000300  1
  Fe  Fe15  1  0.19522500  0.69798400  0.50000600  1
  O  O16  1  0.00001400  0.00001000  0.99999900  1
  O  O17  1  0.99999800  0.49999900  0.49999600  1
  O  O18  1  0.71228700  0.70367700  0.13692800  1
  O  O19  1  0.71231000  0.20367500  0.63690800  1
  O  O20  1  0.28768800  0.29632700  0.86308500  1
  O  O21  1  0.28767300  0.79633600  0.36308800  1
  O  O22  1  0.28768800  0.29634700  0.13691800  1
  O  O23  1  0.28771800  0.79630200  0.63691500  1
  O  O24  1  0.71231800  0.70367200  0.86309900  1
  O  O25  1  0.71231400  0.20366500  0.36309000  1
