# generated using pymatgen
data_CaH24(BrN4)2
_symmetry_space_group_name_H-M   'P 1'
_cell_length_a   12.80788700
_cell_length_b   7.75496900
_cell_length_c   15.99016000
_cell_angle_alpha   90.00000000
_cell_angle_beta   90.00000000
_cell_angle_gamma   90.00000000
_symmetry_Int_Tables_number   1
_chemical_formula_structural   CaH24(BrN4)2
_chemical_formula_sum   'Ca4 H96 Br8 N32'
_cell_volume   1588.21891054
_cell_formula_units_Z   4
loop_
 _symmetry_equiv_pos_site_id
 _symmetry_equiv_pos_as_xyz
  1  'x, y, z'
loop_
 _atom_site_type_symbol
 _atom_site_label
 _atom_site_symmetry_multiplicity
 _atom_site_fract_x
 _atom_site_fract_y
 _atom_site_fract_z
 _atom_site_occupancy
  Ca  Ca0  1  0.73593200  0.25000000  0.64079900  1
  Ca  Ca1  1  0.23593200  0.25000000  0.85920100  1
  Ca  Ca2  1  0.26406800  0.75000000  0.35920100  1
  Ca  Ca3  1  0.76406800  0.75000000  0.14079900  1
  H  H4  1  0.52606600  0.06849300  0.61630500  1
  H  H5  1  0.02606600  0.43150700  0.88369500  1
  H  H6  1  0.47393400  0.56849300  0.38369500  1
  H  H7  1  0.97393400  0.93150700  0.11630500  1
  H  H8  1  0.47393400  0.93150700  0.38369500  1
  H  H9  1  0.97393400  0.56849300  0.11630500  1
  H  H10  1  0.52606600  0.43150700  0.61630500  1
  H  H11  1  0.02606600  0.06849300  0.88369500  1
  H  H12  1  0.60999800  0.92711200  0.58179100  1
  H  H13  1  0.10999800  0.57288800  0.91820900  1
  H  H14  1  0.39000200  0.42711200  0.41820900  1
  H  H15  1  0.89000200  0.07288800  0.08179100  1
  H  H16  1  0.39000200  0.07288800  0.41820900  1
  H  H17  1  0.89000200  0.42711200  0.08179100  1
  H  H18  1  0.60999800  0.57288800  0.58179100  1
  H  H19  1  0.10999800  0.92711200  0.91820900  1
  H  H20  1  0.58310800  0.93668100  0.68253900  1
  H  H21  1  0.08310800  0.56331900  0.81746100  1
  H  H22  1  0.41689200  0.43668100  0.31746100  1
  H  H23  1  0.91689200  0.06331900  0.18253900  1
  H  H24  1  0.41689200  0.06331900  0.31746100  1
  H  H25  1  0.91689200  0.43668100  0.18253900  1
  H  H26  1  0.58310800  0.56331900  0.68253900  1
  H  H27  1  0.08310800  0.93668100  0.81746100  1
  H  H28  1  0.88159700  0.95326700  0.72619100  1
  H  H29  1  0.38159700  0.54673300  0.77380900  1
  H  H30  1  0.11840300  0.45326700  0.27380900  1
  H  H31  1  0.61840300  0.04673300  0.22619100  1
  H  H32  1  0.11840300  0.04673300  0.27380900  1
  H  H33  1  0.61840300  0.45326700  0.22619100  1
  H  H34  1  0.88159700  0.54673300  0.72619100  1
  H  H35  1  0.38159700  0.95326700  0.77380900  1
  H  H36  1  0.83877500  0.08300200  0.80039200  1
  H  H37  1  0.33877500  0.41699800  0.69960800  1
  H  H38  1  0.16122500  0.58300200  0.19960800  1
  H  H39  1  0.66122500  0.91699800  0.30039200  1
  H  H40  1  0.16122500  0.91699800  0.19960800  1
  H  H41  1  0.66122500  0.58300200  0.30039200  1
  H  H42  1  0.83877500  0.41699800  0.80039200  1
  H  H43  1  0.33877500  0.08300200  0.69960800  1
  H  H44  1  0.75988100  0.94284100  0.75788600  1
  H  H45  1  0.25988100  0.55715900  0.74211400  1
  H  H46  1  0.24011900  0.44284100  0.24211400  1
  H  H47  1  0.74011900  0.05715900  0.25788600  1
  H  H48  1  0.24011900  0.05715900  0.24211400  1
  H  H49  1  0.74011900  0.44284100  0.25788600  1
  H  H50  1  0.75988100  0.55715900  0.75788600  1
  H  H51  1  0.25988100  0.94284100  0.74211400  1
  H  H52  1  0.80653900  0.94242000  0.52917600  1
  H  H53  1  0.30653900  0.55758000  0.97082400  1
  H  H54  1  0.19346100  0.44242000  0.47082400  1
  H  H55  1  0.69346100  0.05758000  0.02917600  1
  H  H56  1  0.19346100  0.05758000  0.47082400  1
  H  H57  1  0.69346100  0.44242000  0.02917600  1
  H  H58  1  0.80653900  0.55758000  0.52917600  1
  H  H59  1  0.30653900  0.94242000  0.97082400  1
  H  H60  1  0.88304300  0.09662200  0.49717300  1
  H  H61  1  0.38304300  0.40337800  0.00282700  1
  H  H62  1  0.11695700  0.59662200  0.50282700  1
  H  H63  1  0.61695700  0.90337800  0.99717300  1
  H  H64  1  0.11695700  0.90337800  0.50282700  1
  H  H65  1  0.61695700  0.59662200  0.99717300  1
  H  H66  1  0.88304300  0.40337800  0.49717300  1
  H  H67  1  0.38304300  0.09662200  0.00282700  1
  H  H68  1  0.91570900  0.98056000  0.57909900  1
  H  H69  1  0.41570900  0.51944000  0.92090100  1
  H  H70  1  0.08429100  0.48056000  0.42090100  1
  H  H71  1  0.58429100  0.01944000  0.07909900  1
  H  H72  1  0.08429100  0.01944000  0.42090100  1
  H  H73  1  0.58429100  0.48056000  0.07909900  1
  H  H74  1  0.91570900  0.51944000  0.57909900  1
  H  H75  1  0.41570900  0.98056000  0.92090100  1
  H  H76  1  0.68206800  0.14413800  0.45164200  1
  H  H77  1  0.18206800  0.35586200  0.04835800  1
  H  H78  1  0.31793200  0.64413800  0.54835800  1
  H  H79  1  0.81793200  0.85586200  0.95164200  1
  H  H80  1  0.31793200  0.85586200  0.54835800  1
  H  H81  1  0.81793200  0.64413800  0.95164200  1
  H  H82  1  0.68206800  0.35586200  0.45164200  1
  H  H83  1  0.18206800  0.14413800  0.04835800  1
  H  H84  1  0.57997100  0.25000000  0.48498400  1
  H  H85  1  0.07997100  0.25000000  0.01501600  1
  H  H86  1  0.42002900  0.75000000  0.51501600  1
  H  H87  1  0.92002900  0.75000000  0.98498400  1
  H  H88  1  0.58150200  0.14386100  0.79872700  1
  H  H89  1  0.08150200  0.35613900  0.70127300  1
  H  H90  1  0.41849800  0.64386100  0.20127300  1
  H  H91  1  0.91849800  0.85613900  0.29872700  1
  H  H92  1  0.41849800  0.85613900  0.20127300  1
  H  H93  1  0.91849800  0.64386100  0.29872700  1
  H  H94  1  0.58150200  0.35613900  0.79872700  1
  H  H95  1  0.08150200  0.14386100  0.70127300  1
  H  H96  1  0.67928600  0.25000000  0.83871100  1
  H  H97  1  0.17928600  0.25000000  0.66128900  1
  H  H98  1  0.32071400  0.75000000  0.16128900  1
  H  H99  1  0.82071400  0.75000000  0.33871100  1
  Br  Br100  1  0.35256800  0.25000000  0.55511600  1
  Br  Br101  1  0.85256800  0.25000000  0.94488400  1
  Br  Br102  1  0.64743200  0.75000000  0.44488400  1
  Br  Br103  1  0.14743200  0.75000000  0.05511600  1
  Br  Br104  1  0.94182800  0.25000000  0.32919200  1
  Br  Br105  1  0.44182800  0.25000000  0.17080800  1
  Br  Br106  1  0.05817200  0.75000000  0.67080800  1
  Br  Br107  1  0.55817200  0.75000000  0.82919200  1
  N  N108  1  0.59599700  0.01113700  0.63025800  1
  N  N109  1  0.09599700  0.48886300  0.86974200  1
  N  N110  1  0.40400300  0.51113700  0.36974200  1
  N  N111  1  0.90400300  0.98886300  0.13025800  1
  N  N112  1  0.40400300  0.98886300  0.36974200  1
  N  N113  1  0.90400300  0.51113700  0.13025800  1
  N  N114  1  0.59599700  0.48886300  0.63025800  1
  N  N115  1  0.09599700  0.01113700  0.86974200  1
  N  N116  1  0.81931900  0.02710900  0.74408400  1
  N  N117  1  0.31931900  0.47289100  0.75591600  1
  N  N118  1  0.18068100  0.52710900  0.25591600  1
  N  N119  1  0.68068100  0.97289100  0.24408400  1
  N  N120  1  0.18068100  0.97289100  0.25591600  1
  N  N121  1  0.68068100  0.52710900  0.24408400  1
  N  N122  1  0.81931900  0.47289100  0.74408400  1
  N  N123  1  0.31931900  0.02710900  0.75591600  1
  N  N124  1  0.85408900  0.03981200  0.55033400  1
  N  N125  1  0.35408900  0.46018800  0.94966600  1
  N  N126  1  0.14591100  0.53981200  0.44966600  1
  N  N127  1  0.64591100  0.96018800  0.05033400  1
  N  N128  1  0.14591100  0.96018800  0.44966600  1
  N  N129  1  0.64591100  0.53981200  0.05033400  1
  N  N130  1  0.85408900  0.46018800  0.55033400  1
  N  N131  1  0.35408900  0.03981200  0.94966600  1
  N  N132  1  0.65991600  0.25000000  0.48543900  1
  N  N133  1  0.15991600  0.25000000  0.01456100  1
  N  N134  1  0.34008400  0.75000000  0.51456100  1
  N  N135  1  0.84008400  0.75000000  0.98543900  1
  N  N136  1  0.62768000  0.25000000  0.78975200  1
  N  N137  1  0.12768000  0.25000000  0.71024800  1
  N  N138  1  0.37232000  0.75000000  0.21024800  1
  N  N139  1  0.87232000  0.75000000  0.28975200  1
