# generated using pymatgen
data_Mg4Ta2O9
_symmetry_space_group_name_H-M   'P 1'
_cell_length_a   5.21199245
_cell_length_b   5.21199245
_cell_length_c   14.18669400
_cell_angle_alpha   90.00000000
_cell_angle_beta   90.00000000
_cell_angle_gamma   120.00000576
_symmetry_Int_Tables_number   1
_chemical_formula_structural   Mg4Ta2O9
_chemical_formula_sum   'Mg8 Ta4 O18'
_cell_volume   333.74853211
_cell_formula_units_Z   2
loop_
 _symmetry_equiv_pos_site_id
 _symmetry_equiv_pos_as_xyz
  1  'x, y, z'
loop_
 _atom_site_type_symbol
 _atom_site_label
 _atom_site_symmetry_multiplicity
 _atom_site_fract_x
 _atom_site_fract_y
 _atom_site_fract_z
 _atom_site_occupancy
  Mg  Mg0  1  0.33333300  0.66666700  0.01651000  1
  Mg  Mg1  1  0.66666700  0.33333300  0.48349000  1
  Mg  Mg2  1  0.66666700  0.33333300  0.98349000  1
  Mg  Mg3  1  0.33333300  0.66666700  0.51651000  1
  Mg  Mg4  1  0.33333300  0.66666700  0.80892600  1
  Mg  Mg5  1  0.66666700  0.33333300  0.69107400  1
  Mg  Mg6  1  0.66666700  0.33333300  0.19107400  1
  Mg  Mg7  1  0.33333300  0.66666700  0.30892600  1
  Ta  Ta8  1  0.00000000  0.00000000  0.35711600  1
  Ta  Ta9  1  0.00000000  0.00000000  0.14288400  1
  Ta  Ta10  1  0.00000000  0.00000000  0.64288400  1
  Ta  Ta11  1  0.00000000  0.00000000  0.85711600  1
  O  O12  1  0.28814900  0.28814900  0.75000000  1
  O  O13  1  0.00000000  0.71185100  0.75000000  1
  O  O14  1  0.71185100  0.00000000  0.75000000  1
  O  O15  1  0.71185100  0.71185100  0.25000000  1
  O  O16  1  0.00000000  0.28814900  0.25000000  1
  O  O17  1  0.28814900  0.00000000  0.25000000  1
  O  O18  1  0.68292300  0.65411300  0.58472200  1
  O  O19  1  0.34588700  0.02880900  0.58472200  1
  O  O20  1  0.97119100  0.31707700  0.58472200  1
  O  O21  1  0.02880900  0.34588700  0.91527800  1
  O  O22  1  0.31707700  0.97119100  0.91527800  1
  O  O23  1  0.65411300  0.68292300  0.91527800  1
  O  O24  1  0.34588700  0.31707700  0.08472200  1
  O  O25  1  0.68292300  0.02880900  0.08472200  1
  O  O26  1  0.97119100  0.65411300  0.08472200  1
  O  O27  1  0.02880900  0.68292300  0.41527800  1
  O  O28  1  0.65411300  0.97119100  0.41527800  1
  O  O29  1  0.31707700  0.34588700  0.41527800  1
