# generated using pymatgen
data_HoSiPd2
_symmetry_space_group_name_H-M   'P 1'
_cell_length_a   5.53923400
_cell_length_b   6.97998300
_cell_length_c   7.34132900
_cell_angle_alpha   90.00000000
_cell_angle_beta   90.00000000
_cell_angle_gamma   90.00000000
_symmetry_Int_Tables_number   1
_chemical_formula_structural   HoSiPd2
_chemical_formula_sum   'Ho4 Si4 Pd8'
_cell_volume   283.84337632
_cell_formula_units_Z   4
loop_
 _symmetry_equiv_pos_site_id
 _symmetry_equiv_pos_as_xyz
  1  'x, y, z'
loop_
 _atom_site_type_symbol
 _atom_site_label
 _atom_site_symmetry_multiplicity
 _atom_site_fract_x
 _atom_site_fract_y
 _atom_site_fract_z
 _atom_site_occupancy
  Ho  Ho0  1  0.35551800  0.75000000  0.02782100  1
  Ho  Ho1  1  0.14448200  0.75000000  0.52782100  1
  Ho  Ho2  1  0.64448200  0.25000000  0.97217900  1
  Ho  Ho3  1  0.85551800  0.25000000  0.47217900  1
  Si  Si4  1  0.64515500  0.75000000  0.37744700  1
  Si  Si5  1  0.85484500  0.75000000  0.87744700  1
  Si  Si6  1  0.35484500  0.25000000  0.62255300  1
  Si  Si7  1  0.14515500  0.25000000  0.12255300  1
  Pd  Pd8  1  0.90587200  0.55085600  0.17731200  1
  Pd  Pd9  1  0.59412800  0.94914400  0.67731200  1
  Pd  Pd10  1  0.09412800  0.05085600  0.82268800  1
  Pd  Pd11  1  0.40587200  0.44914400  0.32268800  1
  Pd  Pd12  1  0.09412800  0.44914400  0.82268800  1
  Pd  Pd13  1  0.40587200  0.05085600  0.32268800  1
  Pd  Pd14  1  0.90587200  0.94914400  0.17731200  1
  Pd  Pd15  1  0.59412800  0.55085600  0.67731200  1
