# generated using pymatgen
data_K2NaZn(BO2)5
_symmetry_space_group_name_H-M   'P 1'
_cell_length_a   7.68406980
_cell_length_b   7.68406980
_cell_length_c   19.64192342
_cell_angle_alpha   85.07990114
_cell_angle_beta   85.07990114
_cell_angle_gamma   116.72529648
_symmetry_Int_Tables_number   1
_chemical_formula_structural   K2NaZn(BO2)5
_chemical_formula_sum   'K8 Na4 Zn4 B20 O40'
_cell_volume   1021.92207196
_cell_formula_units_Z   4
loop_
 _symmetry_equiv_pos_site_id
 _symmetry_equiv_pos_as_xyz
  1  'x, y, z'
loop_
 _atom_site_type_symbol
 _atom_site_label
 _atom_site_symmetry_multiplicity
 _atom_site_fract_x
 _atom_site_fract_y
 _atom_site_fract_z
 _atom_site_occupancy
  K  K0  1  0.00237400  0.18243900  0.06227300  1
  K  K1  1  0.81756100  0.99762600  0.43772700  1
  K  K2  1  0.99762600  0.81756100  0.93772700  1
  K  K3  1  0.18243900  0.00237400  0.56227300  1
  K  K4  1  0.45982200  0.62138300  0.07737200  1
  K  K5  1  0.37861700  0.54017800  0.42262800  1
  K  K6  1  0.54017800  0.37861700  0.92262800  1
  K  K7  1  0.62138300  0.45982200  0.57737200  1
  Na  Na8  1  0.15286200  0.84713800  0.25000000  1
  Na  Na9  1  0.84713800  0.15286200  0.75000000  1
  Na  Na10  1  0.65108700  0.34891300  0.25000000  1
  Na  Na11  1  0.34891300  0.65108700  0.75000000  1
  Zn  Zn12  1  0.95837300  0.63757300  0.11053200  1
  Zn  Zn13  1  0.36242700  0.04162700  0.38946800  1
  Zn  Zn14  1  0.04162700  0.36242700  0.88946800  1
  Zn  Zn15  1  0.63757300  0.95837300  0.61053200  1
  B  B16  1  0.32091900  0.99513300  0.08338700  1
  B  B17  1  0.00486700  0.67908100  0.41661300  1
  B  B18  1  0.67908100  0.00486700  0.91661300  1
  B  B19  1  0.99513300  0.32091900  0.58338700  1
  B  B20  1  0.62940300  0.30267900  0.08131200  1
  B  B21  1  0.69732100  0.37059700  0.41868800  1
  B  B22  1  0.37059700  0.69732100  0.91868800  1
  B  B23  1  0.30267900  0.62940300  0.58131200  1
  B  B24  1  0.56094800  0.00353900  0.16714100  1
  B  B25  1  0.99646100  0.43905200  0.33285900  1
  B  B26  1  0.43905200  0.99646100  0.83285900  1
  B  B27  1  0.00353900  0.56094800  0.66714100  1
  B  B28  1  0.72883300  0.79790900  0.20441200  1
  B  B29  1  0.20209100  0.27116700  0.29558800  1
  B  B30  1  0.27116700  0.20209100  0.79558800  1
  B  B31  1  0.79790900  0.72883300  0.70441200  1
  B  B32  1  0.56732600  0.90454900  0.29379200  1
  B  B33  1  0.09545100  0.43267400  0.20620800  1
  B  B34  1  0.43267400  0.09545100  0.70620800  1
  B  B35  1  0.90454900  0.56732600  0.79379200  1
  O  O36  1  0.14958000  0.89979000  0.05817000  1
  O  O37  1  0.10021000  0.85042000  0.44183000  1
  O  O38  1  0.85042000  0.10021000  0.94183000  1
  O  O39  1  0.89979000  0.14958000  0.55817000  1
  O  O40  1  0.37349200  0.90955900  0.13769000  1
  O  O41  1  0.09044100  0.62650800  0.36231000  1
  O  O42  1  0.62650800  0.09044100  0.86231000  1
  O  O43  1  0.90955900  0.37349200  0.63769000  1
  O  O44  1  0.45119400  0.19326300  0.05443300  1
  O  O45  1  0.80673700  0.54880600  0.44556700  1
  O  O46  1  0.54880600  0.80673700  0.94556700  1
  O  O47  1  0.19326300  0.45119400  0.55443300  1
  O  O48  1  0.67411000  0.21244600  0.13628000  1
  O  O49  1  0.78755400  0.32589000  0.36372000  1
  O  O50  1  0.32589000  0.78755400  0.86372000  1
  O  O51  1  0.21244600  0.67411000  0.63628000  1
  O  O52  1  0.74613800  0.49210200  0.05317700  1
  O  O53  1  0.50789800  0.25386200  0.44682300  1
  O  O54  1  0.25386200  0.50789800  0.94682300  1
  O  O55  1  0.49210200  0.74613800  0.55317700  1
  O  O56  1  0.67926600  0.89838500  0.15318800  1
  O  O57  1  0.10161500  0.32073400  0.34681200  1
  O  O58  1  0.32073400  0.10161500  0.84681200  1
  O  O59  1  0.89838500  0.67926600  0.65318800  1
  O  O60  1  0.51266400  0.99562100  0.24164400  1
  O  O61  1  0.00437900  0.48733600  0.25835600  1
  O  O62  1  0.48733600  0.00437900  0.75835600  1
  O  O63  1  0.99562100  0.51266400  0.74164400  1
  O  O64  1  0.67441800  0.80366800  0.27466100  1
  O  O65  1  0.19633200  0.32558200  0.22533900  1
  O  O66  1  0.32558200  0.19633200  0.72533900  1
  O  O67  1  0.80366800  0.67441800  0.77466100  1
  O  O68  1  0.82510600  0.69304300  0.19084300  1
  O  O69  1  0.30695700  0.17489400  0.30915700  1
  O  O70  1  0.17489400  0.30695700  0.80915700  1
  O  O71  1  0.69304300  0.82510600  0.69084300  1
  O  O72  1  0.51942000  0.90751400  0.36103300  1
  O  O73  1  0.09248600  0.48058000  0.13896700  1
  O  O74  1  0.48058000  0.09248600  0.63896700  1
  O  O75  1  0.90751400  0.51942000  0.86103300  1
