# generated using pymatgen
data_Hf9Mo4Se
_symmetry_space_group_name_H-M   'P 1'
_cell_length_a   8.73604757
_cell_length_b   8.73604757
_cell_length_c   8.63122400
_cell_angle_alpha   90.00000000
_cell_angle_beta   90.00000000
_cell_angle_gamma   119.99999674
_symmetry_Int_Tables_number   1
_chemical_formula_structural   Hf9Mo4Se
_chemical_formula_sum   'Hf18 Mo8 Se2'
_cell_volume   570.47026727
_cell_formula_units_Z   2
loop_
 _symmetry_equiv_pos_site_id
 _symmetry_equiv_pos_as_xyz
  1  'x, y, z'
loop_
 _atom_site_type_symbol
 _atom_site_label
 _atom_site_symmetry_multiplicity
 _atom_site_fract_x
 _atom_site_fract_y
 _atom_site_fract_z
 _atom_site_occupancy
  Hf  Hf0  1  0.54073400  0.08146800  0.25000000  1
  Hf  Hf1  1  0.45926600  0.91853200  0.75000000  1
  Hf  Hf2  1  0.91853200  0.45926600  0.25000000  1
  Hf  Hf3  1  0.08146800  0.54073400  0.75000000  1
  Hf  Hf4  1  0.54073400  0.45926600  0.25000000  1
  Hf  Hf5  1  0.45926600  0.54073400  0.75000000  1
  Hf  Hf6  1  0.19498700  0.38997300  0.04476700  1
  Hf  Hf7  1  0.80501300  0.61002700  0.95523300  1
  Hf  Hf8  1  0.61002700  0.80501300  0.04476700  1
  Hf  Hf9  1  0.80501300  0.61002700  0.54476700  1
  Hf  Hf10  1  0.38997300  0.19498700  0.95523300  1
  Hf  Hf11  1  0.19498700  0.38997300  0.45523300  1
  Hf  Hf12  1  0.19498700  0.80501300  0.04476700  1
  Hf  Hf13  1  0.38997300  0.19498700  0.54476700  1
  Hf  Hf14  1  0.80501300  0.19498700  0.95523300  1
  Hf  Hf15  1  0.61002700  0.80501300  0.45523300  1
  Hf  Hf16  1  0.80501300  0.19498700  0.54476700  1
  Hf  Hf17  1  0.19498700  0.80501300  0.45523300  1
  Mo  Mo18  1  0.00000000  0.00000000  0.00000000  1
  Mo  Mo19  1  0.00000000  0.00000000  0.50000000  1
  Mo  Mo20  1  0.88979300  0.77958700  0.25000000  1
  Mo  Mo21  1  0.11020700  0.22041300  0.75000000  1
  Mo  Mo22  1  0.22041300  0.11020700  0.25000000  1
  Mo  Mo23  1  0.77958700  0.88979300  0.75000000  1
  Mo  Mo24  1  0.88979300  0.11020700  0.25000000  1
  Mo  Mo25  1  0.11020700  0.88979300  0.75000000  1
  Se  Se26  1  0.33333300  0.66666700  0.25000000  1
  Se  Se27  1  0.66666700  0.33333300  0.75000000  1
