# generated using pymatgen
data_LaAl3Ni2
_symmetry_space_group_name_H-M   'P 1'
_cell_length_a   6.42882022
_cell_length_b   6.42882022
_cell_length_c   5.13388900
_cell_angle_alpha   90.00000000
_cell_angle_beta   90.00000000
_cell_angle_gamma   105.02246094
_symmetry_Int_Tables_number   1
_chemical_formula_structural   LaAl3Ni2
_chemical_formula_sum   'La2 Al6 Ni4'
_cell_volume   204.93076448
_cell_formula_units_Z   2
loop_
 _symmetry_equiv_pos_site_id
 _symmetry_equiv_pos_as_xyz
  1  'x, y, z'
loop_
 _atom_site_type_symbol
 _atom_site_label
 _atom_site_symmetry_multiplicity
 _atom_site_fract_x
 _atom_site_fract_y
 _atom_site_fract_z
 _atom_site_occupancy
  La  La0  1  0.65341900  0.65341900  0.25000000  1
  La  La1  1  0.34658100  0.34658100  0.75000000  1
  Al  Al2  1  0.06024000  0.06024000  0.25000000  1
  Al  Al3  1  0.93976000  0.93976000  0.75000000  1
  Al  Al4  1  0.08173200  0.47534400  0.25000000  1
  Al  Al5  1  0.91826800  0.52465600  0.75000000  1
  Al  Al6  1  0.47534400  0.08173200  0.25000000  1
  Al  Al7  1  0.52465600  0.91826800  0.75000000  1
  Ni  Ni8  1  0.79949500  0.20050500  0.00000000  1
  Ni  Ni9  1  0.20050500  0.79949500  0.00000000  1
  Ni  Ni10  1  0.20050500  0.79949500  0.50000000  1
  Ni  Ni11  1  0.79949500  0.20050500  0.50000000  1
