# generated using pymatgen
data_CsCuPSe3
_symmetry_space_group_name_H-M   'P 1'
_cell_length_a   13.50206100
_cell_length_b   10.21281500
_cell_length_c   11.02791120
_cell_angle_alpha   75.78403452
_cell_angle_beta   90.00000000
_cell_angle_gamma   90.00000000
_symmetry_Int_Tables_number   1
_chemical_formula_structural   CsCuPSe3
_chemical_formula_sum   'Cs8 Cu8 P8 Se24'
_cell_volume   1474.11539888
_cell_formula_units_Z   8
loop_
 _symmetry_equiv_pos_site_id
 _symmetry_equiv_pos_as_xyz
  1  'x, y, z'
loop_
 _atom_site_type_symbol
 _atom_site_label
 _atom_site_symmetry_multiplicity
 _atom_site_fract_x
 _atom_site_fract_y
 _atom_site_fract_z
 _atom_site_occupancy
  Cs  Cs0  1  0.32021800  0.38859600  0.11672600  1
  Cs  Cs1  1  0.82021800  0.61140400  0.38327400  1
  Cs  Cs2  1  0.67978200  0.61140400  0.88327400  1
  Cs  Cs3  1  0.17978200  0.38859600  0.61672600  1
  Cs  Cs4  1  0.15344100  0.86739800  0.16025000  1
  Cs  Cs5  1  0.65344100  0.13260200  0.33975000  1
  Cs  Cs6  1  0.84655900  0.13260200  0.83975000  1
  Cs  Cs7  1  0.34655900  0.86739800  0.66025000  1
  Cu  Cu8  1  0.45314100  0.45438000  0.40436300  1
  Cu  Cu9  1  0.95314100  0.54562000  0.09563700  1
  Cu  Cu10  1  0.54685900  0.54562000  0.59563700  1
  Cu  Cu11  1  0.04685900  0.45438000  0.90436300  1
  Cu  Cu12  1  0.40275600  0.98004400  0.03922400  1
  Cu  Cu13  1  0.90275600  0.01995600  0.46077600  1
  Cu  Cu14  1  0.59724400  0.01995600  0.96077600  1
  Cu  Cu15  1  0.09724400  0.98004400  0.53922400  1
  P  P16  1  0.04031300  0.78266900  0.83212100  1
  P  P17  1  0.54031300  0.21733100  0.66787900  1
  P  P18  1  0.95968700  0.21733100  0.16787900  1
  P  P19  1  0.45968700  0.78266900  0.33212100  1
  P  P20  1  0.46293400  0.28021200  0.83186900  1
  P  P21  1  0.96293400  0.71978800  0.66813100  1
  P  P22  1  0.53706600  0.71978800  0.16813100  1
  P  P23  1  0.03706600  0.28021200  0.33186900  1
  Se  Se24  1  0.16264300  0.63507600  0.88704700  1
  Se  Se25  1  0.66264300  0.36492400  0.61295300  1
  Se  Se26  1  0.83735700  0.36492400  0.11295300  1
  Se  Se27  1  0.33735700  0.63507600  0.38704700  1
  Se  Se28  1  0.17229700  0.15437400  0.37993800  1
  Se  Se29  1  0.67229700  0.84562600  0.12006200  1
  Se  Se30  1  0.82770300  0.84562600  0.62006200  1
  Se  Se31  1  0.32770300  0.15437400  0.87993800  1
  Se  Se32  1  0.40867400  0.99289900  0.25310300  1
  Se  Se33  1  0.90867400  0.00710100  0.24689700  1
  Se  Se34  1  0.59132600  0.00710100  0.74689700  1
  Se  Se35  1  0.09132600  0.99289900  0.75310300  1
  Se  Se36  1  0.07211500  0.22620400  0.01972300  1
  Se  Se37  1  0.57211500  0.77379600  0.48027700  1
  Se  Se38  1  0.92788500  0.77379600  0.98027700  1
  Se  Se39  1  0.42788500  0.22620400  0.51972300  1
  Se  Se40  1  0.57388400  0.24487900  0.98379400  1
  Se  Se41  1  0.07388400  0.75512100  0.51620600  1
  Se  Se42  1  0.42611600  0.75512100  0.01620600  1
  Se  Se43  1  0.92611600  0.24487900  0.48379400  1
  Se  Se44  1  0.57767600  0.50503000  0.24511500  1
  Se  Se45  1  0.07767600  0.49497000  0.25488500  1
  Se  Se46  1  0.42232400  0.49497000  0.75488500  1
  Se  Se47  1  0.92232400  0.50503000  0.74511500  1
