# generated using pymatgen
data_LiVCdF6
_symmetry_space_group_name_H-M   'P 1'
_cell_length_a   5.23443639
_cell_length_b   5.23443639
_cell_length_c   9.68369200
_cell_angle_alpha   90.00000000
_cell_angle_beta   90.00000000
_cell_angle_gamma   120.00000492
_symmetry_Int_Tables_number   1
_chemical_formula_structural   LiVCdF6
_chemical_formula_sum   'Li2 V2 Cd2 F12'
_cell_volume   229.77957980
_cell_formula_units_Z   2
loop_
 _symmetry_equiv_pos_site_id
 _symmetry_equiv_pos_as_xyz
  1  'x, y, z'
loop_
 _atom_site_type_symbol
 _atom_site_label
 _atom_site_symmetry_multiplicity
 _atom_site_fract_x
 _atom_site_fract_y
 _atom_site_fract_z
 _atom_site_occupancy
  Li  Li0  1  0.33333300  0.66666700  0.75000000  1
  Li  Li1  1  0.66666700  0.33333300  0.25000000  1
  V  V2  1  0.66666700  0.33333300  0.75000000  1
  V  V3  1  0.33333300  0.66666700  0.25000000  1
  Cd  Cd4  1  0.00000000  0.00000000  0.50000000  1
  Cd  Cd5  1  0.00000000  0.00000000  0.00000000  1
  F  F6  1  0.65299600  0.01274300  0.63681500  1
  F  F7  1  0.34700400  0.98725700  0.36318500  1
  F  F8  1  0.98725700  0.64025300  0.63681500  1
  F  F9  1  0.65299600  0.64025300  0.86318500  1
  F  F10  1  0.01274300  0.35974700  0.36318500  1
  F  F11  1  0.34700400  0.35974700  0.13681500  1
  F  F12  1  0.35974700  0.34700400  0.63681500  1
  F  F13  1  0.98725700  0.34700400  0.86318500  1
  F  F14  1  0.64025300  0.65299600  0.36318500  1
  F  F15  1  0.01274300  0.65299600  0.13681500  1
  F  F16  1  0.35974700  0.01274300  0.86318500  1
  F  F17  1  0.64025300  0.98725700  0.13681500  1
