# generated using pymatgen
data_Cs6Cr2O7
_symmetry_space_group_name_H-M   'P 1'
_cell_length_a   7.35295281
_cell_length_b   9.93207500
_cell_length_c   10.09282554
_cell_angle_alpha   90.00190392
_cell_angle_beta   90.81075713
_cell_angle_gamma   89.99802062
_symmetry_Int_Tables_number   1
_chemical_formula_structural   Cs6Cr2O7
_chemical_formula_sum   'Cs12 Cr4 O14'
_cell_volume   737.00605058
_cell_formula_units_Z   2
loop_
 _symmetry_equiv_pos_site_id
 _symmetry_equiv_pos_as_xyz
  1  'x, y, z'
loop_
 _atom_site_type_symbol
 _atom_site_label
 _atom_site_symmetry_multiplicity
 _atom_site_fract_x
 _atom_site_fract_y
 _atom_site_fract_z
 _atom_site_occupancy
  Cs  Cs0  1  0.62404700  0.28600700  0.72006200  1
  Cs  Cs1  1  0.87597600  0.78600000  0.77994100  1
  Cs  Cs2  1  0.37596400  0.71399500  0.27994200  1
  Cs  Cs3  1  0.12403600  0.21401200  0.22005400  1
  Cs  Cs4  1  0.25267700  0.97276200  0.54953600  1
  Cs  Cs5  1  0.24734400  0.47275700  0.95046600  1
  Cs  Cs6  1  0.74734000  0.02726200  0.45047000  1
  Cs  Cs7  1  0.75268000  0.52724100  0.04953800  1
  Cs  Cs8  1  0.37046400  0.85562400  0.91653500  1
  Cs  Cs9  1  0.12954000  0.35563200  0.58347100  1
  Cs  Cs10  1  0.62954700  0.14439700  0.08346200  1
  Cs  Cs11  1  0.87045200  0.64437000  0.41653500  1
  Cr  Cr12  1  0.04510200  0.13370500  0.87221000  1
  Cr  Cr13  1  0.54500600  0.36623200  0.37221800  1
  Cr  Cr14  1  0.45490400  0.63379400  0.62777200  1
  Cr  Cr15  1  0.95492600  0.86621600  0.12778600  1
  O  O16  1  0.50000900  0.50000200  0.49997600  1
  O  O17  1  0.00001900  0.99999500  0.00000900  1
  O  O18  1  0.54992500  0.58244900  0.78415500  1
  O  O19  1  0.95008600  0.08244300  0.71580500  1
  O  O20  1  0.45006400  0.41758200  0.21582000  1
  O  O21  1  0.04992800  0.91754800  0.28418700  1
  O  O22  1  0.56831400  0.78247400  0.56922500  1
  O  O23  1  0.93171600  0.28243300  0.93077000  1
  O  O24  1  0.43163000  0.21751200  0.43079500  1
  O  O25  1  0.06834200  0.71751200  0.06923100  1
  O  O26  1  0.21416900  0.66057900  0.63824600  1
  O  O27  1  0.28584800  0.16056800  0.86176700  1
  O  O28  1  0.78575300  0.33946200  0.36176400  1
  O  O29  1  0.71419000  0.83943500  0.13825100  1
