# generated using pymatgen
data_Cd3PI3
_symmetry_space_group_name_H-M   'P 1'
_cell_length_a   4.51334200
_cell_length_b   7.42499800
_cell_length_c   7.86632240
_cell_angle_alpha   88.99736477
_cell_angle_beta   90.00000000
_cell_angle_gamma   90.00000000
_symmetry_Int_Tables_number   1
_chemical_formula_structural   Cd3PI3
_chemical_formula_sum   'Cd3 P1 I3'
_cell_volume   263.57233698
_cell_formula_units_Z   1
loop_
 _symmetry_equiv_pos_site_id
 _symmetry_equiv_pos_as_xyz
  1  'x, y, z'
loop_
 _atom_site_type_symbol
 _atom_site_label
 _atom_site_symmetry_multiplicity
 _atom_site_fract_x
 _atom_site_fract_y
 _atom_site_fract_z
 _atom_site_occupancy
  Cd  Cd0  1  0.00000000  0.46767600  0.70937100  1
  Cd  Cd1  1  0.50000000  0.49332600  0.12413000  1
  Cd  Cd2  1  0.50000000  0.03907000  0.84226400  1
  P  P3  1  0.50000000  0.37720300  0.82633300  1
  I  I4  1  0.00000000  0.87600100  0.65547300  1
  I  I5  1  0.50000000  0.87373200  0.17348000  1
  I  I6  1  0.00000000  0.36499300  0.33561400  1
