# generated using pymatgen
data_KEu(CO3)2
_symmetry_space_group_name_H-M   'P 1'
_cell_length_a   6.63249824
_cell_length_b   6.63249824
_cell_length_c   7.20383333
_cell_angle_alpha   75.96471314
_cell_angle_beta   75.96471314
_cell_angle_gamma   96.28509747
_symmetry_Int_Tables_number   1
_chemical_formula_structural   KEu(CO3)2
_chemical_formula_sum   'K2 Eu2 C4 O12'
_cell_volume   293.45161780
_cell_formula_units_Z   2
loop_
 _symmetry_equiv_pos_site_id
 _symmetry_equiv_pos_as_xyz
  1  'x, y, z'
loop_
 _atom_site_type_symbol
 _atom_site_label
 _atom_site_symmetry_multiplicity
 _atom_site_fract_x
 _atom_site_fract_y
 _atom_site_fract_z
 _atom_site_occupancy
  K  K0  1  0.62012100  0.37987900  0.75000000  1
  K  K1  1  0.37987900  0.62012100  0.25000000  1
  Eu  Eu2  1  0.09843200  0.90156800  0.75000000  1
  Eu  Eu3  1  0.90156800  0.09843200  0.25000000  1
  C  C4  1  0.64666700  0.89016200  0.75737000  1
  C  C5  1  0.35333300  0.10983800  0.24263000  1
  C  C6  1  0.10983800  0.35333300  0.74263000  1
  C  C7  1  0.89016200  0.64666700  0.25737000  1
  O  O8  1  0.44978400  0.89580600  0.77895700  1
  O  O9  1  0.55021600  0.10419400  0.22104300  1
  O  O10  1  0.10419400  0.55021600  0.72104300  1
  O  O11  1  0.89580600  0.44978400  0.27895700  1
  O  O12  1  0.71003600  0.75104500  0.88047400  1
  O  O13  1  0.28996400  0.24895500  0.11952600  1
  O  O14  1  0.24895500  0.28996400  0.61952600  1
  O  O15  1  0.75104500  0.71003600  0.38047400  1
  O  O16  1  0.79177500  0.03019400  0.61200500  1
  O  O17  1  0.20822500  0.96980600  0.38799500  1
  O  O18  1  0.96980600  0.20822500  0.88799500  1
  O  O19  1  0.03019400  0.79177500  0.11200500  1
