# generated using pymatgen
data_Li3Ni11As7
_symmetry_space_group_name_H-M   'P 1'
_cell_length_a   3.72454400
_cell_length_b   9.35812823
_cell_length_c   9.37462146
_cell_angle_alpha   120.23824307
_cell_angle_beta   90.00000000
_cell_angle_gamma   90.00000000
_symmetry_Int_Tables_number   1
_chemical_formula_structural   Li3Ni11As7
_chemical_formula_sum   'Li3 Ni11 As7'
_cell_volume   282.29218177
_cell_formula_units_Z   1
loop_
 _symmetry_equiv_pos_site_id
 _symmetry_equiv_pos_as_xyz
  1  'x, y, z'
loop_
 _atom_site_type_symbol
 _atom_site_label
 _atom_site_symmetry_multiplicity
 _atom_site_fract_x
 _atom_site_fract_y
 _atom_site_fract_z
 _atom_site_occupancy
  Li  Li0  1  0.50000000  0.33252400  0.66653600  1
  Li  Li1  1  0.00000000  0.66679500  0.33360000  1
  Li  Li2  1  0.50000000  0.12015800  0.90191000  1
  Ni  Ni3  1  0.00000000  0.88215300  0.71919200  1
  Ni  Ni4  1  0.00000000  0.28280800  0.16402600  1
  Ni  Ni5  1  0.00000000  0.83440800  0.11899500  1
  Ni  Ni6  1  0.50000000  0.95496000  0.56953800  1
  Ni  Ni7  1  0.50000000  0.43034500  0.38540200  1
  Ni  Ni8  1  0.50000000  0.61579700  0.04450300  1
  Ni  Ni9  1  0.00000000  0.38076300  0.95033300  1
  Ni  Ni10  1  0.00000000  0.05166800  0.42849800  1
  Ni  Ni11  1  0.00000000  0.56834500  0.62076700  1
  Ni  Ni12  1  0.50000000  0.09273200  0.21519900  1
  Ni  Ni13  1  0.50000000  0.78412900  0.87864700  1
  As  As14  1  0.50000000  0.70917200  0.58620800  1
  As  As15  1  0.50000000  0.42168200  0.12816200  1
  As  As16  1  0.50000000  0.87722300  0.29200200  1
  As  As17  1  0.00000000  0.99598100  0.00286300  1
  As  As18  1  0.00000000  0.12765700  0.70458800  1
  As  As19  1  0.00000000  0.29020200  0.41839800  1
  As  As20  1  0.00000000  0.58049800  0.87063300  1
