# generated using pymatgen
data_CsLu7S11
_symmetry_space_group_name_H-M   'P 1'
_cell_length_a   10.18480973
_cell_length_b   10.18480973
_cell_length_c   18.86088700
_cell_angle_alpha   90.00000000
_cell_angle_beta   90.00000000
_cell_angle_gamma   97.51531827
_symmetry_Int_Tables_number   1
_chemical_formula_structural   CsLu7S11
_chemical_formula_sum   'Cs4 Lu28 S44'
_cell_volume   1939.64038160
_cell_formula_units_Z   4
loop_
 _symmetry_equiv_pos_site_id
 _symmetry_equiv_pos_as_xyz
  1  'x, y, z'
loop_
 _atom_site_type_symbol
 _atom_site_label
 _atom_site_symmetry_multiplicity
 _atom_site_fract_x
 _atom_site_fract_y
 _atom_site_fract_z
 _atom_site_occupancy
  Cs  Cs0  1  0.08974200  0.08974200  0.59123800  1
  Cs  Cs1  1  0.91025800  0.91025800  0.40876200  1
  Cs  Cs2  1  0.41025800  0.41025800  0.09123800  1
  Cs  Cs3  1  0.58974200  0.58974200  0.90876200  1
  Lu  Lu4  1  0.40337300  0.40337300  0.67572800  1
  Lu  Lu5  1  0.59662700  0.59662700  0.32427200  1
  Lu  Lu6  1  0.09662700  0.09662700  0.17572800  1
  Lu  Lu7  1  0.90337300  0.90337300  0.82427200  1
  Lu  Lu8  1  0.30158000  0.04726300  0.82662400  1
  Lu  Lu9  1  0.95273700  0.69842000  0.17337600  1
  Lu  Lu10  1  0.45273700  0.19842000  0.32662400  1
  Lu  Lu11  1  0.80158000  0.54726300  0.67337600  1
  Lu  Lu12  1  0.69842000  0.95273700  0.17337600  1
  Lu  Lu13  1  0.04726300  0.30158000  0.82662400  1
  Lu  Lu14  1  0.54726300  0.80158000  0.67337600  1
  Lu  Lu15  1  0.19842000  0.45273700  0.32662400  1
  Lu  Lu16  1  0.62315500  0.37684500  0.50000000  1
  Lu  Lu17  1  0.12315500  0.87684500  0.00000000  1
  Lu  Lu18  1  0.37684500  0.62315500  0.50000000  1
  Lu  Lu19  1  0.87684500  0.12315500  0.00000000  1
  Lu  Lu20  1  0.67715600  0.16390800  0.65891100  1
  Lu  Lu21  1  0.83609200  0.32284400  0.34108900  1
  Lu  Lu22  1  0.33609200  0.82284400  0.15891100  1
  Lu  Lu23  1  0.17715600  0.66390800  0.84108900  1
  Lu  Lu24  1  0.32284400  0.83609200  0.34108900  1
  Lu  Lu25  1  0.16390800  0.67715600  0.65891100  1
  Lu  Lu26  1  0.66390800  0.17715600  0.84108900  1
  Lu  Lu27  1  0.82284400  0.33609200  0.15891100  1
  Lu  Lu28  1  0.50000000  0.00000000  0.50000000  1
  Lu  Lu29  1  0.00000000  0.50000000  0.50000000  1
  Lu  Lu30  1  0.50000000  0.00000000  0.00000000  1
  Lu  Lu31  1  0.00000000  0.50000000  0.00000000  1
  S  S32  1  0.46645600  0.21310500  0.58232800  1
  S  S33  1  0.78689500  0.53354400  0.41767200  1
  S  S34  1  0.28689500  0.03354400  0.08232800  1
  S  S35  1  0.96645600  0.71310500  0.91767200  1
  S  S36  1  0.53354400  0.78689500  0.41767200  1
  S  S37  1  0.21310500  0.46645600  0.58232800  1
  S  S38  1  0.71310500  0.96645600  0.91767200  1
  S  S39  1  0.03354400  0.28689500  0.08232800  1
  S  S40  1  0.62723900  0.36789200  0.74469100  1
  S  S41  1  0.63210800  0.37276100  0.25530900  1
  S  S42  1  0.13210800  0.87276100  0.24469100  1
  S  S43  1  0.12723900  0.86789200  0.75530900  1
  S  S44  1  0.37276100  0.63210800  0.25530900  1
  S  S45  1  0.36789200  0.62723900  0.74469100  1
  S  S46  1  0.86789200  0.12723900  0.75530900  1
  S  S47  1  0.87276100  0.13210800  0.24469100  1
  S  S48  1  0.34282000  0.82976300  0.58234200  1
  S  S49  1  0.17023700  0.65718000  0.41765800  1
  S  S50  1  0.67023700  0.15718000  0.08234200  1
  S  S51  1  0.84282000  0.32976300  0.91765800  1
  S  S52  1  0.65718000  0.17023700  0.41765800  1
  S  S53  1  0.82976300  0.34282000  0.58234200  1
  S  S54  1  0.32976300  0.84282000  0.91765800  1
  S  S55  1  0.15718000  0.67023700  0.08234200  1
  S  S56  1  0.69814400  0.95528600  0.58370800  1
  S  S57  1  0.04471400  0.30185600  0.41629200  1
  S  S58  1  0.54471400  0.80185600  0.08370800  1
  S  S59  1  0.19814400  0.45528600  0.91629200  1
  S  S60  1  0.30185600  0.04471400  0.41629200  1
  S  S61  1  0.95528600  0.69814400  0.58370800  1
  S  S62  1  0.45528600  0.19814400  0.91629200  1
  S  S63  1  0.80185600  0.54471400  0.08370800  1
  S  S64  1  0.23663500  0.23663500  0.74606200  1
  S  S65  1  0.76336500  0.76336500  0.25393800  1
  S  S66  1  0.26336500  0.26336500  0.24606200  1
  S  S67  1  0.73663500  0.73663500  0.75393800  1
  S  S68  1  0.07353600  0.07353600  0.90896100  1
  S  S69  1  0.92646400  0.92646400  0.09103900  1
  S  S70  1  0.42646400  0.42646400  0.40896100  1
  S  S71  1  0.57353600  0.57353600  0.59103900  1
  S  S72  1  0.51369100  0.01369100  0.75000000  1
  S  S73  1  0.98630900  0.48630900  0.25000000  1
  S  S74  1  0.48630900  0.98630900  0.25000000  1
  S  S75  1  0.01369100  0.51369100  0.75000000  1
