# generated using pymatgen
data_ScI3
_symmetry_space_group_name_H-M   'P 1'
_cell_length_a   11.87008958
_cell_length_b   11.87008958
_cell_length_c   3.81531300
_cell_angle_alpha   90.00000000
_cell_angle_beta   90.00000000
_cell_angle_gamma   119.99999766
_symmetry_Int_Tables_number   1
_chemical_formula_structural   ScI3
_chemical_formula_sum   'Sc2 I6'
_cell_volume   465.55265440
_cell_formula_units_Z   2
loop_
 _symmetry_equiv_pos_site_id
 _symmetry_equiv_pos_as_xyz
  1  'x, y, z'
loop_
 _atom_site_type_symbol
 _atom_site_label
 _atom_site_symmetry_multiplicity
 _atom_site_fract_x
 _atom_site_fract_y
 _atom_site_fract_z
 _atom_site_occupancy
  Sc  Sc0  1  0.33333300  0.66666700  0.75000000  1
  Sc  Sc1  1  0.66666700  0.33333300  0.25000000  1
  I  I2  1  0.22544700  0.45089300  0.25000000  1
  I  I3  1  0.54910700  0.77455300  0.25000000  1
  I  I4  1  0.22544700  0.77455300  0.25000000  1
  I  I5  1  0.77455300  0.54910700  0.75000000  1
  I  I6  1  0.45089300  0.22544700  0.75000000  1
  I  I7  1  0.77455300  0.22544700  0.75000000  1
