# generated using pymatgen
data_K15Cr7N19
_symmetry_space_group_name_H-M   'P 1'
_cell_length_a   6.73305100
_cell_length_b   12.04701435
_cell_length_c   18.59030226
_cell_angle_alpha   89.84679199
_cell_angle_beta   94.45376940
_cell_angle_gamma   99.11473197
_symmetry_Int_Tables_number   1
_chemical_formula_structural   K15Cr7N19
_chemical_formula_sum   'K30 Cr14 N38'
_cell_volume   1484.31094549
_cell_formula_units_Z   2
loop_
 _symmetry_equiv_pos_site_id
 _symmetry_equiv_pos_as_xyz
  1  'x, y, z'
loop_
 _atom_site_type_symbol
 _atom_site_label
 _atom_site_symmetry_multiplicity
 _atom_site_fract_x
 _atom_site_fract_y
 _atom_site_fract_z
 _atom_site_occupancy
  K  K0  1  0.51738300  0.62056300  0.43296800  1
  K  K1  1  0.48261700  0.37943700  0.56703200  1
  K  K2  1  0.63908900  0.12746500  0.65600700  1
  K  K3  1  0.36091100  0.87253500  0.34399300  1
  K  K4  1  0.70770700  0.02181400  0.19524600  1
  K  K5  1  0.29229300  0.97818600  0.80475400  1
  K  K6  1  0.95331100  0.04504300  0.38825000  1
  K  K7  1  0.04668900  0.95495700  0.61175000  1
  K  K8  1  0.74499200  0.74157500  0.27363400  1
  K  K9  1  0.25500800  0.25842500  0.72636600  1
  K  K10  1  0.86701700  0.18050300  0.82999000  1
  K  K11  1  0.13298300  0.81949700  0.17001000  1
  K  K12  1  0.86645000  0.89432800  0.89659400  1
  K  K13  1  0.13355000  0.10567200  0.10340600  1
  K  K14  1  0.71358000  0.07995500  0.00236000  1
  K  K15  1  0.28642000  0.92004500  0.99764000  1
  K  K16  1  0.59895400  0.88674200  0.53019400  1
  K  K17  1  0.40104600  0.11325800  0.46980600  1
  K  K18  1  0.55188600  0.43209100  0.27517800  1
  K  K19  1  0.44811400  0.56790900  0.72482200  1
  K  K20  1  0.98552800  0.34055900  0.01288100  1
  K  K21  1  0.01447200  0.65944100  0.98711900  1
  K  K22  1  0.95461600  0.66463400  0.78324700  1
  K  K23  1  0.04538400  0.33536600  0.21675300  1
  K  K24  1  0.76726000  0.27092700  0.39019400  1
  K  K25  1  0.23274000  0.72907300  0.60980600  1
  K  K26  1  0.61495300  0.39203500  0.84542600  1
  K  K27  1  0.38504700  0.60796500  0.15457400  1
  K  K28  1  0.00000000  0.50000000  0.50000000  1
  K  K29  1  0.50000000  0.50000000  0.00000000  1
  Cr  Cr30  1  0.56857900  0.27592600  0.11961100  1
  Cr  Cr31  1  0.43142100  0.72407400  0.88038900  1
  Cr  Cr32  1  0.88897400  0.41336200  0.68319600  1
  Cr  Cr33  1  0.11102600  0.58663800  0.31680400  1
  Cr  Cr34  1  0.74542400  0.65887900  0.60303000  1
  Cr  Cr35  1  0.25457600  0.34112100  0.39697000  1
  Cr  Cr36  1  0.96877900  0.77754100  0.44544500  1
  Cr  Cr37  1  0.03122100  0.22245900  0.55455500  1
  Cr  Cr38  1  0.85039200  0.54565400  0.14308200  1
  Cr  Cr39  1  0.14960800  0.45434600  0.85691800  1
  Cr  Cr40  1  0.65246100  0.86288300  0.72724100  1
  Cr  Cr41  1  0.34753900  0.13711700  0.27275900  1
  Cr  Cr42  1  0.68173000  0.78899300  0.05856400  1
  Cr  Cr43  1  0.31827000  0.21100700  0.94143600  1
  N  N44  1  0.76834600  0.21225400  0.11743100  1
  N  N45  1  0.23165400  0.78774600  0.88256900  1
  N  N46  1  0.97675600  0.32774600  0.61958600  1
  N  N47  1  0.02324400  0.67225400  0.38041400  1
  N  N48  1  0.54279900  0.09123100  0.31831800  1
  N  N49  1  0.45720100  0.90876900  0.68168200  1
  N  N50  1  0.57393100  0.78100800  0.80671500  1
  N  N51  1  0.42606900  0.21899200  0.19328500  1
  N  N52  1  0.64626200  0.42352000  0.13487000  1
  N  N53  1  0.35373800  0.57648000  0.86513000  1
  N  N54  1  0.49267200  0.39324100  0.42239800  1
  N  N55  1  0.50732800  0.60675900  0.57760200  1
  N  N56  1  0.82586800  0.12482700  0.53156600  1
  N  N57  1  0.17413200  0.87517300  0.46843400  1
  N  N58  1  0.87544500  0.70902400  0.52726300  1
  N  N59  1  0.12455500  0.29097600  0.47273700  1
  N  N60  1  0.88974000  0.88701100  0.05614600  1
  N  N61  1  0.11026000  0.11298900  0.94385400  1
  N  N62  1  0.77882000  0.83519700  0.40550900  1
  N  N63  1  0.22118000  0.16480300  0.59449100  1
  N  N64  1  0.75940700  0.76811200  0.66586600  1
  N  N65  1  0.24059300  0.23188800  0.33413400  1
  N  N66  1  0.96163600  0.48300900  0.90144500  1
  N  N67  1  0.03836400  0.51699100  0.09855500  1
  N  N68  1  0.58214700  0.74960000  0.96559100  1
  N  N69  1  0.41785300  0.25040000  0.03440900  1
  N  N70  1  0.75682400  0.66347000  0.10518100  1
  N  N71  1  0.24317600  0.33653000  0.89481900  1
  N  N72  1  0.83501300  0.97218300  0.75213400  1
  N  N73  1  0.16498700  0.02781700  0.24786600  1
  N  N74  1  0.92937600  0.56893900  0.23606700  1
  N  N75  1  0.07062400  0.43106100  0.76393300  1
  N  N76  1  0.86945600  0.54678900  0.64566400  1
  N  N77  1  0.13054400  0.45321100  0.35433600  1
  N  N78  1  0.66722800  0.35156000  0.70840500  1
  N  N79  1  0.33277200  0.64844000  0.29159500  1
  N  N80  1  0.50528200  0.83508200  0.10597400  1
  N  N81  1  0.49471800  0.16491800  0.89402600  1
