# generated using pymatgen
data_YbNi3
_symmetry_space_group_name_H-M   'P 1'
_cell_length_a   8.48105484
_cell_length_b   8.48105484
_cell_length_c   8.48105528
_cell_angle_alpha   33.40202857
_cell_angle_beta   33.40202857
_cell_angle_gamma   33.40202671
_symmetry_Int_Tables_number   1
_chemical_formula_structural   YbNi3
_chemical_formula_sum   'Yb3 Ni9'
_cell_volume   164.63144193
_cell_formula_units_Z   3
loop_
 _symmetry_equiv_pos_site_id
 _symmetry_equiv_pos_as_xyz
  1  'x, y, z'
loop_
 _atom_site_type_symbol
 _atom_site_label
 _atom_site_symmetry_multiplicity
 _atom_site_fract_x
 _atom_site_fract_y
 _atom_site_fract_z
 _atom_site_occupancy
  Yb  Yb0  1  0.85991900  0.85991900  0.85991900  1
  Yb  Yb1  1  0.14008100  0.14008100  0.14008100  1
  Yb  Yb2  1  0.00000000  0.00000000  0.00000000  1
  Ni  Ni3  1  0.41791300  0.91695100  0.41791300  1
  Ni  Ni4  1  0.41791300  0.41791300  0.91695100  1
  Ni  Ni5  1  0.91695100  0.41791300  0.41791300  1
  Ni  Ni6  1  0.58208700  0.08304900  0.58208700  1
  Ni  Ni7  1  0.58208700  0.58208700  0.08304900  1
  Ni  Ni8  1  0.08304900  0.58208700  0.58208700  1
  Ni  Ni9  1  0.66750900  0.66750900  0.66750900  1
  Ni  Ni10  1  0.33249100  0.33249100  0.33249100  1
  Ni  Ni11  1  0.50000000  0.50000000  0.50000000  1
