# generated using pymatgen
data_CeGaRh
_symmetry_space_group_name_H-M   'P 1'
_cell_length_a   4.64615800
_cell_length_b   6.91441100
_cell_length_c   7.42406300
_cell_angle_alpha   90.00000000
_cell_angle_beta   90.00000000
_cell_angle_gamma   90.00000000
_symmetry_Int_Tables_number   1
_chemical_formula_structural   CeGaRh
_chemical_formula_sum   'Ce4 Ga4 Rh4'
_cell_volume   238.50133488
_cell_formula_units_Z   4
loop_
 _symmetry_equiv_pos_site_id
 _symmetry_equiv_pos_as_xyz
  1  'x, y, z'
loop_
 _atom_site_type_symbol
 _atom_site_label
 _atom_site_symmetry_multiplicity
 _atom_site_fract_x
 _atom_site_fract_y
 _atom_site_fract_z
 _atom_site_occupancy
  Ce  Ce0  1  0.25000000  0.17598000  0.97093200  1
  Ce  Ce1  1  0.25000000  0.32402000  0.47093200  1
  Ce  Ce2  1  0.75000000  0.82402000  0.02906800  1
  Ce  Ce3  1  0.75000000  0.67598000  0.52906800  1
  Ga  Ga4  1  0.25000000  0.89070300  0.30743900  1
  Ga  Ga5  1  0.25000000  0.60929700  0.80743900  1
  Ga  Ga6  1  0.75000000  0.10929700  0.69256100  1
  Ga  Ga7  1  0.75000000  0.39070300  0.19256100  1
  Rh  Rh8  1  0.25000000  0.93886500  0.65192800  1
  Rh  Rh9  1  0.25000000  0.56113500  0.15192800  1
  Rh  Rh10  1  0.75000000  0.06113500  0.34807200  1
  Rh  Rh11  1  0.75000000  0.43886500  0.84807200  1
