# generated using pymatgen
data_BaGaSnH
_symmetry_space_group_name_H-M   'P 1'
_cell_length_a   4.60934400
_cell_length_b   4.60934400
_cell_length_c   5.39808100
_cell_angle_alpha   90.00000000
_cell_angle_beta   90.00000000
_cell_angle_gamma   120.00000002
_symmetry_Int_Tables_number   1
_chemical_formula_structural   BaGaSnH
_chemical_formula_sum   'Ba1 Ga1 Sn1 H1'
_cell_volume   99.32264379
_cell_formula_units_Z   1
loop_
 _symmetry_equiv_pos_site_id
 _symmetry_equiv_pos_as_xyz
  1  'x, y, z'
loop_
 _atom_site_type_symbol
 _atom_site_label
 _atom_site_symmetry_multiplicity
 _atom_site_fract_x
 _atom_site_fract_y
 _atom_site_fract_z
 _atom_site_occupancy
  Ba  Ba0  1  0.33333300  0.66666700  0.00015000  1
  Ga  Ga1  1  0.00000000  0.00000000  0.58670600  1
  Sn  Sn2  1  0.66666700  0.33333300  0.45925300  1
  H  H3  1  0.00000000  0.00000000  0.91019200  1
