# generated using pymatgen
data_Ag4Hg4S4BrCl3
_symmetry_space_group_name_H-M   'P 1'
_cell_length_a   4.53884300
_cell_length_b   6.98100217
_cell_length_c   13.28504710
_cell_angle_alpha   89.73047156
_cell_angle_beta   89.94925556
_cell_angle_gamma   89.88869136
_symmetry_Int_Tables_number   1
_chemical_formula_structural   Ag4Hg4S4BrCl3
_chemical_formula_sum   'Ag4 Hg4 S4 Br1 Cl3'
_cell_volume   420.94004246
_cell_formula_units_Z   1
loop_
 _symmetry_equiv_pos_site_id
 _symmetry_equiv_pos_as_xyz
  1  'x, y, z'
loop_
 _atom_site_type_symbol
 _atom_site_label
 _atom_site_symmetry_multiplicity
 _atom_site_fract_x
 _atom_site_fract_y
 _atom_site_fract_z
 _atom_site_occupancy
  Ag  Ag0  1  0.01202400  0.79009900  0.45736100  1
  Ag  Ag1  1  0.01158800  0.21110200  0.54430100  1
  Ag  Ag2  1  0.98725200  0.29174500  0.04373300  1
  Ag  Ag3  1  0.98755800  0.70515300  0.94977900  1
  Hg  Hg4  1  0.50107700  0.62753100  0.24406100  1
  Hg  Hg5  1  0.50474800  0.37057100  0.75735600  1
  Hg  Hg6  1  0.49542400  0.12873400  0.26209700  1
  Hg  Hg7  1  0.49655800  0.87174500  0.73949600  1
  S  S8  1  0.50930500  0.86115100  0.37862100  1
  S  S9  1  0.50905600  0.13759900  0.62356900  1
  S  S10  1  0.48914400  0.36278900  0.12733100  1
  S  S11  1  0.49176500  0.63553800  0.87278100  1
  Br  Br12  1  0.00481600  0.87417900  0.12776500  1
  Cl  Cl13  1  0.00006000  0.13324700  0.87003000  1
  Cl  Cl14  1  0.99989800  0.37100000  0.37206300  1
  Cl  Cl15  1  0.99972600  0.62781700  0.62965500  1
