# generated using pymatgen
data_CrSnSbO6
_symmetry_space_group_name_H-M   'P 1'
_cell_length_a   4.72465000
_cell_length_b   9.44230600
_cell_length_c   9.46722000
_cell_angle_alpha   89.99913948
_cell_angle_beta   90.00002424
_cell_angle_gamma   90.00337862
_symmetry_Int_Tables_number   1
_chemical_formula_structural   CrSnSbO6
_chemical_formula_sum   'Cr4 Sn4 Sb4 O24'
_cell_volume   422.34774656
_cell_formula_units_Z   4
loop_
 _symmetry_equiv_pos_site_id
 _symmetry_equiv_pos_as_xyz
  1  'x, y, z'
loop_
 _atom_site_type_symbol
 _atom_site_label
 _atom_site_symmetry_multiplicity
 _atom_site_fract_x
 _atom_site_fract_y
 _atom_site_fract_z
 _atom_site_occupancy
  Cr  Cr0  1  0.50003500  0.75004700  0.16716300  1
  Cr  Cr1  1  0.00004300  0.49993100  0.66710800  1
  Cr  Cr2  1  0.50000800  0.25001200  0.16710000  1
  Cr  Cr3  1  0.00001700  0.99996800  0.66707000  1
  Sn  Sn4  1  0.50001300  0.24996100  0.49935400  1
  Sn  Sn5  1  0.49996300  0.75001200  0.49942000  1
  Sn  Sn6  1  0.00001000  0.00003100  0.99930600  1
  Sn  Sn7  1  0.99994100  0.50000300  0.99932200  1
  Sb  Sb8  1  0.50000200  0.24997200  0.83302400  1
  Sb  Sb9  1  0.50002100  0.75002100  0.83299400  1
  Sb  Sb10  1  0.99998000  0.00004000  0.33294100  1
  Sb  Sb11  1  0.00001700  0.49997700  0.33291500  1
  O  O12  1  0.19588000  0.40203500  0.17144100  1
  O  O13  1  0.19588600  0.90209000  0.17146100  1
  O  O14  1  0.80405500  0.09798600  0.17142600  1
  O  O15  1  0.80410000  0.59791800  0.17146100  1
  O  O16  1  0.30419200  0.15216500  0.67138300  1
  O  O17  1  0.30421800  0.65218500  0.67138500  1
  O  O18  1  0.69572900  0.34781600  0.67134500  1
  O  O19  1  0.69579900  0.84782800  0.67136200  1
  O  O20  1  0.18792500  0.40613400  0.49890500  1
  O  O21  1  0.18792200  0.90613300  0.49892100  1
  O  O22  1  0.81208500  0.09386200  0.49894300  1
  O  O23  1  0.81214500  0.59385400  0.49890600  1
  O  O24  1  0.31198400  0.15609200  0.99888900  1
  O  O25  1  0.31197800  0.65611200  0.99887000  1
  O  O26  1  0.68806300  0.34388600  0.99888300  1
  O  O27  1  0.68803300  0.84389900  0.99888100  1
  O  O28  1  0.19730400  0.40142800  0.83004500  1
  O  O29  1  0.19738400  0.90141800  0.82992300  1
  O  O30  1  0.80271500  0.09857300  0.82993400  1
  O  O31  1  0.80254200  0.59861900  0.82992800  1
  O  O32  1  0.30272900  0.15173200  0.32999200  1
  O  O33  1  0.30268500  0.65169900  0.32999600  1
  O  O34  1  0.69731300  0.34826500  0.32997500  1
  O  O35  1  0.69728600  0.84829700  0.33003300  1
