# generated using pymatgen
data_CsLu3F10
_symmetry_space_group_name_H-M   'P 1'
_cell_length_a   7.95523243
_cell_length_b   7.95523243
_cell_length_c   16.14585900
_cell_angle_alpha   90.00000000
_cell_angle_beta   90.00000000
_cell_angle_gamma   115.12272887
_symmetry_Int_Tables_number   1
_chemical_formula_structural   CsLu3F10
_chemical_formula_sum   'Cs4 Lu12 F40'
_cell_volume   925.14031692
_cell_formula_units_Z   4
loop_
 _symmetry_equiv_pos_site_id
 _symmetry_equiv_pos_as_xyz
  1  'x, y, z'
loop_
 _atom_site_type_symbol
 _atom_site_label
 _atom_site_symmetry_multiplicity
 _atom_site_fract_x
 _atom_site_fract_y
 _atom_site_fract_z
 _atom_site_occupancy
  Cs  Cs0  1  0.00000000  0.00000000  0.50000000  1
  Cs  Cs1  1  0.50000000  0.50000000  0.00000000  1
  Cs  Cs2  1  0.50000000  0.50000000  0.50000000  1
  Cs  Cs3  1  0.00000000  0.00000000  0.00000000  1
  Lu  Lu4  1  0.25267400  0.24732600  0.75000000  1
  Lu  Lu5  1  0.74732600  0.75267400  0.25000000  1
  Lu  Lu6  1  0.24732600  0.25267400  0.25000000  1
  Lu  Lu7  1  0.75267400  0.74732600  0.75000000  1
  Lu  Lu8  1  0.51976400  0.97622900  0.61361700  1
  Lu  Lu9  1  0.48023600  0.02377100  0.38638300  1
  Lu  Lu10  1  0.98023600  0.52377100  0.11361700  1
  Lu  Lu11  1  0.52377100  0.98023600  0.88638300  1
  Lu  Lu12  1  0.01976400  0.47622900  0.88638300  1
  Lu  Lu13  1  0.47622900  0.01976400  0.11361700  1
  Lu  Lu14  1  0.97622900  0.51976400  0.38638300  1
  Lu  Lu15  1  0.02377100  0.48023600  0.61361700  1
  F  F16  1  0.49666300  0.50333700  0.73007300  1
  F  F17  1  0.50333700  0.49666300  0.26992700  1
  F  F18  1  0.00333700  0.99666300  0.23007300  1
  F  F19  1  0.99666300  0.00333700  0.76992700  1
  F  F20  1  0.56759500  0.93240500  0.75000000  1
  F  F21  1  0.43240500  0.06759500  0.25000000  1
  F  F22  1  0.93240500  0.56759500  0.25000000  1
  F  F23  1  0.06759500  0.43240500  0.75000000  1
  F  F24  1  0.34476300  0.08224900  0.67255900  1
  F  F25  1  0.65523700  0.91775100  0.32744100  1
  F  F26  1  0.15523700  0.41775100  0.17255900  1
  F  F27  1  0.41775100  0.15523700  0.82744100  1
  F  F28  1  0.84476300  0.58224900  0.82744100  1
  F  F29  1  0.58224900  0.84476300  0.17255900  1
  F  F30  1  0.08224900  0.34476300  0.32744100  1
  F  F31  1  0.91775100  0.65523700  0.67255900  1
  F  F32  1  0.27432000  0.72568000  0.88709800  1
  F  F33  1  0.72568000  0.27432000  0.11290200  1
  F  F34  1  0.22568000  0.77432000  0.38709800  1
  F  F35  1  0.77432000  0.22568000  0.61290200  1
  F  F36  1  0.28784500  0.71215500  0.60632800  1
  F  F37  1  0.71215500  0.28784500  0.39367200  1
  F  F38  1  0.21215500  0.78784500  0.10632800  1
  F  F39  1  0.78784500  0.21215500  0.89367200  1
  F  F40  1  0.41189300  0.08862100  0.51255500  1
  F  F41  1  0.58810700  0.91137900  0.48744500  1
  F  F42  1  0.08810700  0.41137900  0.01255500  1
  F  F43  1  0.41137900  0.08810700  0.98744500  1
  F  F44  1  0.91189300  0.58862100  0.98744500  1
  F  F45  1  0.58862100  0.91189300  0.01255500  1
  F  F46  1  0.08862100  0.41189300  0.48744500  1
  F  F47  1  0.91137900  0.58810700  0.51255500  1
  F  F48  1  0.69436400  0.82502100  0.62913400  1
  F  F49  1  0.30563600  0.17497900  0.37086600  1
  F  F50  1  0.80563600  0.67497900  0.12913400  1
  F  F51  1  0.67497900  0.80563600  0.87086600  1
  F  F52  1  0.19436400  0.32502100  0.87086600  1
  F  F53  1  0.32502100  0.19436400  0.12913400  1
  F  F54  1  0.82502100  0.69436400  0.37086600  1
  F  F55  1  0.17497900  0.30563600  0.62913400  1
