# generated using pymatgen
data_Si3Os2
_symmetry_space_group_name_H-M   'P 1'
_cell_length_a   5.62463400
_cell_length_b   9.02389800
_cell_length_c   11.24109100
_cell_angle_alpha   90.00000000
_cell_angle_beta   90.00000000
_cell_angle_gamma   90.00000000
_symmetry_Int_Tables_number   1
_chemical_formula_structural   Si3Os2
_chemical_formula_sum   'Si24 Os16'
_cell_volume   570.55420311
_cell_formula_units_Z   8
loop_
 _symmetry_equiv_pos_site_id
 _symmetry_equiv_pos_as_xyz
  1  'x, y, z'
loop_
 _atom_site_type_symbol
 _atom_site_label
 _atom_site_symmetry_multiplicity
 _atom_site_fract_x
 _atom_site_fract_y
 _atom_site_fract_z
 _atom_site_occupancy
  Si  Si0  1  0.60419000  0.10712800  0.36973500  1
  Si  Si1  1  0.10419000  0.39287200  0.13026500  1
  Si  Si2  1  0.89581000  0.10712800  0.63026500  1
  Si  Si3  1  0.39581000  0.39287200  0.86973500  1
  Si  Si4  1  0.39581000  0.89287200  0.63026500  1
  Si  Si5  1  0.89581000  0.60712800  0.86973500  1
  Si  Si6  1  0.10419000  0.89287200  0.36973500  1
  Si  Si7  1  0.60419000  0.60712800  0.13026500  1
  Si  Si8  1  0.90936900  0.06344800  0.18150100  1
  Si  Si9  1  0.40936900  0.43655200  0.31849900  1
  Si  Si10  1  0.59063100  0.06344800  0.81849900  1
  Si  Si11  1  0.09063100  0.43655200  0.68150100  1
  Si  Si12  1  0.09063100  0.93655200  0.81849900  1
  Si  Si13  1  0.59063100  0.56344800  0.68150100  1
  Si  Si14  1  0.40936900  0.93655200  0.18150100  1
  Si  Si15  1  0.90936900  0.56344800  0.31849900  1
  Si  Si16  1  0.55631400  0.70546600  0.42619800  1
  Si  Si17  1  0.05631400  0.79453400  0.07380200  1
  Si  Si18  1  0.94368600  0.70546600  0.57380200  1
  Si  Si19  1  0.44368600  0.79453400  0.92619800  1
  Si  Si20  1  0.44368600  0.29453400  0.57380200  1
  Si  Si21  1  0.94368600  0.20546600  0.92619800  1
  Si  Si22  1  0.05631400  0.29453400  0.42619800  1
  Si  Si23  1  0.55631400  0.20546600  0.07380200  1
  Os  Os24  1  0.75000000  0.92396100  0.50000000  1
  Os  Os25  1  0.25000000  0.57603900  0.00000000  1
  Os  Os26  1  0.25000000  0.07603900  0.50000000  1
  Os  Os27  1  0.75000000  0.42396100  0.00000000  1
  Os  Os28  1  0.75000000  0.46224500  0.50000000  1
  Os  Os29  1  0.25000000  0.03775500  0.00000000  1
  Os  Os30  1  0.25000000  0.53775500  0.50000000  1
  Os  Os31  1  0.75000000  0.96224500  0.00000000  1
  Os  Os32  1  0.76246100  0.31321400  0.25488900  1
  Os  Os33  1  0.26246100  0.18678600  0.24511100  1
  Os  Os34  1  0.73753900  0.31321400  0.74511100  1
  Os  Os35  1  0.23753900  0.18678600  0.75488900  1
  Os  Os36  1  0.23753900  0.68678600  0.74511100  1
  Os  Os37  1  0.73753900  0.81321400  0.75488900  1
  Os  Os38  1  0.26246100  0.68678600  0.25488900  1
  Os  Os39  1  0.76246100  0.81321400  0.24511100  1
