# generated using pymatgen
data_NbSi2
_symmetry_space_group_name_H-M   'P 1'
_cell_length_a   4.81795575
_cell_length_b   4.81795575
_cell_length_c   6.62355200
_cell_angle_alpha   90.00000000
_cell_angle_beta   90.00000000
_cell_angle_gamma   119.99999655
_symmetry_Int_Tables_number   1
_chemical_formula_structural   NbSi2
_chemical_formula_sum   'Nb3 Si6'
_cell_volume   133.15185178
_cell_formula_units_Z   3
loop_
 _symmetry_equiv_pos_site_id
 _symmetry_equiv_pos_as_xyz
  1  'x, y, z'
loop_
 _atom_site_type_symbol
 _atom_site_label
 _atom_site_symmetry_multiplicity
 _atom_site_fract_x
 _atom_site_fract_y
 _atom_site_fract_z
 _atom_site_occupancy
  Nb  Nb0  1  0.00000000  0.50000000  0.33333300  1
  Nb  Nb1  1  0.50000000  0.50000000  0.66666700  1
  Nb  Nb2  1  0.50000000  0.00000000  0.00000000  1
  Si  Si3  1  0.84077400  0.68154700  0.00000000  1
  Si  Si4  1  0.15922600  0.84077400  0.66666700  1
  Si  Si5  1  0.68154700  0.84077400  0.33333300  1
  Si  Si6  1  0.15922600  0.31845300  0.00000000  1
  Si  Si7  1  0.84077400  0.15922600  0.66666700  1
  Si  Si8  1  0.31845300  0.15922600  0.33333300  1
