# generated using pymatgen
data_SnH16(ClO2)4
_symmetry_space_group_name_H-M   'P 1'
_cell_length_a   7.90269100
_cell_length_b   8.94808703
_cell_length_c   11.93214242
_cell_angle_alpha   74.23312717
_cell_angle_beta   70.66132262
_cell_angle_gamma   63.79491022
_symmetry_Int_Tables_number   1
_chemical_formula_structural   SnH16(ClO2)4
_chemical_formula_sum   'Sn2 H32 Cl8 O16'
_cell_volume   706.44004673
_cell_formula_units_Z   2
loop_
 _symmetry_equiv_pos_site_id
 _symmetry_equiv_pos_as_xyz
  1  'x, y, z'
loop_
 _atom_site_type_symbol
 _atom_site_label
 _atom_site_symmetry_multiplicity
 _atom_site_fract_x
 _atom_site_fract_y
 _atom_site_fract_z
 _atom_site_occupancy
  Sn  Sn0  1  0.86326400  0.25000000  0.75000000  1
  Sn  Sn1  1  0.13673600  0.75000000  0.25000000  1
  H  H2  1  0.19983800  0.30435200  0.61892800  1
  H  H3  1  0.12311700  0.19564800  0.88107200  1
  H  H4  1  0.80016200  0.69564800  0.38107200  1
  H  H5  1  0.87688300  0.80435200  0.11892800  1
  H  H6  1  0.01742000  0.49794500  0.64132500  1
  H  H7  1  0.15669100  0.00205500  0.85867500  1
  H  H8  1  0.98258000  0.50205500  0.35867500  1
  H  H9  1  0.84330900  0.99794500  0.14132500  1
  H  H10  1  0.50049500  0.25141000  0.58807800  1
  H  H11  1  0.33998200  0.24859000  0.91192200  1
  H  H12  1  0.49950500  0.74859000  0.41192200  1
  H  H13  1  0.66001800  0.75141000  0.08807800  1
  H  H14  1  0.47334600  0.07733800  0.61231400  1
  H  H15  1  0.16299800  0.42266200  0.88768600  1
  H  H16  1  0.52665400  0.92266200  0.38768600  1
  H  H17  1  0.83700200  0.57733800  0.11231400  1
  H  H18  1  0.00728700  0.74277700  0.57501100  1
  H  H19  1  0.32507500  0.75722300  0.92498900  1
  H  H20  1  0.99271300  0.25722300  0.42498900  1
  H  H21  1  0.67492500  0.24277700  0.07501100  1
  H  H22  1  0.68885600  0.79783300  0.66027500  1
  H  H23  1  0.14696300  0.70216700  0.83972500  1
  H  H24  1  0.31114400  0.20216700  0.33972500  1
  H  H25  1  0.85303700  0.29783300  0.16027500  1
  H  H26  1  0.54439600  0.82349100  0.58605500  1
  H  H27  1  0.95394200  0.67650900  0.91394500  1
  H  H28  1  0.45560400  0.17650900  0.41394500  1
  H  H29  1  0.04605800  0.32349100  0.08605500  1
  H  H30  1  0.99090100  0.68622800  0.71731300  1
  H  H31  1  0.39444200  0.81377200  0.78268700  1
  H  H32  1  0.00909900  0.31377200  0.28268700  1
  H  H33  1  0.60555800  0.18622800  0.21731300  1
  Cl  Cl34  1  0.06253600  0.03410700  0.62152900  1
  Cl  Cl35  1  0.71817300  0.46589300  0.87847100  1
  Cl  Cl36  1  0.93746400  0.96589300  0.37847100  1
  Cl  Cl37  1  0.28182700  0.53410700  0.12152900  1
  Cl  Cl38  1  0.66436900  0.09167200  0.88252900  1
  Cl  Cl39  1  0.63857100  0.40832800  0.61747100  1
  Cl  Cl40  1  0.33563100  0.90832800  0.11747100  1
  Cl  Cl41  1  0.36142900  0.59167200  0.38252900  1
  O  O42  1  0.05349900  0.37332200  0.63908200  1
  O  O43  1  0.06590300  0.12667800  0.86091800  1
  O  O44  1  0.94650100  0.62667800  0.36091800  1
  O  O45  1  0.93409700  0.87332200  0.13908200  1
  O  O46  1  0.94481500  0.68614800  0.64787200  1
  O  O47  1  0.27883500  0.81385200  0.85212800  1
  O  O48  1  0.05518500  0.31385200  0.35212800  1
  O  O49  1  0.72116500  0.18614800  0.14787200  1
  O  O50  1  0.55011700  0.85837300  0.65627900  1
  O  O51  1  0.06476900  0.64162700  0.84372100  1
  O  O52  1  0.44988300  0.14162700  0.34372100  1
  O  O53  1  0.93523100  0.35837300  0.15627900  1
  O  O54  1  0.42516000  0.19792900  0.57406800  1
  O  O55  1  0.19715700  0.30207100  0.92593200  1
  O  O56  1  0.57484000  0.80207100  0.42593200  1
  O  O57  1  0.80284300  0.69792900  0.07406800  1
