# generated using pymatgen
data_RbLiCrO4
_symmetry_space_group_name_H-M   'P 1'
_cell_length_a   5.49776685
_cell_length_b   5.49776685
_cell_length_c   9.33317400
_cell_angle_alpha   90.00000000
_cell_angle_beta   90.00000000
_cell_angle_gamma   120.00001021
_symmetry_Int_Tables_number   1
_chemical_formula_structural   RbLiCrO4
_chemical_formula_sum   'Rb2 Li2 Cr2 O8'
_cell_volume   244.30512964
_cell_formula_units_Z   2
loop_
 _symmetry_equiv_pos_site_id
 _symmetry_equiv_pos_as_xyz
  1  'x, y, z'
loop_
 _atom_site_type_symbol
 _atom_site_label
 _atom_site_symmetry_multiplicity
 _atom_site_fract_x
 _atom_site_fract_y
 _atom_site_fract_z
 _atom_site_occupancy
  Rb  Rb0  1  0.00000000  0.00000000  0.49713900  1
  Rb  Rb1  1  0.00000000  0.00000000  0.99713900  1
  Li  Li2  1  0.66666700  0.33333300  0.68032400  1
  Li  Li3  1  0.33333300  0.66666700  0.18032400  1
  Cr  Cr4  1  0.33333300  0.66666700  0.79133100  1
  Cr  Cr5  1  0.66666700  0.33333300  0.29133100  1
  O  O6  1  0.61123700  0.96220600  0.73420200  1
  O  O7  1  0.03779400  0.64903100  0.73420200  1
  O  O8  1  0.35096900  0.38876300  0.73420200  1
  O  O9  1  0.96220600  0.61123700  0.23420200  1
  O  O10  1  0.66666700  0.33333300  0.47000200  1
  O  O11  1  0.33333300  0.66666700  0.97000200  1
  O  O12  1  0.38876300  0.35096900  0.23420200  1
  O  O13  1  0.64903100  0.03779400  0.23420200  1
