# generated using pymatgen
data_Nd5Ni19
_symmetry_space_group_name_H-M   'P 1'
_cell_length_a   4.97905961
_cell_length_b   4.97905961
_cell_length_c   16.36139441
_cell_angle_alpha   81.24794970
_cell_angle_beta   81.24794970
_cell_angle_gamma   60.00000514
_symmetry_Int_Tables_number   1
_chemical_formula_structural   Nd5Ni19
_chemical_formula_sum   'Nd5 Ni19'
_cell_volume   345.80932673
_cell_formula_units_Z   1
loop_
 _symmetry_equiv_pos_site_id
 _symmetry_equiv_pos_as_xyz
  1  'x, y, z'
loop_
 _atom_site_type_symbol
 _atom_site_label
 _atom_site_symmetry_multiplicity
 _atom_site_fract_x
 _atom_site_fract_y
 _atom_site_fract_z
 _atom_site_occupancy
  Nd  Nd0  1  0.00000000  0.00000000  0.00000000  1
  Nd  Nd1  1  0.07811100  0.07811100  0.76566600  1
  Nd  Nd2  1  0.92188900  0.92188900  0.23433400  1
  Nd  Nd3  1  0.15166000  0.15166000  0.54501900  1
  Nd  Nd4  1  0.84834000  0.84834000  0.45498100  1
  Ni  Ni5  1  0.50000000  0.50000000  0.50000000  1
  Ni  Ni6  1  0.25127300  0.25127300  0.24618000  1
  Ni  Ni7  1  0.74872700  0.74872700  0.75382000  1
  Ni  Ni8  1  0.33334900  0.33334900  0.99995200  1
  Ni  Ni9  1  0.66665100  0.66665100  0.00004800  1
  Ni  Ni10  1  0.41499300  0.41499300  0.75502100  1
  Ni  Ni11  1  0.58500700  0.58500700  0.24497900  1
  Ni  Ni12  1  0.12345800  0.62217300  0.63219700  1
  Ni  Ni13  1  0.62217300  0.62217300  0.63219700  1
  Ni  Ni14  1  0.62217300  0.12345800  0.63219700  1
  Ni  Ni15  1  0.87654200  0.37782700  0.36780300  1
  Ni  Ni16  1  0.37782700  0.37782700  0.36780300  1
  Ni  Ni17  1  0.37782700  0.87654200  0.36780300  1
  Ni  Ni18  1  0.04023800  0.54082800  0.87810600  1
  Ni  Ni19  1  0.54082800  0.54082800  0.87810600  1
  Ni  Ni20  1  0.54082800  0.04023800  0.87810600  1
  Ni  Ni21  1  0.95976200  0.45917200  0.12189400  1
  Ni  Ni22  1  0.45917200  0.45917200  0.12189400  1
  Ni  Ni23  1  0.45917200  0.95976200  0.12189400  1
