# generated using pymatgen
data_Dy2SeOF2
_symmetry_space_group_name_H-M   'P 1'
_cell_length_a   13.43104237
_cell_length_b   13.43104237
_cell_length_c   3.74213900
_cell_angle_alpha   90.00000000
_cell_angle_beta   90.00000000
_cell_angle_gamma   120.00000183
_symmetry_Int_Tables_number   1
_chemical_formula_structural   Dy2SeOF2
_chemical_formula_sum   'Dy12 Se6 O6 F12'
_cell_volume   584.61503088
_cell_formula_units_Z   6
loop_
 _symmetry_equiv_pos_site_id
 _symmetry_equiv_pos_as_xyz
  1  'x, y, z'
loop_
 _atom_site_type_symbol
 _atom_site_label
 _atom_site_symmetry_multiplicity
 _atom_site_fract_x
 _atom_site_fract_y
 _atom_site_fract_z
 _atom_site_occupancy
  Dy  Dy0  1  0.39791400  0.88349600  0.75000000  1
  Dy  Dy1  1  0.48558200  0.60208600  0.75000000  1
  Dy  Dy2  1  0.11650400  0.51441800  0.75000000  1
  Dy  Dy3  1  0.60208600  0.11650400  0.25000000  1
  Dy  Dy4  1  0.51441800  0.39791400  0.25000000  1
  Dy  Dy5  1  0.88349600  0.48558200  0.25000000  1
  Dy  Dy6  1  0.05519300  0.76615900  0.75000000  1
  Dy  Dy7  1  0.71096500  0.94480700  0.75000000  1
  Dy  Dy8  1  0.23384100  0.28903500  0.75000000  1
  Dy  Dy9  1  0.94480700  0.23384100  0.25000000  1
  Dy  Dy10  1  0.28903500  0.05519300  0.25000000  1
  Dy  Dy11  1  0.76615900  0.71096500  0.25000000  1
  Se  Se12  1  0.71905200  0.51264900  0.75000000  1
  Se  Se13  1  0.79359700  0.28094800  0.75000000  1
  Se  Se14  1  0.48735100  0.20640300  0.75000000  1
  Se  Se15  1  0.28094800  0.48735100  0.25000000  1
  Se  Se16  1  0.20640300  0.71905200  0.25000000  1
  Se  Se17  1  0.51264900  0.79359700  0.25000000  1
  O  O18  1  0.98575200  0.57337100  0.75000000  1
  O  O19  1  0.58761900  0.01424800  0.75000000  1
  O  O20  1  0.42662900  0.41238100  0.75000000  1
  O  O21  1  0.01424800  0.42662900  0.25000000  1
  O  O22  1  0.41238100  0.98575200  0.25000000  1
  O  O23  1  0.57337100  0.58761900  0.25000000  1
  F  F24  1  0.89401100  0.79279500  0.75000000  1
  F  F25  1  0.89878400  0.10598900  0.75000000  1
  F  F26  1  0.20720500  0.10121600  0.75000000  1
  F  F27  1  0.10598900  0.20720500  0.25000000  1
  F  F28  1  0.10121600  0.89401100  0.25000000  1
  F  F29  1  0.79279500  0.89878400  0.25000000  1
  F  F30  1  0.24752200  0.93333200  0.75000000  1
  F  F31  1  0.68581000  0.75247800  0.75000000  1
  F  F32  1  0.06666800  0.31419000  0.75000000  1
  F  F33  1  0.75247800  0.06666800  0.25000000  1
  F  F34  1  0.31419000  0.24752200  0.25000000  1
  F  F35  1  0.93333200  0.68581000  0.25000000  1
