# generated using pymatgen
data_Ba5Sb4
_symmetry_space_group_name_H-M   'P 1'
_cell_length_a   10.10916917
_cell_length_b   10.10916917
_cell_length_c   9.19742200
_cell_angle_alpha   90.00000000
_cell_angle_beta   90.00000000
_cell_angle_gamma   126.15942388
_symmetry_Int_Tables_number   1
_chemical_formula_structural   Ba5Sb4
_chemical_formula_sum   'Ba10 Sb8'
_cell_volume   758.88182546
_cell_formula_units_Z   2
loop_
 _symmetry_equiv_pos_site_id
 _symmetry_equiv_pos_as_xyz
  1  'x, y, z'
loop_
 _atom_site_type_symbol
 _atom_site_label
 _atom_site_symmetry_multiplicity
 _atom_site_fract_x
 _atom_site_fract_y
 _atom_site_fract_z
 _atom_site_occupancy
  Ba  Ba0  1  0.50000000  0.50000000  0.50000000  1
  Ba  Ba1  1  0.00000000  0.00000000  0.00000000  1
  Ba  Ba2  1  0.31455000  0.02243500  0.66420600  1
  Ba  Ba3  1  0.52243500  0.81455000  0.83579400  1
  Ba  Ba4  1  0.18545000  0.47756500  0.16420600  1
  Ba  Ba5  1  0.97756500  0.68545000  0.33579400  1
  Ba  Ba6  1  0.68545000  0.97756500  0.33579400  1
  Ba  Ba7  1  0.47756500  0.18545000  0.16420600  1
  Ba  Ba8  1  0.81455000  0.52243500  0.83579400  1
  Ba  Ba9  1  0.02243500  0.31455000  0.66420600  1
  Sb  Sb10  1  0.88682100  0.88682100  0.61290500  1
  Sb  Sb11  1  0.38682100  0.38682100  0.88709500  1
  Sb  Sb12  1  0.61317900  0.61317900  0.11290500  1
  Sb  Sb13  1  0.11317900  0.11317900  0.38709500  1
  Sb  Sb14  1  0.19813800  0.80186200  0.00000000  1
  Sb  Sb15  1  0.30186200  0.69813800  0.50000000  1
  Sb  Sb16  1  0.80186200  0.19813800  0.00000000  1
  Sb  Sb17  1  0.69813800  0.30186200  0.50000000  1
