# generated using pymatgen
data_Na5La(MoO4)4
_symmetry_space_group_name_H-M   'P 1'
_cell_length_a   10.17573011
_cell_length_b   10.17573011
_cell_length_c   10.17573011
_cell_angle_alpha   109.34845848
_cell_angle_beta   109.34845848
_cell_angle_gamma   109.71702492
_symmetry_Int_Tables_number   1
_chemical_formula_structural   Na5La(MoO4)4
_chemical_formula_sum   'Na10 La2 Mo8 O32'
_cell_volume   811.08963203
_cell_formula_units_Z   2
loop_
 _symmetry_equiv_pos_site_id
 _symmetry_equiv_pos_as_xyz
  1  'x, y, z'
loop_
 _atom_site_type_symbol
 _atom_site_label
 _atom_site_symmetry_multiplicity
 _atom_site_fract_x
 _atom_site_fract_y
 _atom_site_fract_z
 _atom_site_occupancy
  Na  Na0  1  0.90877700  0.58090300  0.91909100  1
  Na  Na1  1  0.23968700  0.65877700  0.82787500  1
  Na  Na2  1  0.83090300  0.41181200  0.17212500  1
  Na  Na3  1  0.66181200  0.98968700  0.08090900  1
  Na  Na4  1  0.34122300  0.16909700  0.58090900  1
  Na  Na5  1  0.01031300  0.09122300  0.67212500  1
  Na  Na6  1  0.41909700  0.33818800  0.32787500  1
  Na  Na7  1  0.58818800  0.76031300  0.41909100  1
  Na  Na8  1  0.50000000  0.50000000  0.00000000  1
  Na  Na9  1  0.75000000  0.25000000  0.50000000  1
  La  La10  1  0.25000000  0.75000000  0.50000000  1
  La  La11  1  0.00000000  0.00000000  0.00000000  1
  Mo  Mo12  1  0.69795600  0.11604600  0.77588500  1
  Mo  Mo13  1  0.17207100  0.44795600  0.08191000  1
  Mo  Mo14  1  0.90983900  0.82792900  0.27588500  1
  Mo  Mo15  1  0.88395400  0.65983900  0.58191000  1
  Mo  Mo16  1  0.07792900  0.30204400  0.41809000  1
  Mo  Mo17  1  0.55204400  0.63395400  0.72411500  1
  Mo  Mo18  1  0.34016100  0.92207100  0.22411500  1
  Mo  Mo19  1  0.36604600  0.09016100  0.91809000  1
  O  O20  1  0.12160100  0.89504000  0.40112800  1
  O  O21  1  0.97047300  0.87160100  0.72656000  1
  O  O22  1  0.14504000  0.24391300  0.27344000  1
  O  O23  1  0.49391300  0.72047300  0.59887200  1
  O  O24  1  0.12839900  0.85496000  0.09887200  1
  O  O25  1  0.27952700  0.87839900  0.77344000  1
  O  O26  1  0.10496000  0.50608700  0.22656000  1
  O  O27  1  0.75608700  0.02952700  0.90112800  1
  O  O28  1  0.88860600  0.94159000  0.17364700  1
  O  O29  1  0.96495900  0.63860600  0.44701600  1
  O  O30  1  0.19159000  0.51794300  0.55298400  1
  O  O31  1  0.76794300  0.71495900  0.82635300  1
  O  O32  1  0.36139400  0.80841000  0.32635300  1
  O  O33  1  0.28504100  0.11139400  0.05298400  1
  O  O34  1  0.05841000  0.23205700  0.94701600  1
  O  O35  1  0.48205700  0.03504100  0.67364700  1
  O  O36  1  0.79451200  0.61940100  0.12234300  1
  O  O37  1  0.92216900  0.54451200  0.67511000  1
  O  O38  1  0.86940100  0.24705800  0.32489000  1
  O  O39  1  0.49705800  0.67216900  0.87765700  1
  O  O40  1  0.78739500  0.32790700  0.89441100  1
  O  O41  1  0.14298400  0.53739500  0.95948800  1
  O  O42  1  0.57790700  0.18349600  0.04051200  1
  O  O43  1  0.43349600  0.89298400  0.10559000  1
  O  O44  1  0.46260500  0.42209300  0.60558900  1
  O  O45  1  0.10701600  0.21260500  0.54051200  1
  O  O46  1  0.67209300  0.56650400  0.45948800  1
  O  O47  1  0.81650400  0.85701600  0.39441000  1
  O  O48  1  0.75294200  0.07783100  0.62234300  1
  O  O49  1  0.38059900  0.50294200  0.17511000  1
  O  O50  1  0.32783100  0.20548800  0.82489000  1
  O  O51  1  0.45548800  0.13059900  0.37765700  1
