# generated using pymatgen
data_KFeNi(PO4)2
_symmetry_space_group_name_H-M   'P 1'
_cell_length_a   14.63966200
_cell_length_b   5.16816400
_cell_length_c   9.32675501
_cell_angle_alpha   75.29505362
_cell_angle_beta   90.00000000
_cell_angle_gamma   90.00000000
_symmetry_Int_Tables_number   1
_chemical_formula_structural   KFeNi(PO4)2
_chemical_formula_sum   'K4 Fe4 Ni4 P8 O32'
_cell_volume   682.55048069
_cell_formula_units_Z   4
loop_
 _symmetry_equiv_pos_site_id
 _symmetry_equiv_pos_as_xyz
  1  'x, y, z'
loop_
 _atom_site_type_symbol
 _atom_site_label
 _atom_site_symmetry_multiplicity
 _atom_site_fract_x
 _atom_site_fract_y
 _atom_site_fract_z
 _atom_site_occupancy
  K  K0  1  0.32365300  0.18744300  0.18679500  1
  K  K1  1  0.82365300  0.81255700  0.31320500  1
  K  K2  1  0.67634700  0.81255700  0.81320500  1
  K  K3  1  0.17634700  0.18744300  0.68679500  1
  Fe  Fe4  1  0.12878100  0.77211900  0.38252000  1
  Fe  Fe5  1  0.62878100  0.22788100  0.11748000  1
  Fe  Fe6  1  0.87121900  0.22788100  0.61748000  1
  Fe  Fe7  1  0.37121900  0.77211900  0.88252000  1
  Ni  Ni8  1  0.04514700  0.24295200  0.03886900  1
  Ni  Ni9  1  0.54514700  0.75704800  0.46113100  1
  Ni  Ni10  1  0.95485300  0.75704800  0.96113100  1
  Ni  Ni11  1  0.45485300  0.24295200  0.53886900  1
  P  P12  1  0.17164600  0.74347300  0.03638200  1
  P  P13  1  0.67164600  0.25652700  0.46361800  1
  P  P14  1  0.82835400  0.25652700  0.96361800  1
  P  P15  1  0.32835400  0.74347300  0.53638200  1
  P  P16  1  0.00635000  0.30796100  0.32142300  1
  P  P17  1  0.50635000  0.69203900  0.17857700  1
  P  P18  1  0.99365000  0.69203900  0.67857700  1
  P  P19  1  0.49365000  0.30796100  0.82142300  1
  O  O20  1  0.24474800  0.88287100  0.44464500  1
  O  O21  1  0.74474800  0.11712900  0.05535500  1
  O  O22  1  0.75525200  0.11712900  0.55535500  1
  O  O23  1  0.25525200  0.88287100  0.94464500  1
  O  O24  1  0.18896400  0.76406000  0.19677800  1
  O  O25  1  0.68896400  0.23594000  0.30322200  1
  O  O26  1  0.81103600  0.23594000  0.80322200  1
  O  O27  1  0.31103600  0.76406000  0.69677800  1
  O  O28  1  0.08635700  0.91663500  0.96787500  1
  O  O29  1  0.58635700  0.08336500  0.53212500  1
  O  O30  1  0.91364300  0.08336500  0.03212500  1
  O  O31  1  0.41364300  0.91663500  0.46787500  1
  O  O32  1  0.16476400  0.44980300  0.02910600  1
  O  O33  1  0.66476400  0.55019700  0.47089400  1
  O  O34  1  0.83523600  0.55019700  0.97089400  1
  O  O35  1  0.33523600  0.44980300  0.52910600  1
  O  O36  1  0.98698900  0.50717100  0.17074600  1
  O  O37  1  0.48698900  0.49282900  0.32925400  1
  O  O38  1  0.01301100  0.49282900  0.82925400  1
  O  O39  1  0.51301100  0.50717100  0.67074600  1
  O  O40  1  0.04739400  0.05742400  0.27527900  1
  O  O41  1  0.54739400  0.94257600  0.22472100  1
  O  O42  1  0.95260600  0.94257600  0.72472100  1
  O  O43  1  0.45260600  0.05742400  0.77527900  1
  O  O44  1  0.07898900  0.41221800  0.41409100  1
  O  O45  1  0.57898900  0.58778200  0.08590900  1
  O  O46  1  0.92101100  0.58778200  0.58590900  1
  O  O47  1  0.42101100  0.41221800  0.91409100  1
  O  O48  1  0.91863300  0.22473000  0.41240500  1
  O  O49  1  0.41863300  0.77527000  0.08759500  1
  O  O50  1  0.08136700  0.77527000  0.58759500  1
  O  O51  1  0.58136700  0.22473000  0.91240500  1
