# generated using pymatgen
data_Pr3Pd4
_symmetry_space_group_name_H-M   'P 1'
_cell_length_a   8.23145570
_cell_length_b   8.23145570
_cell_length_c   8.23145591
_cell_angle_alpha   114.50421674
_cell_angle_beta   114.50421674
_cell_angle_gamma   114.50421078
_symmetry_Int_Tables_number   1
_chemical_formula_structural   Pr3Pd4
_chemical_formula_sum   'Pr6 Pd8'
_cell_volume   325.79846596
_cell_formula_units_Z   2
loop_
 _symmetry_equiv_pos_site_id
 _symmetry_equiv_pos_as_xyz
  1  'x, y, z'
loop_
 _atom_site_type_symbol
 _atom_site_label
 _atom_site_symmetry_multiplicity
 _atom_site_fract_x
 _atom_site_fract_y
 _atom_site_fract_z
 _atom_site_occupancy
  Pr  Pr0  1  0.40441200  0.02749600  0.27943700  1
  Pr  Pr1  1  0.02749600  0.27943700  0.40441200  1
  Pr  Pr2  1  0.27943700  0.40441200  0.02749600  1
  Pr  Pr3  1  0.59558800  0.97250400  0.72056300  1
  Pr  Pr4  1  0.97250400  0.72056300  0.59558800  1
  Pr  Pr5  1  0.72056300  0.59558800  0.97250400  1
  Pd  Pd6  1  0.00000000  0.00000000  0.00000000  1
  Pd  Pd7  1  0.50000000  0.50000000  0.50000000  1
  Pd  Pd8  1  0.22221600  0.05853900  0.55292800  1
  Pd  Pd9  1  0.05853900  0.55292800  0.22221600  1
  Pd  Pd10  1  0.55292800  0.22221600  0.05853900  1
  Pd  Pd11  1  0.77778400  0.94146100  0.44707200  1
  Pd  Pd12  1  0.94146100  0.44707200  0.77778400  1
  Pd  Pd13  1  0.44707200  0.77778400  0.94146100  1
