# generated using pymatgen
data_La3Tm2(GaO4)3
_symmetry_space_group_name_H-M   'P 1'
_cell_length_a   11.40377575
_cell_length_b   11.40377575
_cell_length_c   11.40377575
_cell_angle_alpha   109.47122063
_cell_angle_beta   109.47122063
_cell_angle_gamma   109.47122063
_symmetry_Int_Tables_number   1
_chemical_formula_structural   La3Tm2(GaO4)3
_chemical_formula_sum   'La12 Tm8 Ga12 O48'
_cell_volume   1141.62669378
_cell_formula_units_Z   4
loop_
 _symmetry_equiv_pos_site_id
 _symmetry_equiv_pos_as_xyz
  1  'x, y, z'
loop_
 _atom_site_type_symbol
 _atom_site_label
 _atom_site_symmetry_multiplicity
 _atom_site_fract_x
 _atom_site_fract_y
 _atom_site_fract_z
 _atom_site_occupancy
  La  La0  1  0.25000000  0.37500000  0.12500000  1
  La  La1  1  0.75000000  0.62500000  0.87500000  1
  La  La2  1  0.75000000  0.12500000  0.37500000  1
  La  La3  1  0.12500000  0.25000000  0.37500000  1
  La  La4  1  0.37500000  0.75000000  0.12500000  1
  La  La5  1  0.25000000  0.87500000  0.62500000  1
  La  La6  1  0.87500000  0.75000000  0.62500000  1
  La  La7  1  0.62500000  0.25000000  0.87500000  1
  La  La8  1  0.37500000  0.12500000  0.25000000  1
  La  La9  1  0.62500000  0.87500000  0.75000000  1
  La  La10  1  0.12500000  0.37500000  0.75000000  1
  La  La11  1  0.87500000  0.62500000  0.25000000  1
  Tm  Tm12  1  0.00000000  0.00000000  0.00000000  1
  Tm  Tm13  1  0.50000000  0.00000000  0.50000000  1
  Tm  Tm14  1  0.00000000  0.50000000  0.50000000  1
  Tm  Tm15  1  0.50000000  0.00000000  0.00000000  1
  Tm  Tm16  1  0.50000000  0.50000000  0.00000000  1
  Tm  Tm17  1  0.50000000  0.50000000  0.50000000  1
  Tm  Tm18  1  0.00000000  0.00000000  0.50000000  1
  Tm  Tm19  1  0.00000000  0.50000000  0.00000000  1
  Ga  Ga20  1  0.25000000  0.62500000  0.37500000  1
  Ga  Ga21  1  0.75000000  0.37500000  0.62500000  1
  Ga  Ga22  1  0.75000000  0.87500000  0.12500000  1
  Ga  Ga23  1  0.37500000  0.25000000  0.62500000  1
  Ga  Ga24  1  0.62500000  0.75000000  0.37500000  1
  Ga  Ga25  1  0.25000000  0.12500000  0.87500000  1
  Ga  Ga26  1  0.12500000  0.75000000  0.87500000  1
  Ga  Ga27  1  0.87500000  0.25000000  0.12500000  1
  Ga  Ga28  1  0.62500000  0.37500000  0.25000000  1
  Ga  Ga29  1  0.37500000  0.62500000  0.75000000  1
  Ga  Ga30  1  0.87500000  0.12500000  0.75000000  1
  Ga  Ga31  1  0.12500000  0.87500000  0.25000000  1
  O  O32  1  0.47557000  0.37399000  0.28815000  1
  O  O33  1  0.52443000  0.62601000  0.71185000  1
  O  O34  1  0.58584000  0.18742100  0.21185000  1
  O  O35  1  0.91416000  0.12601000  0.60158100  1
  O  O36  1  0.28815000  0.47557000  0.37399000  1
  O  O37  1  0.31257900  0.91416000  0.28815000  1
  O  O38  1  0.41416000  0.81257900  0.78815000  1
  O  O39  1  0.08584000  0.87399000  0.39841900  1
  O  O40  1  0.71185000  0.52443000  0.62601000  1
  O  O41  1  0.68742100  0.08584000  0.71185000  1
  O  O42  1  0.02443000  0.31257900  0.89841900  1
  O  O43  1  0.21185000  0.58584000  0.18742100  1
  O  O44  1  0.12601000  0.02443000  0.21185000  1
  O  O45  1  0.97557000  0.68742100  0.10158100  1
  O  O46  1  0.78815000  0.41416000  0.81257900  1
  O  O47  1  0.87399000  0.97557000  0.78815000  1
  O  O48  1  0.60158100  0.91416000  0.12601000  1
  O  O49  1  0.18742100  0.47557000  0.60158100  1
  O  O50  1  0.39841900  0.08584000  0.87399000  1
  O  O51  1  0.81257900  0.52443000  0.39841900  1
  O  O52  1  0.89841900  0.02443000  0.31257900  1
  O  O53  1  0.37399000  0.58584000  0.89841900  1
  O  O54  1  0.10158100  0.97557000  0.68742100  1
  O  O55  1  0.62601000  0.41416000  0.10158100  1
  O  O56  1  0.37399000  0.28815000  0.47557000  1
  O  O57  1  0.58584000  0.89841900  0.37399000  1
  O  O58  1  0.62601000  0.71185000  0.52443000  1
  O  O59  1  0.41416000  0.10158100  0.62601000  1
  O  O60  1  0.12601000  0.60158100  0.91416000  1
  O  O61  1  0.02443000  0.21185000  0.12601000  1
  O  O62  1  0.87399000  0.39841900  0.08584000  1
  O  O63  1  0.97557000  0.78815000  0.87399000  1
  O  O64  1  0.31257900  0.89841900  0.02443000  1
  O  O65  1  0.91416000  0.28815000  0.31257900  1
  O  O66  1  0.68742100  0.10158100  0.97557000  1
  O  O67  1  0.08584000  0.71185000  0.68742100  1
  O  O68  1  0.18742100  0.21185000  0.58584000  1
  O  O69  1  0.47557000  0.60158100  0.18742100  1
  O  O70  1  0.81257900  0.78815000  0.41416000  1
  O  O71  1  0.52443000  0.39841900  0.81257900  1
  O  O72  1  0.28815000  0.31257900  0.91416000  1
  O  O73  1  0.71185000  0.68742100  0.08584000  1
  O  O74  1  0.21185000  0.12601000  0.02443000  1
  O  O75  1  0.78815000  0.87399000  0.97557000  1
  O  O76  1  0.89841900  0.37399000  0.58584000  1
  O  O77  1  0.10158100  0.62601000  0.41416000  1
  O  O78  1  0.60158100  0.18742100  0.47557000  1
  O  O79  1  0.39841900  0.81257900  0.52443000  1
