# generated using pymatgen
data_Eu16Sb11
_symmetry_space_group_name_H-M   'P 1'
_cell_length_a   11.76064900
_cell_length_b   12.71962700
_cell_length_c   12.74116400
_cell_angle_alpha   90.00000000
_cell_angle_beta   90.00000000
_cell_angle_gamma   90.00000000
_symmetry_Int_Tables_number   1
_chemical_formula_structural   Eu16Sb11
_chemical_formula_sum   'Eu32 Sb22'
_cell_volume   1905.96433743
_cell_formula_units_Z   2
loop_
 _symmetry_equiv_pos_site_id
 _symmetry_equiv_pos_as_xyz
  1  'x, y, z'
loop_
 _atom_site_type_symbol
 _atom_site_label
 _atom_site_symmetry_multiplicity
 _atom_site_fract_x
 _atom_site_fract_y
 _atom_site_fract_z
 _atom_site_occupancy
  Eu  Eu0  1  0.00107100  0.79277000  0.08844000  1
  Eu  Eu1  1  0.99892900  0.29277100  0.41156000  1
  Eu  Eu2  1  0.00107100  0.20723000  0.91156000  1
  Eu  Eu3  1  0.99892900  0.70723000  0.58844000  1
  Eu  Eu4  1  0.99834000  0.08872600  0.20701100  1
  Eu  Eu5  1  0.00166000  0.58872600  0.29298900  1
  Eu  Eu6  1  0.99834000  0.91127400  0.79298900  1
  Eu  Eu7  1  0.00166000  0.41127400  0.70701100  1
  Eu  Eu8  1  0.50068500  0.63403400  0.13380400  1
  Eu  Eu9  1  0.49931500  0.13403400  0.36619600  1
  Eu  Eu10  1  0.50068500  0.36596600  0.86619600  1
  Eu  Eu11  1  0.49931500  0.86596600  0.63380400  1
  Eu  Eu12  1  0.85250100  0.50000000  0.00000000  1
  Eu  Eu13  1  0.14749900  0.00000000  0.50000000  1
  Eu  Eu14  1  0.70672600  0.92618500  0.20872500  1
  Eu  Eu15  1  0.29327400  0.42618500  0.29127500  1
  Eu  Eu16  1  0.70672600  0.07381500  0.79127500  1
  Eu  Eu17  1  0.29327400  0.57381500  0.70872500  1
  Eu  Eu18  1  0.29287600  0.20778700  0.07351900  1
  Eu  Eu19  1  0.70712400  0.70778700  0.42648100  1
  Eu  Eu20  1  0.29287600  0.79221300  0.92648100  1
  Eu  Eu21  1  0.70712400  0.29221300  0.57351900  1
  Eu  Eu22  1  0.20916500  0.50000000  0.00000000  1
  Eu  Eu23  1  0.79083500  0.00000000  0.50000000  1
  Eu  Eu24  1  0.68845100  0.56911400  0.70466500  1
  Eu  Eu25  1  0.31154900  0.06911400  0.79533500  1
  Eu  Eu26  1  0.68845100  0.43088600  0.29533500  1
  Eu  Eu27  1  0.31154900  0.93088600  0.20466500  1
  Eu  Eu28  1  0.31767500  0.69973200  0.43212800  1
  Eu  Eu29  1  0.68232500  0.19973200  0.06787200  1
  Eu  Eu30  1  0.31767500  0.30026800  0.56787200  1
  Eu  Eu31  1  0.68232500  0.80026800  0.93212800  1
  Sb  Sb32  1  0.76630900  0.66809900  0.16669000  1
  Sb  Sb33  1  0.23369100  0.16809900  0.33331000  1
  Sb  Sb34  1  0.76630900  0.33190100  0.83331000  1
  Sb  Sb35  1  0.23369100  0.83190100  0.66669000  1
  Sb  Sb36  1  0.96932500  0.85645800  0.35613300  1
  Sb  Sb37  1  0.03067500  0.35645800  0.14386700  1
  Sb  Sb38  1  0.96932500  0.14354200  0.64386700  1
  Sb  Sb39  1  0.03067500  0.64354200  0.85613300  1
  Sb  Sb40  1  0.23658100  0.67916000  0.18089700  1
  Sb  Sb41  1  0.76341900  0.17916000  0.31910300  1
  Sb  Sb42  1  0.23658100  0.32084000  0.81910300  1
  Sb  Sb43  1  0.76341900  0.82084000  0.68089700  1
  Sb  Sb44  1  0.51088100  0.87571800  0.37590800  1
  Sb  Sb45  1  0.48911900  0.37571800  0.12409200  1
  Sb  Sb46  1  0.51088100  0.12428200  0.62409200  1
  Sb  Sb47  1  0.48911900  0.62428200  0.87590800  1
  Sb  Sb48  1  0.85168500  0.50000000  0.50000000  1
  Sb  Sb49  1  0.14831500  0.00000000  0.00000000  1
  Sb  Sb50  1  0.15255500  0.50000000  0.50000000  1
  Sb  Sb51  1  0.84744500  0.00000000  0.00000000  1
  Sb  Sb52  1  0.50324100  0.50000000  0.50000000  1
  Sb  Sb53  1  0.49675900  0.00000000  0.00000000  1
