# generated using pymatgen
data_TbIn2Pd
_symmetry_space_group_name_H-M   'P 1'
_cell_length_a   10.86712363
_cell_length_b   10.86712363
_cell_length_c   10.86712363
_cell_angle_alpha   100.43038737
_cell_angle_beta   100.43038737
_cell_angle_gamma   129.63677936
_symmetry_Int_Tables_number   1
_chemical_formula_structural   TbIn2Pd
_chemical_formula_sum   'Tb10 In20 Pd10'
_cell_volume   894.38455871
_cell_formula_units_Z   10
loop_
 _symmetry_equiv_pos_site_id
 _symmetry_equiv_pos_as_xyz
  1  'x, y, z'
loop_
 _atom_site_type_symbol
 _atom_site_label
 _atom_site_symmetry_multiplicity
 _atom_site_fract_x
 _atom_site_fract_y
 _atom_site_fract_z
 _atom_site_occupancy
  Tb  Tb0  1  0.52904900  0.52904900  0.00000000  1
  Tb  Tb1  1  0.99990700  0.99990700  0.00000000  1
  Tb  Tb2  1  0.88166800  0.60101400  0.28065500  1
  Tb  Tb3  1  0.32035900  0.60101400  0.71934500  1
  Tb  Tb4  1  0.60101400  0.32035900  0.71934500  1
  Tb  Tb5  1  0.60101400  0.88166800  0.28065500  1
  Tb  Tb6  1  0.91094700  0.31607100  0.00000000  1
  Tb  Tb7  1  0.31607100  0.91094700  0.00000000  1
  Tb  Tb8  1  0.31607100  0.31607100  0.40512400  1
  Tb  Tb9  1  0.91094700  0.91094700  0.59487600  1
  In  In10  1  0.00492000  0.51190100  0.79061200  1
  In  In11  1  0.72128900  0.21430800  0.20938800  1
  In  In12  1  0.51190100  0.72128900  0.50698100  1
  In  In13  1  0.00492000  0.21430800  0.49301900  1
  In  In14  1  0.21430800  0.00492000  0.49301900  1
  In  In15  1  0.72128900  0.51190100  0.50698100  1
  In  In16  1  0.51190100  0.00492000  0.79061200  1
  In  In17  1  0.21430800  0.72128900  0.20938800  1
  In  In18  1  0.43561800  0.27120700  0.16441100  1
  In  In19  1  0.10679500  0.27120700  0.83558900  1
  In  In20  1  0.27120700  0.10679500  0.83558900  1
  In  In21  1  0.27120700  0.43561800  0.16441100  1
  In  In22  1  0.89836600  0.63427400  0.00000000  1
  In  In23  1  0.63427400  0.89836600  0.00000000  1
  In  In24  1  0.63427400  0.63427400  0.73590800  1
  In  In25  1  0.89836600  0.89836600  0.26409200  1
  In  In26  1  0.50582200  0.12335900  0.38246300  1
  In  In27  1  0.74089600  0.12335900  0.61753700  1
  In  In28  1  0.12335900  0.74089600  0.61753700  1
  In  In29  1  0.12335900  0.50582200  0.38246300  1
  Pd  Pd30  1  0.17635500  0.96239100  0.21396500  1
  Pd  Pd31  1  0.74842600  0.96239100  0.78603500  1
  Pd  Pd32  1  0.96239100  0.74842600  0.78603500  1
  Pd  Pd33  1  0.96239100  0.17635500  0.21396500  1
  Pd  Pd34  1  0.29512600  0.61595300  0.00000000  1
  Pd  Pd35  1  0.61595300  0.29512600  0.00000000  1
  Pd  Pd36  1  0.61595300  0.61595300  0.32082700  1
  Pd  Pd37  1  0.29512600  0.29512600  0.67917300  1
  Pd  Pd38  1  0.87262700  0.37262700  0.50000000  1
  Pd  Pd39  1  0.37262700  0.87262700  0.50000000  1
