# generated using pymatgen
data_BaCeEuHfO6
_symmetry_space_group_name_H-M   'P 1'
_cell_length_a   8.59772728
_cell_length_b   8.61307859
_cell_length_c   8.58413348
_cell_angle_alpha   90.00000000
_cell_angle_beta   90.00000000
_cell_angle_gamma   90.00000000
_symmetry_Int_Tables_number   1
_chemical_formula_structural   BaCeEuHfO6
_chemical_formula_sum   'Ba4 Ce4 Eu4 Hf4 O24'
_cell_volume   635.67998469
_cell_formula_units_Z   4
loop_
 _symmetry_equiv_pos_site_id
 _symmetry_equiv_pos_as_xyz
  1  'x, y, z'
loop_
 _atom_site_type_symbol
 _atom_site_label
 _atom_site_symmetry_multiplicity
 _atom_site_fract_x
 _atom_site_fract_y
 _atom_site_fract_z
 _atom_site_occupancy
  Ba  Ba0  1  0.00000000  -0.00000000  0.00000000  1
  Ba  Ba1  1  0.50000000  0.50000000  0.50000000  1
  Ba  Ba2  1  0.50000000  0.50000000  0.00000000  1
  Ba  Ba3  1  0.00000000  0.00000000  0.50000000  1
  Ce  Ce4  1  0.75000000  0.75000000  0.75000000  1
  Ce  Ce5  1  0.25000000  0.25000000  0.75000000  1
  Ce  Ce6  1  0.25000000  0.75000000  0.25000000  1
  Ce  Ce7  1  0.75000000  0.25000000  0.25000000  1
  Eu  Eu8  1  0.00000000  0.50000000  0.50000000  1
  Eu  Eu9  1  0.50000000  0.00000000  0.50000000  1
  Eu  Eu10  1  0.50000000  0.00000000  0.00000000  1
  Eu  Eu11  1  0.00000000  0.50000000  0.00000000  1
  Hf  Hf12  1  0.25000000  0.25000000  0.25000000  1
  Hf  Hf13  1  0.75000000  0.75000000  0.25000000  1
  Hf  Hf14  1  0.75000000  0.25000000  0.75000000  1
  Hf  Hf15  1  0.25000000  0.75000000  0.75000000  1
  O  O16  1  0.01273637  0.21336888  0.28013528  1
  O  O17  1  0.98726363  0.78663112  0.28013528  1
  O  O18  1  0.98726363  0.21336888  0.71986472  1
  O  O19  1  0.01273637  0.78663112  0.71986472  1
  O  O20  1  0.29000071  0.01353483  0.19968505  1
  O  O21  1  0.29000071  0.98646517  0.80031495  1
  O  O22  1  0.70999929  0.98646517  0.19968505  1
  O  O23  1  0.70999929  0.01353483  0.80031495  1
  O  O24  1  0.20199323  0.29324425  0.01326712  1
  O  O25  1  0.79800677  0.29324425  0.98673288  1
  O  O26  1  0.20199323  0.70675575  0.98673288  1
  O  O27  1  0.79800677  0.70675575  0.01326712  1
  O  O28  1  0.48726363  0.28663112  0.21986472  1
  O  O29  1  0.51273637  0.71336888  0.21986472  1
  O  O30  1  0.51273637  0.28663112  0.78013528  1
  O  O31  1  0.48726363  0.71336888  0.78013528  1
  O  O32  1  0.20999929  0.48646517  0.30031495  1
  O  O33  1  0.20999929  0.51353483  0.69968505  1
  O  O34  1  0.79000071  0.51353483  0.30031495  1
  O  O35  1  0.79000071  0.48646517  0.69968505  1
  O  O36  1  0.29800677  0.20675575  0.48673288  1
  O  O37  1  0.70199323  0.20675575  0.51326712  1
  O  O38  1  0.29800677  0.79324425  0.51326712  1
  O  O39  1  0.70199323  0.79324425  0.48673288  1
