# generated using pymatgen
data_CaYP7O20
_symmetry_space_group_name_H-M   'P 1'
_cell_length_a   13.05412477
_cell_length_b   13.05412477
_cell_length_c   10.88053128
_cell_angle_alpha   73.21417580
_cell_angle_beta   73.21417580
_cell_angle_gamma   31.02033193
_symmetry_Int_Tables_number   1
_chemical_formula_structural   CaYP7O20
_chemical_formula_sum   'Ca2 Y2 P14 O40'
_cell_volume   911.59852396
_cell_formula_units_Z   2
loop_
 _symmetry_equiv_pos_site_id
 _symmetry_equiv_pos_as_xyz
  1  'x, y, z'
loop_
 _atom_site_type_symbol
 _atom_site_label
 _atom_site_symmetry_multiplicity
 _atom_site_fract_x
 _atom_site_fract_y
 _atom_site_fract_z
 _atom_site_occupancy
  Ca  Ca0  1  0.00000000  0.00000000  0.00000000  1
  Ca  Ca1  1  0.00000000  0.00000000  0.50000000  1
  Y  Y2  1  0.50000000  0.00000000  0.00000000  1
  Y  Y3  1  0.00000000  0.50000000  0.50000000  1
  P  P4  1  0.25156900  0.39304800  0.17072800  1
  P  P5  1  0.60695200  0.74843100  0.32927200  1
  P  P6  1  0.74843100  0.60695200  0.82927200  1
  P  P7  1  0.39304800  0.25156900  0.67072800  1
  P  P8  1  0.35616500  0.64383500  0.25000000  1
  P  P9  1  0.64383500  0.35616500  0.75000000  1
  P  P10  1  0.55057700  0.27663400  0.24129900  1
  P  P11  1  0.72336600  0.44942300  0.25870100  1
  P  P12  1  0.44942300  0.72336600  0.75870100  1
  P  P13  1  0.27663400  0.55057700  0.74129900  1
  P  P14  1  0.98151900  0.74099700  0.96347000  1
  P  P15  1  0.25900300  0.01848100  0.53653000  1
  P  P16  1  0.01848100  0.25900300  0.03653000  1
  P  P17  1  0.74099700  0.98151900  0.46347000  1
  O  O18  1  0.15276000  0.57245900  0.85753600  1
  O  O19  1  0.42754100  0.84724000  0.64246400  1
  O  O20  1  0.84724000  0.42754100  0.14246400  1
  O  O21  1  0.57245900  0.15276000  0.35753600  1
  O  O22  1  0.79527500  0.84194800  0.95260300  1
  O  O23  1  0.15805200  0.20472500  0.54739700  1
  O  O24  1  0.20472500  0.15805200  0.04739700  1
  O  O25  1  0.84194800  0.79527500  0.45260300  1
  O  O26  1  0.37046800  0.23169700  0.09260200  1
  O  O27  1  0.76830300  0.62953200  0.40739800  1
  O  O28  1  0.62953200  0.76830300  0.90739800  1
  O  O29  1  0.23169700  0.37046800  0.59260200  1
  O  O30  1  0.60137200  0.82106200  0.19303000  1
  O  O31  1  0.17893800  0.39862800  0.30697000  1
  O  O32  1  0.39862800  0.17893800  0.80697000  1
  O  O33  1  0.82106200  0.60137200  0.69303000  1
  O  O34  1  0.24807200  0.73243600  0.13811700  1
  O  O35  1  0.26756400  0.75192800  0.36188300  1
  O  O36  1  0.75192800  0.26756400  0.86188300  1
  O  O37  1  0.73243600  0.24807200  0.63811700  1
  O  O38  1  0.37914800  0.38997700  0.16788700  1
  O  O39  1  0.61002300  0.62085200  0.33211300  1
  O  O40  1  0.62085200  0.61002300  0.83211300  1
  O  O41  1  0.38997700  0.37914800  0.66788700  1
  O  O42  1  0.45335700  0.44177600  0.30969300  1
  O  O43  1  0.55822400  0.54664300  0.19030700  1
  O  O44  1  0.54664300  0.55822400  0.69030700  1
  O  O45  1  0.44177600  0.45335700  0.80969300  1
  O  O46  1  0.73307600  0.16018000  0.15705700  1
  O  O47  1  0.83982000  0.26692400  0.34294300  1
  O  O48  1  0.26692400  0.83982000  0.84294300  1
  O  O49  1  0.16018000  0.73307600  0.65705700  1
  O  O50  1  0.06358500  0.60511300  0.09844500  1
  O  O51  1  0.39488700  0.93641500  0.40155500  1
  O  O52  1  0.93641500  0.39488700  0.90155500  1
  O  O53  1  0.60511300  0.06358500  0.59844500  1
  O  O54  1  0.98281600  0.85553600  0.95210100  1
  O  O55  1  0.14446400  0.01718400  0.54789900  1
  O  O56  1  0.01718400  0.14446400  0.04789900  1
  O  O57  1  0.85553600  0.98281600  0.45210100  1
