# generated using pymatgen
data_Dy5(GeSb)2
_symmetry_space_group_name_H-M   'P 1'
_cell_length_a   8.54373203
_cell_length_b   8.54373203
_cell_length_c   7.93404200
_cell_angle_alpha   90.00000000
_cell_angle_beta   90.00000000
_cell_angle_gamma   124.88995953
_symmetry_Int_Tables_number   1
_chemical_formula_structural   Dy5(GeSb)2
_chemical_formula_sum   'Dy10 Ge4 Sb4'
_cell_volume   475.04756568
_cell_formula_units_Z   2
loop_
 _symmetry_equiv_pos_site_id
 _symmetry_equiv_pos_as_xyz
  1  'x, y, z'
loop_
 _atom_site_type_symbol
 _atom_site_label
 _atom_site_symmetry_multiplicity
 _atom_site_fract_x
 _atom_site_fract_y
 _atom_site_fract_z
 _atom_site_occupancy
  Dy  Dy0  1  0.03683100  0.29288400  0.33615500  1
  Dy  Dy1  1  0.96316900  0.70711600  0.66384500  1
  Dy  Dy2  1  0.46316900  0.20711600  0.83615500  1
  Dy  Dy3  1  0.79288400  0.53683100  0.16384500  1
  Dy  Dy4  1  0.53683100  0.79288400  0.16384500  1
  Dy  Dy5  1  0.20711600  0.46316900  0.83615500  1
  Dy  Dy6  1  0.70711600  0.96316900  0.66384500  1
  Dy  Dy7  1  0.29288400  0.03683100  0.33615500  1
  Dy  Dy8  1  0.00000000  0.00000000  0.00000000  1
  Dy  Dy9  1  0.50000000  0.50000000  0.50000000  1
  Ge  Ge10  1  0.36162800  0.36162800  0.13722100  1
  Ge  Ge11  1  0.63837200  0.63837200  0.86277900  1
  Ge  Ge12  1  0.13837200  0.13837200  0.63722100  1
  Ge  Ge13  1  0.86162800  0.86162800  0.36277900  1
  Sb  Sb14  1  0.79506100  0.20493900  0.00000000  1
  Sb  Sb15  1  0.20493900  0.79506100  0.00000000  1
  Sb  Sb16  1  0.70493900  0.29506100  0.50000000  1
  Sb  Sb17  1  0.29506100  0.70493900  0.50000000  1
