# generated using pymatgen
data_Li4Be3P3IO12
_symmetry_space_group_name_H-M   'P 1'
_cell_length_a   8.24497300
_cell_length_b   8.24497300
_cell_length_c   8.24497300
_cell_angle_alpha   90.00000000
_cell_angle_beta   90.00000000
_cell_angle_gamma   90.00000000
_symmetry_Int_Tables_number   1
_chemical_formula_structural   Li4Be3P3IO12
_chemical_formula_sum   'Li8 Be6 P6 I2 O24'
_cell_volume   560.48979976
_cell_formula_units_Z   2
loop_
 _symmetry_equiv_pos_site_id
 _symmetry_equiv_pos_as_xyz
  1  'x, y, z'
loop_
 _atom_site_type_symbol
 _atom_site_label
 _atom_site_symmetry_multiplicity
 _atom_site_fract_x
 _atom_site_fract_y
 _atom_site_fract_z
 _atom_site_occupancy
  Li  Li0  1  0.19336800  0.19336800  0.19336800  1
  Li  Li1  1  0.80663200  0.80663200  0.19336800  1
  Li  Li2  1  0.80663200  0.19336800  0.80663200  1
  Li  Li3  1  0.69336800  0.69336800  0.69336800  1
  Li  Li4  1  0.19336800  0.80663200  0.80663200  1
  Li  Li5  1  0.30663200  0.30663200  0.69336800  1
  Li  Li6  1  0.69336800  0.30663200  0.30663200  1
  Li  Li7  1  0.30663200  0.69336800  0.30663200  1
  Be  Be8  1  0.25000000  0.00000000  0.50000000  1
  Be  Be9  1  0.75000000  0.00000000  0.50000000  1
  Be  Be10  1  0.50000000  0.25000000  0.00000000  1
  Be  Be11  1  0.50000000  0.75000000  0.00000000  1
  Be  Be12  1  0.00000000  0.50000000  0.25000000  1
  Be  Be13  1  0.00000000  0.50000000  0.75000000  1
  P  P14  1  0.25000000  0.50000000  0.00000000  1
  P  P15  1  0.75000000  0.50000000  0.00000000  1
  P  P16  1  0.00000000  0.25000000  0.50000000  1
  P  P17  1  0.00000000  0.75000000  0.50000000  1
  P  P18  1  0.50000000  0.00000000  0.25000000  1
  P  P19  1  0.50000000  0.00000000  0.75000000  1
  I  I20  1  0.00000000  0.00000000  0.00000000  1
  I  I21  1  0.50000000  0.50000000  0.50000000  1
  O  O22  1  0.13815700  0.14615300  0.42530500  1
  O  O23  1  0.86184300  0.85384700  0.42530500  1
  O  O24  1  0.86184300  0.14615300  0.57469500  1
  O  O25  1  0.42530500  0.13815700  0.14615300  1
  O  O26  1  0.64615300  0.63815700  0.92530500  1
  O  O27  1  0.13815700  0.85384700  0.57469500  1
  O  O28  1  0.42530500  0.86184300  0.85384700  1
  O  O29  1  0.35384700  0.36184300  0.92530500  1
  O  O30  1  0.57469500  0.86184300  0.14615300  1
  O  O31  1  0.64615300  0.36184300  0.07469500  1
  O  O32  1  0.57469500  0.13815700  0.85384700  1
  O  O33  1  0.35384700  0.63815700  0.07469500  1
  O  O34  1  0.14615300  0.42530500  0.13815700  1
  O  O35  1  0.63815700  0.92530500  0.64615300  1
  O  O36  1  0.14615300  0.57469500  0.86184300  1
  O  O37  1  0.36184300  0.07469500  0.64615300  1
  O  O38  1  0.85384700  0.57469500  0.13815700  1
  O  O39  1  0.63815700  0.07469500  0.35384700  1
  O  O40  1  0.85384700  0.42530500  0.86184300  1
  O  O41  1  0.36184300  0.92530500  0.35384700  1
  O  O42  1  0.92530500  0.64615300  0.63815700  1
  O  O43  1  0.92530500  0.35384700  0.36184300  1
  O  O44  1  0.07469500  0.35384700  0.63815700  1
  O  O45  1  0.07469500  0.64615300  0.36184300  1
