# generated using pymatgen
data_Sr2MnNbO6
_symmetry_space_group_name_H-M   'P 1'
_cell_length_a   5.76612485
_cell_length_b   9.78606772
_cell_length_c   9.76856628
_cell_angle_alpha   101.08676884
_cell_angle_beta   88.03024406
_cell_angle_gamma   75.34139818
_symmetry_Int_Tables_number   1
_chemical_formula_structural   Sr2MnNbO6
_chemical_formula_sum   'Sr8 Mn4 Nb4 O24'
_cell_volume   521.31811621
_cell_formula_units_Z   4
loop_
 _symmetry_equiv_pos_site_id
 _symmetry_equiv_pos_as_xyz
  1  'x, y, z'
loop_
 _atom_site_type_symbol
 _atom_site_label
 _atom_site_symmetry_multiplicity
 _atom_site_fract_x
 _atom_site_fract_y
 _atom_site_fract_z
 _atom_site_occupancy
  Sr  Sr0  1  0.31436400  0.37617200  0.56193000  1
  Sr  Sr1  1  0.56424900  0.87612300  0.81204100  1
  Sr  Sr2  1  0.81427100  0.37614300  0.06191700  1
  Sr  Sr3  1  0.06435100  0.87602100  0.31191600  1
  Sr  Sr4  1  0.68578800  0.62376300  0.43808900  1
  Sr  Sr5  1  0.93572900  0.12395100  0.68808000  1
  Sr  Sr6  1  0.18574000  0.62386200  0.93808700  1
  Sr  Sr7  1  0.43581700  0.12384200  0.18798000  1
  Mn  Mn8  1  0.87488500  0.24997800  0.37500700  1
  Mn  Mn9  1  0.12491000  0.75006600  0.62506600  1
  Mn  Mn10  1  0.37473500  0.25006600  0.87485000  1
  Mn  Mn11  1  0.62518500  0.74991900  0.12508500  1
  Nb  Nb12  1  0.50002600  0.99997100  0.50004500  1
  Nb  Nb13  1  0.75003600  0.50006300  0.75001300  1
  Nb  Nb14  1  0.00008800  0.00005200  0.99997300  1
  Nb  Nb15  1  0.25007300  0.49997000  0.25001200  1
  O  O16  1  0.05969600  0.37290400  0.31330300  1
  O  O17  1  0.30946300  0.87310700  0.56340000  1
  O  O18  1  0.55966400  0.37308600  0.81334600  1
  O  O19  1  0.80951600  0.87304100  0.06332700  1
  O  O20  1  0.69062700  0.12688800  0.43663900  1
  O  O21  1  0.94030600  0.62704000  0.68667200  1
  O  O22  1  0.19041500  0.12701600  0.93662600  1
  O  O23  1  0.44033200  0.62700700  0.18666500  1
  O  O24  1  0.19533400  0.13814400  0.47146500  1
  O  O25  1  0.44517500  0.63818700  0.72154700  1
  O  O26  1  0.69527800  0.13805900  0.97143800  1
  O  O27  1  0.94509200  0.63817500  0.22162100  1
  O  O28  1  0.80465300  0.86188700  0.52855900  1
  O  O29  1  0.05483600  0.36181200  0.77842900  1
  O  O30  1  0.30464400  0.86182800  0.02848100  1
  O  O31  1  0.55481100  0.36175000  0.27837200  1
  O  O32  1  0.76237200  0.39335700  0.54894200  1
  O  O33  1  0.01225400  0.89347200  0.79901100  1
  O  O34  1  0.26208900  0.39356100  0.04890600  1
  O  O35  1  0.51229100  0.89343800  0.29903000  1
  O  O36  1  0.23772700  0.60658100  0.45110000  1
  O  O37  1  0.48764000  0.10666100  0.70099400  1
  O  O38  1  0.73775700  0.60655800  0.95105900  1
  O  O39  1  0.98777900  0.10647800  0.20097900  1
