# generated using pymatgen
data_As2Rh
_symmetry_space_group_name_H-M   'P 1'
_cell_length_a   6.16741200
_cell_length_b   6.15045300
_cell_length_c   6.24095977
_cell_angle_alpha   65.88906705
_cell_angle_beta   90.00000000
_cell_angle_gamma   90.00000000
_symmetry_Int_Tables_number   1
_chemical_formula_structural   As2Rh
_chemical_formula_sum   'As8 Rh4'
_cell_volume   216.08084090
_cell_formula_units_Z   4
loop_
 _symmetry_equiv_pos_site_id
 _symmetry_equiv_pos_as_xyz
  1  'x, y, z'
loop_
 _atom_site_type_symbol
 _atom_site_label
 _atom_site_symmetry_multiplicity
 _atom_site_fract_x
 _atom_site_fract_y
 _atom_site_fract_z
 _atom_site_occupancy
  As  As0  1  0.86963900  0.66163300  0.68240000  1
  As  As1  1  0.36963900  0.33836700  0.81760000  1
  As  As2  1  0.13036100  0.33836700  0.31760000  1
  As  As3  1  0.63036100  0.66163300  0.18240000  1
  As  As4  1  0.12766900  0.84486200  0.87001300  1
  As  As5  1  0.62766900  0.15513800  0.62998700  1
  As  As6  1  0.87233100  0.15513800  0.12998700  1
  As  As7  1  0.37233100  0.84486200  0.37001300  1
  Rh  Rh8  1  0.49963600  0.72803900  0.78976800  1
  Rh  Rh9  1  0.99963600  0.27196100  0.71023200  1
  Rh  Rh10  1  0.50036400  0.27196100  0.21023200  1
  Rh  Rh11  1  0.00036400  0.72803900  0.28976800  1
