# generated using pymatgen
data_Rb7NbAs4
_symmetry_space_group_name_H-M   'P 1'
_cell_length_a   8.77254800
_cell_length_b   9.64884100
_cell_length_c   10.81128200
_cell_angle_alpha   90.00000000
_cell_angle_beta   90.00000000
_cell_angle_gamma   90.00000000
_symmetry_Int_Tables_number   1
_chemical_formula_structural   Rb7NbAs4
_chemical_formula_sum   'Rb14 Nb2 As8'
_cell_volume   915.12010882
_cell_formula_units_Z   2
loop_
 _symmetry_equiv_pos_site_id
 _symmetry_equiv_pos_as_xyz
  1  'x, y, z'
loop_
 _atom_site_type_symbol
 _atom_site_label
 _atom_site_symmetry_multiplicity
 _atom_site_fract_x
 _atom_site_fract_y
 _atom_site_fract_z
 _atom_site_occupancy
  Rb  Rb0  1  0.87786200  0.02872700  0.00000000  1
  Rb  Rb1  1  0.70821300  0.83296900  0.71491600  1
  Rb  Rb2  1  0.39109400  0.88790100  0.00000000  1
  Rb  Rb3  1  0.37786200  0.97127300  0.50000000  1
  Rb  Rb4  1  0.87337100  0.46821500  0.28833300  1
  Rb  Rb5  1  0.89109400  0.11209900  0.50000000  1
  Rb  Rb6  1  0.66455700  0.33902200  0.00000000  1
  Rb  Rb7  1  0.16455700  0.66097800  0.50000000  1
  Rb  Rb8  1  0.20821300  0.16703100  0.21491600  1
  Rb  Rb9  1  0.37337100  0.53178500  0.21166700  1
  Rb  Rb10  1  0.37337100  0.53178500  0.78833300  1
  Rb  Rb11  1  0.87337100  0.46821500  0.71166700  1
  Rb  Rb12  1  0.70821300  0.83296900  0.28508400  1
  Rb  Rb13  1  0.20821300  0.16703100  0.78508400  1
  Nb  Nb14  1  0.99841800  0.67267700  0.00000000  1
  Nb  Nb15  1  0.49841800  0.32732300  0.50000000  1
  As  As16  1  0.71092800  0.68305800  0.00000000  1
  As  As17  1  0.21092800  0.31694200  0.50000000  1
  As  As18  1  0.07481500  0.41908300  0.00000000  1
  As  As19  1  0.57481500  0.58091700  0.50000000  1
  As  As20  1  0.09013000  0.80046300  0.19493400  1
  As  As21  1  0.59013000  0.19953700  0.30506600  1
  As  As22  1  0.59013000  0.19953700  0.69493400  1
  As  As23  1  0.09013000  0.80046300  0.80506600  1
