# generated using pymatgen
data_SrLiY2(BO3)3
_symmetry_space_group_name_H-M   'P 1'
_cell_length_a   6.44158600
_cell_length_b   10.43280600
_cell_length_c   10.43279458
_cell_angle_alpha   59.99998747
_cell_angle_beta   90.00005795
_cell_angle_gamma   89.99987733
_symmetry_Int_Tables_number   1
_chemical_formula_structural   SrLiY2(BO3)3
_chemical_formula_sum   'Sr3 Li3 Y6 B9 O27'
_cell_volume   607.19078827
_cell_formula_units_Z   3
loop_
 _symmetry_equiv_pos_site_id
 _symmetry_equiv_pos_as_xyz
  1  'x, y, z'
loop_
 _atom_site_type_symbol
 _atom_site_label
 _atom_site_symmetry_multiplicity
 _atom_site_fract_x
 _atom_site_fract_y
 _atom_site_fract_z
 _atom_site_occupancy
  Sr  Sr0  1  0.99999900  0.99999900  0.50336800  1
  Sr  Sr1  1  0.99999900  0.49663300  0.99999900  1
  Sr  Sr2  1  0.00000000  0.50336800  0.49663400  1
  Li  Li3  1  0.50000000  0.00000000  0.50288200  1
  Li  Li4  1  0.50000000  0.49711900  0.00000100  1
  Li  Li5  1  0.50000000  0.50288100  0.49711900  1
  Y  Y6  1  0.36271100  0.81685000  0.82781900  1
  Y  Y7  1  0.36271000  0.35532600  0.81685100  1
  Y  Y8  1  0.36271300  0.82782400  0.35532900  1
  Y  Y9  1  0.63728800  0.17218600  0.18314200  1
  Y  Y10  1  0.63729100  0.64467500  0.17218700  1
  Y  Y11  1  0.63728900  0.18313900  0.64467100  1
  B  B12  1  0.80474700  0.80865000  0.81248500  1
  B  B13  1  0.80474600  0.37886000  0.80864900  1
  B  B14  1  0.80474500  0.81249400  0.37886400  1
  B  B15  1  0.19525600  0.18751800  0.19134600  1
  B  B16  1  0.19525600  0.62114100  0.18752100  1
  B  B17  1  0.19525500  0.19133700  0.62113600  1
  B  B18  1  0.33526300  0.66667700  0.66666100  1
  B  B19  1  0.66473600  0.33332300  0.33333800  1
  B  B20  1  0.49999900  0.00000000  0.00000800  1
  O  O21  1  0.31346200  0.07119600  0.63813400  1
  O  O22  1  0.31346500  0.29066400  0.07120200  1
  O  O23  1  0.31346400  0.63813700  0.29066400  1
  O  O24  1  0.30372100  0.07719400  0.31291300  1
  O  O25  1  0.30372200  0.60989500  0.07719500  1
  O  O26  1  0.30372200  0.31290800  0.60989200  1
  O  O27  1  0.69627900  0.92281900  0.39010400  1
  O  O28  1  0.69627400  0.68708300  0.92281300  1
  O  O29  1  0.69627400  0.39010200  0.68707900  1
  O  O30  1  0.68654000  0.92879100  0.70933800  1
  O  O31  1  0.68654000  0.36186700  0.92878900  1
  O  O32  1  0.68653900  0.70934400  0.36187000  1
  O  O33  1  0.01562500  0.80510300  0.80122600  1
  O  O34  1  0.01562500  0.39366800  0.80510300  1
  O  O35  1  0.01562600  0.80122900  0.39367200  1
  O  O36  1  0.98437500  0.19878900  0.19488300  1
  O  O37  1  0.98437400  0.60633300  0.19878900  1
  O  O38  1  0.98437500  0.19487800  0.60633000  1
  O  O39  1  0.33711900  0.81917100  0.58957700  1
  O  O40  1  0.33711100  0.59124500  0.81918400  1
  O  O41  1  0.33711100  0.58956900  0.59124800  1
  O  O42  1  0.66288000  0.18083000  0.40874200  1
  O  O43  1  0.66288800  0.41043600  0.18081600  1
  O  O44  1  0.66288800  0.40875000  0.41043400  1
  O  O45  1  0.49999700  0.86819900  0.00000100  1
  O  O46  1  0.50000200  0.13180000  0.86819800  1
  O  O47  1  0.50000000  0.00000200  0.13179100  1
