# generated using pymatgen
data_Mn2Be3Tl2F12
_symmetry_space_group_name_H-M   'P 1'
_cell_length_a   10.41334600
_cell_length_b   10.41334600
_cell_length_c   10.41334600
_cell_angle_alpha   90.00000000
_cell_angle_beta   90.00000000
_cell_angle_gamma   90.00000000
_symmetry_Int_Tables_number   1
_chemical_formula_structural   Mn2Be3Tl2F12
_chemical_formula_sum   'Mn8 Be12 Tl8 F48'
_cell_volume   1129.20006967
_cell_formula_units_Z   4
loop_
 _symmetry_equiv_pos_site_id
 _symmetry_equiv_pos_as_xyz
  1  'x, y, z'
loop_
 _atom_site_type_symbol
 _atom_site_label
 _atom_site_symmetry_multiplicity
 _atom_site_fract_x
 _atom_site_fract_y
 _atom_site_fract_z
 _atom_site_occupancy
  Mn  Mn0  1  0.33473000  0.33473000  0.33473000  1
  Mn  Mn1  1  0.16527000  0.66527000  0.83473000  1
  Mn  Mn2  1  0.66527000  0.83473000  0.16527000  1
  Mn  Mn3  1  0.83473000  0.16527000  0.66527000  1
  Mn  Mn4  1  0.59820000  0.59820000  0.59820000  1
  Mn  Mn5  1  0.90180000  0.40180000  0.09820000  1
  Mn  Mn6  1  0.40180000  0.09820000  0.90180000  1
  Mn  Mn7  1  0.09820000  0.90180000  0.40180000  1
  Be  Be8  1  0.01885300  0.21550800  0.37581400  1
  Be  Be9  1  0.48114700  0.78449200  0.87581400  1
  Be  Be10  1  0.98114700  0.71550800  0.12418600  1
  Be  Be11  1  0.37581400  0.01885300  0.21550800  1
  Be  Be12  1  0.51885300  0.28449200  0.62418600  1
  Be  Be13  1  0.87581400  0.48114700  0.78449200  1
  Be  Be14  1  0.12418600  0.98114700  0.71550800  1
  Be  Be15  1  0.62418600  0.51885300  0.28449200  1
  Be  Be16  1  0.21550800  0.37581400  0.01885300  1
  Be  Be17  1  0.71550800  0.12418600  0.98114700  1
  Be  Be18  1  0.28449200  0.62418600  0.51885300  1
  Be  Be19  1  0.78449200  0.87581400  0.48114700  1
  Tl  Tl20  1  0.04900800  0.04900800  0.04900800  1
  Tl  Tl21  1  0.45099200  0.95099200  0.54900800  1
  Tl  Tl22  1  0.95099200  0.54900800  0.45099200  1
  Tl  Tl23  1  0.54900800  0.45099200  0.95099200  1
  Tl  Tl24  1  0.81671400  0.81671400  0.81671400  1
  Tl  Tl25  1  0.68328600  0.18328600  0.31671400  1
  Tl  Tl26  1  0.18328600  0.31671400  0.68328600  1
  Tl  Tl27  1  0.31671400  0.68328600  0.18328600  1
  F  F28  1  0.01130600  0.07297500  0.32873600  1
  F  F29  1  0.48869400  0.92702500  0.82873600  1
  F  F30  1  0.98869400  0.57297500  0.17126400  1
  F  F31  1  0.32873600  0.01130600  0.07297500  1
  F  F32  1  0.51130600  0.42702500  0.67126400  1
  F  F33  1  0.82873600  0.48869400  0.92702500  1
  F  F34  1  0.17126400  0.98869400  0.57297500  1
  F  F35  1  0.67126400  0.51130600  0.42702500  1
  F  F36  1  0.07297500  0.32873600  0.01130600  1
  F  F37  1  0.57297500  0.17126400  0.98869400  1
  F  F38  1  0.42702500  0.67126400  0.51130600  1
  F  F39  1  0.92702500  0.82873600  0.48869400  1
  F  F40  1  0.26614300  0.49811900  0.43922000  1
  F  F41  1  0.23385700  0.50188100  0.93922000  1
  F  F42  1  0.73385700  0.99811900  0.06078000  1
  F  F43  1  0.43922000  0.26614300  0.49811900  1
  F  F44  1  0.76614300  0.00188100  0.56078000  1
  F  F45  1  0.93922000  0.23385700  0.50188100  1
  F  F46  1  0.06078000  0.73385700  0.99811900  1
  F  F47  1  0.56078000  0.76614300  0.00188100  1
  F  F48  1  0.49811900  0.43922000  0.26614300  1
  F  F49  1  0.99811900  0.06078000  0.73385700  1
  F  F50  1  0.00188100  0.56078000  0.76614300  1
  F  F51  1  0.50188100  0.93922000  0.23385700  1
  F  F52  1  0.04415800  0.80509400  0.22772200  1
  F  F53  1  0.45584200  0.19490600  0.72772200  1
  F  F54  1  0.95584200  0.30509400  0.27227800  1
  F  F55  1  0.22772200  0.04415800  0.80509400  1
  F  F56  1  0.54415800  0.69490600  0.77227800  1
  F  F57  1  0.72772200  0.45584200  0.19490600  1
  F  F58  1  0.27227800  0.95584200  0.30509400  1
  F  F59  1  0.77227800  0.54415800  0.69490600  1
  F  F60  1  0.80509400  0.22772200  0.04415800  1
  F  F61  1  0.30509400  0.27227800  0.95584200  1
  F  F62  1  0.69490600  0.77227800  0.54415800  1
  F  F63  1  0.19490600  0.72772200  0.45584200  1
  F  F64  1  0.16014700  0.25478200  0.40261100  1
  F  F65  1  0.33985300  0.74521800  0.90261100  1
  F  F66  1  0.83985300  0.75478200  0.09738900  1
  F  F67  1  0.40261100  0.16014700  0.25478200  1
  F  F68  1  0.66014700  0.24521800  0.59738900  1
  F  F69  1  0.90261100  0.33985300  0.74521800  1
  F  F70  1  0.09738900  0.83985300  0.75478200  1
  F  F71  1  0.59738900  0.66014700  0.24521800  1
  F  F72  1  0.25478200  0.40261100  0.16014700  1
  F  F73  1  0.75478200  0.09738900  0.83985300  1
  F  F74  1  0.24521800  0.59738900  0.66014700  1
  F  F75  1  0.74521800  0.90261100  0.33985300  1
