# generated using pymatgen
data_CsRbMo3P3O17
_symmetry_space_group_name_H-M   'P 1'
_cell_length_a   9.71158500
_cell_length_b   10.99892800
_cell_length_c   16.02131593
_cell_angle_alpha   68.56286102
_cell_angle_beta   90.00000000
_cell_angle_gamma   90.00000000
_symmetry_Int_Tables_number   1
_chemical_formula_structural   CsRbMo3P3O17
_chemical_formula_sum   'Cs4 Rb4 Mo12 P12 O68'
_cell_volume   1592.95662031
_cell_formula_units_Z   4
loop_
 _symmetry_equiv_pos_site_id
 _symmetry_equiv_pos_as_xyz
  1  'x, y, z'
loop_
 _atom_site_type_symbol
 _atom_site_label
 _atom_site_symmetry_multiplicity
 _atom_site_fract_x
 _atom_site_fract_y
 _atom_site_fract_z
 _atom_site_occupancy
  Cs  Cs0  1  0.38265400  0.81999500  0.51045500  1
  Cs  Cs1  1  0.61734600  0.18000500  0.48954500  1
  Cs  Cs2  1  0.88265400  0.18000500  0.98954500  1
  Cs  Cs3  1  0.11734600  0.81999500  0.01045500  1
  Rb  Rb4  1  0.87062500  0.38835900  0.21049200  1
  Rb  Rb5  1  0.12937500  0.61164100  0.78950800  1
  Rb  Rb6  1  0.37062500  0.61164100  0.28950800  1
  Rb  Rb7  1  0.62937500  0.38835900  0.71049200  1
  Mo  Mo8  1  0.12123300  0.95310600  0.24514000  1
  Mo  Mo9  1  0.87876700  0.04689400  0.75486000  1
  Mo  Mo10  1  0.62123300  0.04689400  0.25486000  1
  Mo  Mo11  1  0.37876700  0.95310600  0.74514000  1
  Mo  Mo12  1  0.62348400  0.75361900  0.06064700  1
  Mo  Mo13  1  0.37651600  0.24638100  0.93935300  1
  Mo  Mo14  1  0.12348400  0.24638100  0.43935300  1
  Mo  Mo15  1  0.87651600  0.75361900  0.56064700  1
  Mo  Mo16  1  0.75866900  0.57672500  0.40019800  1
  Mo  Mo17  1  0.24133100  0.42327500  0.59980200  1
  Mo  Mo18  1  0.25866900  0.42327500  0.09980200  1
  Mo  Mo19  1  0.74133100  0.57672500  0.90019800  1
  P  P20  1  0.40316300  0.95591600  0.12224300  1
  P  P21  1  0.59683700  0.04408400  0.87775700  1
  P  P22  1  0.90316300  0.04408400  0.37775700  1
  P  P23  1  0.09683700  0.95591600  0.62224300  1
  P  P24  1  0.82654000  0.83842900  0.20051300  1
  P  P25  1  0.17346000  0.16157100  0.79948700  1
  P  P26  1  0.32654000  0.16157100  0.29948700  1
  P  P27  1  0.67346000  0.83842900  0.70051300  1
  P  P28  1  0.59574800  0.33176700  0.06818300  1
  P  P29  1  0.40425200  0.66823300  0.93181700  1
  P  P30  1  0.09574800  0.66823300  0.43181700  1
  P  P31  1  0.90425200  0.33176700  0.56818300  1
  O  O32  1  0.44433300  0.73223400  0.00107800  1
  O  O33  1  0.55566700  0.26776600  0.99892200  1
  O  O34  1  0.94433300  0.26776600  0.49892200  1
  O  O35  1  0.05566700  0.73223400  0.50107800  1
  O  O36  1  0.57686400  0.90315500  0.33877500  1
  O  O37  1  0.42313600  0.09684500  0.66122500  1
  O  O38  1  0.07686400  0.09684500  0.16122500  1
  O  O39  1  0.92313600  0.90315500  0.83877500  1
  O  O40  1  0.97553900  0.95675400  0.33460000  1
  O  O41  1  0.02446100  0.04324600  0.66540000  1
  O  O42  1  0.47553900  0.04324600  0.16540000  1
  O  O43  1  0.52446100  0.95675400  0.83460000  1
  O  O44  1  0.70698200  0.43958600  0.02373100  1
  O  O45  1  0.29301800  0.56041400  0.97626900  1
  O  O46  1  0.20698200  0.56041400  0.47626900  1
  O  O47  1  0.79301800  0.43958600  0.52373100  1
  O  O48  1  0.58532600  0.59478300  0.41998400  1
  O  O49  1  0.41467400  0.40521700  0.58001600  1
  O  O50  1  0.08532600  0.40521700  0.08001600  1
  O  O51  1  0.91467400  0.59478300  0.91998400  1
  O  O52  1  0.27111100  0.89321300  0.17767600  1
  O  O53  1  0.72888900  0.10678700  0.82232400  1
  O  O54  1  0.77111100  0.10678700  0.32232400  1
  O  O55  1  0.22888900  0.89321300  0.67767600  1
  O  O56  1  0.49417100  0.83624300  0.12972400  1
  O  O57  1  0.50582900  0.16375700  0.87027600  1
  O  O58  1  0.99417100  0.16375700  0.37027600  1
  O  O59  1  0.00582900  0.83624300  0.62972400  1
  O  O60  1  0.61692200  0.60488600  0.14889500  1
  O  O61  1  0.38307800  0.39511400  0.85110500  1
  O  O62  1  0.11692200  0.39511400  0.35110500  1
  O  O63  1  0.88307800  0.60488600  0.64889500  1
  O  O64  1  0.97186600  0.60809600  0.40221300  1
  O  O65  1  0.02813400  0.39190400  0.59778700  1
  O  O66  1  0.47186600  0.39190400  0.09778700  1
  O  O67  1  0.52813400  0.60809600  0.90221300  1
  O  O68  1  0.98583800  0.84177400  0.20135900  1
  O  O69  1  0.01416200  0.15822600  0.79864100  1
  O  O70  1  0.48583800  0.15822600  0.29864100  1
  O  O71  1  0.51416200  0.84177400  0.70135900  1
  O  O72  1  0.76583000  0.97212700  0.19174800  1
  O  O73  1  0.23417000  0.02787300  0.80825200  1
  O  O74  1  0.26583000  0.02787300  0.30825200  1
  O  O75  1  0.73417000  0.97212700  0.69174800  1
  O  O76  1  0.76611800  0.73085300  0.28399700  1
  O  O77  1  0.23388200  0.26914700  0.71600300  1
  O  O78  1  0.26611800  0.26914700  0.21600300  1
  O  O79  1  0.73388200  0.73085300  0.78399700  1
  O  O80  1  0.79142800  0.80998900  0.11458200  1
  O  O81  1  0.20857200  0.19001100  0.88541800  1
  O  O82  1  0.29142800  0.19001100  0.38541800  1
  O  O83  1  0.70857200  0.80998900  0.61458200  1
  O  O84  1  0.67179400  0.23165900  0.14794800  1
  O  O85  1  0.32820600  0.76834100  0.85205200  1
  O  O86  1  0.17179400  0.76834100  0.35205200  1
  O  O87  1  0.82820600  0.23165900  0.64794800  1
  O  O88  1  0.86257800  0.96204900  0.47400400  1
  O  O89  1  0.13742200  0.03795100  0.52599600  1
  O  O90  1  0.36257800  0.03795100  0.02599600  1
  O  O91  1  0.63742200  0.96204900  0.97400400  1
  O  O92  1  0.78392800  0.71391700  0.47874300  1
  O  O93  1  0.21607200  0.28608300  0.52125700  1
  O  O94  1  0.28392800  0.28608300  0.02125700  1
  O  O95  1  0.71607200  0.71391700  0.97874300  1
  O  O96  1  0.75681100  0.46008500  0.35051200  1
  O  O97  1  0.24318900  0.53991500  0.64948800  1
  O  O98  1  0.25681100  0.53991500  0.14948800  1
  O  O99  1  0.74318900  0.46008500  0.85051200  1
