# generated using pymatgen
data_Na3Mg4InSi8(O11F)2
_symmetry_space_group_name_H-M   'P 1'
_cell_length_a   5.35144800
_cell_length_b   9.94088937
_cell_length_c   10.43900434
_cell_angle_alpha   61.57109193
_cell_angle_beta   83.61586563
_cell_angle_gamma   76.50220225
_symmetry_Int_Tables_number   1
_chemical_formula_structural   Na3Mg4InSi8(O11F)2
_chemical_formula_sum   'Na3 Mg4 In1 Si8 O22 F2'
_cell_volume   474.87773052
_cell_formula_units_Z   1
loop_
 _symmetry_equiv_pos_site_id
 _symmetry_equiv_pos_as_xyz
  1  'x, y, z'
loop_
 _atom_site_type_symbol
 _atom_site_label
 _atom_site_symmetry_multiplicity
 _atom_site_fract_x
 _atom_site_fract_y
 _atom_site_fract_z
 _atom_site_occupancy
  Na  Na0  1  0.50004800  0.27390100  0.45298700  1
  Na  Na1  1  0.49994300  0.72277800  0.55533200  1
  Na  Na2  1  0.07394900  0.47084100  0.99893300  1
  Mg  Mg3  1  0.99997600  0.00244900  0.99420300  1
  Mg  Mg4  1  0.50047200  0.08969800  0.81944800  1
  Mg  Mg5  1  0.50039100  0.91355100  0.17177400  1
  Mg  Mg6  1  0.99965500  0.18324500  0.63330400  1
  In  In7  1  0.99973000  0.81787400  0.36389100  1
  Si  Si8  1  0.79613200  0.88115200  0.66654100  1
  Si  Si9  1  0.79676500  0.53937400  0.33809500  1
  Si  Si10  1  0.20369100  0.12137900  0.33891800  1
  Si  Si11  1  0.20430500  0.45209400  0.66557200  1
  Si  Si12  1  0.29168700  0.80238900  0.83203400  1
  Si  Si13  1  0.29263600  0.63294000  0.16634100  1
  Si  Si14  1  0.70797100  0.20088800  0.16628900  1
  Si  Si15  1  0.70889400  0.36563200  0.83211500  1
  O  O16  1  0.29147800  0.65510400  0.99934900  1
  O  O17  1  0.70931800  0.34556200  0.99936800  1
  O  O18  1  0.78704200  0.88887900  0.50921700  1
  O  O19  1  0.79729300  0.39258500  0.49404300  1
  O  O20  1  0.20386400  0.11377600  0.49395300  1
  O  O21  1  0.21430100  0.60203100  0.50945000  1
  O  O22  1  0.08075800  0.77683200  0.74663300  1
  O  O23  1  0.07943500  0.52552200  0.25281800  1
  O  O24  1  0.92241100  0.22180400  0.25204800  1
  O  O25  1  0.92104700  0.47584800  0.74742700  1
  O  O26  1  0.73051000  0.04631700  0.67040000  1
  O  O27  1  0.72056600  0.71461600  0.32886100  1
  O  O28  1  0.28003700  0.95630300  0.32878200  1
  O  O29  1  0.27041500  0.28284900  0.67051900  1
  O  O30  1  0.21798800  0.96877000  0.83388100  1
  O  O31  1  0.21714900  0.80237200  0.16649700  1
  O  O32  1  0.78246000  0.03135700  0.16684000  1
  O  O33  1  0.78184900  0.19783700  0.83349900  1
  O  O34  1  0.57942100  0.77265000  0.76576700  1
  O  O35  1  0.57958400  0.53957400  0.23329900  1
  O  O36  1  0.41752800  0.22904500  0.23058700  1
  O  O37  1  0.41771600  0.46064400  0.76857700  1
  F  F38  1  0.71081300  0.89971500  0.00114900  1
  F  F39  1  0.28777300  0.10082100  0.00125900  1
