# generated using pymatgen
data_TiAsRu
_symmetry_space_group_name_H-M   'P 1'
_cell_length_a   7.49711664
_cell_length_b   7.49711664
_cell_length_c   7.49711664
_cell_angle_alpha   128.13360451
_cell_angle_beta   121.22599361
_cell_angle_gamma   82.18862140
_symmetry_Int_Tables_number   1
_chemical_formula_structural   TiAsRu
_chemical_formula_sum   'Ti6 As6 Ru6'
_cell_volume   272.59878906
_cell_formula_units_Z   6
loop_
 _symmetry_equiv_pos_site_id
 _symmetry_equiv_pos_as_xyz
  1  'x, y, z'
loop_
 _atom_site_type_symbol
 _atom_site_label
 _atom_site_symmetry_multiplicity
 _atom_site_fract_x
 _atom_site_fract_y
 _atom_site_fract_z
 _atom_site_occupancy
  Ti  Ti0  1  0.46678000  0.24742600  0.28064600  1
  Ti  Ti1  1  0.53322000  0.81386600  0.78064600  1
  Ti  Ti2  1  0.74947800  0.66461800  0.41513900  1
  Ti  Ti3  1  0.25052200  0.66566100  0.91513900  1
  Ti  Ti4  1  0.05489700  0.84610200  0.29120500  1
  Ti  Ti5  1  0.94510300  0.23630800  0.79120500  1
  As  As6  1  0.83553100  0.57934800  0.74821100  1
  As  As7  1  0.16446900  0.91267900  0.74381700  1
  As  As8  1  0.66886200  0.91267900  0.24821100  1
  As  As9  1  0.33113800  0.57934800  0.24381700  1
  As  As10  1  0.28279000  0.28377500  0.50098500  1
  As  As11  1  0.71721000  0.21819500  0.00098500  1
  Ru  Ru12  1  0.66389200  0.49595300  0.91049200  1
  Ru  Ru13  1  0.33610800  0.24660000  0.83206200  1
  Ru  Ru14  1  0.91453900  0.24660000  0.41049200  1
  Ru  Ru15  1  0.08546100  0.49595300  0.33206200  1
  Ru  Ru16  1  0.00000000  0.99764300  0.99764300  1
  Ru  Ru17  1  0.50000000  0.99764300  0.49764300  1
