# generated using pymatgen
data_Nb3Fe(BiO3)6
_symmetry_space_group_name_H-M   'P 1'
_cell_length_a   5.49266700
_cell_length_b   5.55048549
_cell_length_c   13.23886840
_cell_angle_alpha   90.40280397
_cell_angle_beta   101.62776844
_cell_angle_gamma   90.11659454
_symmetry_Int_Tables_number   1
_chemical_formula_structural   Nb3Fe(BiO3)6
_chemical_formula_sum   'Nb3 Fe1 Bi6 O18'
_cell_volume   395.31766558
_cell_formula_units_Z   1
loop_
 _symmetry_equiv_pos_site_id
 _symmetry_equiv_pos_as_xyz
  1  'x, y, z'
loop_
 _atom_site_type_symbol
 _atom_site_label
 _atom_site_symmetry_multiplicity
 _atom_site_fract_x
 _atom_site_fract_y
 _atom_site_fract_z
 _atom_site_occupancy
  Nb  Nb0  1  0.16462800  0.30042600  0.82592000  1
  Nb  Nb1  1  0.66198000  0.80114500  0.82581800  1
  Nb  Nb2  1  0.83958000  0.81194500  0.17792700  1
  Fe  Fe3  1  0.33117600  0.30808100  0.17680700  1
  Bi  Bi4  1  0.99331100  0.25402800  0.39665500  1
  Bi  Bi5  1  0.57482000  0.25124900  0.59437700  1
  Bi  Bi6  1  0.02207600  0.76449600  0.59500200  1
  Bi  Bi7  1  0.43131100  0.73199300  0.39709800  1
  Bi  Bi8  1  0.74453200  0.25314100  0.01508100  1
  Bi  Bi9  1  0.26452100  0.74881300  0.01389200  1
  O  O10  1  0.24208300  0.52330600  0.50196200  1
  O  O11  1  0.74198200  0.52377100  0.49729600  1
  O  O12  1  0.75854900  0.02027400  0.49739000  1
  O  O13  1  0.25772800  0.02014100  0.50094800  1
  O  O14  1  0.32980900  0.34880900  0.99762100  1
  O  O15  1  0.66658500  0.84786000  0.99750800  1
  O  O16  1  0.35828100  0.62664200  0.82507900  1
  O  O17  1  0.52753700  0.63135600  0.16818900  1
  O  O18  1  0.64458100  0.12898700  0.16834800  1
  O  O19  1  0.46737300  0.12580900  0.82496800  1
  O  O20  1  0.33467700  0.33512200  0.32084400  1
  O  O21  1  0.02702100  0.31659100  0.68440200  1
  O  O22  1  0.65640100  0.81877200  0.68364800  1
  O  O23  1  0.97017000  0.81265400  0.31938100  1
  O  O24  1  0.02507000  0.54185900  0.12971300  1
  O  O25  1  0.89630600  0.54115700  0.86736300  1
  O  O26  1  0.97168800  0.03932100  0.86726900  1
  O  O27  1  0.09622600  0.03405200  0.12949300  1
