# generated using pymatgen
data_Ti2AlGe3
_symmetry_space_group_name_H-M   'P 1'
_cell_length_a   7.28027333
_cell_length_b   7.28027333
_cell_length_c   3.69786700
_cell_angle_alpha   90.00000000
_cell_angle_beta   90.00000000
_cell_angle_gamma   150.57206214
_symmetry_Int_Tables_number   1
_chemical_formula_structural   Ti2AlGe3
_chemical_formula_sum   'Ti2 Al1 Ge3'
_cell_volume   96.29829936
_cell_formula_units_Z   1
loop_
 _symmetry_equiv_pos_site_id
 _symmetry_equiv_pos_as_xyz
  1  'x, y, z'
loop_
 _atom_site_type_symbol
 _atom_site_label
 _atom_site_symmetry_multiplicity
 _atom_site_fract_x
 _atom_site_fract_y
 _atom_site_fract_z
 _atom_site_occupancy
  Ti  Ti0  1  0.90107300  0.09892700  0.00000000  1
  Ti  Ti1  1  0.09912400  0.90087600  0.50000000  1
  Al  Al2  1  0.75091900  0.24908100  0.50000000  1
  Ge  Ge3  1  0.24903400  0.75096600  0.00000000  1
  Ge  Ge4  1  0.56632200  0.43367800  0.00000000  1
  Ge  Ge5  1  0.43352700  0.56647300  0.50000000  1
