# generated using pymatgen
data_Tb7Co6Sn23
_symmetry_space_group_name_H-M   'P 1'
_cell_length_a   9.70625663
_cell_length_b   9.70625663
_cell_length_c   9.94056700
_cell_angle_alpha   90.00000000
_cell_angle_beta   90.00000000
_cell_angle_gamma   120.00000430
_symmetry_Int_Tables_number   1
_chemical_formula_structural   Tb7Co6Sn23
_chemical_formula_sum   'Tb7 Co6 Sn23'
_cell_volume   811.04566849
_cell_formula_units_Z   1
loop_
 _symmetry_equiv_pos_site_id
 _symmetry_equiv_pos_as_xyz
  1  'x, y, z'
loop_
 _atom_site_type_symbol
 _atom_site_label
 _atom_site_symmetry_multiplicity
 _atom_site_fract_x
 _atom_site_fract_y
 _atom_site_fract_z
 _atom_site_occupancy
  Tb  Tb0  1  0.00000000  0.00000000  0.00000000  1
  Tb  Tb1  1  0.47897900  0.52102100  0.30597900  1
  Tb  Tb2  1  0.52102100  0.47897900  0.69402100  1
  Tb  Tb3  1  0.47897900  0.95795800  0.30597900  1
  Tb  Tb4  1  0.52102100  0.04204200  0.69402100  1
  Tb  Tb5  1  0.04204200  0.52102100  0.30597900  1
  Tb  Tb6  1  0.95795800  0.47897900  0.69402100  1
  Co  Co7  1  0.83241300  0.16758700  0.19803000  1
  Co  Co8  1  0.16758700  0.83241300  0.80197000  1
  Co  Co9  1  0.83241300  0.66482600  0.19803000  1
  Co  Co10  1  0.16758700  0.33517400  0.80197000  1
  Co  Co11  1  0.33517400  0.16758700  0.19803000  1
  Co  Co12  1  0.66482600  0.83241300  0.80197000  1
  Sn  Sn13  1  0.34672100  0.00000000  0.00000000  1
  Sn  Sn14  1  0.65327900  0.00000000  0.00000000  1
  Sn  Sn15  1  0.00000000  0.34672100  0.00000000  1
  Sn  Sn16  1  0.00000000  0.65327900  0.00000000  1
  Sn  Sn17  1  0.65327900  0.65327900  0.00000000  1
  Sn  Sn18  1  0.34672100  0.34672100  0.00000000  1
  Sn  Sn19  1  0.33333300  0.66666700  0.81880300  1
  Sn  Sn20  1  0.66666700  0.33333300  0.18119700  1
  Sn  Sn21  1  0.00000000  0.00000000  0.50000000  1
  Sn  Sn22  1  0.78109100  0.21890900  0.45375600  1
  Sn  Sn23  1  0.21890900  0.78109100  0.54624400  1
  Sn  Sn24  1  0.78109100  0.56218200  0.45375600  1
  Sn  Sn25  1  0.21890900  0.43781800  0.54624400  1
  Sn  Sn26  1  0.43781800  0.21890900  0.45375600  1
  Sn  Sn27  1  0.56218200  0.78109100  0.54624400  1
  Sn  Sn28  1  0.33333300  0.66666700  0.11563300  1
  Sn  Sn29  1  0.66666700  0.33333300  0.88436700  1
  Sn  Sn30  1  0.11774100  0.88225900  0.27567000  1
  Sn  Sn31  1  0.88225900  0.11774100  0.72433000  1
  Sn  Sn32  1  0.11774100  0.23548300  0.27567000  1
  Sn  Sn33  1  0.88225900  0.76451700  0.72433000  1
  Sn  Sn34  1  0.76451700  0.88225900  0.27567000  1
  Sn  Sn35  1  0.23548300  0.11774100  0.72433000  1
