# generated using pymatgen
data_La4GeO8
_symmetry_space_group_name_H-M   'P 1'
_cell_length_a   5.87197900
_cell_length_b   7.70054000
_cell_length_c   18.43689800
_cell_angle_alpha   90.00000000
_cell_angle_beta   90.00000000
_cell_angle_gamma   90.00000000
_symmetry_Int_Tables_number   1
_chemical_formula_structural   La4GeO8
_chemical_formula_sum   'La16 Ge4 O32'
_cell_volume   833.66876067
_cell_formula_units_Z   4
loop_
 _symmetry_equiv_pos_site_id
 _symmetry_equiv_pos_as_xyz
  1  'x, y, z'
loop_
 _atom_site_type_symbol
 _atom_site_label
 _atom_site_symmetry_multiplicity
 _atom_site_fract_x
 _atom_site_fract_y
 _atom_site_fract_z
 _atom_site_occupancy
  La  La0  1  0.54097200  0.25000000  0.28281600  1
  La  La1  1  0.95902800  0.25000000  0.78281600  1
  La  La2  1  0.47690900  0.49053100  0.89785000  1
  La  La3  1  0.02309100  0.00946900  0.39785000  1
  La  La4  1  0.02309100  0.49053100  0.39785000  1
  La  La5  1  0.47690900  0.00946900  0.89785000  1
  La  La6  1  0.98128700  0.25000000  0.98777700  1
  La  La7  1  0.51871300  0.25000000  0.48777700  1
  La  La8  1  0.01871300  0.75000000  0.01222300  1
  La  La9  1  0.48128700  0.75000000  0.51222300  1
  La  La10  1  0.52309100  0.50946900  0.10215000  1
  La  La11  1  0.97690900  0.99053100  0.60215000  1
  La  La12  1  0.97690900  0.50946900  0.60215000  1
  La  La13  1  0.52309100  0.99053100  0.10215000  1
  La  La14  1  0.45902800  0.75000000  0.71718400  1
  La  La15  1  0.04097200  0.75000000  0.21718400  1
  Ge  Ge16  1  0.49629300  0.25000000  0.69142300  1
  Ge  Ge17  1  0.00370700  0.25000000  0.19142300  1
  Ge  Ge18  1  0.50370700  0.75000000  0.30857700  1
  Ge  Ge19  1  0.99629300  0.75000000  0.80857700  1
  O  O20  1  0.19131800  0.75000000  0.88288500  1
  O  O21  1  0.30868200  0.75000000  0.38288500  1
  O  O22  1  0.72774600  0.75000000  0.62448400  1
  O  O23  1  0.77225400  0.75000000  0.12448400  1
  O  O24  1  0.20580900  0.25000000  0.66353300  1
  O  O25  1  0.29419100  0.25000000  0.16353300  1
  O  O26  1  0.74100300  0.51739900  0.99530600  1
  O  O27  1  0.75899700  0.98260100  0.49530600  1
  O  O28  1  0.75899700  0.51739900  0.49530600  1
  O  O29  1  0.74100300  0.98260100  0.99530600  1
  O  O30  1  0.70580900  0.75000000  0.83646700  1
  O  O31  1  0.79419100  0.75000000  0.33646700  1
  O  O32  1  0.22774600  0.25000000  0.87551600  1
  O  O33  1  0.27225400  0.25000000  0.37551600  1
  O  O34  1  0.57422400  0.43789000  0.74232300  1
  O  O35  1  0.92577600  0.06211000  0.24232300  1
  O  O36  1  0.92577600  0.43789000  0.24232300  1
  O  O37  1  0.57422400  0.06211000  0.74232300  1
  O  O38  1  0.69131800  0.25000000  0.61711500  1
  O  O39  1  0.80868200  0.25000000  0.11711500  1
  O  O40  1  0.42577600  0.56211000  0.25767700  1
  O  O41  1  0.07422400  0.93789000  0.75767700  1
  O  O42  1  0.07422400  0.56211000  0.75767700  1
  O  O43  1  0.42577600  0.93789000  0.25767700  1
  O  O44  1  0.23741900  0.75000000  0.61556300  1
  O  O45  1  0.26258100  0.75000000  0.11556300  1
  O  O46  1  0.73741900  0.25000000  0.88443700  1
  O  O47  1  0.76258100  0.25000000  0.38443700  1
  O  O48  1  0.25899700  0.48260100  0.00469400  1
  O  O49  1  0.24100300  0.01739900  0.50469400  1
  O  O50  1  0.24100300  0.48260100  0.50469400  1
  O  O51  1  0.25899700  0.01739900  0.00469400  1
