# generated using pymatgen
data_Cs2Sb8S13
_symmetry_space_group_name_H-M   'P 1'
_cell_length_a   8.54415100
_cell_length_b   11.68066413
_cell_length_c   15.70400621
_cell_angle_alpha   85.37488984
_cell_angle_beta   77.08046930
_cell_angle_gamma   73.06633425
_symmetry_Int_Tables_number   1
_chemical_formula_structural   Cs2Sb8S13
_chemical_formula_sum   'Cs4 Sb16 S26'
_cell_volume   1461.17019607
_cell_formula_units_Z   2
loop_
 _symmetry_equiv_pos_site_id
 _symmetry_equiv_pos_as_xyz
  1  'x, y, z'
loop_
 _atom_site_type_symbol
 _atom_site_label
 _atom_site_symmetry_multiplicity
 _atom_site_fract_x
 _atom_site_fract_y
 _atom_site_fract_z
 _atom_site_occupancy
  Cs  Cs0  1  0.70214200  0.43556900  0.76208200  1
  Cs  Cs1  1  0.29785800  0.56443100  0.23791800  1
  Cs  Cs2  1  0.71772700  0.14474900  0.00933400  1
  Cs  Cs3  1  0.28227300  0.85525100  0.99066600  1
  Sb  Sb4  1  0.83640000  0.62625300  0.06570200  1
  Sb  Sb5  1  0.16360000  0.37374700  0.93429800  1
  Sb  Sb6  1  0.75045300  0.00422200  0.58911100  1
  Sb  Sb7  1  0.24954700  0.99577800  0.41088900  1
  Sb  Sb8  1  0.96685900  0.72935000  0.45111600  1
  Sb  Sb9  1  0.03314100  0.27065000  0.54888400  1
  Sb  Sb10  1  0.51615400  0.77651400  0.57621200  1
  Sb  Sb11  1  0.48384600  0.22348600  0.42378800  1
  Sb  Sb12  1  0.35457800  0.20289900  0.72749600  1
  Sb  Sb13  1  0.64542200  0.79710100  0.27250400  1
  Sb  Sb14  1  0.10496500  0.97105300  0.72586300  1
  Sb  Sb15  1  0.89503500  0.02894700  0.27413700  1
  Sb  Sb16  1  0.01073000  0.67308000  0.81530600  1
  Sb  Sb17  1  0.98927000  0.32692000  0.18469400  1
  Sb  Sb18  1  0.29606400  0.52923400  0.58409200  1
  Sb  Sb19  1  0.70393600  0.47076600  0.41590800  1
  S  S20  1  0.83229300  0.10453500  0.70358900  1
  S  S21  1  0.16770700  0.89546500  0.29641100  1
  S  S22  1  0.79096400  0.61678700  0.55443000  1
  S  S23  1  0.20903600  0.38321300  0.44557000  1
  S  S24  1  0.44643200  0.63536800  0.43546400  1
  S  S25  1  0.55356800  0.36463200  0.56453600  1
  S  S26  1  0.72816700  0.88977400  0.42328600  1
  S  S27  1  0.27183300  0.11022600  0.57671400  1
  S  S28  1  0.24362900  0.35828900  0.08018300  1
  S  S29  1  0.75637100  0.64171100  0.91981700  1
  S  S30  1  0.44167900  0.24984200  0.86615800  1
  S  S31  1  0.55832100  0.75015800  0.13384200  1
  S  S32  1  0.38022500  0.64906600  0.68865900  1
  S  S33  1  0.61977500  0.35093400  0.31134100  1
  S  S34  1  0.02551400  0.84582200  0.56315900  1
  S  S35  1  0.97448600  0.15417800  0.43684100  1
  S  S36  1  0.78979400  0.42321300  0.08861800  1
  S  S37  1  0.21020600  0.57678700  0.91138200  1
  S  S38  1  0.59096900  0.88113300  0.69208000  1
  S  S39  1  0.40903100  0.11886700  0.30792000  1
  S  S40  1  0.14320900  0.11110500  0.82562700  1
  S  S41  1  0.85679100  0.88889500  0.17437300  1
  S  S42  1  0.15007500  0.39985800  0.71982400  1
  S  S43  1  0.84992500  0.60014200  0.28017600  1
  S  S44  1  0.97632600  0.87531000  0.86682300  1
  S  S45  1  0.02367400  0.12469000  0.13317700  1
