# generated using pymatgen
data_Rb3ScV2O8
_symmetry_space_group_name_H-M   'P 1'
_cell_length_a   5.92897974
_cell_length_b   5.92897974
_cell_length_c   7.90763300
_cell_angle_alpha   90.00000000
_cell_angle_beta   90.00000000
_cell_angle_gamma   119.99999712
_symmetry_Int_Tables_number   1
_chemical_formula_structural   Rb3ScV2O8
_chemical_formula_sum   'Rb3 Sc1 V2 O8'
_cell_volume   240.73380612
_cell_formula_units_Z   1
loop_
 _symmetry_equiv_pos_site_id
 _symmetry_equiv_pos_as_xyz
  1  'x, y, z'
loop_
 _atom_site_type_symbol
 _atom_site_label
 _atom_site_symmetry_multiplicity
 _atom_site_fract_x
 _atom_site_fract_y
 _atom_site_fract_z
 _atom_site_occupancy
  Rb  Rb0  1  0.66666700  0.33333300  0.29595400  1
  Rb  Rb1  1  0.33333300  0.66666700  0.70404600  1
  Rb  Rb2  1  0.00000000  0.00000000  0.00000000  1
  Sc  Sc3  1  0.00000000  0.00000000  0.50000000  1
  V  V4  1  0.66666700  0.33333300  0.73060300  1
  V  V5  1  0.33333300  0.66666700  0.26939700  1
  O  O6  1  0.66666700  0.33333300  0.94360400  1
  O  O7  1  0.33333300  0.66666700  0.05639600  1
  O  O8  1  0.82986500  0.65973000  0.65711400  1
  O  O9  1  0.17013500  0.34027000  0.34288600  1
  O  O10  1  0.82986500  0.17013500  0.65711400  1
  O  O11  1  0.17013500  0.82986500  0.34288600  1
  O  O12  1  0.34027000  0.17013500  0.65711400  1
  O  O13  1  0.65973000  0.82986500  0.34288600  1
