# generated using pymatgen
data_Gd2B6Os
_symmetry_space_group_name_H-M   'P 1'
_cell_length_a   3.78634300
_cell_length_b   9.14631600
_cell_length_c   11.56575100
_cell_angle_alpha   90.00000000
_cell_angle_beta   90.00000000
_cell_angle_gamma   90.00000000
_symmetry_Int_Tables_number   1
_chemical_formula_structural   Gd2B6Os
_chemical_formula_sum   'Gd8 B24 Os4'
_cell_volume   400.53455874
_cell_formula_units_Z   4
loop_
 _symmetry_equiv_pos_site_id
 _symmetry_equiv_pos_as_xyz
  1  'x, y, z'
loop_
 _atom_site_type_symbol
 _atom_site_label
 _atom_site_symmetry_multiplicity
 _atom_site_fract_x
 _atom_site_fract_y
 _atom_site_fract_z
 _atom_site_occupancy
  Gd  Gd0  1  0.00000000  0.32294600  0.41366500  1
  Gd  Gd1  1  0.00000000  0.67705400  0.58633500  1
  Gd  Gd2  1  0.00000000  0.82294600  0.08633500  1
  Gd  Gd3  1  0.00000000  0.17705400  0.91366500  1
  Gd  Gd4  1  0.00000000  0.94538300  0.37308400  1
  Gd  Gd5  1  0.00000000  0.05461700  0.62691600  1
  Gd  Gd6  1  0.00000000  0.44538300  0.12691600  1
  Gd  Gd7  1  0.00000000  0.55461700  0.87308400  1
  B  B8  1  0.50000000  0.55500900  0.43306300  1
  B  B9  1  0.50000000  0.44499100  0.56693700  1
  B  B10  1  0.50000000  0.05500900  0.06693700  1
  B  B11  1  0.50000000  0.94499100  0.93306300  1
  B  B12  1  0.50000000  0.74829000  0.42033200  1
  B  B13  1  0.50000000  0.25171000  0.57966800  1
  B  B14  1  0.50000000  0.24829000  0.07966800  1
  B  B15  1  0.50000000  0.75171000  0.92033200  1
  B  B16  1  0.50000000  0.79160300  0.26741400  1
  B  B17  1  0.50000000  0.20839700  0.73258600  1
  B  B18  1  0.50000000  0.29160300  0.23258600  1
  B  B19  1  0.50000000  0.70839700  0.76741400  1
  B  B20  1  0.50000000  0.63382300  0.18683700  1
  B  B21  1  0.50000000  0.36617700  0.81316300  1
  B  B22  1  0.50000000  0.13382300  0.31316300  1
  B  B23  1  0.50000000  0.86617700  0.68683700  1
  B  B24  1  0.50000000  0.98613600  0.21191900  1
  B  B25  1  0.50000000  0.01386400  0.78808100  1
  B  B26  1  0.50000000  0.48613600  0.28808100  1
  B  B27  1  0.50000000  0.51386400  0.71191900  1
  B  B28  1  0.50000000  0.61214500  0.03150200  1
  B  B29  1  0.50000000  0.38785500  0.96849800  1
  B  B30  1  0.50000000  0.11214500  0.46849800  1
  B  B31  1  0.50000000  0.88785500  0.53150200  1
  Os  Os32  1  0.00000000  0.63911000  0.32219600  1
  Os  Os33  1  0.00000000  0.36089000  0.67780400  1
  Os  Os34  1  0.00000000  0.13911000  0.17780400  1
  Os  Os35  1  0.00000000  0.86089000  0.82219600  1
