# generated using pymatgen
data_EuIn2(GeIr)4
_symmetry_space_group_name_H-M   'P 1'
_cell_length_a   6.63908276
_cell_length_b   6.63908276
_cell_length_c   6.63908276
_cell_angle_alpha   116.23124229
_cell_angle_beta   116.23124229
_cell_angle_gamma   96.66187854
_symmetry_Int_Tables_number   1
_chemical_formula_structural   EuIn2(GeIr)4
_chemical_formula_sum   'Eu1 In2 Ge4 Ir4'
_cell_volume   217.12058435
_cell_formula_units_Z   1
loop_
 _symmetry_equiv_pos_site_id
 _symmetry_equiv_pos_as_xyz
  1  'x, y, z'
loop_
 _atom_site_type_symbol
 _atom_site_label
 _atom_site_symmetry_multiplicity
 _atom_site_fract_x
 _atom_site_fract_y
 _atom_site_fract_z
 _atom_site_occupancy
  Eu  Eu0  1  0.00000000  0.00000000  0.00000000  1
  In  In1  1  0.50000000  0.00000000  0.50000000  1
  In  In2  1  0.00000000  0.50000000  0.50000000  1
  Ge  Ge3  1  0.12297600  0.12297600  0.63466800  1
  Ge  Ge4  1  0.48830800  0.48830800  0.36533200  1
  Ge  Ge5  1  0.51169200  0.87702400  0.00000000  1
  Ge  Ge6  1  0.87702400  0.51169200  0.00000000  1
  Ir  Ir7  1  0.55558500  0.24047600  0.00000000  1
  Ir  Ir8  1  0.24047600  0.55558500  0.00000000  1
  Ir  Ir9  1  0.75952400  0.75952400  0.31510900  1
  Ir  Ir10  1  0.44441500  0.44441500  0.68489100  1
