# generated using pymatgen
data_BaGe7N10
_symmetry_space_group_name_H-M   'P 1'
_cell_length_a   7.14696700
_cell_length_b   7.31781700
_cell_length_c   10.27104617
_cell_angle_alpha   74.04606042
_cell_angle_beta   90.00000000
_cell_angle_gamma   90.00000000
_symmetry_Int_Tables_number   1
_chemical_formula_structural   BaGe7N10
_chemical_formula_sum   'Ba2 Ge14 N20'
_cell_volume   516.48724442
_cell_formula_units_Z   2
loop_
 _symmetry_equiv_pos_site_id
 _symmetry_equiv_pos_as_xyz
  1  'x, y, z'
loop_
 _atom_site_type_symbol
 _atom_site_label
 _atom_site_symmetry_multiplicity
 _atom_site_fract_x
 _atom_site_fract_y
 _atom_site_fract_z
 _atom_site_occupancy
  Ba  Ba0  1  0.92949200  0.04190400  0.66805900  1
  Ba  Ba1  1  0.07050800  0.04190400  0.16805900  1
  Ge  Ge2  1  0.03137200  0.45600900  0.82726900  1
  Ge  Ge3  1  0.96862800  0.45600900  0.32726900  1
  Ge  Ge4  1  0.97052200  0.64983500  0.01650600  1
  Ge  Ge5  1  0.02947800  0.64983500  0.51650600  1
  Ge  Ge6  1  0.60828100  0.89057600  0.07270900  1
  Ge  Ge7  1  0.39171900  0.89057600  0.57270900  1
  Ge  Ge8  1  0.63805000  0.33357700  0.99347800  1
  Ge  Ge9  1  0.36195000  0.33357700  0.49347800  1
  Ge  Ge10  1  0.37483500  0.15073400  0.80966800  1
  Ge  Ge11  1  0.62516500  0.15073400  0.30966800  1
  Ge  Ge12  1  0.38054900  0.70460900  0.88355900  1
  Ge  Ge13  1  0.61945100  0.70460900  0.38355900  1
  Ge  Ge14  1  0.62996100  0.51602900  0.68758700  1
  Ge  Ge15  1  0.37003900  0.51602900  0.18758700  1
  N  N16  1  0.14379000  0.23342500  0.83658600  1
  N  N17  1  0.85621000  0.23342500  0.33658600  1
  N  N18  1  0.87627900  0.42736600  0.98015200  1
  N  N19  1  0.12372100  0.42736600  0.48015200  1
  N  N20  1  0.12653900  0.68423700  0.86126400  1
  N  N21  1  0.87346100  0.68423700  0.36126400  1
  N  N22  1  0.84287200  0.86199800  0.01387400  1
  N  N23  1  0.15712800  0.86199800  0.51387400  1
  N  N24  1  0.50220100  0.71791700  0.72349600  1
  N  N25  1  0.49779900  0.71791700  0.22349600  1
  N  N26  1  0.88417800  0.55996300  0.67359700  1
  N  N27  1  0.11582200  0.55996300  0.17359700  1
  N  N28  1  0.61406900  0.11258000  0.13265000  1
  N  N29  1  0.38593100  0.11258000  0.63265000  1
  N  N30  1  0.41600000  0.92115200  0.94171300  1
  N  N31  1  0.58400000  0.92115200  0.44171300  1
  N  N32  1  0.58989400  0.29304900  0.82390700  1
  N  N33  1  0.41010600  0.29304900  0.32390700  1
  N  N34  1  0.46289300  0.50274300  0.02322700  1
  N  N35  1  0.53710700  0.50274300  0.52322700  1
