# generated using pymatgen
data_LaGaGe2O7
_symmetry_space_group_name_H-M   'P 1'
_cell_length_a   6.71040000
_cell_length_b   7.43918800
_cell_length_c   13.14344638
_cell_angle_alpha   62.38138280
_cell_angle_beta   90.00000000
_cell_angle_gamma   90.00000000
_symmetry_Int_Tables_number   1
_chemical_formula_structural   LaGaGe2O7
_chemical_formula_sum   'La4 Ga4 Ge8 O28'
_cell_volume   581.35698846
_cell_formula_units_Z   4
loop_
 _symmetry_equiv_pos_site_id
 _symmetry_equiv_pos_as_xyz
  1  'x, y, z'
loop_
 _atom_site_type_symbol
 _atom_site_label
 _atom_site_symmetry_multiplicity
 _atom_site_fract_x
 _atom_site_fract_y
 _atom_site_fract_z
 _atom_site_occupancy
  La  La0  1  0.35317500  0.74097100  0.52504300  1
  La  La1  1  0.64682500  0.25902900  0.47495700  1
  La  La2  1  0.85317500  0.25902900  0.97495700  1
  La  La3  1  0.14682500  0.74097100  0.02504300  1
  Ga  Ga4  1  0.39942900  0.71494000  0.26857800  1
  Ga  Ga5  1  0.60057100  0.28506000  0.73142200  1
  Ga  Ga6  1  0.89942900  0.28506000  0.23142200  1
  Ga  Ga7  1  0.10057100  0.71494000  0.76857800  1
  Ge  Ge8  1  0.65833400  0.71117400  0.04729400  1
  Ge  Ge9  1  0.34166600  0.28882600  0.95270600  1
  Ge  Ge10  1  0.15833400  0.28882600  0.45270600  1
  Ge  Ge11  1  0.84166600  0.71117400  0.54729400  1
  Ge  Ge12  1  0.91070800  0.80074900  0.28249700  1
  Ge  Ge13  1  0.08929200  0.19925100  0.71750300  1
  Ge  Ge14  1  0.41070800  0.19925100  0.21750300  1
  Ge  Ge15  1  0.58929200  0.80074900  0.78249700  1
  O  O16  1  0.37367500  0.93369400  0.30282300  1
  O  O17  1  0.62632500  0.06630600  0.69717700  1
  O  O18  1  0.87367500  0.06630600  0.19717700  1
  O  O19  1  0.12632500  0.93369400  0.80282300  1
  O  O20  1  0.82214300  0.90728600  0.02254200  1
  O  O21  1  0.17785700  0.09271400  0.97745800  1
  O  O22  1  0.32214300  0.09271400  0.47745800  1
  O  O23  1  0.67785700  0.90728600  0.52254200  1
  O  O24  1  0.60880400  0.27521100  0.27801100  1
  O  O25  1  0.39119600  0.72478900  0.72198900  1
  O  O26  1  0.10880400  0.72478900  0.22198900  1
  O  O27  1  0.89119600  0.27521100  0.77801100  1
  O  O28  1  0.99465800  0.74850600  0.42636800  1
  O  O29  1  0.00534200  0.25149400  0.57363200  1
  O  O30  1  0.49465800  0.25149400  0.07363200  1
  O  O31  1  0.50534200  0.74850600  0.92636800  1
  O  O32  1  0.44991600  0.70310100  0.13125600  1
  O  O33  1  0.55008400  0.29689900  0.86874400  1
  O  O34  1  0.94991600  0.29689900  0.36874400  1
  O  O35  1  0.05008400  0.70310100  0.63125600  1
  O  O36  1  0.83657100  0.50942800  0.08250500  1
  O  O37  1  0.16342900  0.49057200  0.91749500  1
  O  O38  1  0.33657100  0.49057200  0.41749500  1
  O  O39  1  0.66342900  0.50942800  0.58250500  1
  O  O40  1  0.68742100  0.65801600  0.31423400  1
  O  O41  1  0.31257900  0.34198400  0.68576600  1
  O  O42  1  0.18742100  0.34198400  0.18576600  1
  O  O43  1  0.81257900  0.65801600  0.81423400  1
