# generated using pymatgen
data_Ca(RhO2)2
_symmetry_space_group_name_H-M   'P 1'
_cell_length_a   3.16303400
_cell_length_b   9.14083600
_cell_length_c   10.90902900
_cell_angle_alpha   90.00000000
_cell_angle_beta   90.00000000
_cell_angle_gamma   90.00000000
_symmetry_Int_Tables_number   1
_chemical_formula_structural   Ca(RhO2)2
_chemical_formula_sum   'Ca4 Rh8 O16'
_cell_volume   315.41030156
_cell_formula_units_Z   4
loop_
 _symmetry_equiv_pos_site_id
 _symmetry_equiv_pos_as_xyz
  1  'x, y, z'
loop_
 _atom_site_type_symbol
 _atom_site_label
 _atom_site_symmetry_multiplicity
 _atom_site_fract_x
 _atom_site_fract_y
 _atom_site_fract_z
 _atom_site_occupancy
  Ca  Ca0  1  0.75000000  0.26631000  0.16059900  1
  Ca  Ca1  1  0.25000000  0.73369000  0.83940100  1
  Ca  Ca2  1  0.75000000  0.76631000  0.33940100  1
  Ca  Ca3  1  0.25000000  0.23369000  0.66059900  1
  Rh  Rh4  1  0.25000000  0.09242900  0.40180200  1
  Rh  Rh5  1  0.75000000  0.90757100  0.59819800  1
  Rh  Rh6  1  0.25000000  0.59242900  0.09819800  1
  Rh  Rh7  1  0.75000000  0.40757100  0.90180200  1
  Rh  Rh8  1  0.75000000  0.44763400  0.38331600  1
  Rh  Rh9  1  0.25000000  0.55236600  0.61668400  1
  Rh  Rh10  1  0.75000000  0.94763400  0.11668400  1
  Rh  Rh11  1  0.25000000  0.05236600  0.88331600  1
  O  O12  1  0.25000000  0.08809300  0.07262300  1
  O  O13  1  0.75000000  0.91190700  0.92737700  1
  O  O14  1  0.25000000  0.58809300  0.42737700  1
  O  O15  1  0.75000000  0.41190700  0.57262300  1
  O  O16  1  0.25000000  0.45291600  0.78748100  1
  O  O17  1  0.75000000  0.54708400  0.21251900  1
  O  O18  1  0.25000000  0.95291600  0.71251900  1
  O  O19  1  0.75000000  0.04708400  0.28748100  1
  O  O20  1  0.25000000  0.38240500  0.02800200  1
  O  O21  1  0.75000000  0.61759500  0.97199800  1
  O  O22  1  0.25000000  0.88240500  0.47199800  1
  O  O23  1  0.75000000  0.11759500  0.52800200  1
  O  O24  1  0.75000000  0.19181400  0.83160600  1
  O  O25  1  0.25000000  0.80818600  0.16839400  1
  O  O26  1  0.75000000  0.69181400  0.66839400  1
  O  O27  1  0.25000000  0.30818600  0.33160600  1
