# generated using pymatgen
data_CsP7
_symmetry_space_group_name_H-M   'P 1'
_cell_length_a   9.52225200
_cell_length_b   9.78590200
_cell_length_c   9.81259400
_cell_angle_alpha   90.00000000
_cell_angle_beta   90.00000000
_cell_angle_gamma   90.00000000
_symmetry_Int_Tables_number   1
_chemical_formula_structural   CsP7
_chemical_formula_sum   'Cs4 P28'
_cell_volume   914.37504103
_cell_formula_units_Z   4
loop_
 _symmetry_equiv_pos_site_id
 _symmetry_equiv_pos_as_xyz
  1  'x, y, z'
loop_
 _atom_site_type_symbol
 _atom_site_label
 _atom_site_symmetry_multiplicity
 _atom_site_fract_x
 _atom_site_fract_y
 _atom_site_fract_z
 _atom_site_occupancy
  Cs  Cs0  1  0.78690600  0.00000000  0.25000000  1
  Cs  Cs1  1  0.21309400  0.50000000  0.75000000  1
  Cs  Cs2  1  0.21309400  0.00000000  0.75000000  1
  Cs  Cs3  1  0.78690600  0.50000000  0.25000000  1
  P  P4  1  0.56575300  0.75000000  0.83624300  1
  P  P5  1  0.43424700  0.25000000  0.16375700  1
  P  P6  1  0.56575300  0.25000000  0.66375700  1
  P  P7  1  0.43424700  0.75000000  0.33624300  1
  P  P8  1  0.83326100  0.63507700  0.63131400  1
  P  P9  1  0.16673900  0.13507700  0.36868600  1
  P  P10  1  0.83326100  0.36492300  0.86868600  1
  P  P11  1  0.16673900  0.86492300  0.13131400  1
  P  P12  1  0.16673900  0.36492300  0.36868600  1
  P  P13  1  0.83326100  0.86492300  0.63131400  1
  P  P14  1  0.16673900  0.63507700  0.13131400  1
  P  P15  1  0.83326100  0.13507700  0.86868600  1
  P  P16  1  0.74712600  0.75000000  0.96750900  1
  P  P17  1  0.25287400  0.25000000  0.03249100  1
  P  P18  1  0.74712600  0.25000000  0.53249100  1
  P  P19  1  0.25287400  0.75000000  0.46750900  1
  P  P20  1  0.90985100  0.75000000  0.81573000  1
  P  P21  1  0.09014900  0.25000000  0.18427000  1
  P  P22  1  0.90985100  0.25000000  0.68427000  1
  P  P23  1  0.09014900  0.75000000  0.31573000  1
  P  P24  1  0.61015400  0.90960300  0.68024700  1
  P  P25  1  0.38984600  0.40960300  0.31975300  1
  P  P26  1  0.61015400  0.09039700  0.81975300  1
  P  P27  1  0.38984600  0.59039700  0.18024700  1
  P  P28  1  0.38984600  0.09039700  0.31975300  1
  P  P29  1  0.61015400  0.59039700  0.68024700  1
  P  P30  1  0.38984600  0.90960300  0.18024700  1
  P  P31  1  0.61015400  0.40960300  0.81975300  1
