# generated using pymatgen
data_FeWO4
_symmetry_space_group_name_H-M   'P 1'
_cell_length_a   4.82030321
_cell_length_b   5.11534776
_cell_length_c   5.76949405
_cell_angle_alpha   89.99318410
_cell_angle_beta   89.98609221
_cell_angle_gamma   89.13522717
_symmetry_Int_Tables_number   1
_chemical_formula_structural   FeWO4
_chemical_formula_sum   'Fe2 W2 O8'
_cell_volume   142.24524806
_cell_formula_units_Z   2
loop_
 _symmetry_equiv_pos_site_id
 _symmetry_equiv_pos_as_xyz
  1  'x, y, z'
loop_
 _atom_site_type_symbol
 _atom_site_label
 _atom_site_symmetry_multiplicity
 _atom_site_fract_x
 _atom_site_fract_y
 _atom_site_fract_z
 _atom_site_occupancy
  Fe  Fe0  1  0.49998400  0.74998700  0.33400400  1
  Fe  Fe1  1  0.49997800  0.25001000  0.66596500  1
  W  W2  1  0.00000700  0.25001500  0.17282200  1
  W  W3  1  0.99999300  0.75002900  0.82718500  1
  O  O4  1  0.74444900  0.39312500  0.37350600  1
  O  O5  1  0.25544900  0.10674200  0.37339500  1
  O  O6  1  0.25555000  0.60686400  0.62653500  1
  O  O7  1  0.74454800  0.89320300  0.62657200  1
  O  O8  1  0.78879400  0.43320500  0.89002100  1
  O  O9  1  0.21125300  0.06683400  0.88994000  1
  O  O10  1  0.78879000  0.93319300  0.11004400  1
  O  O11  1  0.21120600  0.56679200  0.11001300  1
