# generated using pymatgen
data_TbB2Ru
_symmetry_space_group_name_H-M   'P 1'
_cell_length_a   5.35173600
_cell_length_b   5.93961800
_cell_length_c   6.37029800
_cell_angle_alpha   90.00000000
_cell_angle_beta   90.00000000
_cell_angle_gamma   90.00000000
_symmetry_Int_Tables_number   1
_chemical_formula_structural   TbB2Ru
_chemical_formula_sum   'Tb4 B8 Ru4'
_cell_volume   202.49436643
_cell_formula_units_Z   4
loop_
 _symmetry_equiv_pos_site_id
 _symmetry_equiv_pos_as_xyz
  1  'x, y, z'
loop_
 _atom_site_type_symbol
 _atom_site_label
 _atom_site_symmetry_multiplicity
 _atom_site_fract_x
 _atom_site_fract_y
 _atom_site_fract_z
 _atom_site_occupancy
  Tb  Tb0  1  0.25000000  0.00947700  0.33803300  1
  Tb  Tb1  1  0.25000000  0.50947700  0.16196700  1
  Tb  Tb2  1  0.75000000  0.99052300  0.66196700  1
  Tb  Tb3  1  0.75000000  0.49052300  0.83803300  1
  B  B4  1  0.08470700  0.37021000  0.53898900  1
  B  B5  1  0.41529300  0.87021000  0.96101100  1
  B  B6  1  0.58470700  0.62979000  0.46101100  1
  B  B7  1  0.91529300  0.12979000  0.03898900  1
  B  B8  1  0.91529300  0.62979000  0.46101100  1
  B  B9  1  0.58470700  0.12979000  0.03898900  1
  B  B10  1  0.41529300  0.37021000  0.53898900  1
  B  B11  1  0.08470700  0.87021000  0.96101100  1
  Ru  Ru12  1  0.25000000  0.18119000  0.81899100  1
  Ru  Ru13  1  0.25000000  0.68119000  0.68100900  1
  Ru  Ru14  1  0.75000000  0.81881000  0.18100900  1
  Ru  Ru15  1  0.75000000  0.31881000  0.31899100  1
