# generated using pymatgen
data_Dy2Nb3Ge4
_symmetry_space_group_name_H-M   'P 1'
_cell_length_a   7.02482700
_cell_length_b   7.19799000
_cell_length_c   13.62193400
_cell_angle_alpha   90.00000000
_cell_angle_beta   90.00000000
_cell_angle_gamma   90.00000000
_symmetry_Int_Tables_number   1
_chemical_formula_structural   Dy2Nb3Ge4
_chemical_formula_sum   'Dy8 Nb12 Ge16'
_cell_volume   688.78811386
_cell_formula_units_Z   4
loop_
 _symmetry_equiv_pos_site_id
 _symmetry_equiv_pos_as_xyz
  1  'x, y, z'
loop_
 _atom_site_type_symbol
 _atom_site_label
 _atom_site_symmetry_multiplicity
 _atom_site_fract_x
 _atom_site_fract_y
 _atom_site_fract_z
 _atom_site_occupancy
  Dy  Dy0  1  0.49753200  0.32636200  0.09489500  1
  Dy  Dy1  1  0.99753200  0.17363800  0.40510500  1
  Dy  Dy2  1  0.50246800  0.67363800  0.59489500  1
  Dy  Dy3  1  0.00246800  0.82636200  0.90510500  1
  Dy  Dy4  1  0.50246800  0.67363800  0.90510500  1
  Dy  Dy5  1  0.00246800  0.82636200  0.59489500  1
  Dy  Dy6  1  0.49753200  0.32636200  0.40510500  1
  Dy  Dy7  1  0.99753200  0.17363800  0.09489500  1
  Nb  Nb8  1  0.66414400  0.01240800  0.75000000  1
  Nb  Nb9  1  0.16414400  0.48759200  0.75000000  1
  Nb  Nb10  1  0.33585600  0.98759200  0.25000000  1
  Nb  Nb11  1  0.83585600  0.51240800  0.25000000  1
  Nb  Nb12  1  0.84006400  0.32849600  0.62657900  1
  Nb  Nb13  1  0.34006400  0.17150400  0.87342100  1
  Nb  Nb14  1  0.15993600  0.67150400  0.12657900  1
  Nb  Nb15  1  0.65993600  0.82849600  0.37342100  1
  Nb  Nb16  1  0.15993600  0.67150400  0.37342100  1
  Nb  Nb17  1  0.65993600  0.82849600  0.12657900  1
  Nb  Nb18  1  0.84006400  0.32849600  0.87342100  1
  Nb  Nb19  1  0.34006400  0.17150400  0.62657900  1
  Ge  Ge20  1  0.80430100  0.63757800  0.75000000  1
  Ge  Ge21  1  0.30430100  0.86242200  0.75000000  1
  Ge  Ge22  1  0.19569900  0.36242200  0.25000000  1
  Ge  Ge23  1  0.69569900  0.13757800  0.25000000  1
  Ge  Ge24  1  0.53981900  0.37822400  0.75000000  1
  Ge  Ge25  1  0.03981900  0.12177600  0.75000000  1
  Ge  Ge26  1  0.46018100  0.62177600  0.25000000  1
  Ge  Ge27  1  0.96018100  0.87822400  0.25000000  1
  Ge  Ge28  1  0.67341800  0.03866300  0.54174400  1
  Ge  Ge29  1  0.17341800  0.46133700  0.95825600  1
  Ge  Ge30  1  0.32658200  0.96133700  0.04174400  1
  Ge  Ge31  1  0.82658200  0.53866300  0.45825600  1
  Ge  Ge32  1  0.32658200  0.96133700  0.45825600  1
  Ge  Ge33  1  0.82658200  0.53866300  0.04174400  1
  Ge  Ge34  1  0.67341800  0.03866300  0.95825600  1
  Ge  Ge35  1  0.17341800  0.46133700  0.54174400  1
