# generated using pymatgen
data_CsBa2SnS4Cl
_symmetry_space_group_name_H-M   'P 1'
_cell_length_a   8.97425700
_cell_length_b   10.12217600
_cell_length_c   12.78173537
_cell_angle_alpha   89.12268382
_cell_angle_beta   90.00000000
_cell_angle_gamma   90.00000000
_symmetry_Int_Tables_number   1
_chemical_formula_structural   CsBa2SnS4Cl
_chemical_formula_sum   'Cs4 Ba8 Sn4 S16 Cl4'
_cell_volume   1160.94406161
_cell_formula_units_Z   4
loop_
 _symmetry_equiv_pos_site_id
 _symmetry_equiv_pos_as_xyz
  1  'x, y, z'
loop_
 _atom_site_type_symbol
 _atom_site_label
 _atom_site_symmetry_multiplicity
 _atom_site_fract_x
 _atom_site_fract_y
 _atom_site_fract_z
 _atom_site_occupancy
  Cs  Cs0  1  0.08457700  0.52192300  0.17169400  1
  Cs  Cs1  1  0.58457700  0.47807700  0.32830600  1
  Cs  Cs2  1  0.91542300  0.47807700  0.82830600  1
  Cs  Cs3  1  0.41542300  0.52192300  0.67169400  1
  Ba  Ba4  1  0.09263600  0.97959200  0.17774300  1
  Ba  Ba5  1  0.59263600  0.02040800  0.32225700  1
  Ba  Ba6  1  0.90736400  0.02040800  0.82225700  1
  Ba  Ba7  1  0.40736400  0.97959200  0.67774300  1
  Ba  Ba8  1  0.10137000  0.25184500  0.47716300  1
  Ba  Ba9  1  0.60137000  0.74815500  0.02283700  1
  Ba  Ba10  1  0.89863000  0.74815500  0.52283700  1
  Ba  Ba11  1  0.39863000  0.25184500  0.97716300  1
  Sn  Sn12  1  0.81245900  0.24247600  0.09991400  1
  Sn  Sn13  1  0.31245900  0.75752400  0.40008600  1
  Sn  Sn14  1  0.18754100  0.75752400  0.90008600  1
  Sn  Sn15  1  0.68754100  0.24247600  0.59991400  1
  S  S16  1  0.17467000  0.56101100  0.44088100  1
  S  S17  1  0.67467000  0.43898900  0.05911900  1
  S  S18  1  0.82533000  0.43898900  0.55911900  1
  S  S19  1  0.32533000  0.56101100  0.94088100  1
  S  S20  1  0.87134300  0.21782800  0.28358500  1
  S  S21  1  0.37134300  0.78217200  0.21641500  1
  S  S22  1  0.12865700  0.78217200  0.71641500  1
  S  S23  1  0.62865700  0.21782800  0.78358500  1
  S  S24  1  0.15837000  0.94573800  0.43744100  1
  S  S25  1  0.65837000  0.05426200  0.06255900  1
  S  S26  1  0.84163000  0.05426200  0.56255900  1
  S  S27  1  0.34163000  0.94573800  0.93744100  1
  S  S28  1  0.03746900  0.21689500  0.00004000  1
  S  S29  1  0.53746900  0.78310500  0.49996000  1
  S  S30  1  0.96253100  0.78310500  0.99996000  1
  S  S31  1  0.46253100  0.21689500  0.50004000  1
  Cl  Cl32  1  0.82840400  0.78450800  0.27466200  1
  Cl  Cl33  1  0.32840400  0.21549200  0.22533800  1
  Cl  Cl34  1  0.17159600  0.21549200  0.72533800  1
  Cl  Cl35  1  0.67159600  0.78450800  0.77466200  1
