# generated using pymatgen
data_Te2O5
_symmetry_space_group_name_H-M   'P 1'
_cell_length_a   4.79660300
_cell_length_b   5.51281300
_cell_length_c   8.15928968
_cell_angle_alpha   77.15535186
_cell_angle_beta   90.00000000
_cell_angle_gamma   90.00000000
_symmetry_Int_Tables_number   1
_chemical_formula_structural   Te2O5
_chemical_formula_sum   'Te4 O10'
_cell_volume   210.35531902
_cell_formula_units_Z   2
loop_
 _symmetry_equiv_pos_site_id
 _symmetry_equiv_pos_as_xyz
  1  'x, y, z'
loop_
 _atom_site_type_symbol
 _atom_site_label
 _atom_site_symmetry_multiplicity
 _atom_site_fract_x
 _atom_site_fract_y
 _atom_site_fract_z
 _atom_site_occupancy
  Te  Te0  1  0.88517800  0.87027400  0.37276500  1
  Te  Te1  1  0.38517800  0.12972600  0.62723500  1
  Te  Te2  1  0.49166900  0.74359500  0.01017700  1
  Te  Te3  1  0.99166900  0.25640500  0.98982300  1
  O  O4  1  0.04211000  0.12016400  0.51212200  1
  O  O5  1  0.54211000  0.87983600  0.48787800  1
  O  O6  1  0.17133100  0.32741800  0.77797800  1
  O  O7  1  0.67133100  0.67258200  0.22202200  1
  O  O8  1  0.80049100  0.17523600  0.20784400  1
  O  O9  1  0.30049100  0.82476400  0.79215600  1
  O  O10  1  0.72523000  0.03507100  0.90233600  1
  O  O11  1  0.22523000  0.96492900  0.09766400  1
  O  O12  1  0.73550100  0.53133200  0.90710600  1
  O  O13  1  0.23550100  0.46866800  0.09289400  1
