# generated using pymatgen
data_CsSbWO6
_symmetry_space_group_name_H-M   'P 1'
_cell_length_a   7.40350036
_cell_length_b   7.43387299
_cell_length_c   7.32741665
_cell_angle_alpha   90.00000000
_cell_angle_beta   60.33936662
_cell_angle_gamma   120.13579528
_symmetry_Int_Tables_number   1
_chemical_formula_structural   CsSbWO6
_chemical_formula_sum   'Cs2 Sb2 W2 O12'
_cell_volume   286.02995346
_cell_formula_units_Z   2
loop_
 _symmetry_equiv_pos_site_id
 _symmetry_equiv_pos_as_xyz
  1  'x, y, z'
loop_
 _atom_site_type_symbol
 _atom_site_label
 _atom_site_symmetry_multiplicity
 _atom_site_fract_x
 _atom_site_fract_y
 _atom_site_fract_z
 _atom_site_occupancy
  Cs  Cs0  1  0.74564400  0.37508300  0.87717800  1
  Cs  Cs1  1  0.25435600  0.62944000  0.12282200  1
  Sb  Sb2  1  0.00000000  0.00220800  0.50000000  1
  Sb  Sb3  1  0.00000000  0.00220800  0.00000000  1
  W  W4  1  0.50003300  0.00227300  0.49998400  1
  W  W5  1  0.49996700  0.50224100  0.50001600  1
  O  O6  1  0.85301300  0.92869200  0.82349400  1
  O  O7  1  0.61656700  0.31051600  0.44171600  1
  O  O8  1  0.25412800  0.32159000  0.81065200  1
  O  O9  1  0.25414400  0.93697300  0.43521300  1
  O  O10  1  0.25414400  0.93697300  0.81064400  1
  O  O11  1  0.25412800  0.32159000  0.43522000  1
  O  O12  1  0.14698700  0.07568000  0.17650600  1
  O  O13  1  0.38343300  0.69394800  0.55828400  1
  O  O14  1  0.74585600  0.68283100  0.18935600  1
  O  O15  1  0.74587200  0.06746200  0.56478000  1
  O  O16  1  0.74587200  0.06746200  0.18934800  1
  O  O17  1  0.74585600  0.68283100  0.56478700  1
