# generated using pymatgen
data_Hf2V3Ru
_symmetry_space_group_name_H-M   'P 1'
_cell_length_a   5.24515347
_cell_length_b   5.24515347
_cell_length_c   8.25623000
_cell_angle_alpha   90.00000000
_cell_angle_beta   90.00000000
_cell_angle_gamma   119.99999333
_symmetry_Int_Tables_number   1
_chemical_formula_structural   Hf2V3Ru
_chemical_formula_sum   'Hf4 V6 Ru2'
_cell_volume   196.71108952
_cell_formula_units_Z   2
loop_
 _symmetry_equiv_pos_site_id
 _symmetry_equiv_pos_as_xyz
  1  'x, y, z'
loop_
 _atom_site_type_symbol
 _atom_site_label
 _atom_site_symmetry_multiplicity
 _atom_site_fract_x
 _atom_site_fract_y
 _atom_site_fract_z
 _atom_site_occupancy
  Hf  Hf0  1  0.33333300  0.66666700  0.43954200  1
  Hf  Hf1  1  0.66666700  0.33333300  0.56045800  1
  Hf  Hf2  1  0.66666700  0.33333300  0.93954200  1
  Hf  Hf3  1  0.33333300  0.66666700  0.06045800  1
  V  V4  1  0.82928900  0.17071100  0.25000000  1
  V  V5  1  0.82928900  0.65857700  0.25000000  1
  V  V6  1  0.34142300  0.17071100  0.25000000  1
  V  V7  1  0.17071100  0.82928900  0.75000000  1
  V  V8  1  0.17071100  0.34142300  0.75000000  1
  V  V9  1  0.65857700  0.82928900  0.75000000  1
  Ru  Ru10  1  0.00000000  0.00000000  0.50000000  1
  Ru  Ru11  1  0.00000000  0.00000000  0.00000000  1
