# generated using pymatgen
data_Na2LiY(Si2O5)3
_symmetry_space_group_name_H-M   'P 1'
_cell_length_a   11.54710207
_cell_length_b   11.54710207
_cell_length_c   10.48056900
_cell_angle_alpha   90.00000000
_cell_angle_beta   90.00000000
_cell_angle_gamma   100.26442244
_symmetry_Int_Tables_number   1
_chemical_formula_structural   Na2LiY(Si2O5)3
_chemical_formula_sum   'Na8 Li4 Y4 Si24 O60'
_cell_volume   1375.06791456
_cell_formula_units_Z   4
loop_
 _symmetry_equiv_pos_site_id
 _symmetry_equiv_pos_as_xyz
  1  'x, y, z'
loop_
 _atom_site_type_symbol
 _atom_site_label
 _atom_site_symmetry_multiplicity
 _atom_site_fract_x
 _atom_site_fract_y
 _atom_site_fract_z
 _atom_site_occupancy
  Na  Na0  1  0.57849500  0.42150500  0.25642700  1
  Na  Na1  1  0.92150500  0.07849500  0.75642700  1
  Na  Na2  1  0.42150500  0.57849500  0.74357300  1
  Na  Na3  1  0.07849500  0.92150500  0.24357300  1
  Na  Na4  1  0.03235300  0.46764700  0.25000000  1
  Na  Na5  1  0.46764700  0.03235300  0.75000000  1
  Na  Na6  1  0.96764700  0.53235300  0.75000000  1
  Na  Na7  1  0.53235300  0.96764700  0.25000000  1
  Li  Li8  1  0.24477800  0.24477800  0.00000000  1
  Li  Li9  1  0.74477800  0.74477800  0.50000000  1
  Li  Li10  1  0.75522200  0.75522200  0.00000000  1
  Li  Li11  1  0.25522200  0.25522200  0.50000000  1
  Y  Y12  1  0.33889200  0.16110800  0.25000000  1
  Y  Y13  1  0.16110800  0.33889200  0.75000000  1
  Y  Y14  1  0.66110800  0.83889200  0.75000000  1
  Y  Y15  1  0.83889200  0.66110800  0.25000000  1
  Si  Si16  1  0.76826800  0.01987600  0.47705300  1
  Si  Si17  1  0.53085600  0.68742700  0.31435000  1
  Si  Si18  1  0.81257300  0.96914400  0.18565000  1
  Si  Si19  1  0.68742700  0.53085600  0.68565000  1
  Si  Si20  1  0.03085600  0.18742700  0.18565000  1
  Si  Si21  1  0.46914400  0.31257300  0.68565000  1
  Si  Si22  1  0.18742700  0.03085600  0.81435000  1
  Si  Si23  1  0.31257300  0.46914400  0.31435000  1
  Si  Si24  1  0.01987600  0.76826800  0.52294700  1
  Si  Si25  1  0.48012400  0.73173200  0.02294700  1
  Si  Si26  1  0.96914400  0.81257300  0.81435000  1
  Si  Si27  1  0.73173200  0.48012400  0.97705300  1
  Si  Si28  1  0.98012400  0.23173200  0.47705300  1
  Si  Si29  1  0.51987600  0.26826800  0.97705300  1
  Si  Si30  1  0.90973900  0.30195000  0.96012700  1
  Si  Si31  1  0.26826800  0.51987600  0.02294700  1
  Si  Si32  1  0.09026100  0.69805000  0.03987300  1
  Si  Si33  1  0.40973900  0.80195000  0.53987300  1
  Si  Si34  1  0.69805000  0.09026100  0.96012700  1
  Si  Si35  1  0.80195000  0.40973900  0.46012700  1
  Si  Si36  1  0.19805000  0.59026100  0.53987300  1
  Si  Si37  1  0.30195000  0.90973900  0.03987300  1
  Si  Si38  1  0.59026100  0.19805000  0.46012700  1
  Si  Si39  1  0.23173200  0.98012400  0.52294700  1
  O  O40  1  0.39621600  0.82892300  0.99153700  1
  O  O41  1  0.55942100  0.44057900  0.68304800  1
  O  O42  1  0.05942100  0.94057900  0.81695200  1
  O  O43  1  0.44057900  0.55942100  0.31695200  1
  O  O44  1  0.82707800  0.17292200  0.92674300  1
  O  O45  1  0.32707800  0.67292200  0.57325700  1
  O  O46  1  0.17292200  0.82707800  0.07325700  1
  O  O47  1  0.67292200  0.32707800  0.42674300  1
  O  O48  1  0.90006700  0.09993300  0.50116400  1
  O  O49  1  0.59993300  0.40006700  0.00116400  1
  O  O50  1  0.09993300  0.90006700  0.49883600  1
  O  O51  1  0.40006700  0.59993300  0.99883600  1
  O  O52  1  0.01501900  0.65405500  0.16408000  1
  O  O53  1  0.48498100  0.84594500  0.66408000  1
  O  O54  1  0.65405500  0.01501900  0.83592000  1
  O  O55  1  0.84594500  0.48498100  0.33592000  1
  O  O56  1  0.98498100  0.34594500  0.83592000  1
  O  O57  1  0.51501900  0.15405500  0.33592000  1
  O  O58  1  0.34594500  0.98498100  0.16408000  1
  O  O59  1  0.15405500  0.51501900  0.66408000  1
  O  O60  1  0.00983600  0.71726500  0.91391900  1
  O  O61  1  0.49016400  0.78273500  0.41391900  1
  O  O62  1  0.71726500  0.00983600  0.08608100  1
  O  O63  1  0.78273500  0.49016400  0.58608100  1
  O  O64  1  0.98215400  0.74997300  0.67458000  1
  O  O65  1  0.50983600  0.21726500  0.58608100  1
  O  O66  1  0.28273500  0.99016400  0.91391900  1
  O  O67  1  0.21726500  0.50983600  0.41391900  1
  O  O68  1  0.83915500  0.83568300  0.84367500  1
  O  O69  1  0.66084500  0.66431700  0.34367500  1
  O  O70  1  0.83568300  0.83915500  0.15632500  1
  O  O71  1  0.66431700  0.66084500  0.65632500  1
  O  O72  1  0.16084500  0.16431700  0.15632500  1
  O  O73  1  0.33915500  0.33568300  0.65632500  1
  O  O74  1  0.16431700  0.16084500  0.84367500  1
  O  O75  1  0.33568300  0.33915500  0.34367500  1
  O  O76  1  0.17107700  0.60378400  0.99153700  1
  O  O77  1  0.32892300  0.89621600  0.49153700  1
  O  O78  1  0.60378400  0.17107700  0.00846300  1
  O  O79  1  0.89621600  0.32892300  0.50846300  1
  O  O80  1  0.82892300  0.39621600  0.00846300  1
  O  O81  1  0.67107700  0.10378400  0.50846300  1
  O  O82  1  0.94057900  0.05942100  0.18304800  1
  O  O83  1  0.10378400  0.67107700  0.49153700  1
  O  O84  1  0.25289200  0.40808500  0.93074700  1
  O  O85  1  0.24710800  0.09191500  0.43074700  1
  O  O86  1  0.40808500  0.25289200  0.06925300  1
  O  O87  1  0.09191500  0.24710800  0.56925300  1
  O  O88  1  0.74710800  0.59191500  0.06925300  1
  O  O89  1  0.75289200  0.90808500  0.56925300  1
  O  O90  1  0.59191500  0.74710800  0.93074700  1
  O  O91  1  0.90808500  0.75289200  0.43074700  1
  O  O92  1  0.24997300  0.48215400  0.17458000  1
  O  O93  1  0.25002700  0.01784600  0.67458000  1
  O  O94  1  0.48215400  0.24997300  0.82542000  1
  O  O95  1  0.01784600  0.25002700  0.32542000  1
  O  O96  1  0.75002700  0.51784600  0.82542000  1
  O  O97  1  0.74997300  0.98215400  0.32542000  1
  O  O98  1  0.51784600  0.75002700  0.17458000  1
  O  O99  1  0.99016400  0.28273500  0.08608100  1
