# generated using pymatgen
data_SmFeGe2O7
_symmetry_space_group_name_H-M   'P 1'
_cell_length_a   6.66708700
_cell_length_b   7.31476600
_cell_length_c   13.07037811
_cell_angle_alpha   62.42148740
_cell_angle_beta   90.00000000
_cell_angle_gamma   90.00000000
_symmetry_Int_Tables_number   1
_chemical_formula_structural   SmFeGe2O7
_chemical_formula_sum   'Sm4 Fe4 Ge8 O28'
_cell_volume   564.99332814
_cell_formula_units_Z   4
loop_
 _symmetry_equiv_pos_site_id
 _symmetry_equiv_pos_as_xyz
  1  'x, y, z'
loop_
 _atom_site_type_symbol
 _atom_site_label
 _atom_site_symmetry_multiplicity
 _atom_site_fract_x
 _atom_site_fract_y
 _atom_site_fract_z
 _atom_site_occupancy
  Sm  Sm0  1  0.14892100  0.24108400  0.02538900  1
  Sm  Sm1  1  0.64892100  0.75891600  0.47461100  1
  Sm  Sm2  1  0.85107900  0.75891600  0.97461100  1
  Sm  Sm3  1  0.35107900  0.24108400  0.52538900  1
  Fe  Fe4  1  0.40439400  0.20920300  0.26975900  1
  Fe  Fe5  1  0.90439400  0.79079700  0.23024100  1
  Fe  Fe6  1  0.59560600  0.79079700  0.73024100  1
  Fe  Fe7  1  0.09560600  0.20920300  0.76975900  1
  Ge  Ge8  1  0.65940700  0.21836500  0.03828100  1
  Ge  Ge9  1  0.15940700  0.78163500  0.46171900  1
  Ge  Ge10  1  0.34059300  0.78163500  0.96171900  1
  Ge  Ge11  1  0.84059300  0.21836500  0.53828100  1
  Ge  Ge12  1  0.41522200  0.69994000  0.22306300  1
  Ge  Ge13  1  0.91522200  0.30006000  0.27693700  1
  Ge  Ge14  1  0.58477800  0.30006000  0.77693700  1
  Ge  Ge15  1  0.08477800  0.69994000  0.72306300  1
  O  O16  1  0.82931300  0.41142600  0.01702600  1
  O  O17  1  0.32931300  0.58857400  0.48297400  1
  O  O18  1  0.17068700  0.58857400  0.98297400  1
  O  O19  1  0.67068700  0.41142600  0.51702600  1
  O  O20  1  0.11346200  0.21865100  0.21852700  1
  O  O21  1  0.61346200  0.78134900  0.28147300  1
  O  O22  1  0.88653800  0.78134900  0.78147300  1
  O  O23  1  0.38653800  0.21865100  0.71852700  1
  O  O24  1  0.37806800  0.43054800  0.31017300  1
  O  O25  1  0.87806800  0.56945200  0.18982700  1
  O  O26  1  0.62193200  0.56945200  0.68982700  1
  O  O27  1  0.12193200  0.43054800  0.81017300  1
  O  O28  1  0.33943400  0.98639200  0.42603100  1
  O  O29  1  0.83943400  0.01360800  0.07396900  1
  O  O30  1  0.66056600  0.01360800  0.57396900  1
  O  O31  1  0.16056600  0.98639200  0.92603100  1
  O  O32  1  0.00100300  0.26056100  0.41854700  1
  O  O33  1  0.50100300  0.73943900  0.08145300  1
  O  O34  1  0.99899700  0.73943900  0.58145300  1
  O  O35  1  0.49899700  0.26056100  0.91854700  1
  O  O36  1  0.45362100  0.20632500  0.12516500  1
  O  O37  1  0.95362100  0.79367500  0.37483500  1
  O  O38  1  0.54637900  0.79367500  0.87483500  1
  O  O39  1  0.04637900  0.20632500  0.62516500  1
  O  O40  1  0.19360700  0.84905000  0.18606800  1
  O  O41  1  0.69360700  0.15095000  0.31393200  1
  O  O42  1  0.80639300  0.15095000  0.81393200  1
  O  O43  1  0.30639300  0.84905000  0.68606800  1
