# generated using pymatgen
data_LaCuGe2
_symmetry_space_group_name_H-M   'P 1'
_cell_length_a   8.91875831
_cell_length_b   8.91875831
_cell_length_c   4.29155100
_cell_angle_alpha   90.00000000
_cell_angle_beta   90.00000000
_cell_angle_gamma   151.37041109
_symmetry_Int_Tables_number   1
_chemical_formula_structural   LaCuGe2
_chemical_formula_sum   'La2 Cu2 Ge4'
_cell_volume   163.56493871
_cell_formula_units_Z   2
loop_
 _symmetry_equiv_pos_site_id
 _symmetry_equiv_pos_as_xyz
  1  'x, y, z'
loop_
 _atom_site_type_symbol
 _atom_site_label
 _atom_site_symmetry_multiplicity
 _atom_site_fract_x
 _atom_site_fract_y
 _atom_site_fract_z
 _atom_site_occupancy
  La  La0  1  0.89464500  0.10535500  0.75000000  1
  La  La1  1  0.10535500  0.89464500  0.25000000  1
  Cu  Cu2  1  0.67923600  0.32076400  0.75000000  1
  Cu  Cu3  1  0.32076400  0.67923600  0.25000000  1
  Ge  Ge4  1  0.53939700  0.46060300  0.75000000  1
  Ge  Ge5  1  0.46060300  0.53939700  0.25000000  1
  Ge  Ge6  1  0.24822700  0.75177300  0.75000000  1
  Ge  Ge7  1  0.75177300  0.24822700  0.25000000  1
