# generated using pymatgen
data_Cs12Sn2As6O
_symmetry_space_group_name_H-M   'P 1'
_cell_length_a   12.41483072
_cell_length_b   12.41483072
_cell_length_c   6.43229900
_cell_angle_alpha   90.00000000
_cell_angle_beta   90.00000000
_cell_angle_gamma   120.00000386
_symmetry_Int_Tables_number   1
_chemical_formula_structural   Cs12Sn2As6O
_chemical_formula_sum   'Cs12 Sn2 As6 O1'
_cell_volume   858.57540523
_cell_formula_units_Z   1
loop_
 _symmetry_equiv_pos_site_id
 _symmetry_equiv_pos_as_xyz
  1  'x, y, z'
loop_
 _atom_site_type_symbol
 _atom_site_label
 _atom_site_symmetry_multiplicity
 _atom_site_fract_x
 _atom_site_fract_y
 _atom_site_fract_z
 _atom_site_occupancy
  Cs  Cs0  1  0.23428200  0.11714100  0.26981000  1
  Cs  Cs1  1  0.88285900  0.11714100  0.26981000  1
  Cs  Cs2  1  0.88285900  0.76571800  0.26981000  1
  Cs  Cs3  1  0.76571800  0.88285900  0.73019000  1
  Cs  Cs4  1  0.11714100  0.88285900  0.73019000  1
  Cs  Cs5  1  0.11714100  0.23428200  0.73019000  1
  Cs  Cs6  1  0.90852400  0.45426200  0.24927100  1
  Cs  Cs7  1  0.54573800  0.45426200  0.24927100  1
  Cs  Cs8  1  0.54573800  0.09147600  0.24927100  1
  Cs  Cs9  1  0.09147600  0.54573800  0.75072900  1
  Cs  Cs10  1  0.45426200  0.54573800  0.75072900  1
  Cs  Cs11  1  0.45426200  0.90852400  0.75072900  1
  Sn  Sn12  1  0.66666700  0.33333300  0.74941800  1
  Sn  Sn13  1  0.33333300  0.66666700  0.25058200  1
  As  As14  1  0.57348500  0.78674200  0.25174500  1
  As  As15  1  0.21325800  0.78674200  0.25174500  1
  As  As16  1  0.21325800  0.42651500  0.25174500  1
  As  As17  1  0.42651500  0.21325800  0.74825500  1
  As  As18  1  0.78674200  0.21325800  0.74825500  1
  As  As19  1  0.78674200  0.57348500  0.74825500  1
  O  O20  1  0.00000000  0.00000000  0.50000000  1
