# generated using pymatgen
data_TmAlAu
_symmetry_space_group_name_H-M   'P 1'
_cell_length_a   4.40020600
_cell_length_b   7.09697500
_cell_length_c   7.81476600
_cell_angle_alpha   90.00000000
_cell_angle_beta   90.00000000
_cell_angle_gamma   90.00000000
_symmetry_Int_Tables_number   1
_chemical_formula_structural   TmAlAu
_chemical_formula_sum   'Tm4 Al4 Au4'
_cell_volume   244.04070031
_cell_formula_units_Z   4
loop_
 _symmetry_equiv_pos_site_id
 _symmetry_equiv_pos_as_xyz
  1  'x, y, z'
loop_
 _atom_site_type_symbol
 _atom_site_label
 _atom_site_symmetry_multiplicity
 _atom_site_fract_x
 _atom_site_fract_y
 _atom_site_fract_z
 _atom_site_occupancy
  Tm  Tm0  1  0.25000000  0.01063700  0.30814300  1
  Tm  Tm1  1  0.25000000  0.51063700  0.19185700  1
  Tm  Tm2  1  0.75000000  0.98936300  0.69185700  1
  Tm  Tm3  1  0.75000000  0.48936300  0.80814300  1
  Al  Al4  1  0.25000000  0.16684700  0.92631400  1
  Al  Al5  1  0.25000000  0.66684700  0.57368600  1
  Al  Al6  1  0.75000000  0.83315300  0.07368600  1
  Al  Al7  1  0.75000000  0.33315300  0.42631400  1
  Au  Au8  1  0.25000000  0.28326700  0.60298200  1
  Au  Au9  1  0.25000000  0.78326700  0.89701800  1
  Au  Au10  1  0.75000000  0.71673300  0.39701800  1
  Au  Au11  1  0.75000000  0.21673300  0.10298200  1
