# generated using pymatgen
data_NbAlZn
_symmetry_space_group_name_H-M   'P 1'
_cell_length_a   5.05796073
_cell_length_b   5.05798119
_cell_length_c   8.34457300
_cell_angle_alpha   90.00000000
_cell_angle_beta   90.00000000
_cell_angle_gamma   60.71026185
_symmetry_Int_Tables_number   1
_chemical_formula_structural   NbAlZn
_chemical_formula_sum   'Nb4 Al4 Zn4'
_cell_volume   186.18787962
_cell_formula_units_Z   4
loop_
 _symmetry_equiv_pos_site_id
 _symmetry_equiv_pos_as_xyz
  1  'x, y, z'
loop_
 _atom_site_type_symbol
 _atom_site_label
 _atom_site_symmetry_multiplicity
 _atom_site_fract_x
 _atom_site_fract_y
 _atom_site_fract_z
 _atom_site_occupancy
  Nb  Nb0  1  0.33445900  0.33445200  0.56722400  1
  Nb  Nb1  1  0.66418100  0.66419500  0.43925800  1
  Nb  Nb2  1  0.66418100  0.66419500  0.06074200  1
  Nb  Nb3  1  0.33445900  0.33445200  0.93277600  1
  Al  Al4  1  0.99728200  0.99728000  0.49228600  1
  Al  Al5  1  0.99728200  0.99728000  0.00771400  1
  Al  Al6  1  0.83155200  0.34533300  0.75000000  1
  Al  Al7  1  0.34534100  0.83154100  0.75000000  1
  Zn  Zn8  1  0.83224000  0.83222600  0.75000000  1
  Zn  Zn9  1  0.17338400  0.65295300  0.25000000  1
  Zn  Zn10  1  0.65294900  0.17339100  0.25000000  1
  Zn  Zn11  1  0.17269200  0.17270200  0.25000000  1
