# generated using pymatgen
data_Sr5V3BrO12
_symmetry_space_group_name_H-M   'P 1'
_cell_length_a   10.45558816
_cell_length_b   10.45558816
_cell_length_c   7.38141300
_cell_angle_alpha   90.00000000
_cell_angle_beta   90.00000000
_cell_angle_gamma   120.00000099
_symmetry_Int_Tables_number   1
_chemical_formula_structural   Sr5V3BrO12
_chemical_formula_sum   'Sr10 V6 Br2 O24'
_cell_volume   698.82280488
_cell_formula_units_Z   2
loop_
 _symmetry_equiv_pos_site_id
 _symmetry_equiv_pos_as_xyz
  1  'x, y, z'
loop_
 _atom_site_type_symbol
 _atom_site_label
 _atom_site_symmetry_multiplicity
 _atom_site_fract_x
 _atom_site_fract_y
 _atom_site_fract_z
 _atom_site_occupancy
  Sr  Sr0  1  0.33333300  0.66666700  0.49752400  1
  Sr  Sr1  1  0.66666700  0.33333300  0.99752400  1
  Sr  Sr2  1  0.66666700  0.33333300  0.50247600  1
  Sr  Sr3  1  0.33333300  0.66666700  0.00247600  1
  Sr  Sr4  1  0.74084100  0.74027300  0.25000000  1
  Sr  Sr5  1  0.99943200  0.25915900  0.25000000  1
  Sr  Sr6  1  0.25972700  0.00056800  0.25000000  1
  Sr  Sr7  1  0.25915900  0.25972700  0.75000000  1
  Sr  Sr8  1  0.00056800  0.74084100  0.75000000  1
  Sr  Sr9  1  0.74027300  0.99943200  0.75000000  1
  V  V10  1  0.96546000  0.59402800  0.25000000  1
  V  V11  1  0.62856800  0.03454000  0.25000000  1
  V  V12  1  0.40597200  0.37143200  0.25000000  1
  V  V13  1  0.03454000  0.40597200  0.75000000  1
  V  V14  1  0.37143200  0.96546000  0.75000000  1
  V  V15  1  0.59402800  0.62856800  0.75000000  1
  Br  Br16  1  0.00000000  0.00000000  0.50000000  1
  Br  Br17  1  0.00000000  0.00000000  0.00000000  1
  O  O18  1  0.15676300  0.66711100  0.25000000  1
  O  O19  1  0.51034700  0.84323700  0.25000000  1
  O  O20  1  0.33288900  0.48965300  0.25000000  1
  O  O21  1  0.84323700  0.33288900  0.75000000  1
  O  O22  1  0.48965300  0.15676300  0.75000000  1
  O  O23  1  0.66711100  0.51034700  0.75000000  1
  O  O24  1  0.86809400  0.40030300  0.25000000  1
  O  O25  1  0.53220800  0.13190600  0.25000000  1
  O  O26  1  0.59969700  0.46779200  0.25000000  1
  O  O27  1  0.13190600  0.59969700  0.75000000  1
  O  O28  1  0.46779200  0.86809400  0.75000000  1
  O  O29  1  0.40030300  0.53220800  0.75000000  1
  O  O30  1  0.90309800  0.64713800  0.43720100  1
  O  O31  1  0.74404000  0.09690200  0.43720100  1
  O  O32  1  0.35286200  0.25596000  0.43720100  1
  O  O33  1  0.09690200  0.35286200  0.93720100  1
  O  O34  1  0.25596000  0.90309800  0.93720100  1
  O  O35  1  0.64713800  0.74404000  0.93720100  1
  O  O36  1  0.09690200  0.35286200  0.56279900  1
  O  O37  1  0.25596000  0.90309800  0.56279900  1
  O  O38  1  0.64713800  0.74404000  0.56279900  1
  O  O39  1  0.90309800  0.64713800  0.06279900  1
  O  O40  1  0.74404000  0.09690200  0.06279900  1
  O  O41  1  0.35286200  0.25596000  0.06279900  1
