# generated using pymatgen
data_RbHgSbTe3
_symmetry_space_group_name_H-M   'P 1'
_cell_length_a   8.38917545
_cell_length_b   8.38917545
_cell_length_c   12.02788000
_cell_angle_alpha   90.00000000
_cell_angle_beta   90.00000000
_cell_angle_gamma   148.24702216
_symmetry_Int_Tables_number   1
_chemical_formula_structural   RbHgSbTe3
_chemical_formula_sum   'Rb2 Hg2 Sb2 Te6'
_cell_volume   445.47819346
_cell_formula_units_Z   2
loop_
 _symmetry_equiv_pos_site_id
 _symmetry_equiv_pos_as_xyz
  1  'x, y, z'
loop_
 _atom_site_type_symbol
 _atom_site_label
 _atom_site_symmetry_multiplicity
 _atom_site_fract_x
 _atom_site_fract_y
 _atom_site_fract_z
 _atom_site_occupancy
  Rb  Rb0  1  0.24965700  0.75034300  0.24650100  1
  Rb  Rb1  1  0.75034300  0.24965700  0.74650100  1
  Hg  Hg2  1  0.55003100  0.44996900  0.25512800  1
  Hg  Hg3  1  0.44996900  0.55003100  0.75512800  1
  Sb  Sb4  1  0.98941000  0.01059000  0.01153700  1
  Sb  Sb5  1  0.01059000  0.98941000  0.51153700  1
  Te  Te6  1  0.63612900  0.36387100  0.45946900  1
  Te  Te7  1  0.37690500  0.62309500  0.54045500  1
  Te  Te8  1  0.62309500  0.37690500  0.04045500  1
  Te  Te9  1  0.36387100  0.63612900  0.95946900  1
  Te  Te10  1  0.93441000  0.06559000  0.24211100  1
  Te  Te11  1  0.06559000  0.93441000  0.74211100  1
