# generated using pymatgen
data_La5Si3
_symmetry_space_group_name_H-M   'P 1'
_cell_length_a   8.96411704
_cell_length_b   8.96411704
_cell_length_c   8.96411704
_cell_angle_alpha   126.93940468
_cell_angle_beta   126.93940468
_cell_angle_gamma   78.34956510
_symmetry_Int_Tables_number   1
_chemical_formula_structural   La5Si3
_chemical_formula_sum   'La10 Si6'
_cell_volume   445.64029312
_cell_formula_units_Z   2
loop_
 _symmetry_equiv_pos_site_id
 _symmetry_equiv_pos_as_xyz
  1  'x, y, z'
loop_
 _atom_site_type_symbol
 _atom_site_label
 _atom_site_symmetry_multiplicity
 _atom_site_fract_x
 _atom_site_fract_y
 _atom_site_fract_z
 _atom_site_occupancy
  La  La0  1  0.03223200  0.17370600  0.50000000  1
  La  La1  1  0.53223200  0.03223200  0.85852600  1
  La  La2  1  0.17370600  0.67370600  0.14147400  1
  La  La3  1  0.46776800  0.96776800  0.14147400  1
  La  La4  1  0.67370600  0.53223200  0.50000000  1
  La  La5  1  0.96776800  0.82629400  0.50000000  1
  La  La6  1  0.32629400  0.46776800  0.50000000  1
  La  La7  1  0.82629400  0.32629400  0.85852600  1
  La  La8  1  0.50000000  0.50000000  0.00000000  1
  La  La9  1  0.00000000  0.00000000  0.00000000  1
  Si  Si10  1  0.11290900  0.61290900  0.72581700  1
  Si  Si11  1  0.61290900  0.88709100  0.50000000  1
  Si  Si12  1  0.38709100  0.11290900  0.50000000  1
  Si  Si13  1  0.88709100  0.38709100  0.27418300  1
  Si  Si14  1  0.75000000  0.75000000  0.00000000  1
  Si  Si15  1  0.25000000  0.25000000  0.00000000  1
