# generated using pymatgen
data_CsSm(NbBr3)6
_symmetry_space_group_name_H-M   'P 1'
_cell_length_a   10.05313363
_cell_length_b   10.05313363
_cell_length_c   18.66805200
_cell_angle_alpha   90.00000000
_cell_angle_beta   90.00000000
_cell_angle_gamma   119.99999754
_symmetry_Int_Tables_number   1
_chemical_formula_structural   CsSm(NbBr3)6
_chemical_formula_sum   'Cs2 Sm2 Nb12 Br36'
_cell_volume   1633.92664445
_cell_formula_units_Z   2
loop_
 _symmetry_equiv_pos_site_id
 _symmetry_equiv_pos_as_xyz
  1  'x, y, z'
loop_
 _atom_site_type_symbol
 _atom_site_label
 _atom_site_symmetry_multiplicity
 _atom_site_fract_x
 _atom_site_fract_y
 _atom_site_fract_z
 _atom_site_occupancy
  Cs  Cs0  1  0.33333300  0.66666700  0.75000000  1
  Cs  Cs1  1  0.66666700  0.33333300  0.25000000  1
  Sm  Sm2  1  0.66666700  0.33333300  0.75000000  1
  Sm  Sm3  1  0.33333300  0.66666700  0.25000000  1
  Nb  Nb4  1  0.85225300  0.03813100  0.56446400  1
  Nb  Nb5  1  0.14774700  0.96186900  0.43553600  1
  Nb  Nb6  1  0.96186900  0.81412100  0.56446400  1
  Nb  Nb7  1  0.85225300  0.81412100  0.93553600  1
  Nb  Nb8  1  0.03813100  0.18587900  0.43553600  1
  Nb  Nb9  1  0.14774700  0.18587900  0.06446400  1
  Nb  Nb10  1  0.18587900  0.14774700  0.56446400  1
  Nb  Nb11  1  0.96186900  0.14774700  0.93553600  1
  Nb  Nb12  1  0.81412100  0.85225300  0.43553600  1
  Nb  Nb13  1  0.03813100  0.85225300  0.06446400  1
  Nb  Nb14  1  0.18587900  0.03813100  0.93553600  1
  Nb  Nb15  1  0.81412100  0.96186900  0.06446400  1
  Br  Br16  1  0.64332400  0.08742500  0.66076900  1
  Br  Br17  1  0.35667600  0.91257500  0.33923100  1
  Br  Br18  1  0.91257500  0.55589900  0.66076900  1
  Br  Br19  1  0.64332400  0.55589900  0.83923100  1
  Br  Br20  1  0.08742500  0.44410100  0.33923100  1
  Br  Br21  1  0.35667600  0.44410100  0.16076900  1
  Br  Br22  1  0.44410100  0.35667600  0.66076900  1
  Br  Br23  1  0.91257500  0.35667600  0.83923100  1
  Br  Br24  1  0.55589900  0.64332400  0.33923100  1
  Br  Br25  1  0.08742500  0.64332400  0.16076900  1
  Br  Br26  1  0.44410100  0.08742500  0.83923100  1
  Br  Br27  1  0.55589900  0.91257500  0.16076900  1
  Br  Br28  1  0.04611600  0.22801100  0.65804900  1
  Br  Br29  1  0.95388400  0.77198900  0.34195100  1
  Br  Br30  1  0.77198900  0.81810500  0.65804900  1
  Br  Br31  1  0.04611600  0.81810500  0.84195100  1
  Br  Br32  1  0.22801100  0.18189500  0.34195100  1
  Br  Br33  1  0.95388400  0.18189500  0.15804900  1
  Br  Br34  1  0.18189500  0.95388400  0.65804900  1
  Br  Br35  1  0.77198900  0.95388400  0.84195100  1
  Br  Br36  1  0.81810500  0.04611600  0.34195100  1
  Br  Br37  1  0.22801100  0.04611600  0.15804900  1
  Br  Br38  1  0.18189500  0.22801100  0.84195100  1
  Br  Br39  1  0.81810500  0.77198900  0.15804900  1
  Br  Br40  1  0.27322600  0.40996600  0.50049700  1
  Br  Br41  1  0.72677400  0.59003400  0.49950300  1
  Br  Br42  1  0.59003400  0.86326000  0.50049700  1
  Br  Br43  1  0.27322600  0.86326000  0.99950300  1
  Br  Br44  1  0.40996600  0.13674000  0.49950300  1
  Br  Br45  1  0.72677400  0.13674000  0.00049700  1
  Br  Br46  1  0.13674000  0.72677400  0.50049700  1
  Br  Br47  1  0.59003400  0.72677400  0.99950300  1
  Br  Br48  1  0.86326000  0.27322600  0.49950300  1
  Br  Br49  1  0.40996600  0.27322600  0.00049700  1
  Br  Br50  1  0.13674000  0.40996600  0.99950300  1
  Br  Br51  1  0.86326000  0.59003400  0.00049700  1
