# generated using pymatgen
data_SmRe2
_symmetry_space_group_name_H-M   'P 1'
_cell_length_a   5.49025002
_cell_length_b   5.49025002
_cell_length_c   8.93066900
_cell_angle_alpha   90.00000000
_cell_angle_beta   90.00000000
_cell_angle_gamma   120.00000028
_symmetry_Int_Tables_number   1
_chemical_formula_structural   SmRe2
_chemical_formula_sum   'Sm4 Re8'
_cell_volume   233.13037844
_cell_formula_units_Z   4
loop_
 _symmetry_equiv_pos_site_id
 _symmetry_equiv_pos_as_xyz
  1  'x, y, z'
loop_
 _atom_site_type_symbol
 _atom_site_label
 _atom_site_symmetry_multiplicity
 _atom_site_fract_x
 _atom_site_fract_y
 _atom_site_fract_z
 _atom_site_occupancy
  Sm  Sm0  1  0.33333300  0.66666700  0.43803700  1
  Sm  Sm1  1  0.66666700  0.33333300  0.56196300  1
  Sm  Sm2  1  0.66666700  0.33333300  0.93803700  1
  Sm  Sm3  1  0.33333300  0.66666700  0.06196300  1
  Re  Re4  1  0.00000000  0.00000000  0.50000000  1
  Re  Re5  1  0.00000000  0.00000000  0.00000000  1
  Re  Re6  1  0.82931000  0.17069000  0.25000000  1
  Re  Re7  1  0.82931000  0.65862000  0.25000000  1
  Re  Re8  1  0.34138000  0.17069000  0.25000000  1
  Re  Re9  1  0.17069000  0.82931000  0.75000000  1
  Re  Re10  1  0.17069000  0.34138000  0.75000000  1
  Re  Re11  1  0.65862000  0.82931000  0.75000000  1
