# generated using pymatgen
data_Nb10Se40I3
_symmetry_space_group_name_H-M   'P 1'
_cell_length_a   9.71394400
_cell_length_b   9.72007200
_cell_length_c   32.38297339
_cell_angle_alpha   87.76527130
_cell_angle_beta   90.00000000
_cell_angle_gamma   90.00000000
_symmetry_Int_Tables_number   1
_chemical_formula_structural   Nb10Se40I3
_chemical_formula_sum   'Nb20 Se80 I6'
_cell_volume   3055.28254183
_cell_formula_units_Z   2
loop_
 _symmetry_equiv_pos_site_id
 _symmetry_equiv_pos_as_xyz
  1  'x, y, z'
loop_
 _atom_site_type_symbol
 _atom_site_label
 _atom_site_symmetry_multiplicity
 _atom_site_fract_x
 _atom_site_fract_y
 _atom_site_fract_z
 _atom_site_occupancy
  Nb  Nb0  1  0.50121400  0.00000000  0.25000000  1
  Nb  Nb1  1  0.49878600  0.00000000  0.75000000  1
  Nb  Nb2  1  0.00090300  0.50000000  0.25000000  1
  Nb  Nb3  1  0.99909700  0.50000000  0.75000000  1
  Nb  Nb4  1  0.50045600  0.00012800  0.45180100  1
  Nb  Nb5  1  0.50045600  0.99987200  0.04819900  1
  Nb  Nb6  1  0.49954400  0.99987200  0.54819900  1
  Nb  Nb7  1  0.49954400  0.00012800  0.95180100  1
  Nb  Nb8  1  0.00017100  0.50010400  0.45094200  1
  Nb  Nb9  1  0.00017100  0.49989600  0.04905800  1
  Nb  Nb10  1  0.99982900  0.49989600  0.54905800  1
  Nb  Nb11  1  0.99982900  0.50010400  0.95094200  1
  Nb  Nb12  1  0.50101900  0.99928200  0.34851000  1
  Nb  Nb13  1  0.50101900  0.00071800  0.15149000  1
  Nb  Nb14  1  0.49898100  0.00071800  0.65149000  1
  Nb  Nb15  1  0.49898100  0.99928200  0.84851000  1
  Nb  Nb16  1  0.00058300  0.50032900  0.34916800  1
  Nb  Nb17  1  0.00058300  0.49967100  0.15083200  1
  Nb  Nb18  1  0.99941700  0.49967100  0.65083200  1
  Nb  Nb19  1  0.99941700  0.50032900  0.84916800  1
  Se  Se20  1  0.31876800  0.12545600  0.40166200  1
  Se  Se21  1  0.31876800  0.87454400  0.09833800  1
  Se  Se22  1  0.68123200  0.87454400  0.59833800  1
  Se  Se23  1  0.68123200  0.12545600  0.90166200  1
  Se  Se24  1  0.68255200  0.87489400  0.40478500  1
  Se  Se25  1  0.68255200  0.12510600  0.09521500  1
  Se  Se26  1  0.31744800  0.12510600  0.59521500  1
  Se  Se27  1  0.31744800  0.87489400  0.90478500  1
  Se  Se28  1  0.87555100  0.31811500  0.40497300  1
  Se  Se29  1  0.87555100  0.68188500  0.09502700  1
  Se  Se30  1  0.12444900  0.68188500  0.59502700  1
  Se  Se31  1  0.12444900  0.31811500  0.90497300  1
  Se  Se32  1  0.12558100  0.68260600  0.40123400  1
  Se  Se33  1  0.12558100  0.31739400  0.09876600  1
  Se  Se34  1  0.87441900  0.31739400  0.59876600  1
  Se  Se35  1  0.87441900  0.68260600  0.90123400  1
  Se  Se36  1  0.38059300  0.18877500  0.29419200  1
  Se  Se37  1  0.38059300  0.81122500  0.20580800  1
  Se  Se38  1  0.61940700  0.81122500  0.70580800  1
  Se  Se39  1  0.61940700  0.18877500  0.79419200  1
  Se  Se40  1  0.62197700  0.18973400  0.20172600  1
  Se  Se41  1  0.62197700  0.81026600  0.29827400  1
  Se  Se42  1  0.37802300  0.81026600  0.79827400  1
  Se  Se43  1  0.37802300  0.18973400  0.70172600  1
  Se  Se44  1  0.81178700  0.37963800  0.29748600  1
  Se  Se45  1  0.81178700  0.62036200  0.20251400  1
  Se  Se46  1  0.18821300  0.62036200  0.70251400  1
  Se  Se47  1  0.18821300  0.37963800  0.79748600  1
  Se  Se48  1  0.18980600  0.61963600  0.29494900  1
  Se  Se49  1  0.18980600  0.38036400  0.20505100  1
  Se  Se50  1  0.81019400  0.38036400  0.70505100  1
  Se  Se51  1  0.81019400  0.61963600  0.79494900  1
  Se  Se52  1  0.71838000  0.03553800  0.30203200  1
  Se  Se53  1  0.71838000  0.96446200  0.19796800  1
  Se  Se54  1  0.28162000  0.96446200  0.69796800  1
  Se  Se55  1  0.28162000  0.03553800  0.80203200  1
  Se  Se56  1  0.28412400  0.03719900  0.19722200  1
  Se  Se57  1  0.28412400  0.96280100  0.30277800  1
  Se  Se58  1  0.71587600  0.96280100  0.80277800  1
  Se  Se59  1  0.71587600  0.03719900  0.69722200  1
  Se  Se60  1  0.96426300  0.71712400  0.29993300  1
  Se  Se61  1  0.96426300  0.28287600  0.20006700  1
  Se  Se62  1  0.03573700  0.28287600  0.70006700  1
  Se  Se63  1  0.03573700  0.71712400  0.79993300  1
  Se  Se64  1  0.03774000  0.28328000  0.30525200  1
  Se  Se65  1  0.03774000  0.71672000  0.19474800  1
  Se  Se66  1  0.96226000  0.71672000  0.69474800  1
  Se  Se67  1  0.96226000  0.28328000  0.80525200  1
  Se  Se68  1  0.55083600  0.21101400  0.39410700  1
  Se  Se69  1  0.55083600  0.78898600  0.10589300  1
  Se  Se70  1  0.44916400  0.78898600  0.60589300  1
  Se  Se71  1  0.44916400  0.21101400  0.89410700  1
  Se  Se72  1  0.45115600  0.78797100  0.39924600  1
  Se  Se73  1  0.45115600  0.21202900  0.10075400  1
  Se  Se74  1  0.54884400  0.21202900  0.60075400  1
  Se  Se75  1  0.54884400  0.78797100  0.89924600  1
  Se  Se76  1  0.78816700  0.55065800  0.39616300  1
  Se  Se77  1  0.78816700  0.44934200  0.10383700  1
  Se  Se78  1  0.21183300  0.44934200  0.60383700  1
  Se  Se79  1  0.21183300  0.55065800  0.89616300  1
  Se  Se80  1  0.21308300  0.45054200  0.39734800  1
  Se  Se81  1  0.21308300  0.54945800  0.10265200  1
  Se  Se82  1  0.78691700  0.54945800  0.60265200  1
  Se  Se83  1  0.78691700  0.45054200  0.89734800  1
  Se  Se84  1  0.69629900  0.10718400  0.49902900  1
  Se  Se85  1  0.69629900  0.89281600  0.00097100  1
  Se  Se86  1  0.30370100  0.89281600  0.50097100  1
  Se  Se87  1  0.30370100  0.10718400  0.99902900  1
  Se  Se88  1  0.89347900  0.69608100  0.49766900  1
  Se  Se89  1  0.89347900  0.30391900  0.00233100  1
  Se  Se90  1  0.10652100  0.30391900  0.50233100  1
  Se  Se91  1  0.10652100  0.69608100  0.99766900  1
  Se  Se92  1  0.48092600  0.22157300  0.49733900  1
  Se  Se93  1  0.48092600  0.77842700  0.00266100  1
  Se  Se94  1  0.51907400  0.77842700  0.50266100  1
  Se  Se95  1  0.51907400  0.22157300  0.99733900  1
  Se  Se96  1  0.77958900  0.48013700  0.50019700  1
  Se  Se97  1  0.77958900  0.51986300  0.99980300  1
  Se  Se98  1  0.22041100  0.51986300  0.49980300  1
  Se  Se99  1  0.22041100  0.48013700  0.00019700  1
  I  I100  1  0.00292900  0.00090900  0.42150900  1
  I  I101  1  0.00292900  0.99909100  0.07849100  1
  I  I102  1  0.99707100  0.99909100  0.57849100  1
  I  I103  1  0.99707100  0.00090900  0.92150900  1
  I  I104  1  0.50419400  0.50000000  0.25000000  1
  I  I105  1  0.49580600  0.50000000  0.75000000  1
