# generated using pymatgen
data_Dy(Al5Fe)2
_symmetry_space_group_name_H-M   'P 1'
_cell_length_a   6.74604123
_cell_length_b   6.74604123
_cell_length_c   8.96766900
_cell_angle_alpha   90.00000000
_cell_angle_beta   90.00000000
_cell_angle_gamma   97.11326462
_symmetry_Int_Tables_number   1
_chemical_formula_structural   Dy(Al5Fe)2
_chemical_formula_sum   'Dy2 Al20 Fe4'
_cell_volume   404.96919210
_cell_formula_units_Z   2
loop_
 _symmetry_equiv_pos_site_id
 _symmetry_equiv_pos_as_xyz
  1  'x, y, z'
loop_
 _atom_site_type_symbol
 _atom_site_label
 _atom_site_symmetry_multiplicity
 _atom_site_fract_x
 _atom_site_fract_y
 _atom_site_fract_z
 _atom_site_occupancy
  Dy  Dy0  1  0.87487300  0.12512700  0.75000000  1
  Dy  Dy1  1  0.12512700  0.87487300  0.25000000  1
  Al  Al2  1  0.62570500  0.37429500  0.54728100  1
  Al  Al3  1  0.37429500  0.62570500  0.45271900  1
  Al  Al4  1  0.37429500  0.62570500  0.04728100  1
  Al  Al5  1  0.62570500  0.37429500  0.95271900  1
  Al  Al6  1  0.22727100  0.22727100  0.50000000  1
  Al  Al7  1  0.77272900  0.77272900  0.50000000  1
  Al  Al8  1  0.77272900  0.77272900  0.00000000  1
  Al  Al9  1  0.22727100  0.22727100  0.00000000  1
  Al  Al10  1  0.84286500  0.15713500  0.09652500  1
  Al  Al11  1  0.15713500  0.84286500  0.90347500  1
  Al  Al12  1  0.15713500  0.84286500  0.59652500  1
  Al  Al13  1  0.84286500  0.15713500  0.40347500  1
  Al  Al14  1  0.86607800  0.58491000  0.75000000  1
  Al  Al15  1  0.13392200  0.41509000  0.25000000  1
  Al  Al16  1  0.41509000  0.13392200  0.75000000  1
  Al  Al17  1  0.58491000  0.86607800  0.25000000  1
  Al  Al18  1  0.22035400  0.47708700  0.75000000  1
  Al  Al19  1  0.77964600  0.52291300  0.25000000  1
  Al  Al20  1  0.52291300  0.77964600  0.75000000  1
  Al  Al21  1  0.47708700  0.22035400  0.25000000  1
  Fe  Fe22  1  0.00000000  0.50000000  0.50000000  1
  Fe  Fe23  1  0.00000000  0.50000000  0.00000000  1
  Fe  Fe24  1  0.50000000  0.00000000  0.00000000  1
  Fe  Fe25  1  0.50000000  0.00000000  0.50000000  1
