# generated using pymatgen
data_Ca3Zn3(TeO6)2
_symmetry_space_group_name_H-M   'P 1'
_cell_length_a   11.04434230
_cell_length_b   11.04434230
_cell_length_c   11.04434230
_cell_angle_alpha   109.47122063
_cell_angle_beta   109.47122063
_cell_angle_gamma   109.47122063
_symmetry_Int_Tables_number   1
_chemical_formula_structural   Ca3Zn3(TeO6)2
_chemical_formula_sum   'Ca12 Zn12 Te8 O48'
_cell_volume   1037.04519687
_cell_formula_units_Z   4
loop_
 _symmetry_equiv_pos_site_id
 _symmetry_equiv_pos_as_xyz
  1  'x, y, z'
loop_
 _atom_site_type_symbol
 _atom_site_label
 _atom_site_symmetry_multiplicity
 _atom_site_fract_x
 _atom_site_fract_y
 _atom_site_fract_z
 _atom_site_occupancy
  Ca  Ca0  1  0.62500000  0.25000000  0.87500000  1
  Ca  Ca1  1  0.12500000  0.25000000  0.37500000  1
  Ca  Ca2  1  0.37500000  0.75000000  0.12500000  1
  Ca  Ca3  1  0.12500000  0.37500000  0.75000000  1
  Ca  Ca4  1  0.37500000  0.12500000  0.25000000  1
  Ca  Ca5  1  0.25000000  0.37500000  0.12500000  1
  Ca  Ca6  1  0.75000000  0.12500000  0.37500000  1
  Ca  Ca7  1  0.87500000  0.75000000  0.62500000  1
  Ca  Ca8  1  0.87500000  0.62500000  0.25000000  1
  Ca  Ca9  1  0.62500000  0.87500000  0.75000000  1
  Ca  Ca10  1  0.75000000  0.62500000  0.87500000  1
  Ca  Ca11  1  0.25000000  0.87500000  0.62500000  1
  Zn  Zn12  1  0.12500000  0.75000000  0.87500000  1
  Zn  Zn13  1  0.62500000  0.75000000  0.37500000  1
  Zn  Zn14  1  0.37500000  0.62500000  0.75000000  1
  Zn  Zn15  1  0.12500000  0.87500000  0.25000000  1
  Zn  Zn16  1  0.37500000  0.25000000  0.62500000  1
  Zn  Zn17  1  0.25000000  0.12500000  0.87500000  1
  Zn  Zn18  1  0.75000000  0.37500000  0.62500000  1
  Zn  Zn19  1  0.25000000  0.62500000  0.37500000  1
  Zn  Zn20  1  0.87500000  0.12500000  0.75000000  1
  Zn  Zn21  1  0.75000000  0.87500000  0.12500000  1
  Zn  Zn22  1  0.87500000  0.25000000  0.12500000  1
  Zn  Zn23  1  0.62500000  0.37500000  0.25000000  1
  Te  Te24  1  0.50000000  0.50000000  0.50000000  1
  Te  Te25  1  0.50000000  0.00000000  0.50000000  1
  Te  Te26  1  0.00000000  0.50000000  0.50000000  1
  Te  Te27  1  0.50000000  0.50000000  0.00000000  1
  Te  Te28  1  0.00000000  0.00000000  0.50000000  1
  Te  Te29  1  0.00000000  0.50000000  0.00000000  1
  Te  Te30  1  0.50000000  0.00000000  0.00000000  1
  Te  Te31  1  0.00000000  0.00000000  0.00000000  1
  O  O32  1  0.42469200  0.83089500  0.80721000  1
  O  O33  1  0.88251800  0.40620300  0.07530800  1
  O  O34  1  0.09379700  0.97631500  0.66910500  1
  O  O35  1  0.52368500  0.61748200  0.69279000  1
  O  O36  1  0.66910500  0.07530800  0.69279000  1
  O  O37  1  0.61748200  0.69279000  0.52368500  1
  O  O38  1  0.61748200  0.42469200  0.09379700  1
  O  O39  1  0.69279000  0.52368500  0.61748200  1
  O  O40  1  0.83089500  0.52368500  0.40620300  1
  O  O41  1  0.97631500  0.80721000  0.88251800  1
  O  O42  1  0.80721000  0.88251800  0.97631500  1
  O  O43  1  0.69279000  0.66910500  0.07530800  1
  O  O44  1  0.42469200  0.09379700  0.61748200  1
  O  O45  1  0.40620300  0.83089500  0.52368500  1
  O  O46  1  0.07530800  0.69279000  0.66910500  1
  O  O47  1  0.09379700  0.61748200  0.42469200  1
  O  O48  1  0.52368500  0.40620300  0.83089500  1
  O  O49  1  0.07530800  0.88251800  0.40620300  1
  O  O50  1  0.97631500  0.66910500  0.09379700  1
  O  O51  1  0.16910500  0.47631500  0.59379700  1
  O  O52  1  0.66910500  0.09379700  0.97631500  1
  O  O53  1  0.80721000  0.42469200  0.83089500  1
  O  O54  1  0.40620300  0.07530800  0.88251800  1
  O  O55  1  0.88251800  0.97631500  0.80721000  1
  O  O56  1  0.57530800  0.16910500  0.19279000  1
  O  O57  1  0.11748200  0.59379700  0.92469200  1
  O  O58  1  0.90620300  0.02368500  0.33089500  1
  O  O59  1  0.47631500  0.38251800  0.30721000  1
  O  O60  1  0.33089500  0.92469200  0.30721000  1
  O  O61  1  0.38251800  0.30721000  0.47631500  1
  O  O62  1  0.38251800  0.57530800  0.90620300  1
  O  O63  1  0.30721000  0.47631500  0.38251800  1
  O  O64  1  0.11748200  0.02368500  0.19279000  1
  O  O65  1  0.59379700  0.92469200  0.11748200  1
  O  O66  1  0.19279000  0.57530800  0.16910500  1
  O  O67  1  0.16910500  0.19279000  0.57530800  1
  O  O68  1  0.33089500  0.90620300  0.02368500  1
  O  O69  1  0.02368500  0.33089500  0.90620300  1
  O  O70  1  0.92469200  0.11748200  0.59379700  1
  O  O71  1  0.47631500  0.59379700  0.16910500  1
  O  O72  1  0.90620300  0.38251800  0.57530800  1
  O  O73  1  0.92469200  0.30721000  0.33089500  1
  O  O74  1  0.59379700  0.16910500  0.47631500  1
  O  O75  1  0.57530800  0.90620300  0.38251800  1
  O  O76  1  0.30721000  0.33089500  0.92469200  1
  O  O77  1  0.19279000  0.11748200  0.02368500  1
  O  O78  1  0.02368500  0.19279000  0.11748200  1
  O  O79  1  0.83089500  0.80721000  0.42469200  1
