# generated using pymatgen
data_YbMnB4
_symmetry_space_group_name_H-M   'P 1'
_cell_length_a   3.34747500
_cell_length_b   5.90109900
_cell_length_c   11.42660200
_cell_angle_alpha   90.00000000
_cell_angle_beta   90.00000000
_cell_angle_gamma   90.00000000
_symmetry_Int_Tables_number   1
_chemical_formula_structural   YbMnB4
_chemical_formula_sum   'Yb4 Mn4 B16'
_cell_volume   225.71859777
_cell_formula_units_Z   4
loop_
 _symmetry_equiv_pos_site_id
 _symmetry_equiv_pos_as_xyz
  1  'x, y, z'
loop_
 _atom_site_type_symbol
 _atom_site_label
 _atom_site_symmetry_multiplicity
 _atom_site_fract_x
 _atom_site_fract_y
 _atom_site_fract_z
 _atom_site_occupancy
  Yb  Yb0  1  0.50000000  0.37565000  0.15129600  1
  Yb  Yb1  1  0.50000000  0.62435000  0.84870400  1
  Yb  Yb2  1  0.50000000  0.12435000  0.65129600  1
  Yb  Yb3  1  0.50000000  0.87565000  0.34870400  1
  Mn  Mn4  1  0.50000000  0.37906500  0.42118600  1
  Mn  Mn5  1  0.50000000  0.62093500  0.57881400  1
  Mn  Mn6  1  0.50000000  0.12093500  0.92118600  1
  Mn  Mn7  1  0.50000000  0.87906500  0.07881400  1
  B  B8  1  0.00000000  0.11316100  0.04682900  1
  B  B9  1  0.00000000  0.88683900  0.95317100  1
  B  B10  1  0.00000000  0.38683900  0.54682900  1
  B  B11  1  0.00000000  0.61316100  0.45317100  1
  B  B12  1  0.00000000  0.13837300  0.46692000  1
  B  B13  1  0.00000000  0.86162700  0.53308000  1
  B  B14  1  0.00000000  0.36162700  0.96692000  1
  B  B15  1  0.00000000  0.63837300  0.03308000  1
  B  B16  1  0.00000000  0.02315300  0.19079900  1
  B  B17  1  0.00000000  0.97684700  0.80920100  1
  B  B18  1  0.00000000  0.47684700  0.69079900  1
  B  B19  1  0.00000000  0.52315300  0.30920100  1
  B  B20  1  0.00000000  0.22057900  0.31721200  1
  B  B21  1  0.00000000  0.77942100  0.68278800  1
  B  B22  1  0.00000000  0.27942100  0.81721200  1
  B  B23  1  0.00000000  0.72057900  0.18278800  1
