# generated using pymatgen
data_CeGa3Ni
_symmetry_space_group_name_H-M   'P 1'
_cell_length_a   4.24995518
_cell_length_b   4.24995518
_cell_length_c   5.89796981
_cell_angle_alpha   68.86894950
_cell_angle_beta   68.86894950
_cell_angle_gamma   89.96617741
_symmetry_Int_Tables_number   1
_chemical_formula_structural   CeGa3Ni
_chemical_formula_sum   'Ce1 Ga3 Ni1'
_cell_volume   91.65461780
_cell_formula_units_Z   1
loop_
 _symmetry_equiv_pos_site_id
 _symmetry_equiv_pos_as_xyz
  1  'x, y, z'
loop_
 _atom_site_type_symbol
 _atom_site_label
 _atom_site_symmetry_multiplicity
 _atom_site_fract_x
 _atom_site_fract_y
 _atom_site_fract_z
 _atom_site_occupancy
  Ce  Ce0  1  0.00404100  0.00404100  0.99191700  1
  Ga  Ga1  1  0.75466500  0.25466500  0.49066900  1
  Ga  Ga2  1  0.25466500  0.75466500  0.49066900  1
  Ga  Ga3  1  0.59194900  0.59194900  0.81610100  1
  Ni  Ni4  1  0.36367900  0.36367900  0.27264300  1
