# generated using pymatgen
data_TaTe4Cl4O
_symmetry_space_group_name_H-M   'P 1'
_cell_length_a   13.79076400
_cell_length_b   8.17165100
_cell_length_c   22.66073690
_cell_angle_alpha   80.92584712
_cell_angle_beta   90.00000000
_cell_angle_gamma   90.00000000
_symmetry_Int_Tables_number   1
_chemical_formula_structural   TaTe4Cl4O
_chemical_formula_sum   'Ta8 Te32 Cl32 O8'
_cell_volume   2521.75387189
_cell_formula_units_Z   8
loop_
 _symmetry_equiv_pos_site_id
 _symmetry_equiv_pos_as_xyz
  1  'x, y, z'
loop_
 _atom_site_type_symbol
 _atom_site_label
 _atom_site_symmetry_multiplicity
 _atom_site_fract_x
 _atom_site_fract_y
 _atom_site_fract_z
 _atom_site_occupancy
  Ta  Ta0  1  0.18374400  0.48578800  0.96193300  1
  Ta  Ta1  1  0.68374400  0.51421200  0.53806700  1
  Ta  Ta2  1  0.81625600  0.51421200  0.03806700  1
  Ta  Ta3  1  0.31625600  0.48578800  0.46193300  1
  Ta  Ta4  1  0.93447100  0.49819700  0.88690800  1
  Ta  Ta5  1  0.43447100  0.50180300  0.61309200  1
  Ta  Ta6  1  0.06552900  0.50180300  0.11309200  1
  Ta  Ta7  1  0.56552900  0.49819700  0.38690800  1
  Te  Te8  1  0.44572500  0.83299800  0.76211700  1
  Te  Te9  1  0.94572500  0.16700200  0.73788300  1
  Te  Te10  1  0.55427500  0.16700200  0.23788300  1
  Te  Te11  1  0.05427500  0.83299800  0.26211700  1
  Te  Te12  1  0.17836300  0.90774200  0.71965800  1
  Te  Te13  1  0.67836300  0.09225800  0.78034200  1
  Te  Te14  1  0.82163700  0.09225800  0.28034200  1
  Te  Te15  1  0.32163700  0.90774200  0.21965800  1
  Te  Te16  1  0.18916800  0.12945700  0.79779400  1
  Te  Te17  1  0.68916800  0.87054300  0.70220600  1
  Te  Te18  1  0.81083200  0.87054300  0.20220600  1
  Te  Te19  1  0.31083200  0.12945700  0.29779400  1
  Te  Te20  1  0.18271300  0.14555700  0.61689800  1
  Te  Te21  1  0.68271300  0.85444300  0.88310200  1
  Te  Te22  1  0.81728700  0.85444300  0.38310200  1
  Te  Te23  1  0.31728700  0.14555700  0.11689800  1
  Te  Te24  1  0.39461300  0.15573500  0.79543700  1
  Te  Te25  1  0.89461300  0.84426500  0.70456300  1
  Te  Te26  1  0.60538700  0.84426500  0.20456300  1
  Te  Te27  1  0.10538700  0.15573500  0.29543700  1
  Te  Te28  1  0.50317500  0.68818300  0.87098600  1
  Te  Te29  1  0.00317500  0.31181700  0.62901400  1
  Te  Te30  1  0.49682500  0.31181700  0.12901400  1
  Te  Te31  1  0.99682500  0.68818300  0.37098600  1
  Te  Te32  1  0.09826700  0.86597400  0.56618400  1
  Te  Te33  1  0.59826700  0.13402600  0.93381600  1
  Te  Te34  1  0.90173300  0.13402600  0.43381600  1
  Te  Te35  1  0.40173300  0.86597400  0.06618400  1
  Te  Te36  1  0.41001800  0.05527000  0.92213600  1
  Te  Te37  1  0.91001800  0.94473000  0.57786400  1
  Te  Te38  1  0.58998200  0.94473000  0.07786400  1
  Te  Te39  1  0.08998200  0.05527000  0.42213600  1
  Cl  Cl40  1  0.18097800  0.19100400  0.97825900  1
  Cl  Cl41  1  0.68097800  0.80899600  0.52174100  1
  Cl  Cl42  1  0.81902200  0.80899600  0.02174100  1
  Cl  Cl43  1  0.31902200  0.19100400  0.47825900  1
  Cl  Cl44  1  0.02131000  0.48551400  0.79152500  1
  Cl  Cl45  1  0.52131000  0.51448600  0.70847500  1
  Cl  Cl46  1  0.97869000  0.51448600  0.20847500  1
  Cl  Cl47  1  0.47869000  0.48551400  0.29152500  1
  Cl  Cl48  1  0.20209100  0.77667200  0.94904100  1
  Cl  Cl49  1  0.70209100  0.22332800  0.55095900  1
  Cl  Cl50  1  0.79790900  0.22332800  0.05095900  1
  Cl  Cl51  1  0.29790900  0.77667200  0.44904100  1
  Cl  Cl52  1  0.94226500  0.79601300  0.86114500  1
  Cl  Cl53  1  0.44226500  0.20398700  0.63885500  1
  Cl  Cl54  1  0.05773500  0.20398700  0.13885500  1
  Cl  Cl55  1  0.55773500  0.79601300  0.36114500  1
  Cl  Cl56  1  0.35228400  0.46177600  0.00735900  1
  Cl  Cl57  1  0.85228400  0.53822400  0.49264100  1
  Cl  Cl58  1  0.64771600  0.53822400  0.99264100  1
  Cl  Cl59  1  0.14771600  0.46177600  0.50735900  1
  Cl  Cl60  1  0.78483000  0.51054400  0.82964600  1
  Cl  Cl61  1  0.28483000  0.48945600  0.67035400  1
  Cl  Cl62  1  0.21517000  0.48945600  0.17035400  1
  Cl  Cl63  1  0.71517000  0.51054400  0.32964600  1
  Cl  Cl64  1  0.26378200  0.48340100  0.86626900  1
  Cl  Cl65  1  0.76378200  0.51659900  0.63373100  1
  Cl  Cl66  1  0.73621800  0.51659900  0.13373100  1
  Cl  Cl67  1  0.23621800  0.48340100  0.36626900  1
  Cl  Cl68  1  0.92683200  0.20751300  0.90271200  1
  Cl  Cl69  1  0.42683200  0.79248700  0.59728800  1
  Cl  Cl70  1  0.07316800  0.79248700  0.09728800  1
  Cl  Cl71  1  0.57316800  0.20751300  0.40271200  1
  O  O72  1  0.13505300  0.48578400  0.04195200  1
  O  O73  1  0.63505300  0.51421600  0.45804800  1
  O  O74  1  0.86494700  0.51421600  0.95804800  1
  O  O75  1  0.36494700  0.48578400  0.54195200  1
  O  O76  1  0.06056600  0.49688600  0.92522800  1
  O  O77  1  0.56056600  0.50311400  0.57477200  1
  O  O78  1  0.93943400  0.50311400  0.07477200  1
  O  O79  1  0.43943400  0.49688600  0.42522800  1
