# generated using pymatgen
data_La3SbO7
_symmetry_space_group_name_H-M   'P 1'
_cell_length_a   7.71801800
_cell_length_b   7.80951700
_cell_length_c   11.21108600
_cell_angle_alpha   90.00000000
_cell_angle_beta   90.00000000
_cell_angle_gamma   90.00000000
_symmetry_Int_Tables_number   1
_chemical_formula_structural   La3SbO7
_chemical_formula_sum   'La12 Sb4 O28'
_cell_volume   675.73691659
_cell_formula_units_Z   4
loop_
 _symmetry_equiv_pos_site_id
 _symmetry_equiv_pos_as_xyz
  1  'x, y, z'
loop_
 _atom_site_type_symbol
 _atom_site_label
 _atom_site_symmetry_multiplicity
 _atom_site_fract_x
 _atom_site_fract_y
 _atom_site_fract_z
 _atom_site_occupancy
  La  La0  1  0.76599400  0.49769000  0.25000000  1
  La  La1  1  0.23400600  0.50231000  0.75000000  1
  La  La2  1  0.26599400  0.00231000  0.75000000  1
  La  La3  1  0.73400600  0.99769000  0.25000000  1
  La  La4  1  0.45515900  0.25265000  0.02176200  1
  La  La5  1  0.54484100  0.74735000  0.97823800  1
  La  La6  1  0.95515900  0.24735000  0.97823800  1
  La  La7  1  0.54484100  0.74735000  0.52176200  1
  La  La8  1  0.04484100  0.75265000  0.02176200  1
  La  La9  1  0.45515900  0.25265000  0.47823800  1
  La  La10  1  0.04484100  0.75265000  0.47823800  1
  La  La11  1  0.95515900  0.24735000  0.52176200  1
  Sb  Sb12  1  0.25185000  0.00237500  0.25000000  1
  Sb  Sb13  1  0.74815000  0.99762500  0.75000000  1
  Sb  Sb14  1  0.75185000  0.49762500  0.75000000  1
  Sb  Sb15  1  0.24815000  0.50237500  0.25000000  1
  O  O16  1  0.32923800  0.25304600  0.25000000  1
  O  O17  1  0.67076200  0.74695400  0.75000000  1
  O  O18  1  0.82923800  0.24695400  0.75000000  1
  O  O19  1  0.17076200  0.75304600  0.25000000  1
  O  O20  1  0.07389600  0.03728200  0.12191300  1
  O  O21  1  0.92610400  0.96271800  0.87808700  1
  O  O22  1  0.57389600  0.46271800  0.87808700  1
  O  O23  1  0.92610400  0.96271800  0.62191300  1
  O  O24  1  0.42610400  0.53728200  0.12191300  1
  O  O25  1  0.07389600  0.03728200  0.37808700  1
  O  O26  1  0.42610400  0.53728200  0.37808700  1
  O  O27  1  0.57389600  0.46271800  0.62191300  1
  O  O28  1  0.22649600  0.25024400  0.61911400  1
  O  O29  1  0.77350400  0.74975600  0.38088600  1
  O  O30  1  0.72649600  0.24975600  0.38088600  1
  O  O31  1  0.77350400  0.74975600  0.11911400  1
  O  O32  1  0.27350400  0.75024400  0.61911400  1
  O  O33  1  0.22649600  0.25024400  0.88088600  1
  O  O34  1  0.27350400  0.75024400  0.88088600  1
  O  O35  1  0.72649600  0.24975600  0.11911400  1
  O  O36  1  0.05969100  0.46803000  0.12667500  1
  O  O37  1  0.94030900  0.53197000  0.87332500  1
  O  O38  1  0.55969100  0.03197000  0.87332500  1
  O  O39  1  0.94030900  0.53197000  0.62667500  1
  O  O40  1  0.44030900  0.96803000  0.12667500  1
  O  O41  1  0.05969100  0.46803000  0.37332500  1
  O  O42  1  0.44030900  0.96803000  0.37332500  1
  O  O43  1  0.55969100  0.03197000  0.62667500  1
