# generated using pymatgen
data_Ba2Ga2S5
_symmetry_space_group_name_H-M   'P 1'
_cell_length_a   10.85845464
_cell_length_b   10.85845464
_cell_length_c   8.64498149
_cell_angle_alpha   79.01102278
_cell_angle_beta   79.01102278
_cell_angle_gamma   87.74742797
_symmetry_Int_Tables_number   1
_chemical_formula_structural   Ba2Ga2S5
_chemical_formula_sum   'Ba8 Ga8 S20'
_cell_volume   982.25368657
_cell_formula_units_Z   4
loop_
 _symmetry_equiv_pos_site_id
 _symmetry_equiv_pos_as_xyz
  1  'x, y, z'
loop_
 _atom_site_type_symbol
 _atom_site_label
 _atom_site_symmetry_multiplicity
 _atom_site_fract_x
 _atom_site_fract_y
 _atom_site_fract_z
 _atom_site_occupancy
  Ba  Ba0  1  0.01896900  0.27756300  0.61055800  1
  Ba  Ba1  1  0.72243700  0.98103100  0.88944200  1
  Ba  Ba2  1  0.98103100  0.72243700  0.38944200  1
  Ba  Ba3  1  0.27756300  0.01896900  0.11055800  1
  Ba  Ba4  1  0.43248800  0.26833800  0.60524000  1
  Ba  Ba5  1  0.73166200  0.56751200  0.89476000  1
  Ba  Ba6  1  0.56751200  0.73166200  0.39476000  1
  Ba  Ba7  1  0.26833800  0.43248800  0.10524000  1
  Ga  Ga8  1  0.23203300  0.62282000  0.61555300  1
  Ga  Ga9  1  0.37718000  0.76796700  0.88444700  1
  Ga  Ga10  1  0.76796700  0.37718000  0.38444700  1
  Ga  Ga11  1  0.62282000  0.23203300  0.11555300  1
  Ga  Ga12  1  0.22770300  0.97649000  0.58729800  1
  Ga  Ga13  1  0.02351000  0.77229700  0.91270200  1
  Ga  Ga14  1  0.77229700  0.02351000  0.41270200  1
  Ga  Ga15  1  0.97649000  0.22770300  0.08729800  1
  S  S16  1  0.96742500  0.03257500  0.25000000  1
  S  S17  1  0.03257500  0.96742500  0.75000000  1
  S  S18  1  0.03405000  0.61358000  0.76513100  1
  S  S19  1  0.38642000  0.96595000  0.73486900  1
  S  S20  1  0.96595000  0.38642000  0.23486900  1
  S  S21  1  0.61358000  0.03405000  0.26513100  1
  S  S22  1  0.24205300  0.47743700  0.46259500  1
  S  S23  1  0.52256300  0.75794700  0.03740500  1
  S  S24  1  0.75794700  0.52256300  0.53740500  1
  S  S25  1  0.47743700  0.24205300  0.96259500  1
  S  S26  1  0.83859800  0.74603000  0.08763600  1
  S  S27  1  0.25397000  0.16140200  0.41236400  1
  S  S28  1  0.16140200  0.25397000  0.91236400  1
  S  S29  1  0.74603000  0.83859800  0.58763600  1
  S  S30  1  0.26148100  0.81614600  0.44163500  1
  S  S31  1  0.18385400  0.73851900  0.05836500  1
  S  S32  1  0.39959000  0.60041000  0.75000000  1
  S  S33  1  0.60041000  0.39959000  0.25000000  1
  S  S34  1  0.81614600  0.26148100  0.94163500  1
  S  S35  1  0.73851900  0.18385400  0.55836500  1
