# generated using pymatgen
data_Zr5CuBi3
_symmetry_space_group_name_H-M   'P 1'
_cell_length_a   8.83748430
_cell_length_b   8.83748430
_cell_length_c   5.92146900
_cell_angle_alpha   90.00000000
_cell_angle_beta   90.00000000
_cell_angle_gamma   120.00000227
_symmetry_Int_Tables_number   1
_chemical_formula_structural   Zr5CuBi3
_chemical_formula_sum   'Zr10 Cu2 Bi6'
_cell_volume   400.51371519
_cell_formula_units_Z   2
loop_
 _symmetry_equiv_pos_site_id
 _symmetry_equiv_pos_as_xyz
  1  'x, y, z'
loop_
 _atom_site_type_symbol
 _atom_site_label
 _atom_site_symmetry_multiplicity
 _atom_site_fract_x
 _atom_site_fract_y
 _atom_site_fract_z
 _atom_site_occupancy
  Zr  Zr0  1  0.73859900  0.00000000  0.25000000  1
  Zr  Zr1  1  0.00000000  0.73859900  0.25000000  1
  Zr  Zr2  1  0.26140100  0.26140100  0.25000000  1
  Zr  Zr3  1  0.26140100  0.00000000  0.75000000  1
  Zr  Zr4  1  0.00000000  0.26140100  0.75000000  1
  Zr  Zr5  1  0.73859900  0.73859900  0.75000000  1
  Zr  Zr6  1  0.33333300  0.66666700  0.50000000  1
  Zr  Zr7  1  0.66666700  0.33333300  0.50000000  1
  Zr  Zr8  1  0.66666700  0.33333300  0.00000000  1
  Zr  Zr9  1  0.33333300  0.66666700  0.00000000  1
  Cu  Cu10  1  0.00000000  0.00000000  0.50000000  1
  Cu  Cu11  1  0.00000000  0.00000000  0.00000000  1
  Bi  Bi12  1  0.38462400  0.00000000  0.25000000  1
  Bi  Bi13  1  0.00000000  0.38462400  0.25000000  1
  Bi  Bi14  1  0.61537600  0.61537600  0.25000000  1
  Bi  Bi15  1  0.61537600  0.00000000  0.75000000  1
  Bi  Bi16  1  0.00000000  0.61537600  0.75000000  1
  Bi  Bi17  1  0.38462400  0.38462400  0.75000000  1
