# generated using pymatgen
data_V5Se8
_symmetry_space_group_name_H-M   'P 1'
_cell_length_a   6.90326423
_cell_length_b   6.90326423
_cell_length_c   8.38259344
_cell_angle_alpha   53.72741251
_cell_angle_beta   53.72741251
_cell_angle_gamma   62.39754854
_symmetry_Int_Tables_number   1
_chemical_formula_structural   V5Se8
_chemical_formula_sum   'V5 Se8'
_cell_volume   255.67224678
_cell_formula_units_Z   1
loop_
 _symmetry_equiv_pos_site_id
 _symmetry_equiv_pos_as_xyz
  1  'x, y, z'
loop_
 _atom_site_type_symbol
 _atom_site_label
 _atom_site_symmetry_multiplicity
 _atom_site_fract_x
 _atom_site_fract_y
 _atom_site_fract_z
 _atom_site_occupancy
  V  V0  1  0.00000000  0.00000000  0.00000000  1
  V  V1  1  0.72917200  0.72917200  0.04354600  1
  V  V2  1  0.27082800  0.27082800  0.95645400  1
  V  V3  1  0.71150700  0.28849300  0.50000000  1
  V  V4  1  0.28849300  0.71150700  0.50000000  1
  Se  Se5  1  0.53723800  0.04541700  0.16993400  1
  Se  Se6  1  0.46276200  0.95458300  0.83006600  1
  Se  Se7  1  0.95458300  0.46276200  0.83006600  1
  Se  Se8  1  0.04541700  0.53723800  0.16993400  1
  Se  Se9  1  0.98215200  0.98215200  0.32230900  1
  Se  Se10  1  0.01784800  0.01784800  0.67769100  1
  Se  Se11  1  0.44241800  0.44241800  0.33446100  1
  Se  Se12  1  0.55758200  0.55758200  0.66553900  1
