# generated using pymatgen
data_NdCrO3
_symmetry_space_group_name_H-M   'P 1'
_cell_length_a   5.47875000
_cell_length_b   5.62400900
_cell_length_c   7.82071600
_cell_angle_alpha   90.00000000
_cell_angle_beta   90.00000000
_cell_angle_gamma   90.00000000
_symmetry_Int_Tables_number   1
_chemical_formula_structural   NdCrO3
_chemical_formula_sum   'Nd4 Cr4 O12'
_cell_volume   240.97611917
_cell_formula_units_Z   4
loop_
 _symmetry_equiv_pos_site_id
 _symmetry_equiv_pos_as_xyz
  1  'x, y, z'
loop_
 _atom_site_type_symbol
 _atom_site_label
 _atom_site_symmetry_multiplicity
 _atom_site_fract_x
 _atom_site_fract_y
 _atom_site_fract_z
 _atom_site_occupancy
  Nd  Nd0  1  0.51322100  0.55119300  0.25000000  1
  Nd  Nd1  1  0.98677900  0.05119300  0.25000000  1
  Nd  Nd2  1  0.48677900  0.44880700  0.75000000  1
  Nd  Nd3  1  0.01322100  0.94880700  0.75000000  1
  Cr  Cr4  1  0.00000000  0.50000000  0.00000000  1
  Cr  Cr5  1  0.50000000  0.00000000  0.50000000  1
  Cr  Cr6  1  0.00000000  0.50000000  0.50000000  1
  Cr  Cr7  1  0.50000000  0.00000000  0.00000000  1
  O  O8  1  0.40868800  0.97372800  0.25000000  1
  O  O9  1  0.09131200  0.47372800  0.25000000  1
  O  O10  1  0.59131200  0.02627200  0.75000000  1
  O  O11  1  0.90868800  0.52627200  0.75000000  1
  O  O12  1  0.79279400  0.79219700  0.04876100  1
  O  O13  1  0.70720600  0.29219700  0.45123900  1
  O  O14  1  0.20720600  0.20780300  0.54876100  1
  O  O15  1  0.29279400  0.70780300  0.95123900  1
  O  O16  1  0.20720600  0.20780300  0.95123900  1
  O  O17  1  0.29279400  0.70780300  0.54876100  1
  O  O18  1  0.79279400  0.79219700  0.45123900  1
  O  O19  1  0.70720600  0.29219700  0.04876100  1
