# generated using pymatgen
data_Dy2CoTe2(SO7)2
_symmetry_space_group_name_H-M   'P 1'
_cell_length_a   5.30122700
_cell_length_b   7.91862717
_cell_length_c   8.20047499
_cell_angle_alpha   115.76382432
_cell_angle_beta   106.93087591
_cell_angle_gamma   85.71253523
_symmetry_Int_Tables_number   1
_chemical_formula_structural   Dy2CoTe2(SO7)2
_chemical_formula_sum   'Dy2 Co1 Te2 S2 O14'
_cell_volume   296.04873331
_cell_formula_units_Z   1
loop_
 _symmetry_equiv_pos_site_id
 _symmetry_equiv_pos_as_xyz
  1  'x, y, z'
loop_
 _atom_site_type_symbol
 _atom_site_label
 _atom_site_symmetry_multiplicity
 _atom_site_fract_x
 _atom_site_fract_y
 _atom_site_fract_z
 _atom_site_occupancy
  Dy  Dy0  1  0.08514300  0.25229300  0.98387000  1
  Dy  Dy1  1  0.91485700  0.74770700  0.01613000  1
  Co  Co2  1  0.00000000  0.00000000  0.50000000  1
  Te  Te3  1  0.51775400  0.27220400  0.66298000  1
  Te  Te4  1  0.48224600  0.72779600  0.33702000  1
  S  S5  1  0.76733700  0.24474200  0.24888800  1
  S  S6  1  0.23266300  0.75525800  0.75111200  1
  O  O7  1  0.90512200  0.40452900  0.25411600  1
  O  O8  1  0.09487800  0.59547100  0.74588400  1
  O  O9  1  0.86917600  0.22526300  0.42727500  1
  O  O10  1  0.13082400  0.77473700  0.57272500  1
  O  O11  1  0.47903300  0.27066800  0.21377100  1
  O  O12  1  0.52096700  0.72933200  0.78622900  1
  O  O13  1  0.82335300  0.07468100  0.08661400  1
  O  O14  1  0.17664700  0.92531900  0.91338600  1
  O  O15  1  0.75527300  0.43808200  0.89647300  1
  O  O16  1  0.24472700  0.56191800  0.10352700  1
  O  O17  1  0.27661500  0.19184700  0.75149400  1
  O  O18  1  0.72338500  0.80815300  0.24850600  1
  O  O19  1  0.75333600  0.07743800  0.66862200  1
  O  O20  1  0.24666400  0.92256200  0.33137800  1
