# generated using pymatgen
data_Ba3Y2MoO9
_symmetry_space_group_name_H-M   'P 1'
_cell_length_a   6.09949885
_cell_length_b   8.64772700
_cell_length_c   10.58033854
_cell_angle_alpha   65.87870388
_cell_angle_beta   73.24697647
_cell_angle_gamma   90.00000000
_symmetry_Int_Tables_number   1
_chemical_formula_structural   Ba3Y2MoO9
_chemical_formula_sum   'Ba6 Y4 Mo2 O18'
_cell_volume   483.27929412
_cell_formula_units_Z   2
loop_
 _symmetry_equiv_pos_site_id
 _symmetry_equiv_pos_as_xyz
  1  'x, y, z'
loop_
 _atom_site_type_symbol
 _atom_site_label
 _atom_site_symmetry_multiplicity
 _atom_site_fract_x
 _atom_site_fract_y
 _atom_site_fract_z
 _atom_site_occupancy
  Ba  Ba0  1  0.50000000  0.26325300  0.00000000  1
  Ba  Ba1  1  0.83859300  0.57969300  0.32281300  1
  Ba  Ba2  1  0.16140700  0.90250700  0.67718700  1
  Ba  Ba3  1  0.50000000  0.73674700  0.00000000  1
  Ba  Ba4  1  0.83859300  0.09749300  0.32281300  1
  Ba  Ba5  1  0.16140700  0.42030700  0.67718700  1
  Y  Y6  1  0.00000000  0.00000000  0.00000000  1
  Y  Y7  1  0.32883100  0.32883100  0.34233700  1
  Y  Y8  1  0.67116900  0.67116900  0.65766300  1
  Y  Y9  1  0.00000000  0.50000000  0.00000000  1
  Mo  Mo10  1  0.33395900  0.83395900  0.33208100  1
  Mo  Mo11  1  0.66604100  0.16604100  0.66791900  1
  O  O12  1  0.00000000  0.24635900  0.00000000  1
  O  O13  1  0.32977300  0.60147200  0.34045200  1
  O  O14  1  0.67022700  0.94192500  0.65954800  1
  O  O15  1  0.16076100  0.41070400  0.17859300  1
  O  O16  1  0.49011100  0.75991800  0.48016400  1
  O  O17  1  0.81674600  0.08988300  0.82023300  1
  O  O18  1  0.33935300  0.58929600  0.82140700  1
  O  O19  1  0.63698000  0.91011700  0.17976700  1
  O  O20  1  0.97027500  0.24008200  0.51983600  1
  O  O21  1  0.00000000  0.75364100  0.00000000  1
  O  O22  1  0.32977300  0.05807500  0.34045200  1
  O  O23  1  0.67022700  0.39852800  0.65954800  1
  O  O24  1  0.83923900  0.58929600  0.82140700  1
  O  O25  1  0.18325400  0.91011700  0.17976700  1
  O  O26  1  0.50988900  0.24008200  0.51983600  1
  O  O27  1  0.66064700  0.41070400  0.17859300  1
  O  O28  1  0.02972500  0.75991800  0.48016400  1
  O  O29  1  0.36302000  0.08988300  0.82023300  1
