# generated using pymatgen
data_CaC2(NO)2
_symmetry_space_group_name_H-M   'P 1'
_cell_length_a   7.82623596
_cell_length_b   7.82623596
_cell_length_c   7.82623512
_cell_angle_alpha   95.49460745
_cell_angle_beta   95.49460745
_cell_angle_gamma   95.49460544
_symmetry_Int_Tables_number   1
_chemical_formula_structural   CaC2(NO)2
_chemical_formula_sum   'Ca6 C12 N12 O12'
_cell_volume   472.29132447
_cell_formula_units_Z   6
loop_
 _symmetry_equiv_pos_site_id
 _symmetry_equiv_pos_as_xyz
  1  'x, y, z'
loop_
 _atom_site_type_symbol
 _atom_site_label
 _atom_site_symmetry_multiplicity
 _atom_site_fract_x
 _atom_site_fract_y
 _atom_site_fract_z
 _atom_site_occupancy
  Ca  Ca0  1  0.75125600  0.03707600  0.38611200  1
  Ca  Ca1  1  0.38611200  0.75125600  0.03707600  1
  Ca  Ca2  1  0.03707600  0.38611200  0.75125600  1
  Ca  Ca3  1  0.88611200  0.53707600  0.25125600  1
  Ca  Ca4  1  0.25125600  0.88611200  0.53707600  1
  Ca  Ca5  1  0.53707600  0.25125600  0.88611200  1
  C  C6  1  0.55350300  0.59563400  0.37866500  1
  C  C7  1  0.37866500  0.55350300  0.59563400  1
  C  C8  1  0.59563400  0.37866500  0.55350300  1
  C  C9  1  0.87866500  0.09563400  0.05350300  1
  C  C10  1  0.05350300  0.87866500  0.09563400  1
  C  C11  1  0.09563400  0.05350300  0.87866500  1
  C  C12  1  0.85549000  0.76716000  0.62739200  1
  C  C13  1  0.62739200  0.85549000  0.76716000  1
  C  C14  1  0.76716000  0.62739200  0.85549000  1
  C  C15  1  0.12739200  0.26716000  0.35549000  1
  C  C16  1  0.35549000  0.12739200  0.26716000  1
  C  C17  1  0.26716000  0.35549000  0.12739200  1
  N  N18  1  0.41875000  0.64302700  0.46159300  1
  N  N19  1  0.46159300  0.41875000  0.64302700  1
  N  N20  1  0.64302700  0.46159300  0.41875000  1
  N  N21  1  0.96159300  0.14302700  0.91875000  1
  N  N22  1  0.91875000  0.96159300  0.14302700  1
  N  N23  1  0.14302700  0.91875000  0.96159300  1
  N  N24  1  0.73314400  0.87789800  0.64250700  1
  N  N25  1  0.64250700  0.73314400  0.87789800  1
  N  N26  1  0.87789800  0.64250700  0.73314400  1
  N  N27  1  0.14250700  0.37789800  0.23314400  1
  N  N28  1  0.23314400  0.14250700  0.37789800  1
  N  N29  1  0.37789800  0.23314400  0.14250700  1
  O  O30  1  0.60721500  0.68215400  0.25660900  1
  O  O31  1  0.25660900  0.60721500  0.68215400  1
  O  O32  1  0.68215400  0.25660900  0.60721500  1
  O  O33  1  0.75660900  0.18215400  0.10721500  1
  O  O34  1  0.10721500  0.75660900  0.18215400  1
  O  O35  1  0.18215400  0.10721500  0.75660900  1
  O  O36  1  0.94935200  0.78237000  0.49998000  1
  O  O37  1  0.49998000  0.94935200  0.78237000  1
  O  O38  1  0.78237000  0.49998000  0.94935200  1
  O  O39  1  0.99998000  0.28237000  0.44935200  1
  O  O40  1  0.44935200  0.99998000  0.28237000  1
  O  O41  1  0.28237000  0.44935200  0.99998000  1
