# generated using pymatgen
data_Sb2O5
_symmetry_space_group_name_H-M   'P 1'
_cell_length_a   6.88058870
_cell_length_b   6.88058870
_cell_length_c   5.51956105
_cell_angle_alpha   77.34396008
_cell_angle_beta   77.34396008
_cell_angle_gamma   41.63736212
_symmetry_Int_Tables_number   1
_chemical_formula_structural   Sb2O5
_chemical_formula_sum   'Sb4 O10'
_cell_volume   168.78080139
_cell_formula_units_Z   2
loop_
 _symmetry_equiv_pos_site_id
 _symmetry_equiv_pos_as_xyz
  1  'x, y, z'
loop_
 _atom_site_type_symbol
 _atom_site_label
 _atom_site_symmetry_multiplicity
 _atom_site_fract_x
 _atom_site_fract_y
 _atom_site_fract_z
 _atom_site_occupancy
  Sb  Sb0  1  0.37704800  0.89923500  0.21747000  1
  Sb  Sb1  1  0.10076500  0.62295200  0.28253000  1
  Sb  Sb2  1  0.62295200  0.10076500  0.78253000  1
  Sb  Sb3  1  0.89923500  0.37704800  0.71747000  1
  O  O4  1  0.41971400  0.58028600  0.25000000  1
  O  O5  1  0.58028600  0.41971400  0.75000000  1
  O  O6  1  0.81064100  0.98562100  0.45037700  1
  O  O7  1  0.01437900  0.18935900  0.04962300  1
  O  O8  1  0.21799800  0.37698800  0.62313800  1
  O  O9  1  0.62301200  0.78200200  0.87686200  1
  O  O10  1  0.78200200  0.62301200  0.37686200  1
  O  O11  1  0.37698800  0.21799800  0.12313800  1
  O  O12  1  0.98562100  0.81064100  0.95037700  1
  O  O13  1  0.18935900  0.01437900  0.54962300  1
