# generated using pymatgen
data_V3Cr3Si2
_symmetry_space_group_name_H-M   'P 1'
_cell_length_a   4.60313223
_cell_length_b   4.60313223
_cell_length_c   4.60313284
_cell_angle_alpha   89.93544024
_cell_angle_beta   89.93544024
_cell_angle_gamma   89.93545017
_symmetry_Int_Tables_number   1
_chemical_formula_structural   V3Cr3Si2
_chemical_formula_sum   'V3 Cr3 Si2'
_cell_volume   97.53479678
_cell_formula_units_Z   1
loop_
 _symmetry_equiv_pos_site_id
 _symmetry_equiv_pos_as_xyz
  1  'x, y, z'
loop_
 _atom_site_type_symbol
 _atom_site_label
 _atom_site_symmetry_multiplicity
 _atom_site_fract_x
 _atom_site_fract_y
 _atom_site_fract_z
 _atom_site_occupancy
  V  V0  1  0.00000000  0.74995100  0.25004900  1
  V  V1  1  0.74995100  0.25004900  0.00000000  1
  V  V2  1  0.25004900  0.00000000  0.74995100  1
  Cr  Cr3  1  0.50000000  0.74985100  0.25014900  1
  Cr  Cr4  1  0.74985100  0.25014900  0.50000000  1
  Cr  Cr5  1  0.25014900  0.50000000  0.74985100  1
  Si  Si6  1  0.25034100  0.25034100  0.25034100  1
  Si  Si7  1  0.74965900  0.74965900  0.74965900  1
