# generated using pymatgen
data_HoAl
_symmetry_space_group_name_H-M   'P 1'
_cell_length_a   5.61241300
_cell_length_b   5.83053400
_cell_length_c   11.37427900
_cell_angle_alpha   90.00000000
_cell_angle_beta   90.00000000
_cell_angle_gamma   90.00000000
_symmetry_Int_Tables_number   1
_chemical_formula_structural   HoAl
_chemical_formula_sum   'Ho8 Al8'
_cell_volume   372.20468126
_cell_formula_units_Z   8
loop_
 _symmetry_equiv_pos_site_id
 _symmetry_equiv_pos_as_xyz
  1  'x, y, z'
loop_
 _atom_site_type_symbol
 _atom_site_label
 _atom_site_symmetry_multiplicity
 _atom_site_fract_x
 _atom_site_fract_y
 _atom_site_fract_z
 _atom_site_occupancy
  Ho  Ho0  1  0.75000000  0.16097700  0.48340400  1
  Ho  Ho1  1  0.25000000  0.83902300  0.51659600  1
  Ho  Ho2  1  0.25000000  0.16097700  0.01659600  1
  Ho  Ho3  1  0.75000000  0.83902300  0.98340400  1
  Ho  Ho4  1  0.75000000  0.39629700  0.16842300  1
  Ho  Ho5  1  0.25000000  0.60370300  0.83157700  1
  Ho  Ho6  1  0.25000000  0.39629700  0.33157700  1
  Ho  Ho7  1  0.75000000  0.60370300  0.66842300  1
  Al  Al8  1  0.50000000  0.92785500  0.25000000  1
  Al  Al9  1  0.00000000  0.07214500  0.75000000  1
  Al  Al10  1  0.50000000  0.07214500  0.75000000  1
  Al  Al11  1  0.00000000  0.92785500  0.25000000  1
  Al  Al12  1  0.75000000  0.65903800  0.40188400  1
  Al  Al13  1  0.25000000  0.34096200  0.59811600  1
  Al  Al14  1  0.25000000  0.65903800  0.09811600  1
  Al  Al15  1  0.75000000  0.34096200  0.90188400  1
