# generated using pymatgen
data_RbAlNiF6
_symmetry_space_group_name_H-M   'P 1'
_cell_length_a   7.15251844
_cell_length_b   7.15251844
_cell_length_c   7.15251844
_cell_angle_alpha   120.30071011
_cell_angle_beta   119.52020841
_cell_angle_gamma   90.15648464
_symmetry_Int_Tables_number   1
_chemical_formula_structural   RbAlNiF6
_chemical_formula_sum   'Rb2 Al2 Ni2 F12'
_cell_volume   259.07319782
_cell_formula_units_Z   2
loop_
 _symmetry_equiv_pos_site_id
 _symmetry_equiv_pos_as_xyz
  1  'x, y, z'
loop_
 _atom_site_type_symbol
 _atom_site_label
 _atom_site_symmetry_multiplicity
 _atom_site_fract_x
 _atom_site_fract_y
 _atom_site_fract_z
 _atom_site_occupancy
  Rb  Rb0  1  0.62119300  0.87119300  0.75000000  1
  Rb  Rb1  1  0.37880700  0.12880700  0.25000000  1
  Al  Al2  1  0.00000000  0.50000000  0.00000000  1
  Al  Al3  1  0.00000000  0.00000000  0.50000000  1
  Ni  Ni4  1  0.50000000  0.50000000  0.00000000  1
  Ni  Ni5  1  0.00000000  0.50000000  0.50000000  1
  F  F6  1  0.04875600  0.79875600  0.25000000  1
  F  F7  1  0.66387500  0.41387500  0.25000000  1
  F  F8  1  0.05773600  0.83796800  0.64056600  1
  F  F9  1  0.69740300  0.41717000  0.85943400  1
  F  F10  1  0.69740300  0.83796800  0.28023200  1
  F  F11  1  0.05773600  0.41717000  0.21976800  1
  F  F12  1  0.95124400  0.20124400  0.75000000  1
  F  F13  1  0.33612500  0.58612500  0.75000000  1
  F  F14  1  0.94226400  0.16203200  0.35943400  1
  F  F15  1  0.30259700  0.58283000  0.14056600  1
  F  F16  1  0.30259700  0.16203200  0.71976800  1
  F  F17  1  0.94226400  0.58283000  0.78023200  1
