# generated using pymatgen
data_U2InPt2
_symmetry_space_group_name_H-M   'P 1'
_cell_length_a   7.83345700
_cell_length_b   7.83345700
_cell_length_c   7.25485800
_cell_angle_alpha   90.00000000
_cell_angle_beta   90.00000000
_cell_angle_gamma   90.00000000
_symmetry_Int_Tables_number   1
_chemical_formula_structural   U2InPt2
_chemical_formula_sum   'U8 In4 Pt8'
_cell_volume   445.18020383
_cell_formula_units_Z   4
loop_
 _symmetry_equiv_pos_site_id
 _symmetry_equiv_pos_as_xyz
  1  'x, y, z'
loop_
 _atom_site_type_symbol
 _atom_site_label
 _atom_site_symmetry_multiplicity
 _atom_site_fract_x
 _atom_site_fract_y
 _atom_site_fract_z
 _atom_site_occupancy
  U  U0  1  0.67682400  0.32317600  0.50000000  1
  U  U1  1  0.32317600  0.67682400  0.50000000  1
  U  U2  1  0.17682400  0.17682400  0.00000000  1
  U  U3  1  0.82317600  0.82317600  0.00000000  1
  U  U4  1  0.84159600  0.84159600  0.50000000  1
  U  U5  1  0.15840400  0.15840400  0.50000000  1
  U  U6  1  0.34159600  0.65840400  0.00000000  1
  U  U7  1  0.65840400  0.34159600  0.00000000  1
  In  In8  1  0.50000000  0.00000000  0.25000000  1
  In  In9  1  0.00000000  0.50000000  0.75000000  1
  In  In10  1  0.50000000  0.00000000  0.75000000  1
  In  In11  1  0.00000000  0.50000000  0.25000000  1
  Pt  Pt12  1  0.86569400  0.13430600  0.23258300  1
  Pt  Pt13  1  0.13430600  0.86569400  0.23258300  1
  Pt  Pt14  1  0.36569400  0.36569400  0.73258300  1
  Pt  Pt15  1  0.63430600  0.63430600  0.73258300  1
  Pt  Pt16  1  0.13430600  0.86569400  0.76741700  1
  Pt  Pt17  1  0.86569400  0.13430600  0.76741700  1
  Pt  Pt18  1  0.63430600  0.63430600  0.26741700  1
  Pt  Pt19  1  0.36569400  0.36569400  0.26741700  1
