# generated using pymatgen
data_K5Li2PrF10
_symmetry_space_group_name_H-M   'P 1'
_cell_length_a   7.01375600
_cell_length_b   7.85906600
_cell_length_c   21.00590100
_cell_angle_alpha   90.00000000
_cell_angle_beta   90.00000000
_cell_angle_gamma   90.00000000
_symmetry_Int_Tables_number   1
_chemical_formula_structural   K5Li2PrF10
_chemical_formula_sum   'K20 Li8 Pr4 F40'
_cell_volume   1157.87826994
_cell_formula_units_Z   4
loop_
 _symmetry_equiv_pos_site_id
 _symmetry_equiv_pos_as_xyz
  1  'x, y, z'
loop_
 _atom_site_type_symbol
 _atom_site_label
 _atom_site_symmetry_multiplicity
 _atom_site_fract_x
 _atom_site_fract_y
 _atom_site_fract_z
 _atom_site_occupancy
  K  K0  1  0.74796900  0.47829800  0.45667800  1
  K  K1  1  0.75203100  0.02170200  0.95667800  1
  K  K2  1  0.25203100  0.97829800  0.54332200  1
  K  K3  1  0.24796900  0.52170200  0.04332200  1
  K  K4  1  0.25203100  0.52170200  0.54332200  1
  K  K5  1  0.24796900  0.97829800  0.04332200  1
  K  K6  1  0.74796900  0.02170200  0.45667800  1
  K  K7  1  0.75203100  0.47829800  0.95667800  1
  K  K8  1  0.57315000  0.52743500  0.28297200  1
  K  K9  1  0.92685000  0.97256500  0.78297200  1
  K  K10  1  0.42685000  0.02743500  0.71702800  1
  K  K11  1  0.07315000  0.47256500  0.21702800  1
  K  K12  1  0.42685000  0.47256500  0.71702800  1
  K  K13  1  0.07315000  0.02743500  0.21702800  1
  K  K14  1  0.57315000  0.97256500  0.28297200  1
  K  K15  1  0.92685000  0.52743500  0.78297200  1
  K  K16  1  0.06115200  0.75000000  0.35950600  1
  K  K17  1  0.43884800  0.75000000  0.85950600  1
  K  K18  1  0.93884800  0.25000000  0.64049400  1
  K  K19  1  0.56115200  0.25000000  0.14049400  1
  Li  Li20  1  0.03092000  0.75000000  0.92270500  1
  Li  Li21  1  0.46908000  0.75000000  0.42270500  1
  Li  Li22  1  0.96908000  0.25000000  0.07729500  1
  Li  Li23  1  0.53092000  0.25000000  0.57729500  1
  Li  Li24  1  0.15957400  0.75000000  0.67356900  1
  Li  Li25  1  0.34042600  0.75000000  0.17356900  1
  Li  Li26  1  0.84042600  0.25000000  0.32643100  1
  Li  Li27  1  0.65957400  0.25000000  0.82643100  1
  Pr  Pr28  1  0.76062900  0.75000000  0.10725200  1
  Pr  Pr29  1  0.73937100  0.75000000  0.60725200  1
  Pr  Pr30  1  0.23937100  0.25000000  0.89274800  1
  Pr  Pr31  1  0.26062900  0.25000000  0.39274800  1
  F  F32  1  0.95325100  0.75000000  0.00871000  1
  F  F33  1  0.54674900  0.75000000  0.50871000  1
  F  F34  1  0.04674900  0.25000000  0.99129000  1
  F  F35  1  0.45325100  0.25000000  0.49129000  1
  F  F36  1  0.54268200  0.75000000  0.01953400  1
  F  F37  1  0.95731800  0.75000000  0.51953400  1
  F  F38  1  0.45731800  0.25000000  0.98046600  1
  F  F39  1  0.04268200  0.25000000  0.48046600  1
  F  F40  1  0.84143900  0.45808400  0.08998300  1
  F  F41  1  0.65856100  0.04191600  0.58998300  1
  F  F42  1  0.15856100  0.95808400  0.91001700  1
  F  F43  1  0.34143900  0.54191600  0.41001700  1
  F  F44  1  0.15856100  0.54191600  0.91001700  1
  F  F45  1  0.34143900  0.95808400  0.41001700  1
  F  F46  1  0.84143900  0.04191600  0.08998300  1
  F  F47  1  0.65856100  0.45808400  0.58998300  1
  F  F48  1  0.49625500  0.57400800  0.14760700  1
  F  F49  1  0.00374500  0.92599200  0.64760700  1
  F  F50  1  0.50374500  0.07400800  0.85239300  1
  F  F51  1  0.99625500  0.42599200  0.35239300  1
  F  F52  1  0.50374500  0.42599200  0.85239300  1
  F  F53  1  0.99625500  0.07400800  0.35239300  1
  F  F54  1  0.49625500  0.92599200  0.14760700  1
  F  F55  1  0.00374500  0.57400800  0.64760700  1
  F  F56  1  0.80745500  0.75000000  0.21898100  1
  F  F57  1  0.69254500  0.75000000  0.71898100  1
  F  F58  1  0.19254500  0.25000000  0.78101900  1
  F  F59  1  0.30745500  0.25000000  0.28101900  1
  F  F60  1  0.68685700  0.75000000  0.37373600  1
  F  F61  1  0.81314300  0.75000000  0.87373600  1
  F  F62  1  0.31314300  0.25000000  0.62626400  1
  F  F63  1  0.18685700  0.25000000  0.12626400  1
  F  F64  1  0.20889300  0.75000000  0.75969600  1
  F  F65  1  0.29110700  0.75000000  0.25969600  1
  F  F66  1  0.79110700  0.25000000  0.24030400  1
  F  F67  1  0.70889300  0.25000000  0.74030400  1
  F  F68  1  0.39420700  0.75000000  0.63127700  1
  F  F69  1  0.10579300  0.75000000  0.13127700  1
  F  F70  1  0.60579300  0.25000000  0.36872300  1
  F  F71  1  0.89420700  0.25000000  0.86872300  1
