# generated using pymatgen
data_Ba2Na2SrAl4F20
_symmetry_space_group_name_H-M   'P 1'
_cell_length_a   20.40078000
_cell_length_b   5.37969300
_cell_length_c   8.93534902
_cell_angle_alpha   53.42732219
_cell_angle_beta   90.00000000
_cell_angle_gamma   90.00000000
_symmetry_Int_Tables_number   1
_chemical_formula_structural   Ba2Na2SrAl4F20
_chemical_formula_sum   'Ba4 Na4 Sr2 Al8 F40'
_cell_volume   787.56486330
_cell_formula_units_Z   2
loop_
 _symmetry_equiv_pos_site_id
 _symmetry_equiv_pos_as_xyz
  1  'x, y, z'
loop_
 _atom_site_type_symbol
 _atom_site_label
 _atom_site_symmetry_multiplicity
 _atom_site_fract_x
 _atom_site_fract_y
 _atom_site_fract_z
 _atom_site_occupancy
  Ba  Ba0  1  0.72238200  0.96898500  0.51426800  1
  Ba  Ba1  1  0.77761800  0.96898500  0.01426800  1
  Ba  Ba2  1  0.27761800  0.03101500  0.48573200  1
  Ba  Ba3  1  0.22238200  0.03101500  0.98573200  1
  Na  Na4  1  0.90660400  0.74286000  0.75283600  1
  Na  Na5  1  0.59339600  0.74286000  0.25283600  1
  Na  Na6  1  0.09339600  0.25714000  0.24716400  1
  Na  Na7  1  0.40660400  0.25714000  0.74716400  1
  Sr  Sr8  1  0.50000000  0.00000000  0.50000000  1
  Sr  Sr9  1  0.00000000  0.00000000  0.00000000  1
  Al  Al10  1  0.63589600  0.46421500  0.04435100  1
  Al  Al11  1  0.86410400  0.46421500  0.54435100  1
  Al  Al12  1  0.36410400  0.53578500  0.95564900  1
  Al  Al13  1  0.13589600  0.53578500  0.45564900  1
  Al  Al14  1  0.90058600  0.28045700  0.22585100  1
  Al  Al15  1  0.59941400  0.28045700  0.72585100  1
  Al  Al16  1  0.09941400  0.71954300  0.77414900  1
  Al  Al17  1  0.40058600  0.71954300  0.27414900  1
  F  F18  1  0.56665300  0.30616300  0.20188100  1
  F  F19  1  0.93334700  0.30616300  0.70188100  1
  F  F20  1  0.43334700  0.69383700  0.79811900  1
  F  F21  1  0.06665300  0.69383700  0.29811900  1
  F  F22  1  0.81241200  0.28637100  0.23628200  1
  F  F23  1  0.68758800  0.28637100  0.73628200  1
  F  F24  1  0.18758800  0.71362900  0.76371800  1
  F  F25  1  0.31241200  0.71362900  0.26371800  1
  F  F26  1  0.67801100  0.53778400  0.19621000  1
  F  F27  1  0.82198900  0.53778400  0.69621000  1
  F  F28  1  0.32198900  0.46221600  0.80379000  1
  F  F29  1  0.17801100  0.46221600  0.30379000  1
  F  F30  1  0.67597200  0.08563800  0.17330900  1
  F  F31  1  0.82402800  0.08563800  0.67330900  1
  F  F32  1  0.32402800  0.91436200  0.82669100  1
  F  F33  1  0.17597200  0.91436200  0.32669100  1
  F  F34  1  0.48793100  0.70887900  0.29478400  1
  F  F35  1  0.01206900  0.70887900  0.79478400  1
  F  F36  1  0.51206900  0.29112100  0.70521600  1
  F  F37  1  0.98793100  0.29112100  0.20521600  1
  F  F38  1  0.60091600  0.69789300  0.53497900  1
  F  F39  1  0.89908400  0.69789300  0.03497900  1
  F  F40  1  0.39908400  0.30210700  0.46502100  1
  F  F41  1  0.10091600  0.30210700  0.96502100  1
  F  F42  1  0.60454900  0.19545100  0.55606200  1
  F  F43  1  0.89545100  0.19545100  0.05606200  1
  F  F44  1  0.39545100  0.80454900  0.44393800  1
  F  F45  1  0.10454900  0.80454900  0.94393800  1
  F  F46  1  0.70507900  0.63700900  0.88643700  1
  F  F47  1  0.79492100  0.63700900  0.38643700  1
  F  F48  1  0.29492100  0.36299100  0.11356300  1
  F  F49  1  0.20507900  0.36299100  0.61356300  1
  F  F50  1  0.59735100  0.85869700  0.92173800  1
  F  F51  1  0.90264900  0.85869700  0.42173800  1
  F  F52  1  0.40264900  0.14130300  0.07826200  1
  F  F53  1  0.09735100  0.14130300  0.57826200  1
  F  F54  1  0.59382300  0.37889300  0.89490700  1
  F  F55  1  0.90617700  0.37889300  0.39490700  1
  F  F56  1  0.40617700  0.62110700  0.10509300  1
  F  F57  1  0.09382300  0.62110700  0.60509300  1
