# generated using pymatgen
data_RbSr2Cl5
_symmetry_space_group_name_H-M   'P 1'
_cell_length_a   8.03911000
_cell_length_b   9.09503100
_cell_length_c   13.03297240
_cell_angle_alpha   89.73310908
_cell_angle_beta   90.00000000
_cell_angle_gamma   90.00000000
_symmetry_Int_Tables_number   1
_chemical_formula_structural   RbSr2Cl5
_chemical_formula_sum   'Rb4 Sr8 Cl20'
_cell_volume   952.90788052
_cell_formula_units_Z   4
loop_
 _symmetry_equiv_pos_site_id
 _symmetry_equiv_pos_as_xyz
  1  'x, y, z'
loop_
 _atom_site_type_symbol
 _atom_site_label
 _atom_site_symmetry_multiplicity
 _atom_site_fract_x
 _atom_site_fract_y
 _atom_site_fract_z
 _atom_site_occupancy
  Rb  Rb0  1  0.46190400  0.49413800  0.83013100  1
  Rb  Rb1  1  0.53809600  0.50586200  0.16986900  1
  Rb  Rb2  1  0.96190400  0.50586200  0.66986900  1
  Rb  Rb3  1  0.03809600  0.49413800  0.33013100  1
  Sr  Sr4  1  0.47944900  0.99961600  0.82276900  1
  Sr  Sr5  1  0.52055100  0.00038400  0.17723100  1
  Sr  Sr6  1  0.97944900  0.00038400  0.67723100  1
  Sr  Sr7  1  0.02055100  0.99961600  0.32276900  1
  Sr  Sr8  1  0.43659800  0.75375500  0.50539400  1
  Sr  Sr9  1  0.56340200  0.24624500  0.49460600  1
  Sr  Sr10  1  0.93659800  0.24624500  0.99460600  1
  Sr  Sr11  1  0.06340200  0.75375500  0.00539400  1
  Cl  Cl12  1  0.33667400  0.46990100  0.58642000  1
  Cl  Cl13  1  0.66332600  0.53009900  0.41358000  1
  Cl  Cl14  1  0.83667400  0.53009900  0.91358000  1
  Cl  Cl15  1  0.16332600  0.46990100  0.08642000  1
  Cl  Cl16  1  0.66869700  0.78995800  0.68224200  1
  Cl  Cl17  1  0.33130300  0.21004200  0.31775800  1
  Cl  Cl18  1  0.16869700  0.21004200  0.81775800  1
  Cl  Cl19  1  0.83130300  0.78995800  0.18224200  1
  Cl  Cl20  1  0.19396700  0.77741400  0.78790100  1
  Cl  Cl21  1  0.80603300  0.22258600  0.21209900  1
  Cl  Cl22  1  0.69396700  0.22258600  0.71209900  1
  Cl  Cl23  1  0.30603300  0.77741400  0.28790100  1
  Cl  Cl24  1  0.05304500  0.79024200  0.50406100  1
  Cl  Cl25  1  0.94695500  0.20975800  0.49593900  1
  Cl  Cl26  1  0.55304500  0.20975800  0.99593900  1
  Cl  Cl27  1  0.44695500  0.79024200  0.00406100  1
  Cl  Cl28  1  0.84143500  0.96132800  0.89724200  1
  Cl  Cl29  1  0.15856500  0.03867200  0.10275800  1
  Cl  Cl30  1  0.34143500  0.03867200  0.60275800  1
  Cl  Cl31  1  0.65856500  0.96132800  0.39724200  1
