# generated using pymatgen
data_Ca4As3
_symmetry_space_group_name_H-M   'P 1'
_cell_length_a   10.43570900
_cell_length_b   11.58507600
_cell_length_c   12.16085600
_cell_angle_alpha   90.00000000
_cell_angle_beta   90.00000000
_cell_angle_gamma   90.00000000
_symmetry_Int_Tables_number   1
_chemical_formula_structural   Ca4As3
_chemical_formula_sum   'Ca32 As24'
_cell_volume   1470.22902875
_cell_formula_units_Z   8
loop_
 _symmetry_equiv_pos_site_id
 _symmetry_equiv_pos_as_xyz
  1  'x, y, z'
loop_
 _atom_site_type_symbol
 _atom_site_label
 _atom_site_symmetry_multiplicity
 _atom_site_fract_x
 _atom_site_fract_y
 _atom_site_fract_z
 _atom_site_occupancy
  Ca  Ca0  1  0.27363900  0.59442900  0.26466300  1
  Ca  Ca1  1  0.27363900  0.40557100  0.73533700  1
  Ca  Ca2  1  0.72636100  0.09442900  0.23533700  1
  Ca  Ca3  1  0.72636100  0.90557100  0.76466300  1
  Ca  Ca4  1  0.72636100  0.40557100  0.73533700  1
  Ca  Ca5  1  0.72636100  0.59442900  0.26466300  1
  Ca  Ca6  1  0.27363900  0.90557100  0.76466300  1
  Ca  Ca7  1  0.27363900  0.09442900  0.23533700  1
  Ca  Ca8  1  0.32365100  0.82374600  0.06708700  1
  Ca  Ca9  1  0.32365100  0.17625400  0.93291300  1
  Ca  Ca10  1  0.67634900  0.32374600  0.43291300  1
  Ca  Ca11  1  0.67634900  0.67625400  0.56708700  1
  Ca  Ca12  1  0.67634900  0.17625400  0.93291300  1
  Ca  Ca13  1  0.67634900  0.82374600  0.06708700  1
  Ca  Ca14  1  0.32365100  0.67625400  0.56708700  1
  Ca  Ca15  1  0.32365100  0.32374600  0.43291300  1
  Ca  Ca16  1  0.50000000  0.87548200  0.36465400  1
  Ca  Ca17  1  0.50000000  0.12451800  0.63534600  1
  Ca  Ca18  1  0.50000000  0.37548200  0.13534600  1
  Ca  Ca19  1  0.50000000  0.62451800  0.86465400  1
  Ca  Ca20  1  0.00000000  0.72584200  0.42361500  1
  Ca  Ca21  1  0.00000000  0.27415800  0.57638500  1
  Ca  Ca22  1  0.00000000  0.22584200  0.07638500  1
  Ca  Ca23  1  0.00000000  0.77415800  0.92361500  1
  Ca  Ca24  1  0.00000000  0.89923900  0.20681300  1
  Ca  Ca25  1  0.00000000  0.10076100  0.79318700  1
  Ca  Ca26  1  0.00000000  0.39923900  0.29318700  1
  Ca  Ca27  1  0.00000000  0.60076100  0.70681300  1
  Ca  Ca28  1  0.18435900  0.50000000  0.00000000  1
  Ca  Ca29  1  0.81564100  0.00000000  0.50000000  1
  Ca  Ca30  1  0.81564100  0.50000000  0.00000000  1
  Ca  Ca31  1  0.18435900  0.00000000  0.50000000  1
  As  As32  1  0.23333700  0.83728900  0.32372100  1
  As  As33  1  0.23333700  0.16271100  0.67627900  1
  As  As34  1  0.76666300  0.33728900  0.17627900  1
  As  As35  1  0.76666300  0.66271100  0.82372100  1
  As  As36  1  0.76666300  0.16271100  0.67627900  1
  As  As37  1  0.76666300  0.83728900  0.32372100  1
  As  As38  1  0.23333700  0.66271100  0.82372100  1
  As  As39  1  0.23333700  0.33728900  0.17627900  1
  As  As40  1  0.50000000  0.53897400  0.40249000  1
  As  As41  1  0.50000000  0.46102600  0.59751000  1
  As  As42  1  0.50000000  0.03897400  0.09751000  1
  As  As43  1  0.50000000  0.96102600  0.90249000  1
  As  As44  1  0.50000000  0.63524500  0.11366000  1
  As  As45  1  0.50000000  0.36475500  0.88634000  1
  As  As46  1  0.50000000  0.13524500  0.38634000  1
  As  As47  1  0.50000000  0.86475500  0.61366000  1
  As  As48  1  0.00000000  0.64014400  0.14271000  1
  As  As49  1  0.00000000  0.35985600  0.85729000  1
  As  As50  1  0.00000000  0.14014400  0.35729000  1
  As  As51  1  0.00000000  0.85985600  0.64271000  1
  As  As52  1  0.12264900  0.50000000  0.50000000  1
  As  As53  1  0.87735100  0.00000000  0.00000000  1
  As  As54  1  0.87735100  0.50000000  0.50000000  1
  As  As55  1  0.12264900  0.00000000  0.00000000  1
