# generated using pymatgen
data_Cs2As3
_symmetry_space_group_name_H-M   'P 1'
_cell_length_a   9.63025556
_cell_length_b   9.42025774
_cell_length_c   7.26020358
_cell_angle_alpha   69.13889862
_cell_angle_beta   66.07397929
_cell_angle_gamma   44.78712208
_symmetry_Int_Tables_number   1
_chemical_formula_structural   Cs2As3
_chemical_formula_sum   'Cs4 As6'
_cell_volume   421.73509499
_cell_formula_units_Z   2
loop_
 _symmetry_equiv_pos_site_id
 _symmetry_equiv_pos_as_xyz
  1  'x, y, z'
loop_
 _atom_site_type_symbol
 _atom_site_label
 _atom_site_symmetry_multiplicity
 _atom_site_fract_x
 _atom_site_fract_y
 _atom_site_fract_z
 _atom_site_occupancy
  Cs  Cs0  1  0.75000000  0.75000000  0.75000000  1
  Cs  Cs1  1  0.25000000  0.25000000  0.25000000  1
  Cs  Cs2  1  0.73161900  0.26838100  0.73161900  1
  Cs  Cs3  1  0.26838100  0.73161900  0.26838100  1
  As  As4  1  0.13669300  0.71253200  0.86330700  1
  As  As5  1  0.28746800  0.86330700  0.71253200  1
  As  As6  1  0.86330700  0.28746800  0.13669300  1
  As  As7  1  0.71253200  0.13669300  0.28746800  1
  As  As8  1  0.84832500  0.84832500  0.15167500  1
  As  As9  1  0.15167500  0.15167500  0.84832500  1
