# generated using pymatgen
data_CsTmP2O7
_symmetry_space_group_name_H-M   'P 1'
_cell_length_a   10.93722600
_cell_length_b   7.94330400
_cell_length_c   8.81779748
_cell_angle_alpha   74.88528745
_cell_angle_beta   90.00000000
_cell_angle_gamma   90.00000000
_symmetry_Int_Tables_number   1
_chemical_formula_structural   CsTmP2O7
_chemical_formula_sum   'Cs4 Tm4 P8 O28'
_cell_volume   739.56840837
_cell_formula_units_Z   4
loop_
 _symmetry_equiv_pos_site_id
 _symmetry_equiv_pos_as_xyz
  1  'x, y, z'
loop_
 _atom_site_type_symbol
 _atom_site_label
 _atom_site_symmetry_multiplicity
 _atom_site_fract_x
 _atom_site_fract_y
 _atom_site_fract_z
 _atom_site_occupancy
  Cs  Cs0  1  0.81425400  0.81240400  0.55518900  1
  Cs  Cs1  1  0.18574600  0.18759600  0.44481100  1
  Cs  Cs2  1  0.31425400  0.18759600  0.94481100  1
  Cs  Cs3  1  0.68574600  0.81240400  0.05518900  1
  Tm  Tm4  1  0.40097100  0.76161400  0.75773500  1
  Tm  Tm5  1  0.59902900  0.23838600  0.24226500  1
  Tm  Tm6  1  0.90097100  0.23838600  0.74226500  1
  Tm  Tm7  1  0.09902900  0.76161400  0.25773500  1
  P  P8  1  0.13169900  0.57025900  0.68875300  1
  P  P9  1  0.86830100  0.42974100  0.31124700  1
  P  P10  1  0.63169900  0.42974100  0.81124700  1
  P  P11  1  0.36830100  0.57025900  0.18875300  1
  P  P12  1  0.09760300  0.86587600  0.82727200  1
  P  P13  1  0.90239700  0.13412400  0.17272800  1
  P  P14  1  0.59760300  0.13412400  0.67272800  1
  P  P15  1  0.40239700  0.86587600  0.32727200  1
  O  O16  1  0.07213600  0.38945200  0.73253400  1
  O  O17  1  0.92786400  0.61054800  0.26746600  1
  O  O18  1  0.57213600  0.61054800  0.76746600  1
  O  O19  1  0.42786400  0.38945200  0.23253400  1
  O  O20  1  0.22756200  0.91155700  0.76258100  1
  O  O21  1  0.77243800  0.08844300  0.23741900  1
  O  O22  1  0.72756200  0.08844300  0.73741900  1
  O  O23  1  0.27243800  0.91155700  0.26258100  1
  O  O24  1  0.26705100  0.55877600  0.73553400  1
  O  O25  1  0.73294900  0.44122400  0.26446600  1
  O  O26  1  0.76705100  0.44122400  0.76446600  1
  O  O27  1  0.23294900  0.55877600  0.23553400  1
  O  O28  1  0.10722000  0.67104800  0.51878200  1
  O  O29  1  0.89278000  0.32895200  0.48121800  1
  O  O30  1  0.60722000  0.32895200  0.98121800  1
  O  O31  1  0.39278000  0.67104800  0.01878200  1
  O  O32  1  0.41061000  0.84634000  0.50257000  1
  O  O33  1  0.58939000  0.15366000  0.49743000  1
  O  O34  1  0.91061000  0.15366000  0.99743000  1
  O  O35  1  0.08939000  0.84634000  0.00257000  1
  O  O36  1  0.06147100  0.67657300  0.79981700  1
  O  O37  1  0.93852900  0.32342700  0.20018300  1
  O  O38  1  0.56147100  0.32342700  0.70018300  1
  O  O39  1  0.43852900  0.67657300  0.29981700  1
  O  O40  1  0.50362300  0.00392500  0.76701400  1
  O  O41  1  0.49637700  0.99607500  0.23298600  1
  O  O42  1  0.00362300  0.99607500  0.73298600  1
  O  O43  1  0.99637700  0.00392500  0.26701400  1
