# generated using pymatgen
data_CsCd4As3
_symmetry_space_group_name_H-M   'P 1'
_cell_length_a   4.59203900
_cell_length_b   4.59203900
_cell_length_c   11.04825300
_cell_angle_alpha   90.00000000
_cell_angle_beta   90.00000000
_cell_angle_gamma   90.00000000
_symmetry_Int_Tables_number   1
_chemical_formula_structural   CsCd4As3
_chemical_formula_sum   'Cs1 Cd4 As3'
_cell_volume   232.97254638
_cell_formula_units_Z   1
loop_
 _symmetry_equiv_pos_site_id
 _symmetry_equiv_pos_as_xyz
  1  'x, y, z'
loop_
 _atom_site_type_symbol
 _atom_site_label
 _atom_site_symmetry_multiplicity
 _atom_site_fract_x
 _atom_site_fract_y
 _atom_site_fract_z
 _atom_site_occupancy
  Cs  Cs0  1  0.00000000  0.00000000  0.50000000  1
  Cd  Cd1  1  0.50000000  0.00000000  0.83835800  1
  Cd  Cd2  1  0.00000000  0.50000000  0.83835800  1
  Cd  Cd3  1  0.50000000  0.00000000  0.16164200  1
  Cd  Cd4  1  0.00000000  0.50000000  0.16164200  1
  As  As5  1  0.50000000  0.50000000  0.70205200  1
  As  As6  1  0.50000000  0.50000000  0.29794800  1
  As  As7  1  0.00000000  0.00000000  0.00000000  1
