# generated using pymatgen
data_Sm6Fe13Sn
_symmetry_space_group_name_H-M   'P 1'
_cell_length_a   8.04545200
_cell_length_b   8.04545200
_cell_length_c   12.90115159
_cell_angle_alpha   108.16843185
_cell_angle_beta   108.16843185
_cell_angle_gamma   90.00000000
_symmetry_Int_Tables_number   1
_chemical_formula_structural   Sm6Fe13Sn
_chemical_formula_sum   'Sm12 Fe26 Sn2'
_cell_volume   749.50558909
_cell_formula_units_Z   2
loop_
 _symmetry_equiv_pos_site_id
 _symmetry_equiv_pos_as_xyz
  1  'x, y, z'
loop_
 _atom_site_type_symbol
 _atom_site_label
 _atom_site_symmetry_multiplicity
 _atom_site_fract_x
 _atom_site_fract_y
 _atom_site_fract_z
 _atom_site_occupancy
  Sm  Sm0  1  0.60525300  0.60525300  0.21050600  1
  Sm  Sm1  1  0.10525300  0.10525300  0.21050600  1
  Sm  Sm2  1  0.39474700  0.39474700  0.78949400  1
  Sm  Sm3  1  0.89474700  0.89474700  0.78949400  1
  Sm  Sm4  1  0.97764500  0.47764500  0.62901000  1
  Sm  Sm5  1  0.65136500  0.15136500  0.62901000  1
  Sm  Sm6  1  0.15136500  0.97764500  0.62901000  1
  Sm  Sm7  1  0.47764500  0.65136500  0.62901000  1
  Sm  Sm8  1  0.02235500  0.52235500  0.37099000  1
  Sm  Sm9  1  0.34863500  0.84863500  0.37099000  1
  Sm  Sm10  1  0.84863500  0.02235500  0.37099000  1
  Sm  Sm11  1  0.52235500  0.34863500  0.37099000  1
  Fe  Fe12  1  0.00000000  0.50000000  0.00000000  1
  Fe  Fe13  1  0.50000000  0.00000000  0.00000000  1
  Fe  Fe14  1  0.70939700  0.56580200  0.00000000  1
  Fe  Fe15  1  0.29060300  0.43419800  0.00000000  1
  Fe  Fe16  1  0.79060300  0.06580200  0.00000000  1
  Fe  Fe17  1  0.20939700  0.93419800  0.00000000  1
  Fe  Fe18  1  0.56580200  0.29060300  0.00000000  1
  Fe  Fe19  1  0.43419800  0.70939700  0.00000000  1
  Fe  Fe20  1  0.06580200  0.20939700  0.00000000  1
  Fe  Fe21  1  0.93419800  0.79060300  0.00000000  1
  Fe  Fe22  1  0.11942300  0.61942300  0.88069400  1
  Fe  Fe23  1  0.76127100  0.26127100  0.88069400  1
  Fe  Fe24  1  0.26127100  0.11942300  0.88069400  1
  Fe  Fe25  1  0.61942300  0.76127100  0.88069400  1
  Fe  Fe26  1  0.88057700  0.38057700  0.11930600  1
  Fe  Fe27  1  0.23872900  0.73872900  0.11930600  1
  Fe  Fe28  1  0.73872900  0.88057700  0.11930600  1
  Fe  Fe29  1  0.38057700  0.23872900  0.11930600  1
  Fe  Fe30  1  0.29157500  0.79157500  0.81036100  1
  Fe  Fe31  1  0.51878600  0.01878600  0.81036100  1
  Fe  Fe32  1  0.01878600  0.29157500  0.81036100  1
  Fe  Fe33  1  0.79157500  0.51878600  0.81036100  1
  Fe  Fe34  1  0.70842500  0.20842500  0.18963900  1
  Fe  Fe35  1  0.48121400  0.98121400  0.18963900  1
  Fe  Fe36  1  0.98121400  0.70842500  0.18963900  1
  Fe  Fe37  1  0.20842500  0.48121400  0.18963900  1
  Sn  Sn38  1  0.25000000  0.25000000  0.50000000  1
  Sn  Sn39  1  0.75000000  0.75000000  0.50000000  1
