# generated using pymatgen
data_K3Sc(PO4)2
_symmetry_space_group_name_H-M   'P 1'
_cell_length_a   9.54710298
_cell_length_b   9.54710298
_cell_length_c   7.75983700
_cell_angle_alpha   90.00000000
_cell_angle_beta   90.00000000
_cell_angle_gamma   120.00000681
_symmetry_Int_Tables_number   1
_chemical_formula_structural   K3Sc(PO4)2
_chemical_formula_sum   'K9 Sc3 P6 O24'
_cell_volume   612.52866163
_cell_formula_units_Z   3
loop_
 _symmetry_equiv_pos_site_id
 _symmetry_equiv_pos_as_xyz
  1  'x, y, z'
loop_
 _atom_site_type_symbol
 _atom_site_label
 _atom_site_symmetry_multiplicity
 _atom_site_fract_x
 _atom_site_fract_y
 _atom_site_fract_z
 _atom_site_occupancy
  K  K0  1  0.33392400  0.33350700  0.25102200  1
  K  K1  1  0.99958400  0.66607600  0.25102200  1
  K  K2  1  0.66649300  0.00041600  0.25102200  1
  K  K3  1  0.66607600  0.66649300  0.74897800  1
  K  K4  1  0.00041600  0.33392400  0.74897800  1
  K  K5  1  0.33350700  0.99958400  0.74897800  1
  K  K6  1  0.33333300  0.66666700  0.50240300  1
  K  K7  1  0.66666700  0.33333300  0.49759700  1
  K  K8  1  0.00000000  0.00000000  0.50000000  1
  Sc  Sc9  1  0.33333300  0.66666700  0.03076500  1
  Sc  Sc10  1  0.66666700  0.33333300  0.96923500  1
  Sc  Sc11  1  0.00000000  0.00000000  0.00000000  1
  P  P12  1  0.32768800  0.34045500  0.77707400  1
  P  P13  1  0.01276800  0.67231200  0.77707400  1
  P  P14  1  0.65954500  0.98723200  0.77707400  1
  P  P15  1  0.67231200  0.65954500  0.22292600  1
  P  P16  1  0.98723200  0.32768800  0.22292600  1
  P  P17  1  0.34045500  0.01276800  0.22292600  1
  O  O18  1  0.48742700  0.33459300  0.80087100  1
  O  O19  1  0.84716600  0.51257300  0.80087100  1
  O  O20  1  0.66540700  0.15283400  0.80087100  1
  O  O21  1  0.51257300  0.66540700  0.19912900  1
  O  O22  1  0.15283400  0.48742700  0.19912900  1
  O  O23  1  0.33459300  0.84716600  0.19912900  1
  O  O24  1  0.33727800  0.48214000  0.88834000  1
  O  O25  1  0.14486300  0.66272200  0.88834000  1
  O  O26  1  0.51786000  0.85513700  0.88834000  1
  O  O27  1  0.66272200  0.51786000  0.11166000  1
  O  O28  1  0.85513700  0.33727800  0.11166000  1
  O  O29  1  0.48214000  0.14486300  0.11166000  1
  O  O30  1  0.18252600  0.17649300  0.84112000  1
  O  O31  1  0.99396700  0.81747400  0.84112000  1
  O  O32  1  0.82350700  0.00603300  0.84112000  1
  O  O33  1  0.81747400  0.82350700  0.15888000  1
  O  O34  1  0.00603300  0.18252600  0.15888000  1
  O  O35  1  0.17649300  0.99396700  0.15888000  1
  O  O36  1  0.36740000  0.06659000  0.41129300  1
  O  O37  1  0.93341000  0.30081000  0.41129300  1
  O  O38  1  0.69919000  0.63260000  0.41129300  1
  O  O39  1  0.63260000  0.93341000  0.58870700  1
  O  O40  1  0.06659000  0.69919000  0.58870700  1
  O  O41  1  0.30081000  0.36740000  0.58870700  1
