# generated using pymatgen
data_Mg2TiB2Ir5
_symmetry_space_group_name_H-M   'P 1'
_cell_length_a   9.53688600
_cell_length_b   9.53688600
_cell_length_c   2.95724300
_cell_angle_alpha   90.00000000
_cell_angle_beta   90.00000000
_cell_angle_gamma   90.00000000
_symmetry_Int_Tables_number   1
_chemical_formula_structural   Mg2TiB2Ir5
_chemical_formula_sum   'Mg4 Ti2 B4 Ir10'
_cell_volume   268.96774075
_cell_formula_units_Z   2
loop_
 _symmetry_equiv_pos_site_id
 _symmetry_equiv_pos_as_xyz
  1  'x, y, z'
loop_
 _atom_site_type_symbol
 _atom_site_label
 _atom_site_symmetry_multiplicity
 _atom_site_fract_x
 _atom_site_fract_y
 _atom_site_fract_z
 _atom_site_occupancy
  Mg  Mg0  1  0.82377700  0.32377700  0.00000000  1
  Mg  Mg1  1  0.17622300  0.67622300  0.00000000  1
  Mg  Mg2  1  0.32377700  0.17622300  0.00000000  1
  Mg  Mg3  1  0.67622300  0.82377700  0.00000000  1
  Ti  Ti4  1  0.50000000  0.50000000  0.00000000  1
  Ti  Ti5  1  0.00000000  0.00000000  0.00000000  1
  B  B6  1  0.62375800  0.12375800  0.00000000  1
  B  B7  1  0.37624200  0.87624200  0.00000000  1
  B  B8  1  0.12375800  0.37624200  0.00000000  1
  B  B9  1  0.87624200  0.62375800  0.00000000  1
  Ir  Ir10  1  0.50000000  0.00000000  0.50000000  1
  Ir  Ir11  1  0.00000000  0.50000000  0.50000000  1
  Ir  Ir12  1  0.71566700  0.57199100  0.50000000  1
  Ir  Ir13  1  0.28433300  0.42800900  0.50000000  1
  Ir  Ir14  1  0.21566700  0.92800900  0.50000000  1
  Ir  Ir15  1  0.78433300  0.07199100  0.50000000  1
  Ir  Ir16  1  0.42800900  0.71566700  0.50000000  1
  Ir  Ir17  1  0.57199100  0.28433300  0.50000000  1
  Ir  Ir18  1  0.07199100  0.21566700  0.50000000  1
  Ir  Ir19  1  0.92800900  0.78433300  0.50000000  1
