# generated using pymatgen
data_ErCrO4
_symmetry_space_group_name_H-M   'P 1'
_cell_length_a   5.95011544
_cell_length_b   5.95011544
_cell_length_c   5.95011544
_cell_angle_alpha   106.04170911
_cell_angle_beta   106.04170911
_cell_angle_gamma   116.57224624
_symmetry_Int_Tables_number   1
_chemical_formula_structural   ErCrO4
_chemical_formula_sum   'Er2 Cr2 O8'
_cell_volume   160.27362777
_cell_formula_units_Z   2
loop_
 _symmetry_equiv_pos_site_id
 _symmetry_equiv_pos_as_xyz
  1  'x, y, z'
loop_
 _atom_site_type_symbol
 _atom_site_label
 _atom_site_symmetry_multiplicity
 _atom_site_fract_x
 _atom_site_fract_y
 _atom_site_fract_z
 _atom_site_occupancy
  Er  Er0  1  0.50000000  0.50000000  0.00000000  1
  Er  Er1  1  0.75000000  0.25000000  0.50000000  1
  Cr  Cr2  1  0.25000000  0.75000000  0.50000000  1
  Cr  Cr3  1  0.00000000  0.00000000  0.00000000  1
  O  O4  1  0.82385200  0.00891000  0.18505800  1
  O  O5  1  0.88879400  0.57385200  0.31494200  1
  O  O6  1  0.25891000  0.57385200  0.68505800  1
  O  O7  1  0.82385200  0.63879400  0.81494200  1
  O  O8  1  0.36120600  0.17614800  0.18505800  1
  O  O9  1  0.42614800  0.74109000  0.31494200  1
  O  O10  1  0.42614800  0.11120600  0.68505800  1
  O  O11  1  0.99109000  0.17614800  0.81494200  1
