# generated using pymatgen
data_HoTe3
_symmetry_space_group_name_H-M   'P 1'
_cell_length_a   13.21669938
_cell_length_b   13.21669938
_cell_length_c   4.34092500
_cell_angle_alpha   90.00000000
_cell_angle_beta   90.00000000
_cell_angle_gamma   161.09936886
_symmetry_Int_Tables_number   1
_chemical_formula_structural   HoTe3
_chemical_formula_sum   'Ho2 Te6'
_cell_volume   245.62726984
_cell_formula_units_Z   2
loop_
 _symmetry_equiv_pos_site_id
 _symmetry_equiv_pos_as_xyz
  1  'x, y, z'
loop_
 _atom_site_type_symbol
 _atom_site_label
 _atom_site_symmetry_multiplicity
 _atom_site_fract_x
 _atom_site_fract_y
 _atom_site_fract_z
 _atom_site_occupancy
  Ho  Ho0  1  0.17048500  0.82951500  0.75000000  1
  Ho  Ho1  1  0.82951500  0.17048500  0.25000000  1
  Te  Te2  1  0.92428000  0.07572000  0.75000000  1
  Te  Te3  1  0.07572000  0.92428000  0.25000000  1
  Te  Te4  1  0.57574100  0.42425900  0.75000000  1
  Te  Te5  1  0.42425900  0.57574100  0.25000000  1
  Te  Te6  1  0.29325700  0.70674300  0.75000000  1
  Te  Te7  1  0.70674300  0.29325700  0.25000000  1
