# generated using pymatgen
data_Sr4Mn2CuO9
_symmetry_space_group_name_H-M   'P 1'
_cell_length_a   7.94384800
_cell_length_b   9.70568949
_cell_length_c   9.70883511
_cell_angle_alpha   119.58511009
_cell_angle_beta   89.98148139
_cell_angle_gamma   90.17542330
_symmetry_Int_Tables_number   1
_chemical_formula_structural   Sr4Mn2CuO9
_chemical_formula_sum   'Sr12 Mn6 Cu3 O27'
_cell_volume   650.95827571
_cell_formula_units_Z   3
loop_
 _symmetry_equiv_pos_site_id
 _symmetry_equiv_pos_as_xyz
  1  'x, y, z'
loop_
 _atom_site_type_symbol
 _atom_site_label
 _atom_site_symmetry_multiplicity
 _atom_site_fract_x
 _atom_site_fract_y
 _atom_site_fract_z
 _atom_site_occupancy
  Sr  Sr0  1  0.49960100  0.64061000  0.63950400  1
  Sr  Sr1  1  0.50363800  0.34498400  0.99315400  1
  Sr  Sr2  1  0.49569200  0.99405900  0.35964000  1
  Sr  Sr3  1  0.24190400  0.65769800  0.96866600  1
  Sr  Sr4  1  0.25076900  0.01600200  0.68412600  1
  Sr  Sr5  1  0.25053100  0.30500100  0.33079800  1
  Sr  Sr6  1  0.75077200  0.33421900  0.30354600  1
  Sr  Sr7  1  0.75378500  0.67558300  0.01409600  1
  Sr  Sr8  1  0.75392700  0.97260800  0.66648700  1
  Sr  Sr9  1  0.99976000  0.67199600  0.67292400  1
  Sr  Sr10  1  0.99814800  0.32016100  0.99362800  1
  Sr  Sr11  1  0.00353400  0.99266200  0.32649200  1
  Mn  Mn12  1  0.16397700  0.00521200  0.00184900  1
  Mn  Mn13  1  0.83613100  0.00307000  0.00103000  1
  Mn  Mn14  1  0.07411400  0.33616100  0.66655400  1
  Mn  Mn15  1  0.92553800  0.67103600  0.34032200  1
  Mn  Mn16  1  0.40759000  0.33806200  0.66850100  1
  Mn  Mn17  1  0.59334400  0.67009800  0.33845600  1
  Cu  Cu18  1  0.74151500  0.27167100  0.60654400  1
  Cu  Cu19  1  0.25787800  0.60681900  0.27200200  1
  Cu  Cu20  1  0.49964700  0.93665800  0.99975400  1
  O  O21  1  0.99905500  0.14832000  0.15770700  1
  O  O22  1  0.99854500  0.84859500  0.00366700  1
  O  O23  1  0.00221100  0.99451100  0.84736900  1
  O  O24  1  0.27592100  0.17936500  0.00851300  1
  O  O25  1  0.30869800  0.99392900  0.15449600  1
  O  O26  1  0.30847400  0.84801500  0.84162900  1
  O  O27  1  0.69311100  0.83874400  0.84615800  1
  O  O28  1  0.72590000  0.16947700  0.99117700  1
  O  O29  1  0.68735200  0.00453000  0.15810800  1
  O  O30  1  0.24215100  0.16707500  0.51356800  1
  O  O31  1  0.24213500  0.47708100  0.64130500  1
  O  O32  1  0.24249600  0.33987000  0.82027800  1
  O  O33  1  0.75795300  0.82596900  0.34200200  1
  O  O34  1  0.75853500  0.64503500  0.47957900  1
  O  O35  1  0.75617800  0.51996600  0.17203600  1
  O  O36  1  0.06730100  0.50699200  0.32487600  1
  O  O37  1  0.07015900  0.68236100  0.19138300  1
  O  O38  1  0.03633800  0.83039300  0.51271800  1
  O  O39  1  0.96578700  0.50937800  0.82616100  1
  O  O40  1  0.93087300  0.18747600  0.67753000  1
  O  O41  1  0.93139800  0.32088700  0.50317900  1
  O  O42  1  0.45124700  0.50058000  0.31963800  1
  O  O43  1  0.44681300  0.68325400  0.18931300  1
  O  O44  1  0.47887700  0.82985100  0.51590800  1
  O  O45  1  0.52100300  0.51442300  0.82874900  1
  O  O46  1  0.55043200  0.18735900  0.68217200  1
  O  O47  1  0.54926100  0.31919700  0.49970800  1
