# generated using pymatgen
data_TbGaNi4
_symmetry_space_group_name_H-M   'P 1'
_cell_length_a   4.02309400
_cell_length_b   8.58912933
_cell_length_c   8.58912933
_cell_angle_alpha   119.99999482
_cell_angle_beta   90.00000000
_cell_angle_gamma   90.00000000
_symmetry_Int_Tables_number   1
_chemical_formula_structural   TbGaNi4
_chemical_formula_sum   'Tb3 Ga3 Ni12'
_cell_volume   257.03313804
_cell_formula_units_Z   3
loop_
 _symmetry_equiv_pos_site_id
 _symmetry_equiv_pos_as_xyz
  1  'x, y, z'
loop_
 _atom_site_type_symbol
 _atom_site_label
 _atom_site_symmetry_multiplicity
 _atom_site_fract_x
 _atom_site_fract_y
 _atom_site_fract_z
 _atom_site_occupancy
  Tb  Tb0  1  0.00000000  0.00000000  0.00000000  1
  Tb  Tb1  1  0.50000000  0.66666700  0.33333300  1
  Tb  Tb2  1  0.50000000  0.33333300  0.66666700  1
  Ga  Ga3  1  0.00000000  0.50000000  0.50000000  1
  Ga  Ga4  1  0.00000000  0.00000000  0.50000000  1
  Ga  Ga5  1  0.00000000  0.50000000  0.00000000  1
  Ni  Ni6  1  0.00000000  0.81984700  0.18015300  1
  Ni  Ni7  1  0.00000000  0.18015300  0.81984700  1
  Ni  Ni8  1  0.00000000  0.36030700  0.18015300  1
  Ni  Ni9  1  0.00000000  0.63969300  0.81984700  1
  Ni  Ni10  1  0.00000000  0.81984700  0.63969300  1
  Ni  Ni11  1  0.00000000  0.18015300  0.36030700  1
  Ni  Ni12  1  0.50000000  0.69392400  0.69392400  1
  Ni  Ni13  1  0.50000000  0.30607600  0.30607600  1
  Ni  Ni14  1  0.50000000  0.00000000  0.30607600  1
  Ni  Ni15  1  0.50000000  0.00000000  0.69392400  1
  Ni  Ni16  1  0.50000000  0.30607600  0.00000000  1
  Ni  Ni17  1  0.50000000  0.69392400  0.00000000  1
