# generated using pymatgen
data_PrSi2Ag
_symmetry_space_group_name_H-M   'P 1'
_cell_length_a   9.07992910
_cell_length_b   9.07992910
_cell_length_c   4.24979100
_cell_angle_alpha   90.00000000
_cell_angle_beta   90.00000000
_cell_angle_gamma   152.67747278
_symmetry_Int_Tables_number   1
_chemical_formula_structural   PrSi2Ag
_chemical_formula_sum   'Pr2 Si4 Ag2'
_cell_volume   160.82150887
_cell_formula_units_Z   2
loop_
 _symmetry_equiv_pos_site_id
 _symmetry_equiv_pos_as_xyz
  1  'x, y, z'
loop_
 _atom_site_type_symbol
 _atom_site_label
 _atom_site_symmetry_multiplicity
 _atom_site_fract_x
 _atom_site_fract_y
 _atom_site_fract_z
 _atom_site_occupancy
  Pr  Pr0  1  0.59701200  0.40298800  0.25000000  1
  Pr  Pr1  1  0.40298800  0.59701200  0.75000000  1
  Si  Si2  1  0.96746700  0.03253300  0.25000000  1
  Si  Si3  1  0.03253300  0.96746700  0.75000000  1
  Si  Si4  1  0.83531600  0.16468400  0.25000000  1
  Si  Si5  1  0.16468400  0.83531600  0.75000000  1
  Ag  Ag6  1  0.25164600  0.74835400  0.25000000  1
  Ag  Ag7  1  0.74835400  0.25164600  0.75000000  1
