# generated using pymatgen
data_Cs2Cu3SnF12
_symmetry_space_group_name_H-M   'P 1'
_cell_length_a   7.12403900
_cell_length_b   8.28575905
_cell_length_c   10.95025292
_cell_angle_alpha   100.67175544
_cell_angle_beta   90.00000000
_cell_angle_gamma   90.00000000
_symmetry_Int_Tables_number   1
_chemical_formula_structural   Cs2Cu3SnF12
_chemical_formula_sum   'Cs4 Cu6 Sn2 F24'
_cell_volume   635.19277867
_cell_formula_units_Z   2
loop_
 _symmetry_equiv_pos_site_id
 _symmetry_equiv_pos_as_xyz
  1  'x, y, z'
loop_
 _atom_site_type_symbol
 _atom_site_label
 _atom_site_symmetry_multiplicity
 _atom_site_fract_x
 _atom_site_fract_y
 _atom_site_fract_z
 _atom_site_occupancy
  Cs  Cs0  1  0.50469300  0.71337400  0.39242900  1
  Cs  Cs1  1  0.99530700  0.21337400  0.89242900  1
  Cs  Cs2  1  0.49530700  0.28662600  0.60757100  1
  Cs  Cs3  1  0.00469300  0.78662600  0.10757100  1
  Cu  Cu4  1  0.50000000  0.00000000  0.00000000  1
  Cu  Cu5  1  0.00000000  0.50000000  0.50000000  1
  Cu  Cu6  1  0.23665200  0.74740800  0.75605400  1
  Cu  Cu7  1  0.26334800  0.24740800  0.25605400  1
  Cu  Cu8  1  0.76334800  0.25259200  0.24394600  1
  Cu  Cu9  1  0.73665200  0.75259200  0.74394600  1
  Sn  Sn10  1  0.50000000  0.50000000  0.00000000  1
  Sn  Sn11  1  0.00000000  0.00000000  0.50000000  1
  F  F12  1  0.29483000  0.91799600  0.89347800  1
  F  F13  1  0.20517000  0.41799600  0.39347800  1
  F  F14  1  0.70517000  0.08200400  0.10652200  1
  F  F15  1  0.79483000  0.58200400  0.60652200  1
  F  F16  1  0.81934900  0.43544700  0.37221000  1
  F  F17  1  0.68065100  0.93544700  0.87221000  1
  F  F18  1  0.18065100  0.56455300  0.62779000  1
  F  F19  1  0.31934900  0.06455300  0.12779000  1
  F  F20  1  0.48330300  0.73547600  0.68511500  1
  F  F21  1  0.01669700  0.23547600  0.18511500  1
  F  F22  1  0.51669700  0.26452400  0.31488500  1
  F  F23  1  0.98330300  0.76452400  0.81488500  1
  F  F24  1  0.77495300  0.94696000  0.59636300  1
  F  F25  1  0.72504700  0.44696000  0.09636300  1
  F  F26  1  0.22504800  0.05304000  0.40363700  1
  F  F27  1  0.27495200  0.55304000  0.90363700  1
  F  F28  1  0.32794500  0.48458900  0.14278200  1
  F  F29  1  0.17205500  0.98458900  0.64278200  1
  F  F30  1  0.67205500  0.51541100  0.85721800  1
  F  F31  1  0.82794500  0.01541100  0.35721800  1
  F  F32  1  0.45905400  0.26253400  0.92461200  1
  F  F33  1  0.04094600  0.76253400  0.42461200  1
  F  F34  1  0.54094600  0.73746600  0.07538800  1
  F  F35  1  0.95905400  0.23746600  0.57538800  1
