# generated using pymatgen
data_NpF6
_symmetry_space_group_name_H-M   'P 1'
_cell_length_a   5.41226100
_cell_length_b   9.32880400
_cell_length_c   10.29463900
_cell_angle_alpha   90.00000000
_cell_angle_beta   90.00000000
_cell_angle_gamma   90.00000000
_symmetry_Int_Tables_number   1
_chemical_formula_structural   NpF6
_chemical_formula_sum   'Np4 F24'
_cell_volume   519.77552081
_cell_formula_units_Z   4
loop_
 _symmetry_equiv_pos_site_id
 _symmetry_equiv_pos_as_xyz
  1  'x, y, z'
loop_
 _atom_site_type_symbol
 _atom_site_label
 _atom_site_symmetry_multiplicity
 _atom_site_fract_x
 _atom_site_fract_y
 _atom_site_fract_z
 _atom_site_occupancy
  Np  Np0  1  0.91982900  0.75000000  0.62955800  1
  Np  Np1  1  0.08017100  0.25000000  0.37044200  1
  Np  Np2  1  0.41982900  0.25000000  0.87044200  1
  Np  Np3  1  0.58017100  0.75000000  0.12955800  1
  F  F4  1  0.22112000  0.75000000  0.51561900  1
  F  F5  1  0.77888000  0.25000000  0.48438100  1
  F  F6  1  0.72112000  0.25000000  0.98438100  1
  F  F7  1  0.27888000  0.75000000  0.01561900  1
  F  F8  1  0.61840200  0.75000000  0.74404400  1
  F  F9  1  0.38159800  0.25000000  0.25595600  1
  F  F10  1  0.11840200  0.25000000  0.75595600  1
  F  F11  1  0.88159800  0.75000000  0.24404400  1
  F  F12  1  0.76602500  0.59828200  0.51705700  1
  F  F13  1  0.23397500  0.40171800  0.48294300  1
  F  F14  1  0.26602500  0.40171800  0.98294300  1
  F  F15  1  0.23397500  0.09828200  0.48294300  1
  F  F16  1  0.73397500  0.59828200  0.01705700  1
  F  F17  1  0.76602500  0.90171800  0.51705700  1
  F  F18  1  0.73397500  0.90171800  0.01705700  1
  F  F19  1  0.26602500  0.09828200  0.98294300  1
  F  F20  1  0.07236700  0.59751100  0.74152200  1
  F  F21  1  0.92763300  0.40248900  0.25847800  1
  F  F22  1  0.57236700  0.40248900  0.75847800  1
  F  F23  1  0.92763300  0.09751100  0.25847800  1
  F  F24  1  0.42763300  0.59751100  0.24152200  1
  F  F25  1  0.07236700  0.90248900  0.74152200  1
  F  F26  1  0.42763300  0.90248900  0.24152200  1
  F  F27  1  0.57236700  0.09751100  0.75847800  1
