# generated using pymatgen
data_Nb6V3Ni3C2
_symmetry_space_group_name_H-M   'P 1'
_cell_length_a   8.19387796
_cell_length_b   8.19387796
_cell_length_c   8.19387796
_cell_angle_alpha   120.18631461
_cell_angle_beta   119.99486441
_cell_angle_gamma   89.84324603
_symmetry_Int_Tables_number   1
_chemical_formula_structural   Nb6V3Ni3C2
_chemical_formula_sum   'Nb12 V6 Ni6 C4'
_cell_volume   388.46788896
_cell_formula_units_Z   2
loop_
 _symmetry_equiv_pos_site_id
 _symmetry_equiv_pos_as_xyz
  1  'x, y, z'
loop_
 _atom_site_type_symbol
 _atom_site_label
 _atom_site_symmetry_multiplicity
 _atom_site_fract_x
 _atom_site_fract_y
 _atom_site_fract_z
 _atom_site_occupancy
  Nb  Nb0  1  0.06863300  0.06863300  0.00000000  1
  Nb  Nb1  1  0.68889500  0.68889500  0.00000000  1
  Nb  Nb2  1  0.68437800  0.06442100  0.00147400  1
  Nb  Nb3  1  0.06294700  0.68290400  0.99852600  1
  Nb  Nb4  1  0.06294700  0.06442100  0.38004300  1
  Nb  Nb5  1  0.68437800  0.68290400  0.61995700  1
  Nb  Nb6  1  0.43905900  0.93905900  0.50000000  1
  Nb  Nb7  1  0.81688200  0.31688200  0.50000000  1
  Nb  Nb8  1  0.81301700  0.93250100  0.49861400  1
  Nb  Nb9  1  0.43388700  0.31440300  0.50138600  1
  Nb  Nb10  1  0.43388700  0.93250100  0.11948400  1
  Nb  Nb11  1  0.81301700  0.31440300  0.88051600  1
  V  V12  1  0.25753900  0.50532200  0.75221700  1
  V  V13  1  0.75310600  0.50532200  0.24778300  1
  V  V14  1  0.25139000  0.50915600  0.25776600  1
  V  V15  1  0.25139000  0.99362300  0.74223400  1
  V  V16  1  0.45631000  0.29420600  0.16210400  1
  V  V17  1  0.13210200  0.29420600  0.83789600  1
  Ni  Ni18  1  0.45320500  0.29944400  0.84623800  1
  Ni  Ni19  1  0.45320500  0.60696700  0.15376200  1
  Ni  Ni20  1  0.04604500  0.70080700  0.34523900  1
  Ni  Ni21  1  0.35556800  0.70080700  0.65476100  1
  Ni  Ni22  1  0.04606100  0.70363800  0.65757700  1
  Ni  Ni23  1  0.04606100  0.38848400  0.34242300  1
  C  C24  1  0.74909800  0.99970100  0.74939600  1
  C  C25  1  0.25030500  0.99970100  0.25060400  1
  C  C26  1  0.74834400  0.99976400  0.25142000  1
  C  C27  1  0.74834400  0.49692500  0.74858000  1
