# generated using pymatgen
data_CaGe2
_symmetry_space_group_name_H-M   'P 1'
_cell_length_a   4.04958793
_cell_length_b   4.04958793
_cell_length_c   10.18818100
_cell_angle_alpha   90.00000000
_cell_angle_beta   90.00000000
_cell_angle_gamma   119.99999883
_symmetry_Int_Tables_number   1
_chemical_formula_structural   CaGe2
_chemical_formula_sum   'Ca2 Ge4'
_cell_volume   144.69347773
_cell_formula_units_Z   2
loop_
 _symmetry_equiv_pos_site_id
 _symmetry_equiv_pos_as_xyz
  1  'x, y, z'
loop_
 _atom_site_type_symbol
 _atom_site_label
 _atom_site_symmetry_multiplicity
 _atom_site_fract_x
 _atom_site_fract_y
 _atom_site_fract_z
 _atom_site_occupancy
  Ca  Ca0  1  0.33333300  0.66666700  0.29212800  1
  Ca  Ca1  1  0.66666700  0.33333300  0.79212800  1
  Ge  Ge2  1  0.33333300  0.66666700  0.60580300  1
  Ge  Ge3  1  0.66666700  0.33333300  0.10580300  1
  Ge  Ge4  1  0.00000000  0.00000000  0.99907900  1
  Ge  Ge5  1  0.00000000  0.00000000  0.49907900  1
