# generated using pymatgen
data_Ba10IBr4N5
_symmetry_space_group_name_H-M   'P 1'
_cell_length_a   4.20880384
_cell_length_b   4.20880384
_cell_length_c   40.31737107
_cell_angle_alpha   92.99196495
_cell_angle_beta   92.99196495
_cell_angle_gamma   60.00000250
_symmetry_Int_Tables_number   1
_chemical_formula_structural   Ba10IBr4N5
_chemical_formula_sum   'Ba10 I1 Br4 N5'
_cell_volume   617.37634338
_cell_formula_units_Z   1
loop_
 _symmetry_equiv_pos_site_id
 _symmetry_equiv_pos_as_xyz
  1  'x, y, z'
loop_
 _atom_site_type_symbol
 _atom_site_label
 _atom_site_symmetry_multiplicity
 _atom_site_fract_x
 _atom_site_fract_y
 _atom_site_fract_z
 _atom_site_occupancy
  Ba  Ba0  1  0.24479000  0.24479000  0.73437000  1
  Ba  Ba1  1  0.64397500  0.64397500  0.93192500  1
  Ba  Ba2  1  0.04719500  0.04719500  0.14158400  1
  Ba  Ba3  1  0.44638000  0.44638000  0.33914100  1
  Ba  Ba4  1  0.84558600  0.84558600  0.53676000  1
  Ba  Ba5  1  0.55362000  0.55362000  0.66085900  1
  Ba  Ba6  1  0.95280500  0.95280500  0.85841600  1
  Ba  Ba7  1  0.35602500  0.35602500  0.06807500  1
  Ba  Ba8  1  0.75521000  0.75521000  0.26563000  1
  Ba  Ba9  1  0.15441400  0.15441400  0.46324000  1
  I  I10  1  0.00000000  0.00000000  0.00000000  1
  Br  Br11  1  0.40120100  0.40120100  0.20360100  1
  Br  Br12  1  0.80039500  0.80039500  0.40118700  1
  Br  Br13  1  0.19960500  0.19960500  0.59881300  1
  Br  Br14  1  0.59879900  0.59879900  0.79639900  1
  N  N15  1  0.89920600  0.89920600  0.69761600  1
  N  N16  1  0.29836900  0.29836900  0.89510700  1
  N  N17  1  0.70163100  0.70163100  0.10489300  1
  N  N18  1  0.10079400  0.10079400  0.30238400  1
  N  N19  1  0.50000000  0.50000000  0.50000000  1
