# generated using pymatgen
data_DyFe3
_symmetry_space_group_name_H-M   'P 1'
_cell_length_a   5.11554841
_cell_length_b   5.11554841
_cell_length_c   8.62439983
_cell_angle_alpha   72.74804562
_cell_angle_beta   72.74804562
_cell_angle_gamma   59.99999465
_symmetry_Int_Tables_number   1
_chemical_formula_structural   DyFe3
_chemical_formula_sum   'Dy3 Fe9'
_cell_volume   183.63548715
_cell_formula_units_Z   3
loop_
 _symmetry_equiv_pos_site_id
 _symmetry_equiv_pos_as_xyz
  1  'x, y, z'
loop_
 _atom_site_type_symbol
 _atom_site_label
 _atom_site_symmetry_multiplicity
 _atom_site_fract_x
 _atom_site_fract_y
 _atom_site_fract_z
 _atom_site_occupancy
  Dy  Dy0  1  0.14168900  0.14168900  0.57493300  1
  Dy  Dy1  1  0.85831100  0.85831100  0.42506700  1
  Dy  Dy2  1  0.00000000  0.00000000  0.00000000  1
  Fe  Fe3  1  0.08273700  0.58056900  0.75612500  1
  Fe  Fe4  1  0.58056900  0.58056900  0.75612500  1
  Fe  Fe5  1  0.58056900  0.08273700  0.75612500  1
  Fe  Fe6  1  0.91726300  0.41943100  0.24387500  1
  Fe  Fe7  1  0.41943100  0.41943100  0.24387500  1
  Fe  Fe8  1  0.41943100  0.91726300  0.24387500  1
  Fe  Fe9  1  0.33286100  0.33286100  0.00141600  1
  Fe  Fe10  1  0.66713800  0.66713800  0.99858400  1
  Fe  Fe11  1  0.50000000  0.50000000  0.50000000  1
