# generated using pymatgen
data_Na3Y(SiO3)3
_symmetry_space_group_name_H-M   'P 1'
_cell_length_a   15.40760548
_cell_length_b   15.31161611
_cell_length_c   15.22162872
_cell_angle_alpha   90.00000000
_cell_angle_beta   90.00000000
_cell_angle_gamma   90.00000000
_symmetry_Int_Tables_number   1
_chemical_formula_structural   Na3Y(SiO3)3
_chemical_formula_sum   'Na48 Y16 Si48 O144'
_cell_volume   3591.01571916
_cell_formula_units_Z   16
loop_
 _symmetry_equiv_pos_site_id
 _symmetry_equiv_pos_as_xyz
  1  'x, y, z'
loop_
 _atom_site_type_symbol
 _atom_site_label
 _atom_site_symmetry_multiplicity
 _atom_site_fract_x
 _atom_site_fract_y
 _atom_site_fract_z
 _atom_site_occupancy
  Na  Na0  1  0.84769318  0.87012276  0.11074704  1
  Na  Na1  1  0.65230682  0.12987724  0.61074704  1
  Na  Na2  1  0.34769318  0.62987724  0.88925296  1
  Na  Na3  1  0.15230682  0.37012276  0.38925296  1
  Na  Na4  1  0.88106668  0.66826235  0.87108884  1
  Na  Na5  1  0.61893332  0.33173765  0.37108884  1
  Na  Na6  1  0.38106668  0.83173765  0.12891116  1
  Na  Na7  1  0.11893332  0.16826235  0.62891116  1
  Na  Na8  1  0.60649520  0.59290799  0.86292150  1
  Na  Na9  1  0.89350480  0.40709201  0.36292150  1
  Na  Na10  1  0.10649520  0.90709201  0.13707850  1
  Na  Na11  1  0.39350480  0.09290799  0.63707850  1
  Na  Na12  1  0.55460519  0.94559001  0.50285281  1
  Na  Na13  1  0.94539481  0.05440999  0.00285281  1
  Na  Na14  1  0.05460519  0.55440999  0.49714719  1
  Na  Na15  1  0.44539481  0.44559001  0.99714719  1
  Na  Na16  1  0.83898835  0.62295311  0.60208501  1
  Na  Na17  1  0.66101165  0.37704689  0.10208501  1
  Na  Na18  1  0.33898835  0.87704689  0.39791499  1
  Na  Na19  1  0.16101165  0.12295311  0.89791499  1
  Na  Na20  1  0.88005964  0.90141661  0.65168648  1
  Na  Na21  1  0.61994036  0.09858339  0.15168648  1
  Na  Na22  1  0.38005964  0.59858339  0.34831352  1
  Na  Na23  1  0.11994036  0.40141661  0.84831352  1
  Na  Na24  1  0.84845471  0.62154482  0.14641352  1
  Na  Na25  1  0.65154529  0.37845518  0.64641352  1
  Na  Na26  1  0.34845471  0.87845518  0.85358648  1
  Na  Na27  1  0.15154529  0.12154482  0.35358648  1
  Na  Na28  1  0.99586293  0.50896965  0.00513534  1
  Na  Na29  1  0.50413707  0.49103035  0.50513534  1
  Na  Na30  1  0.49586293  0.99103035  0.99486466  1
  Na  Na31  1  0.00413707  0.00896965  0.49486466  1
  Na  Na32  1  0.90120998  0.84265966  0.37178003  1
  Na  Na33  1  0.59879002  0.15734034  0.87178003  1
  Na  Na34  1  0.40120998  0.65734034  0.62821997  1
  Na  Na35  1  0.09879002  0.34265966  0.12821997  1
  Na  Na36  1  0.70507937  0.74690850  0.29844733  1
  Na  Na37  1  0.79492063  0.25309150  0.79844733  1
  Na  Na38  1  0.20507937  0.75309150  0.70155267  1
  Na  Na39  1  0.29492063  0.24690850  0.20155267  1
  Na  Na40  1  0.58738535  0.62690866  0.11861603  1
  Na  Na41  1  0.91261465  0.37309134  0.61861603  1
  Na  Na42  1  0.08738535  0.87309134  0.88138397  1
  Na  Na43  1  0.41261465  0.12690866  0.38138397  1
  Na  Na44  1  0.71014074  0.79232598  0.75106573  1
  Na  Na45  1  0.78985926  0.20767402  0.25106573  1
  Na  Na46  1  0.21014074  0.70767402  0.24893427  1
  Na  Na47  1  0.28985926  0.29232598  0.74893427  1
  Y  Y48  1  0.62195053  0.87484800  0.13365455  1
  Y  Y49  1  0.87804947  0.12515200  0.63365455  1
  Y  Y50  1  0.12195053  0.62515200  0.86634545  1
  Y  Y51  1  0.37804947  0.37484800  0.36634545  1
  Y  Y52  1  0.87154326  0.62910052  0.38556703  1
  Y  Y53  1  0.62845674  0.37089948  0.88556703  1
  Y  Y54  1  0.37154326  0.87089948  0.61443297  1
  Y  Y55  1  0.12845674  0.12910052  0.11443297  1
  Y  Y56  1  0.62102289  0.61275304  0.64074859  1
  Y  Y57  1  0.87897711  0.38724696  0.14074859  1
  Y  Y58  1  0.12102289  0.88724696  0.35925141  1
  Y  Y59  1  0.37897711  0.11275304  0.85925141  1
  Y  Y60  1  0.86620479  0.88488379  0.87949370  1
  Y  Y61  1  0.63379521  0.11511621  0.37949370  1
  Y  Y62  1  0.36620479  0.61511621  0.12050630  1
  Y  Y63  1  0.13379521  0.38488379  0.62050630  1
  Si  Si64  1  0.53276594  0.96709887  0.74478360  1
  Si  Si65  1  0.96723406  0.03290113  0.24478360  1
  Si  Si66  1  0.03276594  0.53290113  0.25521640  1
  Si  Si67  1  0.46723406  0.46709887  0.75521640  1
  Si  Si68  1  0.52267942  0.74715126  0.47672161  1
  Si  Si69  1  0.97732058  0.25284874  0.97672161  1
  Si  Si70  1  0.02267942  0.75284874  0.52327839  1
  Si  Si71  1  0.47732058  0.24715126  0.02327839  1
  Si  Si72  1  0.77178246  0.97166776  0.48814189  1
  Si  Si73  1  0.72821754  0.02833224  0.98814189  1
  Si  Si74  1  0.27178246  0.52833224  0.51185811  1
  Si  Si75  1  0.22821754  0.47166776  0.01185811  1
  Si  Si76  1  0.97684288  0.53154733  0.72236523  1
  Si  Si77  1  0.52315712  0.46845267  0.22236523  1
  Si  Si78  1  0.47684288  0.96845267  0.27763477  1
  Si  Si79  1  0.02315712  0.03154733  0.77763477  1
  Si  Si80  1  0.50668394  0.77387836  0.77560588  1
  Si  Si81  1  0.99331606  0.22612164  0.27560588  1
  Si  Si82  1  0.00668394  0.72612164  0.22439412  1
  Si  Si83  1  0.49331606  0.27387836  0.72439412  1
  Si  Si84  1  0.77659058  0.97437604  0.27918057  1
  Si  Si85  1  0.72340942  0.02562396  0.77918057  1
  Si  Si86  1  0.27659058  0.52562396  0.72081943  1
  Si  Si87  1  0.22340942  0.47437604  0.22081943  1
  Si  Si88  1  0.71593333  0.50320690  0.27747593  1
  Si  Si89  1  0.78406667  0.49679310  0.77747593  1
  Si  Si90  1  0.21593333  0.99679310  0.72252407  1
  Si  Si91  1  0.28406667  0.00320690  0.22252407  1
  Si  Si92  1  0.72124969  0.77576885  0.50837195  1
  Si  Si93  1  0.77875031  0.22423115  0.00837195  1
  Si  Si94  1  0.22124969  0.72423115  0.49162805  1
  Si  Si95  1  0.27875031  0.27576885  0.99162805  1
  Si  Si96  1  0.51115427  0.75077492  0.97790504  1
  Si  Si97  1  0.98884573  0.24922508  0.47790504  1
  Si  Si98  1  0.01115427  0.74922508  0.02209496  1
  Si  Si99  1  0.48884573  0.25077492  0.52209496  1
  Si  Si100  1  0.77034189  0.52844904  0.97717401  1
  Si  Si101  1  0.72965811  0.47155096  0.47717401  1
  Si  Si102  1  0.27034189  0.97155096  0.02282599  1
  Si  Si103  1  0.22965811  0.02844904  0.52282599  1
  Si  Si104  1  0.98739014  0.74067699  0.72228734  1
  Si  Si105  1  0.51260986  0.25932301  0.22228734  1
  Si  Si106  1  0.48739014  0.75932301  0.27771266  1
  Si  Si107  1  0.01260986  0.24067699  0.77771266  1
  Si  Si108  1  0.71742568  0.73306705  0.98418014  1
  Si  Si109  1  0.78257432  0.26693295  0.48418014  1
  Si  Si110  1  0.21742568  0.76693295  0.01581986  1
  Si  Si111  1  0.28257432  0.23306705  0.51581986  1
  O  O112  1  0.64664127  0.98656595  0.04022842  1
  O  O113  1  0.85335873  0.01343405  0.54022842  1
  O  O114  1  0.14664127  0.51343405  0.95977158  1
  O  O115  1  0.35335873  0.48656595  0.45977158  1
  O  O116  1  0.90902743  0.79156499  0.77131981  1
  O  O117  1  0.59097257  0.20843501  0.27131981  1
  O  O118  1  0.40902743  0.70843501  0.22868019  1
  O  O119  1  0.09097257  0.29156499  0.72868019  1
  O  O120  1  0.57662673  0.75981164  0.22108772  1
  O  O121  1  0.92337327  0.24018836  0.72108772  1
  O  O122  1  0.07662673  0.74018836  0.77891228  1
  O  O123  1  0.42337327  0.25981164  0.27891228  1
  O  O124  1  0.52217377  0.66237764  0.54063661  1
  O  O125  1  0.97782623  0.33762236  0.04063661  1
  O  O126  1  0.02217377  0.83762236  0.45936339  1
  O  O127  1  0.47782623  0.16237764  0.95936339  1
  O  O128  1  0.61238367  0.71249183  0.96169414  1
  O  O129  1  0.88761633  0.28750817  0.46169414  1
  O  O130  1  0.11238367  0.78750817  0.03830586  1
  O  O131  1  0.38761633  0.21249183  0.53830586  1
  O  O132  1  0.72697852  0.57516019  0.73575612  1
  O  O133  1  0.77302148  0.42483981  0.23575612  1
  O  O134  1  0.22697852  0.92483981  0.26424388  1
  O  O135  1  0.27302148  0.07516019  0.76424388  1
  O  O136  1  0.75757325  0.87446481  0.53578588  1
  O  O137  1  0.74242675  0.12553519  0.03578588  1
  O  O138  1  0.25757325  0.62553519  0.46421412  1
  O  O139  1  0.24242675  0.37446481  0.96421412  1
  O  O140  1  0.71839796  0.71737047  0.59757171  1
  O  O141  1  0.78160204  0.28262953  0.09757171  1
  O  O142  1  0.21839796  0.78262953  0.40242829  1
  O  O143  1  0.28160204  0.21737047  0.90242829  1
  O  O144  1  0.95731654  0.82956927  0.98019634  1
  O  O145  1  0.54268346  0.17043073  0.48019634  1
  O  O146  1  0.45731654  0.67043073  0.01980366  1
  O  O147  1  0.04268346  0.32956927  0.51980366  1
  O  O148  1  0.62303684  0.51398143  0.22151059  1
  O  O149  1  0.87696316  0.48601857  0.72151059  1
  O  O150  1  0.12303684  0.98601857  0.77848941  1
  O  O151  1  0.37696316  0.01398143  0.27848941  1
  O  O152  1  0.91838979  0.72115131  0.28175011  1
  O  O153  1  0.58161021  0.27884869  0.78175011  1
  O  O154  1  0.41838979  0.77884869  0.71824989  1
  O  O155  1  0.08161021  0.22115131  0.21824989  1
  O  O156  1  0.81589569  0.52959158  0.87767706  1
  O  O157  1  0.68410431  0.47040842  0.37767706  1
  O  O158  1  0.31589569  0.97040842  0.12232294  1
  O  O159  1  0.18410431  0.02959158  0.62232294  1
  O  O160  1  0.96892662  0.73071396  0.12108742  1
  O  O161  1  0.53107338  0.26928604  0.62108742  1
  O  O162  1  0.46892662  0.76928604  0.87891258  1
  O  O163  1  0.03107338  0.23071396  0.37891258  1
  O  O164  1  0.79942651  0.95052058  0.38411090  1
  O  O165  1  0.70057349  0.04947942  0.88411090  1
  O  O166  1  0.29942651  0.54947942  0.61588910  1
  O  O167  1  0.20057349  0.45052058  0.11588910  1
  O  O168  1  0.52310619  0.50544147  0.67368110  1
  O  O169  1  0.97689381  0.49455853  0.17368110  1
  O  O170  1  0.02310619  0.99455853  0.32631890  1
  O  O171  1  0.47689381  0.00544147  0.82631890  1
  O  O172  1  0.62114722  0.79270083  0.46896637  1
  O  O173  1  0.87885278  0.20729917  0.96896637  1
  O  O174  1  0.12114722  0.70729917  0.53103363  1
  O  O175  1  0.37885278  0.29270083  0.03103363  1
  O  O176  1  0.52672587  0.97556033  0.18518813  1
  O  O177  1  0.97327413  0.02443967  0.68518813  1
  O  O178  1  0.02672587  0.52443967  0.81481187  1
  O  O179  1  0.47327413  0.47556033  0.31481187  1
  O  O180  1  0.77606658  0.93449452  0.77270181  1
  O  O181  1  0.72393342  0.06550548  0.27270181  1
  O  O182  1  0.27606658  0.56550548  0.22729819  1
  O  O183  1  0.22393342  0.43449452  0.72729819  1
  O  O184  1  0.75756830  0.63336452  0.00450258  1
  O  O185  1  0.74243170  0.36663548  0.50450258  1
  O  O186  1  0.25756830  0.86663548  0.99549742  1
  O  O187  1  0.24243170  0.13336452  0.49549742  1
  O  O188  1  0.99759860  0.78712954  0.62428088  1
  O  O189  1  0.50240140  0.21287046  0.12428088  1
  O  O190  1  0.49759860  0.71287046  0.37571912  1
  O  O191  1  0.00240140  0.28712954  0.87571912  1
  O  O192  1  0.56547840  0.86473472  0.76641960  1
  O  O193  1  0.93452160  0.13526528  0.26641960  1
  O  O194  1  0.06547840  0.63526528  0.23358040  1
  O  O195  1  0.43452160  0.36473472  0.73358040  1
  O  O196  1  0.51040956  0.83840022  0.03720841  1
  O  O197  1  0.98959044  0.16159978  0.53720841  1
  O  O198  1  0.01040956  0.66159978  0.96279159  1
  O  O199  1  0.48959044  0.33840022  0.46279159  1
  O  O200  1  0.81700513  0.97139978  0.99003024  1
  O  O201  1  0.68299487  0.02860022  0.49003024  1
  O  O202  1  0.31700513  0.52860022  0.00996976  1
  O  O203  1  0.18299487  0.47139978  0.50996976  1
  O  O204  1  0.97986891  0.53102081  0.34818417  1
  O  O205  1  0.52013109  0.46897919  0.84818417  1
  O  O206  1  0.47986891  0.96897919  0.65181583  1
  O  O207  1  0.02013109  0.03102081  0.15181583  1
  O  O208  1  0.82344488  0.51912462  0.47317041  1
  O  O209  1  0.67655512  0.48087538  0.97317041  1
  O  O210  1  0.32344488  0.98087538  0.52682959  1
  O  O211  1  0.17655512  0.01912462  0.02682959  1
  O  O212  1  0.95384704  0.63749770  0.70370617  1
  O  O213  1  0.54615296  0.36250230  0.20370617  1
  O  O214  1  0.45384704  0.86250230  0.29629383  1
  O  O215  1  0.04615296  0.13749770  0.79629383  1
  O  O216  1  0.76637302  0.59624417  0.28018236  1
  O  O217  1  0.73362698  0.40375583  0.78018236  1
  O  O218  1  0.26637302  0.90375583  0.71981764  1
  O  O219  1  0.23362698  0.09624417  0.21981764  1
  O  O220  1  0.87494510  0.97726631  0.23169475  1
  O  O221  1  0.62505490  0.02273369  0.73169475  1
  O  O222  1  0.37494510  0.52273369  0.76830525  1
  O  O223  1  0.12505490  0.47726631  0.26830525  1
  O  O224  1  0.97557932  0.98469940  0.86007607  1
  O  O225  1  0.52442068  0.01530060  0.36007607  1
  O  O226  1  0.47557932  0.51530060  0.13992393  1
  O  O227  1  0.02442068  0.48469940  0.63992393  1
  O  O228  1  0.57080862  0.69346710  0.75451034  1
  O  O229  1  0.92919138  0.30653290  0.25451034  1
  O  O230  1  0.07080862  0.80653290  0.24548966  1
  O  O231  1  0.42919138  0.19346710  0.74548966  1
  O  O232  1  0.95704416  0.67447309  0.49542318  1
  O  O233  1  0.54295584  0.32552691  0.99542318  1
  O  O234  1  0.45704416  0.82552691  0.50457682  1
  O  O235  1  0.04295584  0.17447309  0.00457682  1
  O  O236  1  0.78099492  0.73625623  0.42998223  1
  O  O237  1  0.71900508  0.26374377  0.92998223  1
  O  O238  1  0.28099492  0.76374377  0.57001777  1
  O  O239  1  0.21900508  0.23625623  0.07001777  1
  O  O240  1  0.72956193  0.89184153  0.23274596  1
  O  O241  1  0.77043807  0.10815847  0.73274596  1
  O  O242  1  0.22956193  0.60815847  0.76725404  1
  O  O243  1  0.27043807  0.39184153  0.26725404  1
  O  O244  1  0.72338717  0.78543591  0.07572636  1
  O  O245  1  0.77661283  0.21456409  0.57572636  1
  O  O246  1  0.22338717  0.71456409  0.92427364  1
  O  O247  1  0.27661283  0.28543591  0.42427364  1
  O  O248  1  0.66072453  0.50751308  0.54733464  1
  O  O249  1  0.83927547  0.49248692  0.04733464  1
  O  O250  1  0.16072453  0.99248692  0.45266536  1
  O  O251  1  0.33927547  0.00751308  0.95266536  1
  O  O252  1  0.76808346  0.77325399  0.90089506  1
  O  O253  1  0.73191654  0.22674601  0.40089506  1
  O  O254  1  0.26808346  0.72674601  0.09910494  1
  O  O255  1  0.23191654  0.27325399  0.59910494  1
