# generated using pymatgen
data_Yb6P19Rh30
_symmetry_space_group_name_H-M   'P 1'
_cell_length_a   15.60594267
_cell_length_b   15.60594267
_cell_length_c   3.81322500
_cell_angle_alpha   90.00000000
_cell_angle_beta   90.00000000
_cell_angle_gamma   120.00000286
_symmetry_Int_Tables_number   1
_chemical_formula_structural   Yb6P19Rh30
_chemical_formula_sum   'Yb6 P19 Rh30'
_cell_volume   804.27221478
_cell_formula_units_Z   1
loop_
 _symmetry_equiv_pos_site_id
 _symmetry_equiv_pos_as_xyz
  1  'x, y, z'
loop_
 _atom_site_type_symbol
 _atom_site_label
 _atom_site_symmetry_multiplicity
 _atom_site_fract_x
 _atom_site_fract_y
 _atom_site_fract_z
 _atom_site_occupancy
  Yb  Yb0  1  0.09677400  0.70289600  0.25008400  1
  Yb  Yb1  1  0.60612300  0.90322600  0.25008400  1
  Yb  Yb2  1  0.29710400  0.39387700  0.25008400  1
  Yb  Yb3  1  0.90344500  0.29676100  0.75016600  1
  Yb  Yb4  1  0.39331600  0.09655500  0.75016600  1
  Yb  Yb5  1  0.70323900  0.60668400  0.75016600  1
  P  P6  1  0.37142600  0.93904300  0.24945100  1
  P  P7  1  0.56761700  0.62857400  0.24945100  1
  P  P8  1  0.06095700  0.43238300  0.24945100  1
  P  P9  1  0.62879200  0.06106400  0.75023200  1
  P  P10  1  0.43227300  0.37120800  0.75023200  1
  P  P11  1  0.93893600  0.56772700  0.75023200  1
  P  P12  1  0.76932500  0.31723000  0.25027400  1
  P  P13  1  0.54790500  0.23067500  0.25027400  1
  P  P14  1  0.68277000  0.45209500  0.25027400  1
  P  P15  1  0.23092300  0.68279300  0.74970500  1
  P  P16  1  0.45187000  0.76907700  0.74970500  1
  P  P17  1  0.31720700  0.54813000  0.74970500  1
  P  P18  1  0.25743200  0.11622400  0.24727100  1
  P  P19  1  0.85879100  0.74256800  0.24727100  1
  P  P20  1  0.88377600  0.14120900  0.24727100  1
  P  P21  1  0.74281200  0.88303600  0.75180800  1
  P  P22  1  0.14022400  0.25718800  0.75180800  1
  P  P23  1  0.11696400  0.85977600  0.75180800  1
  P  P24  1  0.00000000  0.00000000  0.41880200  1
  Rh  Rh25  1  0.23018300  0.95308400  0.24743200  1
  Rh  Rh26  1  0.72290100  0.76981700  0.24743200  1
  Rh  Rh27  1  0.04691600  0.27709900  0.24743200  1
  Rh  Rh28  1  0.76909400  0.04690400  0.75182400  1
  Rh  Rh29  1  0.27781100  0.23090600  0.75182400  1
  Rh  Rh30  1  0.95309600  0.72218900  0.75182400  1
  Rh  Rh31  1  0.22359600  0.57140100  0.24966600  1
  Rh  Rh32  1  0.34780500  0.77640400  0.24966600  1
  Rh  Rh33  1  0.42859900  0.65219500  0.24966600  1
  Rh  Rh34  1  0.77583700  0.42782000  0.75072200  1
  Rh  Rh35  1  0.65198400  0.22416300  0.75072200  1
  Rh  Rh36  1  0.57218000  0.34801600  0.75072200  1
  Rh  Rh37  1  0.92578200  0.46056400  0.25092000  1
  Rh  Rh38  1  0.53478100  0.07421800  0.25092000  1
  Rh  Rh39  1  0.53943600  0.46521900  0.25092000  1
  Rh  Rh40  1  0.07418700  0.53984700  0.74898600  1
  Rh  Rh41  1  0.46565900  0.92581300  0.74898600  1
  Rh  Rh42  1  0.46015300  0.53434100  0.74898600  1
  Rh  Rh43  1  0.02383700  0.87186400  0.25154100  1
  Rh  Rh44  1  0.84802700  0.97616300  0.25154100  1
  Rh  Rh45  1  0.12813600  0.15197300  0.25154100  1
  Rh  Rh46  1  0.97628200  0.12486800  0.74532400  1
  Rh  Rh47  1  0.14858600  0.02371800  0.74532400  1
  Rh  Rh48  1  0.87513200  0.85141400  0.74532400  1
  Rh  Rh49  1  0.41562900  0.25940000  0.25014700  1
  Rh  Rh50  1  0.84377100  0.58437100  0.25014700  1
  Rh  Rh51  1  0.74060000  0.15622900  0.25014700  1
  Rh  Rh52  1  0.58426400  0.74049300  0.74984600  1
  Rh  Rh53  1  0.15622900  0.41573600  0.74984600  1
  Rh  Rh54  1  0.25950700  0.84377100  0.74984600  1
