# generated using pymatgen
data_Na3Sm(PO4)2
_symmetry_space_group_name_H-M   'P 1'
_cell_length_a   5.37020600
_cell_length_b   14.02239000
_cell_length_c   18.72349100
_cell_angle_alpha   90.00000000
_cell_angle_beta   90.00000000
_cell_angle_gamma   90.00000000
_symmetry_Int_Tables_number   1
_chemical_formula_structural   Na3Sm(PO4)2
_chemical_formula_sum   'Na24 Sm8 P16 O64'
_cell_volume   1409.93734412
_cell_formula_units_Z   8
loop_
 _symmetry_equiv_pos_site_id
 _symmetry_equiv_pos_as_xyz
  1  'x, y, z'
loop_
 _atom_site_type_symbol
 _atom_site_label
 _atom_site_symmetry_multiplicity
 _atom_site_fract_x
 _atom_site_fract_y
 _atom_site_fract_z
 _atom_site_occupancy
  Na  Na0  1  0.01131900  0.78358500  0.50719500  1
  Na  Na1  1  0.98868100  0.21641500  0.00719500  1
  Na  Na2  1  0.98868100  0.28358500  0.50719500  1
  Na  Na3  1  0.01131900  0.71641500  0.00719500  1
  Na  Na4  1  0.00868800  0.04777400  0.85173000  1
  Na  Na5  1  0.99131200  0.95222600  0.35173000  1
  Na  Na6  1  0.99131200  0.54777400  0.85173000  1
  Na  Na7  1  0.00868800  0.45222600  0.35173000  1
  Na  Na8  1  0.00537600  0.13768600  0.67183800  1
  Na  Na9  1  0.99462400  0.86231400  0.17183800  1
  Na  Na10  1  0.99462400  0.63768600  0.67183800  1
  Na  Na11  1  0.00537600  0.36231400  0.17183800  1
  Na  Na12  1  0.52245500  0.20306200  0.77001800  1
  Na  Na13  1  0.47754500  0.79693800  0.27001800  1
  Na  Na14  1  0.47754500  0.70306200  0.77001800  1
  Na  Na15  1  0.52245500  0.29693800  0.27001800  1
  Na  Na16  1  0.46150700  0.03179300  0.61221800  1
  Na  Na17  1  0.53849300  0.96820700  0.11221800  1
  Na  Na18  1  0.53849300  0.53179300  0.61221800  1
  Na  Na19  1  0.46150700  0.46820700  0.11221800  1
  Na  Na20  1  0.50070100  0.11315400  0.95042300  1
  Na  Na21  1  0.49929900  0.88684600  0.45042300  1
  Na  Na22  1  0.49929900  0.61315400  0.95042300  1
  Na  Na23  1  0.50070100  0.38684600  0.45042300  1
  Sm  Sm24  1  0.07105800  0.38705200  0.69723000  1
  Sm  Sm25  1  0.92894200  0.61294800  0.19723000  1
  Sm  Sm26  1  0.92894200  0.88705200  0.69723000  1
  Sm  Sm27  1  0.07105800  0.11294800  0.19723000  1
  Sm  Sm28  1  0.44347400  0.36317200  0.92579300  1
  Sm  Sm29  1  0.55652600  0.63682800  0.42579300  1
  Sm  Sm30  1  0.55652600  0.86317200  0.92579300  1
  Sm  Sm31  1  0.44347400  0.13682800  0.42579300  1
  P  P32  1  0.03079800  0.52455400  0.51931000  1
  P  P33  1  0.96920200  0.47544600  0.01931000  1
  P  P34  1  0.96920200  0.02455400  0.51931000  1
  P  P35  1  0.03079800  0.97544600  0.01931000  1
  P  P36  1  0.01066000  0.77366900  0.84694800  1
  P  P37  1  0.98934000  0.22633100  0.34694800  1
  P  P38  1  0.98934000  0.27366900  0.84694800  1
  P  P39  1  0.01066000  0.72633100  0.34694800  1
  P  P40  1  0.52259900  0.47719900  0.77550400  1
  P  P41  1  0.47740100  0.52280100  0.27550400  1
  P  P42  1  0.47740100  0.97719900  0.77550400  1
  P  P43  1  0.52259900  0.02280100  0.27550400  1
  P  P44  1  0.53828200  0.27352100  0.60360300  1
  P  P45  1  0.46171800  0.72647900  0.10360300  1
  P  P46  1  0.46171800  0.77352100  0.60360300  1
  P  P47  1  0.53828200  0.22647900  0.10360300  1
  O  O48  1  0.42015400  0.19383800  0.64908700  1
  O  O49  1  0.57984600  0.80616200  0.14908700  1
  O  O50  1  0.57984600  0.69383800  0.64908700  1
  O  O51  1  0.42015400  0.30616200  0.14908700  1
  O  O52  1  0.30478800  0.52928400  0.73656100  1
  O  O53  1  0.69521200  0.47071600  0.23656100  1
  O  O54  1  0.69521200  0.02928400  0.73656100  1
  O  O55  1  0.30478800  0.97071600  0.23656100  1
  O  O56  1  0.11044700  0.12025700  0.50580600  1
  O  O57  1  0.88955300  0.87974300  0.00580600  1
  O  O58  1  0.88955300  0.62025700  0.50580600  1
  O  O59  1  0.11044700  0.37974300  0.00580600  1
  O  O60  1  0.20395800  0.22271500  0.88824300  1
  O  O61  1  0.79604200  0.77728500  0.38824300  1
  O  O62  1  0.79604200  0.72271500  0.88824300  1
  O  O63  1  0.20395800  0.27728500  0.38824300  1
  O  O64  1  0.31359500  0.53700000  0.50067000  1
  O  O65  1  0.68640500  0.46300000  0.00067000  1
  O  O66  1  0.68640500  0.03700000  0.50067000  1
  O  O67  1  0.31359500  0.96300000  0.00067000  1
  O  O68  1  0.08600800  0.55490800  0.97286500  1
  O  O69  1  0.91399200  0.44509200  0.47286500  1
  O  O70  1  0.91399200  0.05490800  0.97286500  1
  O  O71  1  0.08600800  0.94509200  0.47286500  1
  O  O72  1  0.22782100  0.00401100  0.73891900  1
  O  O73  1  0.77217900  0.99598900  0.23891900  1
  O  O74  1  0.77217900  0.50401100  0.73891900  1
  O  O75  1  0.22782100  0.49598900  0.23891900  1
  O  O76  1  0.39524400  0.36917300  0.61549800  1
  O  O77  1  0.60475600  0.63082700  0.11549800  1
  O  O78  1  0.60475600  0.86917300  0.61549800  1
  O  O79  1  0.39524400  0.13082700  0.11549800  1
  O  O80  1  0.47220500  0.36825400  0.77172900  1
  O  O81  1  0.52779500  0.63174600  0.27172900  1
  O  O82  1  0.52779500  0.86825400  0.77172900  1
  O  O83  1  0.47220500  0.13174600  0.27172900  1
  O  O84  1  0.03754500  0.38258300  0.84995100  1
  O  O85  1  0.96245500  0.61741700  0.34995100  1
  O  O86  1  0.96245500  0.88258300  0.84995100  1
  O  O87  1  0.03754500  0.11741700  0.34995100  1
  O  O88  1  0.18112300  0.78713700  0.62496500  1
  O  O89  1  0.81887700  0.21286300  0.12496500  1
  O  O90  1  0.81887700  0.28713700  0.62496500  1
  O  O91  1  0.18112300  0.71286300  0.12496500  1
  O  O92  1  0.00876000  0.74127700  0.76751900  1
  O  O93  1  0.99124000  0.25872300  0.26751900  1
  O  O94  1  0.99124000  0.24127700  0.76751900  1
  O  O95  1  0.00876000  0.75872300  0.26751900  1
  O  O96  1  0.47201700  0.00746800  0.85542300  1
  O  O97  1  0.52798300  0.99253200  0.35542200  1
  O  O98  1  0.52798300  0.50746800  0.85542300  1
  O  O99  1  0.47201700  0.49253200  0.35542200  1
  O  O100  1  0.99754200  0.00152200  0.60039800  1
  O  O101  1  0.00245800  0.99847800  0.10039800  1
  O  O102  1  0.00245800  0.50152200  0.60039800  1
  O  O103  1  0.99754200  0.49847800  0.10039800  1
  O  O104  1  0.73702400  0.24654100  0.88184100  1
  O  O105  1  0.26297600  0.75345900  0.38184100  1
  O  O106  1  0.26297600  0.74654100  0.88184100  1
  O  O107  1  0.73702400  0.25345900  0.38184100  1
  O  O108  1  0.52862800  0.25078300  0.52211900  1
  O  O109  1  0.47137200  0.74921700  0.02211900  1
  O  O110  1  0.47137200  0.75078300  0.52211900  1
  O  O111  1  0.52862800  0.24921700  0.02211900  1
