# generated using pymatgen
data_NaMnCu3Se4
_symmetry_space_group_name_H-M   'P 1'
_cell_length_a   5.86949600
_cell_length_b   5.86949600
_cell_length_c   5.86949600
_cell_angle_alpha   90.00000000
_cell_angle_beta   90.00000000
_cell_angle_gamma   90.00000000
_symmetry_Int_Tables_number   1
_chemical_formula_structural   NaMnCu3Se4
_chemical_formula_sum   'Na1 Mn1 Cu3 Se4'
_cell_volume   202.20990864
_cell_formula_units_Z   1
loop_
 _symmetry_equiv_pos_site_id
 _symmetry_equiv_pos_as_xyz
  1  'x, y, z'
loop_
 _atom_site_type_symbol
 _atom_site_label
 _atom_site_symmetry_multiplicity
 _atom_site_fract_x
 _atom_site_fract_y
 _atom_site_fract_z
 _atom_site_occupancy
  Na  Na0  1  0.50000000  0.50000000  0.50000000  1
  Mn  Mn1  1  0.00000000  0.00000000  0.00000000  1
  Cu  Cu2  1  0.00000000  0.50000000  0.00000000  1
  Cu  Cu3  1  0.00000000  0.00000000  0.50000000  1
  Cu  Cu4  1  0.50000000  0.00000000  0.00000000  1
  Se  Se5  1  0.23102800  0.23102800  0.23102800  1
  Se  Se6  1  0.76897200  0.76897200  0.23102800  1
  Se  Se7  1  0.23102800  0.76897200  0.76897200  1
  Se  Se8  1  0.76897200  0.23102800  0.76897200  1
