# generated using pymatgen
data_Cs3La(MoO4)3
_symmetry_space_group_name_H-M   'P 1'
_cell_length_a   6.56724400
_cell_length_b   9.57543700
_cell_length_c   26.57538900
_cell_angle_alpha   90.00000000
_cell_angle_beta   90.00000000
_cell_angle_gamma   90.00000000
_symmetry_Int_Tables_number   1
_chemical_formula_structural   Cs3La(MoO4)3
_chemical_formula_sum   'Cs12 La4 Mo12 O48'
_cell_volume   1671.17290572
_cell_formula_units_Z   4
loop_
 _symmetry_equiv_pos_site_id
 _symmetry_equiv_pos_as_xyz
  1  'x, y, z'
loop_
 _atom_site_type_symbol
 _atom_site_label
 _atom_site_symmetry_multiplicity
 _atom_site_fract_x
 _atom_site_fract_y
 _atom_site_fract_z
 _atom_site_occupancy
  Cs  Cs0  1  0.25000000  0.52515000  0.09205400  1
  Cs  Cs1  1  0.75000000  0.47485000  0.90794600  1
  Cs  Cs2  1  0.75000000  0.97485000  0.59205400  1
  Cs  Cs3  1  0.25000000  0.02515000  0.40794600  1
  Cs  Cs4  1  0.25000000  0.60330700  0.67972200  1
  Cs  Cs5  1  0.75000000  0.39669300  0.32027800  1
  Cs  Cs6  1  0.75000000  0.89669300  0.17972200  1
  Cs  Cs7  1  0.25000000  0.10330700  0.82027800  1
  Cs  Cs8  1  0.25000000  0.68808100  0.25878600  1
  Cs  Cs9  1  0.75000000  0.31191900  0.74121400  1
  Cs  Cs10  1  0.75000000  0.81191900  0.75878600  1
  Cs  Cs11  1  0.25000000  0.18808100  0.24121400  1
  La  La12  1  0.25000000  0.81713900  0.95885100  1
  La  La13  1  0.75000000  0.18286100  0.04114900  1
  La  La14  1  0.75000000  0.68286100  0.45885100  1
  La  La15  1  0.25000000  0.31713900  0.54114900  1
  Mo  Mo16  1  0.25000000  0.61476400  0.82523400  1
  Mo  Mo17  1  0.75000000  0.38523600  0.17476600  1
  Mo  Mo18  1  0.75000000  0.88523600  0.32523400  1
  Mo  Mo19  1  0.25000000  0.11476400  0.67476600  1
  Mo  Mo20  1  0.25000000  0.75472500  0.52459400  1
  Mo  Mo21  1  0.75000000  0.24527500  0.47540600  1
  Mo  Mo22  1  0.75000000  0.74527500  0.02459400  1
  Mo  Mo23  1  0.25000000  0.25472500  0.97540600  1
  Mo  Mo24  1  0.25000000  0.97958300  0.10017200  1
  Mo  Mo25  1  0.75000000  0.02041700  0.89982800  1
  Mo  Mo26  1  0.75000000  0.52041700  0.60017200  1
  Mo  Mo27  1  0.25000000  0.47958300  0.39982800  1
  O  O28  1  0.25000000  0.77825900  0.79211000  1
  O  O29  1  0.75000000  0.22174100  0.20789000  1
  O  O30  1  0.75000000  0.72174100  0.29211000  1
  O  O31  1  0.25000000  0.27825900  0.70789000  1
  O  O32  1  0.25000000  0.84124500  0.05469600  1
  O  O33  1  0.75000000  0.15875500  0.94530400  1
  O  O34  1  0.75000000  0.65875500  0.55469600  1
  O  O35  1  0.25000000  0.34124500  0.44530400  1
  O  O36  1  0.25000000  0.64555400  0.89302800  1
  O  O37  1  0.75000000  0.35444600  0.10697200  1
  O  O38  1  0.75000000  0.85444600  0.39302800  1
  O  O39  1  0.25000000  0.14555400  0.60697200  1
  O  O40  1  0.25000000  0.80118600  0.58885800  1
  O  O41  1  0.75000000  0.19881400  0.41114200  1
  O  O42  1  0.75000000  0.69881400  0.08885800  1
  O  O43  1  0.25000000  0.30118600  0.91114200  1
  O  O44  1  0.52853800  0.67594100  0.99265400  1
  O  O45  1  0.47146200  0.32405900  0.00734600  1
  O  O46  1  0.47146200  0.82405900  0.49265400  1
  O  O47  1  0.02853800  0.32405900  0.00734600  1
  O  O48  1  0.52853800  0.17594100  0.50734600  1
  O  O49  1  0.97146200  0.67594100  0.99265400  1
  O  O50  1  0.97146200  0.17594100  0.50734600  1
  O  O51  1  0.02853800  0.82405900  0.49265400  1
  O  O52  1  0.25000000  0.56719700  0.51834800  1
  O  O53  1  0.75000000  0.43280300  0.48165200  1
  O  O54  1  0.75000000  0.93280300  0.01834800  1
  O  O55  1  0.25000000  0.06719700  0.98165200  1
  O  O56  1  0.52302600  0.91525300  0.90502300  1
  O  O57  1  0.47697400  0.08474700  0.09497700  1
  O  O58  1  0.47697400  0.58474700  0.40502300  1
  O  O59  1  0.02302600  0.08474700  0.09497700  1
  O  O60  1  0.52302600  0.41525300  0.59497700  1
  O  O61  1  0.97697400  0.91525300  0.90502300  1
  O  O62  1  0.97697400  0.41525300  0.59497700  1
  O  O63  1  0.02302600  0.58474700  0.40502300  1
  O  O64  1  0.02487200  0.52193400  0.80658400  1
  O  O65  1  0.97512800  0.47806600  0.19341600  1
  O  O66  1  0.97512800  0.97806600  0.30658400  1
  O  O67  1  0.52487200  0.47806600  0.19341600  1
  O  O68  1  0.02487200  0.02193400  0.69341600  1
  O  O69  1  0.47512800  0.52193400  0.80658400  1
  O  O70  1  0.47512800  0.02193400  0.69341600  1
  O  O71  1  0.52487200  0.97806600  0.30658400  1
  O  O72  1  0.25000000  0.90357500  0.16173000  1
  O  O73  1  0.75000000  0.09642500  0.83827000  1
  O  O74  1  0.75000000  0.59642500  0.66173000  1
  O  O75  1  0.25000000  0.40357500  0.33827000  1
