# generated using pymatgen
data_SrMg2N2
_symmetry_space_group_name_H-M   'P 1'
_cell_length_a   3.64360656
_cell_length_b   3.64360656
_cell_length_c   6.39976300
_cell_angle_alpha   90.00000000
_cell_angle_beta   90.00000000
_cell_angle_gamma   120.00001011
_symmetry_Int_Tables_number   1
_chemical_formula_structural   SrMg2N2
_chemical_formula_sum   'Sr1 Mg2 N2'
_cell_volume   73.57960101
_cell_formula_units_Z   1
loop_
 _symmetry_equiv_pos_site_id
 _symmetry_equiv_pos_as_xyz
  1  'x, y, z'
loop_
 _atom_site_type_symbol
 _atom_site_label
 _atom_site_symmetry_multiplicity
 _atom_site_fract_x
 _atom_site_fract_y
 _atom_site_fract_z
 _atom_site_occupancy
  Sr  Sr0  1  0.00000000  0.00000000  0.50000000  1
  Mg  Mg1  1  0.33333300  0.66666700  0.86860400  1
  Mg  Mg2  1  0.66666700  0.33333300  0.13139600  1
  N  N3  1  0.33333300  0.66666700  0.22053700  1
  N  N4  1  0.66666700  0.33333300  0.77946300  1
