# generated using pymatgen
data_NdInPt4
_symmetry_space_group_name_H-M   'P 1'
_cell_length_a   5.45819826
_cell_length_b   5.45819826
_cell_length_c   5.45819826
_cell_angle_alpha   60.00000000
_cell_angle_beta   60.00000000
_cell_angle_gamma   60.00000000
_symmetry_Int_Tables_number   1
_chemical_formula_structural   NdInPt4
_chemical_formula_sum   'Nd1 In1 Pt4'
_cell_volume   114.98281087
_cell_formula_units_Z   1
loop_
 _symmetry_equiv_pos_site_id
 _symmetry_equiv_pos_as_xyz
  1  'x, y, z'
loop_
 _atom_site_type_symbol
 _atom_site_label
 _atom_site_symmetry_multiplicity
 _atom_site_fract_x
 _atom_site_fract_y
 _atom_site_fract_z
 _atom_site_occupancy
  Nd  Nd0  1  0.00000000  0.00000000  0.00000000  1
  In  In1  1  0.25000000  0.25000000  0.25000000  1
  Pt  Pt2  1  0.62439500  0.62439500  0.12681600  1
  Pt  Pt3  1  0.62439500  0.12681600  0.62439500  1
  Pt  Pt4  1  0.12681600  0.62439500  0.62439500  1
  Pt  Pt5  1  0.62439500  0.62439500  0.62439500  1
