# generated using pymatgen
data_BaCaGe
_symmetry_space_group_name_H-M   'P 1'
_cell_length_a   5.11124600
_cell_length_b   8.63430700
_cell_length_c   9.25700100
_cell_angle_alpha   90.00000000
_cell_angle_beta   90.00000000
_cell_angle_gamma   90.00000000
_symmetry_Int_Tables_number   1
_chemical_formula_structural   BaCaGe
_chemical_formula_sum   'Ba4 Ca4 Ge4'
_cell_volume   408.53058943
_cell_formula_units_Z   4
loop_
 _symmetry_equiv_pos_site_id
 _symmetry_equiv_pos_as_xyz
  1  'x, y, z'
loop_
 _atom_site_type_symbol
 _atom_site_label
 _atom_site_symmetry_multiplicity
 _atom_site_fract_x
 _atom_site_fract_y
 _atom_site_fract_z
 _atom_site_occupancy
  Ba  Ba0  1  0.25000000  0.02837100  0.17588500  1
  Ba  Ba1  1  0.75000000  0.97162900  0.82411500  1
  Ba  Ba2  1  0.25000000  0.52837100  0.32411500  1
  Ba  Ba3  1  0.75000000  0.47162900  0.67588500  1
  Ca  Ca4  1  0.75000000  0.85861400  0.42586200  1
  Ca  Ca5  1  0.25000000  0.64138600  0.92586200  1
  Ca  Ca6  1  0.75000000  0.35861400  0.07413800  1
  Ca  Ca7  1  0.25000000  0.14138600  0.57413800  1
  Ge  Ge8  1  0.25000000  0.28095200  0.89161100  1
  Ge  Ge9  1  0.75000000  0.21904800  0.39161100  1
  Ge  Ge10  1  0.25000000  0.78095200  0.60838900  1
  Ge  Ge11  1  0.75000000  0.71904800  0.10838900  1
