# generated using pymatgen
data_CsAlZnF6
_symmetry_space_group_name_H-M   'P 1'
_cell_length_a   7.21190900
_cell_length_b   7.27195200
_cell_length_c   10.25474500
_cell_angle_alpha   90.00000000
_cell_angle_beta   90.00000000
_cell_angle_gamma   90.00000000
_symmetry_Int_Tables_number   1
_chemical_formula_structural   CsAlZnF6
_chemical_formula_sum   'Cs4 Al4 Zn4 F24'
_cell_volume   537.80657468
_cell_formula_units_Z   4
loop_
 _symmetry_equiv_pos_site_id
 _symmetry_equiv_pos_as_xyz
  1  'x, y, z'
loop_
 _atom_site_type_symbol
 _atom_site_label
 _atom_site_symmetry_multiplicity
 _atom_site_fract_x
 _atom_site_fract_y
 _atom_site_fract_z
 _atom_site_occupancy
  Cs  Cs0  1  0.25000000  0.51464600  0.12747400  1
  Cs  Cs1  1  0.75000000  0.48535400  0.87252600  1
  Cs  Cs2  1  0.75000000  0.98535400  0.62747400  1
  Cs  Cs3  1  0.25000000  0.01464600  0.37252600  1
  Al  Al4  1  0.00000000  0.50000000  0.50000000  1
  Al  Al5  1  0.00000000  0.00000000  0.00000000  1
  Al  Al6  1  0.50000000  0.50000000  0.50000000  1
  Al  Al7  1  0.50000000  0.00000000  0.00000000  1
  Zn  Zn8  1  0.25000000  0.72153800  0.76177300  1
  Zn  Zn9  1  0.75000000  0.27846200  0.23822700  1
  Zn  Zn10  1  0.75000000  0.77846200  0.26177300  1
  Zn  Zn11  1  0.25000000  0.22153800  0.73822700  1
  F  F12  1  0.05421300  0.79592600  0.90445900  1
  F  F13  1  0.94578700  0.20407400  0.09554100  1
  F  F14  1  0.94578700  0.70407400  0.40445900  1
  F  F15  1  0.55421300  0.20407400  0.09554100  1
  F  F16  1  0.05421300  0.29592600  0.59554100  1
  F  F17  1  0.44578700  0.79592600  0.90445900  1
  F  F18  1  0.44578700  0.29592600  0.59554100  1
  F  F19  1  0.55421300  0.70407400  0.40445900  1
  F  F20  1  0.25000000  0.03685400  0.03883300  1
  F  F21  1  0.75000000  0.96314600  0.96116700  1
  F  F22  1  0.75000000  0.46314600  0.53883300  1
  F  F23  1  0.25000000  0.53685400  0.46116700  1
  F  F24  1  0.47799600  0.64214500  0.64477900  1
  F  F25  1  0.52200400  0.35785500  0.35522100  1
  F  F26  1  0.52200400  0.85785500  0.14477900  1
  F  F27  1  0.97799600  0.35785500  0.35522100  1
  F  F28  1  0.47799600  0.14214500  0.85522100  1
  F  F29  1  0.02200400  0.64214500  0.64477900  1
  F  F30  1  0.02200400  0.14214500  0.85522100  1
  F  F31  1  0.97799600  0.85785500  0.14477900  1
  F  F32  1  0.25000000  0.96260300  0.66827200  1
  F  F33  1  0.75000000  0.03739700  0.33172800  1
  F  F34  1  0.75000000  0.53739700  0.16827200  1
  F  F35  1  0.25000000  0.46260300  0.83172800  1
