# generated using pymatgen
data_BaNaGaF6
_symmetry_space_group_name_H-M   'P 1'
_cell_length_a   5.61820400
_cell_length_b   10.06318900
_cell_length_c   19.35368100
_cell_angle_alpha   90.00000000
_cell_angle_beta   90.00000000
_cell_angle_gamma   90.00000000
_symmetry_Int_Tables_number   1
_chemical_formula_structural   BaNaGaF6
_chemical_formula_sum   'Ba8 Na8 Ga8 F48'
_cell_volume   1094.20000508
_cell_formula_units_Z   8
loop_
 _symmetry_equiv_pos_site_id
 _symmetry_equiv_pos_as_xyz
  1  'x, y, z'
loop_
 _atom_site_type_symbol
 _atom_site_label
 _atom_site_symmetry_multiplicity
 _atom_site_fract_x
 _atom_site_fract_y
 _atom_site_fract_z
 _atom_site_occupancy
  Ba  Ba0  1  0.75956800  0.36686700  0.11208300  1
  Ba  Ba1  1  0.24043200  0.86686700  0.88791700  1
  Ba  Ba2  1  0.74043200  0.36686700  0.61208300  1
  Ba  Ba3  1  0.25956800  0.86686700  0.38791700  1
  Ba  Ba4  1  0.25894100  0.00152400  0.13702300  1
  Ba  Ba5  1  0.74105900  0.50152400  0.86297700  1
  Ba  Ba6  1  0.24105900  0.00152400  0.63702300  1
  Ba  Ba7  1  0.75894100  0.50152400  0.36297700  1
  Na  Na8  1  0.25686700  0.63757300  0.06434500  1
  Na  Na9  1  0.74313300  0.13757300  0.93565500  1
  Na  Na10  1  0.24313300  0.63757300  0.56434500  1
  Na  Na11  1  0.75686700  0.13757300  0.43565500  1
  Na  Na12  1  0.26274600  0.22971800  0.31275900  1
  Na  Na13  1  0.73725400  0.72971800  0.68724100  1
  Na  Na14  1  0.23725400  0.22971800  0.81275900  1
  Na  Na15  1  0.76274600  0.72971800  0.18724100  1
  Ga  Ga16  1  0.26366000  0.26202700  0.49291200  1
  Ga  Ga17  1  0.73634000  0.76202700  0.50708800  1
  Ga  Ga18  1  0.23634000  0.26202700  0.99291200  1
  Ga  Ga19  1  0.76366000  0.76202700  0.00708800  1
  Ga  Ga20  1  0.25185800  0.60506000  0.24395000  1
  Ga  Ga21  1  0.74814200  0.10506000  0.75605000  1
  Ga  Ga22  1  0.24814200  0.60506000  0.74395000  1
  Ga  Ga23  1  0.75185800  0.10506000  0.25605000  1
  F  F24  1  0.02784600  0.17384600  0.05850500  1
  F  F25  1  0.97215400  0.67384600  0.94149500  1
  F  F26  1  0.47215400  0.17384600  0.55850500  1
  F  F27  1  0.52784600  0.67384600  0.44149500  1
  F  F28  1  0.33642600  0.11923200  0.42900200  1
  F  F29  1  0.66357400  0.61923200  0.57099800  1
  F  F30  1  0.16357400  0.11923200  0.92900200  1
  F  F31  1  0.83642600  0.61923200  0.07099800  1
  F  F32  1  0.49612400  0.16467900  0.03470100  1
  F  F33  1  0.50387600  0.66467900  0.96529900  1
  F  F34  1  0.00387600  0.16467900  0.53470100  1
  F  F35  1  0.99612400  0.66467900  0.46529900  1
  F  F36  1  0.47591900  0.54082900  0.17829900  1
  F  F37  1  0.52408100  0.04082900  0.82170100  1
  F  F38  1  0.02408100  0.54082900  0.67829900  1
  F  F39  1  0.97591900  0.04082900  0.32170100  1
  F  F40  1  0.53440400  0.19294700  0.19243900  1
  F  F41  1  0.46559600  0.69294700  0.80756100  1
  F  F42  1  0.96559600  0.19294700  0.69243900  1
  F  F43  1  0.03440400  0.69294700  0.30756100  1
  F  F44  1  0.29963000  0.46256800  0.30878500  1
  F  F45  1  0.70037000  0.96256800  0.69121500  1
  F  F46  1  0.20037000  0.46256800  0.80878500  1
  F  F47  1  0.79963000  0.96256800  0.19121500  1
  F  F48  1  0.04940800  0.32547900  0.42424500  1
  F  F49  1  0.95059200  0.82547900  0.57575500  1
  F  F50  1  0.45059200  0.32547900  0.92424500  1
  F  F51  1  0.54940800  0.82547900  0.07575500  1
  F  F52  1  0.00749100  0.20154100  0.21202600  1
  F  F53  1  0.99250900  0.70154100  0.78797400  1
  F  F54  1  0.49250900  0.20154100  0.71202600  1
  F  F55  1  0.50749100  0.70154100  0.28797400  1
  F  F56  1  0.54641100  0.35269500  0.46267200  1
  F  F57  1  0.45358900  0.85269500  0.53732800  1
  F  F58  1  0.95358900  0.35269500  0.96267200  1
  F  F59  1  0.04641100  0.85269500  0.03732800  1
  F  F60  1  0.19015200  0.74908700  0.17968700  1
  F  F61  1  0.80984800  0.24908700  0.82031300  1
  F  F62  1  0.30984800  0.74908700  0.67968700  1
  F  F63  1  0.69015200  0.24908700  0.32031300  1
  F  F64  1  0.29471500  0.40468200  0.05738600  1
  F  F65  1  0.70528500  0.90468200  0.94261400  1
  F  F66  1  0.20528500  0.40468200  0.55738600  1
  F  F67  1  0.79471500  0.90468200  0.44261400  1
  F  F68  1  0.47690400  0.01524900  0.29077800  1
  F  F69  1  0.52309600  0.51524900  0.70922200  1
  F  F70  1  0.02309600  0.01524900  0.79077800  1
  F  F71  1  0.97690400  0.51524900  0.20922200  1
