# generated using pymatgen
data_Ba3Al2B10H4O23
_symmetry_space_group_name_H-M   'P 1'
_cell_length_a   23.96854347
_cell_length_b   23.45153438
_cell_length_c   7.15463100
_cell_angle_alpha   85.44120330
_cell_angle_beta   77.24789701
_cell_angle_gamma   17.31089968
_symmetry_Int_Tables_number   1
_chemical_formula_structural   Ba3Al2B10H4O23
_chemical_formula_sum   'Ba6 Al4 B20 H8 O46'
_cell_volume   1040.95763415
_cell_formula_units_Z   2
loop_
 _symmetry_equiv_pos_site_id
 _symmetry_equiv_pos_as_xyz
  1  'x, y, z'
loop_
 _atom_site_type_symbol
 _atom_site_label
 _atom_site_symmetry_multiplicity
 _atom_site_fract_x
 _atom_site_fract_y
 _atom_site_fract_z
 _atom_site_occupancy
  Ba  Ba0  1  0.78763800  0.52423800  0.21937200  1
  Ba  Ba1  1  0.21937200  0.46875100  0.78763800  1
  Ba  Ba2  1  0.78124900  0.03062800  0.72576200  1
  Ba  Ba3  1  0.72576200  0.46236200  0.78124900  1
  Ba  Ba4  1  0.74121800  0.75878200  0.74121800  1
  Ba  Ba5  1  0.49121800  0.50878200  0.49121800  1
  Al  Al6  1  0.45023100  0.88659100  0.90899800  1
  Al  Al7  1  0.90899800  0.75418000  0.45023100  1
  Al  Al8  1  0.49582000  0.34100200  0.36340900  1
  Al  Al9  1  0.36340900  0.79976900  0.49582000  1
  B  B10  1  0.27202400  0.05243400  0.62596400  1
  B  B11  1  0.62596400  0.04957700  0.27202400  1
  B  B12  1  0.20042300  0.62403600  0.19756600  1
  B  B13  1  0.19756600  0.97797600  0.20042300  1
  B  B14  1  0.89942600  0.43722200  0.69390600  1
  B  B15  1  0.69390600  0.96944600  0.89942600  1
  B  B16  1  0.28055400  0.55609400  0.81277800  1
  B  B17  1  0.81277800  0.35057400  0.28055400  1
  B  B18  1  0.26159600  0.18100600  0.99064400  1
  B  B19  1  0.99064400  0.56675400  0.26159600  1
  B  B20  1  0.68324600  0.25935600  0.06899400  1
  B  B21  1  0.06899400  0.98840400  0.68324600  1
  B  B22  1  0.15953700  0.37669600  0.88864500  1
  B  B23  1  0.88864500  0.57512300  0.15953700  1
  B  B24  1  0.67487700  0.36135500  0.87330400  1
  B  B25  1  0.87330400  0.09046300  0.67487700  1
  B  B26  1  0.17155100  0.13370800  0.35268700  1
  B  B27  1  0.35268700  0.34205400  0.17155100  1
  B  B28  1  0.90794600  0.89731300  0.11629200  1
  B  B29  1  0.11629200  0.07844900  0.90794600  1
  H  H30  1  0.97790900  0.42694200  0.45747500  1
  H  H31  1  0.45747500  0.13767400  0.97790900  1
  H  H32  1  0.11232600  0.79252500  0.82305800  1
  H  H33  1  0.82305800  0.27209100  0.11232600  1
  H  H34  1  0.18474000  0.38038100  0.59202900  1
  H  H35  1  0.59202900  0.84285000  0.18474000  1
  H  H36  1  0.40715000  0.65797100  0.86961900  1
  H  H37  1  0.86961900  0.06526000  0.40715000  1
  O  O38  1  0.90034600  0.49661900  0.61463000  1
  O  O39  1  0.61463000  0.98840500  0.90034600  1
  O  O40  1  0.26159500  0.63537000  0.75338100  1
  O  O41  1  0.75338100  0.34965400  0.26159500  1
  O  O42  1  0.95729900  0.54270100  0.95729900  1
  O  O43  1  0.70729900  0.29270100  0.70729900  1
  O  O44  1  0.42987300  0.89386600  0.67921900  1
  O  O45  1  0.67921900  0.99704200  0.42987300  1
  O  O46  1  0.25295800  0.57078100  0.35613400  1
  O  O47  1  0.35613400  0.82012700  0.25295800  1
  O  O48  1  0.05076900  0.37262200  0.14190100  1
  O  O49  1  0.14190100  0.43470800  0.05076900  1
  O  O50  1  0.81529200  0.10809900  0.87737800  1
  O  O51  1  0.87737800  0.19923100  0.81529200  1
  O  O52  1  0.32206000  0.17516700  0.87446500  1
  O  O53  1  0.87446500  0.62830800  0.32206000  1
  O  O54  1  0.62169200  0.37553500  0.07483300  1
  O  O55  1  0.07483300  0.92794000  0.62169200  1
  O  O56  1  0.42483700  0.98516900  0.95575100  1
  O  O57  1  0.95575100  0.63424300  0.42483700  1
  O  O58  1  0.61575700  0.29424900  0.26483100  1
  O  O59  1  0.26483100  0.82516300  0.61575700  1
  O  O60  1  0.06475800  0.26758300  0.76551000  1
  O  O61  1  0.76551000  0.90214900  0.06475700  1
  O  O62  1  0.34785100  0.48449000  0.98241700  1
  O  O63  1  0.98241700  0.18524300  0.34785100  1
  O  O64  1  0.23472000  0.34094200  0.69080800  1
  O  O65  1  0.69080800  0.73353000  0.23472000  1
  O  O66  1  0.51647000  0.55919200  0.90905800  1
  O  O67  1  0.90905800  0.01528000  0.51647000  1
  O  O68  1  0.33043100  0.98679100  0.41039200  1
  O  O69  1  0.41039200  0.27238600  0.33043100  1
  O  O70  1  0.97761400  0.83960800  0.26320900  1
  O  O71  1  0.26320900  0.91956900  0.97761400  1
  O  O72  1  0.95676500  0.34448500  0.50817700  1
  O  O73  1  0.50817700  0.19057300  0.95676500  1
  O  O74  1  0.05942700  0.74182300  0.90551500  1
  O  O75  1  0.90551500  0.29323500  0.05942700  1
  O  O76  1  0.69136000  0.62197800  0.87609800  1
  O  O77  1  0.87609800  0.81056300  0.69136000  1
  O  O78  1  0.43943700  0.37390200  0.62802200  1
  O  O79  1  0.62802200  0.55864000  0.43943700  1
  O  O80  1  0.22402700  0.07493200  0.14679400  1
  O  O81  1  0.14679400  0.55424700  0.22402700  1
  O  O82  1  0.69575300  0.10320600  0.17506800  1
  O  O83  1  0.17506800  0.02597300  0.69575300  1
