# generated using pymatgen
data_Sb3Au(XeF9)2
_symmetry_space_group_name_H-M   'P 1'
_cell_length_a   8.29497200
_cell_length_b   10.38790800
_cell_length_c   22.91835099
_cell_angle_alpha   90.00000000
_cell_angle_beta   97.06253674
_cell_angle_gamma   90.00000000
_symmetry_Int_Tables_number   1
_chemical_formula_structural   Sb3Au(XeF9)2
_chemical_formula_sum   'Sb12 Au4 Xe8 F72'
_cell_volume   1959.83103287
_cell_formula_units_Z   4
loop_
 _symmetry_equiv_pos_site_id
 _symmetry_equiv_pos_as_xyz
  1  'x, y, z'
loop_
 _atom_site_type_symbol
 _atom_site_label
 _atom_site_symmetry_multiplicity
 _atom_site_fract_x
 _atom_site_fract_y
 _atom_site_fract_z
 _atom_site_occupancy
  Sb  Sb0  1  0.27267500  0.15118100  0.52216100  1
  Sb  Sb1  1  0.72732500  0.65118100  0.97783900  1
  Sb  Sb2  1  0.72732500  0.84881900  0.47783900  1
  Sb  Sb3  1  0.27267500  0.34881900  0.02216100  1
  Sb  Sb4  1  0.37207000  0.15585700  0.73908100  1
  Sb  Sb5  1  0.62793000  0.65585700  0.76091900  1
  Sb  Sb6  1  0.62793000  0.84414300  0.26091900  1
  Sb  Sb7  1  0.37207000  0.34414300  0.23908100  1
  Sb  Sb8  1  0.78601500  0.45181800  0.63129200  1
  Sb  Sb9  1  0.21398500  0.95181800  0.86870800  1
  Sb  Sb10  1  0.21398500  0.54818200  0.36870800  1
  Sb  Sb11  1  0.78601500  0.04818200  0.13129200  1
  Au  Au12  1  0.04928900  0.81512000  0.62132200  1
  Au  Au13  1  0.95071100  0.31512000  0.87867800  1
  Au  Au14  1  0.95071100  0.18488000  0.37867800  1
  Au  Au15  1  0.04928900  0.68488000  0.12132200  1
  Xe  Xe16  1  0.85941900  0.98800100  0.66590200  1
  Xe  Xe17  1  0.14058100  0.48800100  0.83409800  1
  Xe  Xe18  1  0.14058100  0.01199900  0.33409800  1
  Xe  Xe19  1  0.85941900  0.51199900  0.16590200  1
  Xe  Xe20  1  0.25726300  0.64396600  0.58300000  1
  Xe  Xe21  1  0.74273700  0.14396600  0.91700000  1
  Xe  Xe22  1  0.74273700  0.35603400  0.41700000  1
  Xe  Xe23  1  0.25726300  0.85603400  0.08300000  1
  F  F24  1  0.33576800  0.00864900  0.79974600  1
  F  F25  1  0.66423200  0.50864900  0.70025400  1
  F  F26  1  0.66423200  0.99135100  0.20025400  1
  F  F27  1  0.33576800  0.49135100  0.29974600  1
  F  F28  1  0.15190500  0.78090400  0.69954900  1
  F  F29  1  0.84809500  0.28090400  0.80045100  1
  F  F30  1  0.84809500  0.21909600  0.30045100  1
  F  F31  1  0.15190500  0.71909600  0.19954900  1
  F  F32  1  0.30251700  0.02997900  0.68113300  1
  F  F33  1  0.69748300  0.52997900  0.81886700  1
  F  F34  1  0.69748300  0.97002100  0.31886700  1
  F  F35  1  0.30251700  0.47002100  0.18113300  1
  F  F36  1  0.44088300  0.25638000  0.80708300  1
  F  F37  1  0.55911700  0.75638000  0.69291700  1
  F  F38  1  0.55911700  0.74362000  0.19291700  1
  F  F39  1  0.44088300  0.24362000  0.30708300  1
  F  F40  1  0.58748100  0.08978200  0.74176100  1
  F  F41  1  0.41251900  0.58978200  0.75823900  1
  F  F42  1  0.41251900  0.91021800  0.25823900  1
  F  F43  1  0.58748100  0.41021800  0.24176100  1
  F  F44  1  0.15180100  0.19804800  0.74566500  1
  F  F45  1  0.84819900  0.69804800  0.75433500  1
  F  F46  1  0.84819900  0.80195200  0.25433500  1
  F  F47  1  0.15180100  0.30195200  0.24566500  1
  F  F48  1  0.39679700  0.29092100  0.68574600  1
  F  F49  1  0.60320300  0.79092100  0.81425400  1
  F  F50  1  0.60320300  0.70907900  0.31425400  1
  F  F51  1  0.39679700  0.20907900  0.18574600  1
  F  F52  1  0.94841900  0.85143800  0.53785600  1
  F  F53  1  0.05158100  0.35143800  0.96214400  1
  F  F54  1  0.05158100  0.14856200  0.46214400  1
  F  F55  1  0.94841900  0.64856200  0.03785600  1
  F  F56  1  0.12213500  0.14408000  0.57851000  1
  F  F57  1  0.87786500  0.64408000  0.92149000  1
  F  F58  1  0.87786500  0.85592000  0.42149000  1
  F  F59  1  0.12213500  0.35592000  0.07851000  1
  F  F60  1  0.37671100  0.15508200  0.45283600  1
  F  F61  1  0.62328900  0.65508200  0.04716400  1
  F  F62  1  0.62328900  0.84491800  0.54716400  1
  F  F63  1  0.37671100  0.34491800  0.95283600  1
  F  F64  1  0.25150500  0.33339200  0.51969000  1
  F  F65  1  0.74849500  0.83339200  0.98031000  1
  F  F66  1  0.74849500  0.66660800  0.48031000  1
  F  F67  1  0.25150500  0.16660800  0.01969000  1
  F  F68  1  0.46617800  0.14807600  0.57481000  1
  F  F69  1  0.53382200  0.64807600  0.92519000  1
  F  F70  1  0.53382200  0.85192400  0.42519000  1
  F  F71  1  0.46617800  0.35192400  0.07481000  1
  F  F72  1  0.25753200  0.96845400  0.51642600  1
  F  F73  1  0.74246800  0.46845400  0.98357400  1
  F  F74  1  0.74246800  0.03154600  0.48357400  1
  F  F75  1  0.25753200  0.53154600  0.01642600  1
  F  F76  1  0.57825300  0.45824300  0.58544100  1
  F  F77  1  0.42174700  0.95824300  0.91455900  1
  F  F78  1  0.42174700  0.54175700  0.41455900  1
  F  F79  1  0.57825300  0.04175700  0.08544100  1
  F  F80  1  0.81238600  0.63244400  0.61641800  1
  F  F81  1  0.18761400  0.13244400  0.88358200  1
  F  F82  1  0.18761400  0.36755600  0.38358200  1
  F  F83  1  0.81238600  0.86755600  0.11641800  1
  F  F84  1  0.98235900  0.46048900  0.68338400  1
  F  F85  1  0.01764100  0.96048900  0.81661600  1
  F  F86  1  0.01764100  0.53951100  0.31661600  1
  F  F87  1  0.98235900  0.03951100  0.18338400  1
  F  F88  1  0.89168100  0.40389000  0.56560900  1
  F  F89  1  0.10831900  0.90389000  0.93439100  1
  F  F90  1  0.10831900  0.59611000  0.43439100  1
  F  F91  1  0.89168100  0.09611000  0.06560900  1
  F  F92  1  0.75170800  0.28017400  0.65514800  1
  F  F93  1  0.24829200  0.78017400  0.84485200  1
  F  F94  1  0.24829200  0.71982600  0.34485200  1
  F  F95  1  0.75170800  0.21982600  0.15514800  1
