# generated using pymatgen
data_Mg149Fe
_symmetry_space_group_name_H-M   'P 1'
_cell_length_a   15.93856739
_cell_length_b   15.93857267
_cell_length_c   15.67576170
_cell_angle_alpha   90.00000000
_cell_angle_beta   90.00000000
_cell_angle_gamma   120.00001295
_symmetry_Int_Tables_number   1
_chemical_formula_structural   Mg149Fe
_chemical_formula_sum   'Mg149 Fe1'
_cell_volume   3448.72001581
_cell_formula_units_Z   1
loop_
 _symmetry_equiv_pos_site_id
 _symmetry_equiv_pos_as_xyz
  1  'x, y, z'
loop_
 _atom_site_type_symbol
 _atom_site_label
 _atom_site_symmetry_multiplicity
 _atom_site_fract_x
 _atom_site_fract_y
 _atom_site_fract_z
 _atom_site_occupancy
  Mg  Mg0  1  0.39738240  0.00020447  -0.00000000  1
  Mg  Mg1  1  0.60282307  0.00020447  0.00000000  1
  Mg  Mg2  1  0.81107255  0.00160085  0.00000000  1
  Mg  Mg3  1  0.19052829  0.00160085  0.00000000  1
  Mg  Mg4  1  0.99839915  0.18892645  0.00000000  1
  Mg  Mg5  1  0.19052829  0.18892745  0.00000000  1
  Mg  Mg6  1  0.80117520  0.19882480  0.00000000  1
  Mg  Mg7  1  0.39764961  0.19882480  0.00000000  1
  Mg  Mg8  1  0.59971031  0.19942061  0.00000000  1
  Mg  Mg9  1  0.99979653  0.39717793  0.00000000  1
  Mg  Mg10  1  0.39738240  0.39717793  0.00000000  1
  Mg  Mg11  1  0.19860548  0.39721196  -0.00000000  1
  Mg  Mg12  1  0.59971031  0.40028969  0.00000000  1
  Mg  Mg13  1  0.80057939  0.40028969  0.00000000  1
  Mg  Mg14  1  0.19968016  0.59984008  0.00000000  1
  Mg  Mg15  1  0.40015992  0.59984008  0.00000000  1
  Mg  Mg16  1  0.80117520  0.60235039  0.00000000  1
  Mg  Mg17  1  0.99979653  0.60261860  0.00000000  1
  Mg  Mg18  1  0.60282307  0.60261860  0.00000000  1
  Mg  Mg19  1  0.40015992  0.80031984  0.00000000  1
  Mg  Mg20  1  0.19860548  0.80139352  0.00000000  1
  Mg  Mg21  1  0.60278804  0.80139352  0.00000000  1
  Mg  Mg22  1  0.81107255  0.80947171  0.00000000  1
  Mg  Mg23  1  0.99839915  0.80947171  -0.00000000  1
  Mg  Mg24  1  0.06333570  0.12667140  0.15709370  1
  Mg  Mg25  1  0.87332860  0.93666430  0.15709370  1
  Mg  Mg26  1  0.06333570  0.93666430  0.15709370  1
  Mg  Mg27  1  0.26489913  0.33129029  0.16559033  1
  Mg  Mg28  1  0.06639115  0.33129129  0.16559033  1
  Mg  Mg29  1  0.06639115  0.73510087  0.16559033  1
  Mg  Mg30  1  0.66870971  0.73510187  0.16559033  1
  Mg  Mg31  1  0.26489913  0.93360885  0.16559033  1
  Mg  Mg32  1  0.66870971  0.93360885  0.16559033  1
  Mg  Mg33  1  0.06656704  0.53328302  0.16631464  1
  Mg  Mg34  1  0.46671598  0.53328402  0.16631464  1
  Mg  Mg35  1  0.46671598  0.93343296  0.16631464  1
  Mg  Mg36  1  0.66653791  0.13352580  0.16663906  1
  Mg  Mg37  1  0.46698789  0.13352580  0.16663906  1
  Mg  Mg38  1  0.86647420  0.33346109  0.16663906  1
  Mg  Mg39  1  0.46698789  0.33346209  0.16663906  1
  Mg  Mg40  1  0.66653791  0.53301211  0.16663906  1
  Mg  Mg41  1  0.86647420  0.53301311  0.16663906  1
  Mg  Mg42  1  0.66666700  0.33333400  0.16655197  1
  Mg  Mg43  1  0.26653131  0.53306262  0.16655002  1
  Mg  Mg44  1  0.46693638  0.73346769  0.16655002  1
  Mg  Mg45  1  0.26653131  0.73346869  0.16655002  1
  Mg  Mg46  1  0.86587489  0.13412511  0.16692315  1
  Mg  Mg47  1  0.26825022  0.13412511  0.16692315  1
  Mg  Mg48  1  0.86587489  0.73174978  0.16692315  1
  Mg  Mg49  1  0.80083221  0.99956864  0.33116121  1
  Mg  Mg50  1  0.19873643  0.99956864  0.33116121  1
  Mg  Mg51  1  0.19873643  0.19916679  0.33116121  1
  Mg  Mg52  1  0.00043136  0.19916779  0.33116121  1
  Mg  Mg53  1  0.80083221  0.80126357  0.33116121  1
  Mg  Mg54  1  0.00043136  0.80126357  0.33116121  1
  Mg  Mg55  1  0.00000000  0.00000000  0.33186919  1
  Mg  Mg56  1  0.60049062  -0.00004266  0.33295444  1
  Mg  Mg57  1  0.39946672  -0.00004266  0.33295444  1
  Mg  Mg58  1  0.39946672  0.39950938  0.33295444  1
  Mg  Mg59  1  0.00004266  0.39950938  0.33295444  1
  Mg  Mg60  1  0.00004266  0.60053328  0.33295444  1
  Mg  Mg61  1  0.60049062  0.60053328  0.33295444  1
  Mg  Mg62  1  0.59981402  0.19962705  0.33327538  1
  Mg  Mg63  1  0.80037295  0.40018598  0.33327538  1
  Mg  Mg64  1  0.59981402  0.40018698  0.33327538  1
  Mg  Mg65  1  0.20008098  0.40016095  0.33330914  1
  Mg  Mg66  1  0.59983905  0.79991902  0.33330914  1
  Mg  Mg67  1  0.20008098  0.79992002  0.33330914  1
  Mg  Mg68  1  0.39975259  0.19987629  0.33340349  1
  Mg  Mg69  1  0.80012471  0.19987629  0.33340349  1
  Mg  Mg70  1  0.80012471  0.60024741  0.33340349  1
  Mg  Mg71  1  0.19993569  0.59996735  0.33351252  1
  Mg  Mg72  1  0.40003165  0.59996835  0.33351252  1
  Mg  Mg73  1  0.40003165  0.80006431  0.33351252  1
  Mg  Mg74  1  0.86677969  0.13321931  0.50000000  1
  Mg  Mg75  1  0.26644062  0.13322031  0.50000000  1
  Mg  Mg76  1  0.06669853  0.13339705  0.50000000  1
  Mg  Mg77  1  0.46704537  0.13367380  0.50000000  1
  Mg  Mg78  1  0.66662943  0.13367380  0.50000000  1
  Mg  Mg79  1  0.26662896  0.33295306  0.50000000  1
  Mg  Mg80  1  0.06632410  0.33295306  0.50000000  1
  Mg  Mg81  1  0.86632720  0.33337057  0.50000000  1
  Mg  Mg82  1  0.46704537  0.33337157  0.50000000  1
  Mg  Mg83  1  0.66666700  0.33333400  0.50000000  1
  Mg  Mg84  1  0.66662943  0.53295563  0.50000000  1
  Mg  Mg85  1  0.86632720  0.53295563  0.50000000  1
  Mg  Mg86  1  0.06601637  0.53300769  0.50000000  1
  Mg  Mg87  1  0.46699131  0.53300869  0.50000000  1
  Mg  Mg88  1  0.26652889  0.53305779  0.50000000  1
  Mg  Mg89  1  0.66704694  0.73337104  0.50000000  1
  Mg  Mg90  1  0.06632410  0.73337104  0.50000000  1
  Mg  Mg91  1  0.46694221  0.73347111  0.50000000  1
  Mg  Mg92  1  0.26652889  0.73347111  0.50000000  1
  Mg  Mg93  1  0.86677969  0.73356038  0.50000000  1
  Mg  Mg94  1  0.86660295  0.93330047  0.50000000  1
  Mg  Mg95  1  0.06669853  0.93330147  0.50000000  1
  Mg  Mg96  1  0.46699131  0.93398363  0.50000000  1
  Mg  Mg97  1  0.66704694  0.93367590  0.50000000  1
  Mg  Mg98  1  0.26662896  0.93367590  0.50000000  1
  Mg  Mg99  1  0.19993569  0.59996735  0.66648748  1
  Mg  Mg100  1  0.40003165  0.59996835  0.66648748  1
  Mg  Mg101  1  0.40003165  0.80006431  0.66648748  1
  Mg  Mg102  1  0.39975259  0.19987629  0.66659651  1
  Mg  Mg103  1  0.80012471  0.19987629  0.66659651  1
  Mg  Mg104  1  0.80012471  0.60024741  0.66659651  1
  Mg  Mg105  1  0.20008098  0.40016095  0.66669186  1
  Mg  Mg106  1  0.59983905  0.79991902  0.66669186  1
  Mg  Mg107  1  0.20008098  0.79992002  0.66669186  1
  Mg  Mg108  1  0.59981402  0.19962705  0.66672562  1
  Mg  Mg109  1  0.80037295  0.40018598  0.66672562  1
  Mg  Mg110  1  0.59981402  0.40018698  0.66672562  1
  Mg  Mg111  1  0.60049062  -0.00004266  0.66704556  1
  Mg  Mg112  1  0.39946672  -0.00004266  0.66704556  1
  Mg  Mg113  1  0.39946672  0.39950938  0.66704556  1
  Mg  Mg114  1  0.00004266  0.39950938  0.66704556  1
  Mg  Mg115  1  0.00004266  0.60053328  0.66704556  1
  Mg  Mg116  1  0.60049062  0.60053328  0.66704556  1
  Mg  Mg117  1  0.00000000  0.00000000  0.66813081  1
  Mg  Mg118  1  0.80083221  0.99956864  0.66883879  1
  Mg  Mg119  1  0.19873643  0.99956864  0.66883879  1
  Mg  Mg120  1  0.19873643  0.19916679  0.66883879  1
  Mg  Mg121  1  0.00043136  0.19916779  0.66883879  1
  Mg  Mg122  1  0.80083221  0.80126357  0.66883879  1
  Mg  Mg123  1  0.00043136  0.80126357  0.66883879  1
  Mg  Mg124  1  0.86587489  0.13412511  0.83307685  1
  Mg  Mg125  1  0.26825022  0.13412511  0.83307685  1
  Mg  Mg126  1  0.86587489  0.73174978  0.83307685  1
  Mg  Mg127  1  0.26653131  0.53306262  0.83344898  1
  Mg  Mg128  1  0.46693638  0.73346769  0.83344898  1
  Mg  Mg129  1  0.26653131  0.73346869  0.83344898  1
  Mg  Mg130  1  0.66666700  0.33333400  0.83344803  1
  Mg  Mg131  1  0.66653791  0.13352580  0.83336094  1
  Mg  Mg132  1  0.46698789  0.13352580  0.83336094  1
  Mg  Mg133  1  0.86647420  0.33346109  0.83336094  1
  Mg  Mg134  1  0.46698789  0.33346209  0.83336094  1
  Mg  Mg135  1  0.66653791  0.53301211  0.83336094  1
  Mg  Mg136  1  0.86647420  0.53301311  0.83336094  1
  Mg  Mg137  1  0.06656704  0.53328302  0.83368536  1
  Mg  Mg138  1  0.46671598  0.53328402  0.83368536  1
  Mg  Mg139  1  0.46671598  0.93343296  0.83368536  1
  Mg  Mg140  1  0.26489913  0.33129029  0.83440967  1
  Mg  Mg141  1  0.06639115  0.33129129  0.83440967  1
  Mg  Mg142  1  0.06639115  0.73510087  0.83440967  1
  Mg  Mg143  1  0.66870971  0.73510187  0.83440967  1
  Mg  Mg144  1  0.26489913  0.93360885  0.83440967  1
  Mg  Mg145  1  0.66870971  0.93360885  0.83440967  1
  Mg  Mg146  1  0.06333570  0.12667140  0.84290730  1
  Mg  Mg147  1  0.87332860  0.93666430  0.84290730  1
  Mg  Mg148  1  0.06333570  0.93666430  0.84290730  1
  Fe  Fe149  1  0.00000000  0.00000000  0.00000000  1
