# generated using pymatgen
data_RbP2H5O8
_symmetry_space_group_name_H-M   'P 1'
_cell_length_a   6.54622723
_cell_length_b   6.54622723
_cell_length_c   9.66418685
_cell_angle_alpha   81.44088233
_cell_angle_beta   81.44088233
_cell_angle_gamma   72.77290690
_symmetry_Int_Tables_number   1
_chemical_formula_structural   RbP2H5O8
_chemical_formula_sum   'Rb2 P4 H10 O16'
_cell_volume   388.74270556
_cell_formula_units_Z   2
loop_
 _symmetry_equiv_pos_site_id
 _symmetry_equiv_pos_as_xyz
  1  'x, y, z'
loop_
 _atom_site_type_symbol
 _atom_site_label
 _atom_site_symmetry_multiplicity
 _atom_site_fract_x
 _atom_site_fract_y
 _atom_site_fract_z
 _atom_site_occupancy
  Rb  Rb0  1  0.00000000  0.00000000  0.50000000  1
  Rb  Rb1  1  0.00000000  0.00000000  0.00000000  1
  P  P2  1  0.26827700  0.36849900  0.70079500  1
  P  P3  1  0.63150100  0.73172300  0.79920500  1
  P  P4  1  0.73172300  0.63150100  0.29920500  1
  P  P5  1  0.36849900  0.26827700  0.20079500  1
  H  H6  1  0.30785000  0.69215000  0.75000000  1
  H  H7  1  0.69215000  0.30785000  0.25000000  1
  H  H8  1  0.92290500  0.44284900  0.67283800  1
  H  H9  1  0.55715100  0.07709500  0.82716200  1
  H  H10  1  0.07709500  0.55715100  0.32716200  1
  H  H11  1  0.44284900  0.92290500  0.17283800  1
  H  H12  1  0.38928700  0.29187200  0.48704300  1
  H  H13  1  0.70812800  0.61071300  0.01295700  1
  H  H14  1  0.61071300  0.70812800  0.51295700  1
  H  H15  1  0.29187200  0.38928700  0.98704300  1
  O  O16  1  0.35345400  0.26927200  0.84112000  1
  O  O17  1  0.73072800  0.64654600  0.65888000  1
  O  O18  1  0.64654600  0.73072800  0.15888000  1
  O  O19  1  0.26927200  0.35345400  0.34112000  1
  O  O20  1  0.21879900  0.61599200  0.67904500  1
  O  O21  1  0.38400800  0.78120100  0.82095500  1
  O  O22  1  0.78120100  0.38400800  0.32095500  1
  O  O23  1  0.61599200  0.21879900  0.17904500  1
  O  O24  1  0.44328700  0.25755400  0.58290000  1
  O  O25  1  0.74244600  0.55671300  0.91710000  1
  O  O26  1  0.55671300  0.74244600  0.41710000  1
  O  O27  1  0.25755400  0.44328700  0.08290000  1
  O  O28  1  0.05585500  0.31053300  0.68138500  1
  O  O29  1  0.68946700  0.94414500  0.81861500  1
  O  O30  1  0.94414500  0.68946700  0.31861500  1
  O  O31  1  0.31053300  0.05585500  0.18138500  1
