# generated using pymatgen
data_BaCaLaBiO6
_symmetry_space_group_name_H-M   'P 1'
_cell_length_a   8.62373333
_cell_length_b   8.64770750
_cell_length_c   8.58918866
_cell_angle_alpha   90.00000000
_cell_angle_beta   90.00000000
_cell_angle_gamma   90.00000000
_symmetry_Int_Tables_number   1
_chemical_formula_structural   BaCaLaBiO6
_chemical_formula_sum   'Ba4 Ca4 La4 Bi4 O24'
_cell_volume   640.54323987
_cell_formula_units_Z   4
loop_
 _symmetry_equiv_pos_site_id
 _symmetry_equiv_pos_as_xyz
  1  'x, y, z'
loop_
 _atom_site_type_symbol
 _atom_site_label
 _atom_site_symmetry_multiplicity
 _atom_site_fract_x
 _atom_site_fract_y
 _atom_site_fract_z
 _atom_site_occupancy
  Ba  Ba0  1  -0.00000000  -0.00000000  -0.00000000  1
  Ba  Ba1  1  0.50000000  0.50000000  0.50000000  1
  Ba  Ba2  1  0.50000000  0.50000000  -0.00000000  1
  Ba  Ba3  1  -0.00000000  0.00000000  0.50000000  1
  Ca  Ca4  1  0.25000000  0.25000000  0.25000000  1
  Ca  Ca5  1  0.75000000  0.75000000  0.25000000  1
  Ca  Ca6  1  0.75000000  0.25000000  0.75000000  1
  Ca  Ca7  1  0.25000000  0.75000000  0.75000000  1
  La  La8  1  -0.00000000  0.50000000  0.50000000  1
  La  La9  1  0.50000000  0.00000000  0.50000000  1
  La  La10  1  0.50000000  -0.00000000  -0.00000000  1
  La  La11  1  -0.00000000  0.50000000  -0.00000000  1
  Bi  Bi12  1  0.75000000  0.75000000  0.75000000  1
  Bi  Bi13  1  0.25000000  0.25000000  0.75000000  1
  Bi  Bi14  1  0.25000000  0.75000000  0.25000000  1
  Bi  Bi15  1  0.75000000  0.25000000  0.25000000  1
  O  O16  1  0.99050479  0.22467541  0.28658128  1
  O  O17  1  0.00949521  0.77532459  0.28658128  1
  O  O18  1  0.00949521  0.22467541  0.71341872  1
  O  O19  1  0.99050479  0.77532459  0.71341872  1
  O  O20  1  0.28866671  0.98943797  0.19015239  1
  O  O21  1  0.28866671  0.01056203  0.80984761  1
  O  O22  1  0.71133329  0.01056203  0.19015239  1
  O  O23  1  0.71133329  0.98943797  0.80984761  1
  O  O24  1  0.20134971  0.30623958  0.98876502  1
  O  O25  1  0.79865029  0.30623958  0.01123498  1
  O  O26  1  0.20134971  0.69376042  0.01123498  1
  O  O27  1  0.79865029  0.69376042  0.98876502  1
  O  O28  1  0.50949521  0.27532459  0.21341872  1
  O  O29  1  0.49050479  0.72467541  0.21341872  1
  O  O30  1  0.49050479  0.27532459  0.78658128  1
  O  O31  1  0.50949521  0.72467541  0.78658128  1
  O  O32  1  0.21133329  0.51056203  0.30984761  1
  O  O33  1  0.21133329  0.48943797  0.69015239  1
  O  O34  1  0.78866671  0.48943797  0.30984761  1
  O  O35  1  0.78866671  0.51056203  0.69015239  1
  O  O36  1  0.29865029  0.19376042  0.51123498  1
  O  O37  1  0.70134971  0.19376042  0.48876502  1
  O  O38  1  0.29865029  0.80623958  0.48876502  1
  O  O39  1  0.70134971  0.80623958  0.51123498  1
