# generated using pymatgen
data_Ba6Ti5PtO18
_symmetry_space_group_name_H-M   'P 1'
_cell_length_a   5.79134398
_cell_length_b   5.79134398
_cell_length_c   14.24697100
_cell_angle_alpha   90.00000000
_cell_angle_beta   90.00000000
_cell_angle_gamma   119.99999974
_symmetry_Int_Tables_number   1
_chemical_formula_structural   Ba6Ti5PtO18
_chemical_formula_sum   'Ba6 Ti5 Pt1 O18'
_cell_volume   413.82039835
_cell_formula_units_Z   1
loop_
 _symmetry_equiv_pos_site_id
 _symmetry_equiv_pos_as_xyz
  1  'x, y, z'
loop_
 _atom_site_type_symbol
 _atom_site_label
 _atom_site_symmetry_multiplicity
 _atom_site_fract_x
 _atom_site_fract_y
 _atom_site_fract_z
 _atom_site_occupancy
  Ba  Ba0  1  0.00000000  0.00000000  0.59392100  1
  Ba  Ba1  1  0.66666700  0.33333300  0.40307900  1
  Ba  Ba2  1  0.66666700  0.33333300  0.09060300  1
  Ba  Ba3  1  0.00000000  0.00000000  0.90151400  1
  Ba  Ba4  1  0.33333300  0.66666700  0.74755100  1
  Ba  Ba5  1  0.33333300  0.66666700  0.24751800  1
  Ti  Ti6  1  0.33333300  0.66666700  0.49460400  1
  Ti  Ti7  1  0.33333300  0.66666700  0.99168700  1
  Ti  Ti8  1  0.66666700  0.33333300  0.64804900  1
  Ti  Ti9  1  0.66666700  0.33333300  0.83805800  1
  Ti  Ti10  1  0.00000000  0.00000000  0.14538400  1
  Pt  Pt11  1  0.00000000  0.00000000  0.34232200  1
  O  O12  1  0.50052800  0.00105600  0.58495400  1
  O  O13  1  0.50052800  0.49947200  0.58495400  1
  O  O14  1  0.99894400  0.49947200  0.58495400  1
  O  O15  1  0.17111800  0.34223700  0.42551800  1
  O  O16  1  0.17111800  0.82888200  0.42551800  1
  O  O17  1  0.65776300  0.82888200  0.42551800  1
  O  O18  1  0.16594000  0.33188000  0.08185200  1
  O  O19  1  0.16594000  0.83406000  0.08185200  1
  O  O20  1  0.66812000  0.83406000  0.08185200  1
  O  O21  1  0.49711100  0.99422200  0.92211300  1
  O  O22  1  0.49711100  0.50288900  0.92211300  1
  O  O23  1  0.00577800  0.50288900  0.92211300  1
  O  O24  1  0.81589500  0.63179100  0.75388600  1
  O  O25  1  0.81589500  0.18410500  0.75388600  1
  O  O26  1  0.36820900  0.18410500  0.75388600  1
  O  O27  1  0.84876500  0.69753000  0.25024600  1
  O  O28  1  0.84876500  0.15123500  0.25024600  1
  O  O29  1  0.30247000  0.15123500  0.25024600  1
