# generated using pymatgen
data_Y2(Ga3Ir)3
_symmetry_space_group_name_H-M   'P 1'
_cell_length_a   7.60218153
_cell_length_b   7.60218153
_cell_length_c   9.51683600
_cell_angle_alpha   90.00000000
_cell_angle_beta   90.00000000
_cell_angle_gamma   119.93622972
_symmetry_Int_Tables_number   1
_chemical_formula_structural   Y2(Ga3Ir)3
_chemical_formula_sum   'Y4 Ga18 Ir6'
_cell_volume   476.62674035
_cell_formula_units_Z   2
loop_
 _symmetry_equiv_pos_site_id
 _symmetry_equiv_pos_as_xyz
  1  'x, y, z'
loop_
 _atom_site_type_symbol
 _atom_site_label
 _atom_site_symmetry_multiplicity
 _atom_site_fract_x
 _atom_site_fract_y
 _atom_site_fract_z
 _atom_site_occupancy
  Y  Y0  1  0.99687900  0.66776900  0.25000000  1
  Y  Y1  1  0.00312100  0.33223100  0.75000000  1
  Y  Y2  1  0.66776900  0.99687900  0.25000000  1
  Y  Y3  1  0.33223100  0.00312100  0.75000000  1
  Ga  Ga4  1  0.12695900  0.12695900  0.25000000  1
  Ga  Ga5  1  0.87304100  0.87304100  0.75000000  1
  Ga  Ga6  1  0.99945000  0.33381300  0.07972200  1
  Ga  Ga7  1  0.00055000  0.66618700  0.92027800  1
  Ga  Ga8  1  0.00055000  0.66618700  0.57972200  1
  Ga  Ga9  1  0.33381300  0.99945000  0.42027800  1
  Ga  Ga10  1  0.99945000  0.33381300  0.42027800  1
  Ga  Ga11  1  0.66618700  0.00055000  0.57972200  1
  Ga  Ga12  1  0.66618700  0.00055000  0.92027800  1
  Ga  Ga13  1  0.33381300  0.99945000  0.07972200  1
  Ga  Ga14  1  0.33296300  0.33296300  0.56338000  1
  Ga  Ga15  1  0.66703700  0.66703700  0.43662000  1
  Ga  Ga16  1  0.66703700  0.66703700  0.06338000  1
  Ga  Ga17  1  0.33296300  0.33296300  0.93662000  1
  Ga  Ga18  1  0.33872700  0.54574800  0.25000000  1
  Ga  Ga19  1  0.66127300  0.45425200  0.75000000  1
  Ga  Ga20  1  0.54574800  0.33872700  0.25000000  1
  Ga  Ga21  1  0.45425200  0.66127300  0.75000000  1
  Ir  Ir22  1  0.67141900  0.32858100  0.00000000  1
  Ir  Ir23  1  0.32858100  0.67141900  0.00000000  1
  Ir  Ir24  1  0.32858100  0.67141900  0.50000000  1
  Ir  Ir25  1  0.67141900  0.32858100  0.50000000  1
  Ir  Ir26  1  0.00000000  0.00000000  0.00000000  1
  Ir  Ir27  1  0.00000000  0.00000000  0.50000000  1
