# generated using pymatgen
data_Ag2Ge(S2O7)3
_symmetry_space_group_name_H-M   'P 1'
_cell_length_a   10.69771702
_cell_length_b   16.57369305
_cell_length_c   16.57371738
_cell_angle_alpha   120.00019877
_cell_angle_beta   90.00001893
_cell_angle_gamma   90.00007975
_symmetry_Int_Tables_number   1
_chemical_formula_structural   Ag2Ge(S2O7)3
_chemical_formula_sum   'Ag12 Ge6 S36 O126'
_cell_volume   2544.83768613
_cell_formula_units_Z   6
loop_
 _symmetry_equiv_pos_site_id
 _symmetry_equiv_pos_as_xyz
  1  'x, y, z'
loop_
 _atom_site_type_symbol
 _atom_site_label
 _atom_site_symmetry_multiplicity
 _atom_site_fract_x
 _atom_site_fract_y
 _atom_site_fract_z
 _atom_site_occupancy
  Ag  Ag0  1  0.06165304  0.63719328  0.99760159  1
  Ag  Ag1  1  0.06165222  0.00239881  0.63959012  1
  Ag  Ag2  1  0.06164984  0.36040825  0.36280773  1
  Ag  Ag3  1  0.93834696  0.36280672  0.00239841  1
  Ag  Ag4  1  0.93834778  0.99760119  0.36040988  1
  Ag  Ag5  1  0.93835016  0.63959175  0.63719227  1
  Ag  Ag6  1  0.57603064  0.69617141  0.01184362  1
  Ag  Ag7  1  0.57603056  0.98815823  0.68432631  1
  Ag  Ag8  1  0.57603121  0.31567044  0.30382858  1
  Ag  Ag9  1  0.42396936  0.30382859  0.98815638  1
  Ag  Ag10  1  0.42396944  0.01184177  0.31567369  1
  Ag  Ag11  1  0.42396879  0.68432956  0.69617142  1
  Ge  Ge12  1  0.24361225  0.00000069  0.00000071  1
  Ge  Ge13  1  0.75638775  0.99999931  0.99999929  1
  Ge  Ge14  1  0.72224516  0.66668042  0.33334007  1
  Ge  Ge15  1  0.27775484  0.33331958  0.66665993  1
  Ge  Ge16  1  0.22631773  0.66668318  0.33334205  1
  Ge  Ge17  1  0.77368227  0.33331682  0.66665795  1
  S  S18  1  0.15576950  0.00745507  0.18191199  1
  S  S19  1  0.15576966  0.81808852  0.82554371  1
  S  S20  1  0.15576916  0.17445785  0.99254554  1
  S  S21  1  0.84423050  0.99254493  0.81808801  1
  S  S22  1  0.84423034  0.18191148  0.17445629  1
  S  S23  1  0.84423084  0.82554215  0.00745446  1
  S  S24  1  0.64565806  0.49476665  0.14571654  1
  S  S25  1  0.64565937  0.85428587  0.34905206  1
  S  S26  1  0.64566009  0.65094525  0.50523213  1
  S  S27  1  0.35434194  0.50523335  0.85428346  1
  S  S28  1  0.35434063  0.14571413  0.65094794  1
  S  S29  1  0.35433991  0.34905475  0.49476787  1
  S  S30  1  0.33229768  0.79532993  0.94305333  1
  S  S31  1  0.33229690  0.05694683  0.85227632  1
  S  S32  1  0.33229786  0.14772337  0.20467008  1
  S  S33  1  0.66770232  0.20467007  0.05694667  1
  S  S34  1  0.66770310  0.94305317  0.14772368  1
  S  S35  1  0.66770214  0.85227663  0.79532992  1
  S  S36  1  0.33165915  0.67043207  0.15933995  1
  S  S37  1  0.33165711  0.84066039  0.51109872  1
  S  S38  1  0.33165752  0.48890558  0.32956398  1
  S  S39  1  0.66834085  0.32956793  0.84066005  1
  S  S40  1  0.66834289  0.15933961  0.48890128  1
  S  S41  1  0.66834248  0.51109442  0.67043602  1
  S  S42  1  0.86297075  0.54045514  0.80123055  1
  S  S43  1  0.86296719  0.19876823  0.73922726  1
  S  S44  1  0.86297165  0.26077587  0.45954261  1
  S  S45  1  0.13702925  0.45954486  0.19876945  1
  S  S46  1  0.13703281  0.80123177  0.26077274  1
  S  S47  1  0.13702835  0.73922413  0.54045739  1
  S  S48  1  0.81502863  0.62230924  0.13203365  1
  S  S49  1  0.81502878  0.86796591  0.49027693  1
  S  S50  1  0.81503132  0.50972457  0.37768756  1
  S  S51  1  0.18497137  0.37769076  0.86796635  1
  S  S52  1  0.18497122  0.13203409  0.50972307  1
  S  S53  1  0.18496868  0.49027543  0.62231244  1
  O  O54  1  0.13622967  0.97794949  0.07925700  1
  O  O55  1  0.13623039  0.92074346  0.89869288  1
  O  O56  1  0.13623059  0.10130873  0.02205179  1
  O  O57  1  0.86377033  0.02205051  0.92074300  1
  O  O58  1  0.86376961  0.07925654  0.10130712  1
  O  O59  1  0.86376941  0.89869127  0.97794821  1
  O  O60  1  0.61734915  0.56747115  0.24753427  1
  O  O61  1  0.61734385  0.75246697  0.31993568  1
  O  O62  1  0.61734523  0.68006311  0.43252948  1
  O  O63  1  0.38265085  0.43252885  0.75246573  1
  O  O64  1  0.38265615  0.24753303  0.68006432  1
  O  O65  1  0.38265477  0.31993689  0.56747052  1
  O  O66  1  0.35233509  0.89844346  0.97575751  1
  O  O67  1  0.35233541  0.02424171  0.92268453  1
  O  O68  1  0.35233595  0.07731409  0.10155603  1
  O  O69  1  0.64766491  0.10155654  0.02424249  1
  O  O70  1  0.64766459  0.97575829  0.07731547  1
  O  O71  1  0.64766405  0.92268591  0.89844397  1
  O  O72  1  0.03713322  0.01017027  0.22285328  1
  O  O73  1  0.03713337  0.77714786  0.78731802  1
  O  O74  1  0.03713260  0.21268263  0.98982955  1
  O  O75  1  0.96286678  0.98982973  0.77714672  1
  O  O76  1  0.96286663  0.22285214  0.21268198  1
  O  O77  1  0.96286740  0.78731737  0.01017045  1
  O  O78  1  0.33450526  0.63702396  0.23023579  1
  O  O79  1  0.33450856  0.76976800  0.40678981  1
  O  O80  1  0.33450383  0.59321147  0.36297585  1
  O  O81  1  0.66549474  0.36297604  0.76976421  1
  O  O82  1  0.66549144  0.23023200  0.59321019  1
  O  O83  1  0.66549617  0.40678853  0.63702415  1
  O  O84  1  0.42677536  0.74157948  0.87485067  1
  O  O85  1  0.42677463  0.12514977  0.86672750  1
  O  O86  1  0.42677512  0.13327138  0.25842121  1
  O  O87  1  0.57322464  0.25842052  0.12514933  1
  O  O88  1  0.57322537  0.87485023  0.13327250  1
  O  O89  1  0.57322488  0.86672862  0.74157879  1
  O  O90  1  0.25987376  0.95970157  0.19472840  1
  O  O91  1  0.25987405  0.80527250  0.76497379  1
  O  O92  1  0.25987403  0.23502772  0.04029924  1
  O  O93  1  0.74012624  0.04029843  0.80527160  1
  O  O94  1  0.74012595  0.19472750  0.23502621  1
  O  O95  1  0.74012597  0.76497228  0.95970076  1
  O  O96  1  0.71661940  0.55660221  0.77907108  1
  O  O97  1  0.71662238  0.22092893  0.77752843  1
  O  O98  1  0.71661904  0.22247018  0.44340096  1
  O  O99  1  0.28338060  0.44339779  0.22092892  1
  O  O100  1  0.28337762  0.77907107  0.22247157  1
  O  O101  1  0.28338096  0.77752982  0.55659904  1
  O  O102  1  0.83078098  0.65281433  0.23484123  1
  O  O103  1  0.83078303  0.76515880  0.41797496  1
  O  O104  1  0.83077718  0.58202621  0.34718225  1
  O  O105  1  0.16921902  0.34718567  0.76515877  1
  O  O106  1  0.16921697  0.23484120  0.58202504  1
  O  O107  1  0.16922282  0.41797379  0.65281775  1
  O  O108  1  0.68389878  0.56038462  0.10142501  1
  O  O109  1  0.68389787  0.89857142  0.45895778  1
  O  O110  1  0.68389732  0.54104086  0.43961587  1
  O  O111  1  0.31610122  0.43961538  0.89857499  1
  O  O112  1  0.31610213  0.10142858  0.54104222  1
  O  O113  1  0.31610268  0.45895914  0.56038413  1
  O  O114  1  0.19472768  0.77225918  0.89008685  1
  O  O115  1  0.19472704  0.10991229  0.88217111  1
  O  O116  1  0.19472717  0.11782845  0.22774042  1
  O  O117  1  0.80527232  0.22774082  0.10991315  1
  O  O118  1  0.80527296  0.89008771  0.11782889  1
  O  O119  1  0.80527283  0.88217155  0.77225958  1
  O  O120  1  0.52916734  0.45394261  0.10063876  1
  O  O121  1  0.52916452  0.89935634  0.35330317  1
  O  O122  1  0.52916670  0.64669672  0.54605508  1
  O  O123  1  0.47083266  0.54605739  0.89936124  1
  O  O124  1  0.47083548  0.10064366  0.64669683  1
  O  O125  1  0.47083330  0.35330328  0.45394492  1
  O  O126  1  0.24214314  0.61969049  0.08664443  1
  O  O127  1  0.24214278  0.91335441  0.53304373  1
  O  O128  1  0.24214497  0.46695271  0.38030886  1
  O  O129  1  0.75785686  0.38030951  0.91335557  1
  O  O130  1  0.75785722  0.08664559  0.46695627  1
  O  O131  1  0.75785503  0.53304729  0.61969114  1
  O  O132  1  0.75151112  0.43724103  0.13537704  1
  O  O133  1  0.75151069  0.86462031  0.30186353  1
  O  O134  1  0.75151032  0.69813737  0.56275727  1
  O  O135  1  0.24848888  0.56275897  0.86462296  1
  O  O136  1  0.24848931  0.13537969  0.69813647  1
  O  O137  1  0.24848968  0.30186263  0.43724273  1
  O  O138  1  0.88307443  0.43657345  0.73460126  1
  O  O139  1  0.88308186  0.26539642  0.70197322  1
  O  O140  1  0.88307966  0.29802849  0.56342358  1
  O  O141  1  0.11692557  0.56342655  0.26539874  1
  O  O142  1  0.11691814  0.73460358  0.29802678  1
  O  O143  1  0.11692034  0.70197151  0.43657642  1
  O  O144  1  0.45741497  0.68054156  0.13578042  1
  O  O145  1  0.45741571  0.86421841  0.54476017  1
  O  O146  1  0.45741395  0.45523648  0.31945787  1
  O  O147  1  0.54258503  0.31945844  0.86421958  1
  O  O148  1  0.54258429  0.13578159  0.45523983  1
  O  O149  1  0.54258605  0.54476352  0.68054213  1
  O  O150  1  0.31062050  0.77612604  0.01689666  1
  O  O151  1  0.31062071  0.98310282  0.75922867  1
  O  O152  1  0.31062067  0.24077089  0.22387353  1
  O  O153  1  0.68937950  0.22387396  0.98310334  1
  O  O154  1  0.68937929  0.01689718  0.24077133  1
  O  O155  1  0.68937933  0.75922911  0.77612647  1
  O  O156  1  0.91785532  0.56217135  0.08103650  1
  O  O157  1  0.91785398  0.91896036  0.48113345  1
  O  O158  1  0.91785519  0.51886421  0.43782737  1
  O  O159  1  0.08214468  0.43782865  0.91896350  1
  O  O160  1  0.08214602  0.08103964  0.51886655  1
  O  O161  1  0.08214481  0.48113579  0.56217263  1
  O  O162  1  0.94489340  0.59366249  0.77717074  1
  O  O163  1  0.94489492  0.22283218  0.81649050  1
  O  O164  1  0.94489596  0.18350856  0.40634123  1
  O  O165  1  0.05510660  0.40633751  0.22282926  1
  O  O166  1  0.05510508  0.77716782  0.18350950  1
  O  O167  1  0.05510404  0.81649144  0.59365877  1
  O  O168  1  0.78187670  0.69563819  0.11408849  1
  O  O169  1  0.78187644  0.88590905  0.58154907  1
  O  O170  1  0.78187636  0.41844856  0.30436214  1
  O  O171  1  0.21812330  0.30436181  0.88591151  1
  O  O172  1  0.21812356  0.11409095  0.41845093  1
  O  O173  1  0.21812364  0.58155144  0.69563786  1
  O  O174  1  0.85648827  0.56348092  0.89697802  1
  O  O175  1  0.85648920  0.10302354  0.66650133  1
  O  O176  1  0.85648769  0.33349930  0.43652137  1
  O  O177  1  0.14351173  0.43651908  0.10302198  1
  O  O178  1  0.14351080  0.89697646  0.33349867  1
  O  O179  1  0.14351231  0.66650070  0.56347863  1
