# generated using pymatgen
data_MnV2HPb2O9
_symmetry_space_group_name_H-M   'P 1'
_cell_length_a   6.33456700
_cell_length_b   7.79276825
_cell_length_c   8.78741279
_cell_angle_alpha   110.21395627
_cell_angle_beta   90.00000000
_cell_angle_gamma   90.00000000
_symmetry_Int_Tables_number   1
_chemical_formula_structural   MnV2HPb2O9
_chemical_formula_sum   'Mn2 V4 H2 Pb4 O18'
_cell_volume   407.06319237
_cell_formula_units_Z   2
loop_
 _symmetry_equiv_pos_site_id
 _symmetry_equiv_pos_as_xyz
  1  'x, y, z'
loop_
 _atom_site_type_symbol
 _atom_site_label
 _atom_site_symmetry_multiplicity
 _atom_site_fract_x
 _atom_site_fract_y
 _atom_site_fract_z
 _atom_site_occupancy
  Mn  Mn0  1  0.50000000  0.00000000  0.00000000  1
  Mn  Mn1  1  0.00000000  0.00000000  0.00000000  1
  V  V2  1  0.75000000  0.96194900  0.66196800  1
  V  V3  1  0.25000000  0.03805100  0.33803200  1
  V  V4  1  0.75000000  0.55263700  0.82583800  1
  V  V5  1  0.25000000  0.44736300  0.17416200  1
  H  H6  1  0.75000000  0.26297500  0.01907200  1
  H  H7  1  0.25000000  0.73702500  0.98092800  1
  Pb  Pb8  1  0.75000000  0.71914000  0.24944800  1
  Pb  Pb9  1  0.25000000  0.28086000  0.75055200  1
  Pb  Pb10  1  0.75000000  0.33740500  0.41693800  1
  Pb  Pb11  1  0.25000000  0.66259500  0.58306200  1
  O  O12  1  0.75000000  0.16570700  0.07123400  1
  O  O13  1  0.25000000  0.83429300  0.92876600  1
  O  O14  1  0.51689400  0.01576100  0.78469600  1
  O  O15  1  0.01689400  0.98423900  0.21530400  1
  O  O16  1  0.48310600  0.98423900  0.21530400  1
  O  O17  1  0.98310600  0.01576100  0.78469600  1
  O  O18  1  0.75000000  0.08495100  0.53632000  1
  O  O19  1  0.25000000  0.91504900  0.46368000  1
  O  O20  1  0.75000000  0.73417400  0.54184100  1
  O  O21  1  0.25000000  0.26582600  0.45815900  1
  O  O22  1  0.75000000  0.44332400  0.96519900  1
  O  O23  1  0.25000000  0.55667600  0.03480100  1
  O  O24  1  0.75000000  0.78913200  0.93631200  1
  O  O25  1  0.25000000  0.21086800  0.06368800  1
  O  O26  1  0.52689600  0.48722000  0.69842100  1
  O  O27  1  0.02689600  0.51278000  0.30157900  1
  O  O28  1  0.47310400  0.51278000  0.30157900  1
  O  O29  1  0.97310400  0.48722000  0.69842100  1
