# generated using pymatgen
data_Rb2Te2Pd
_symmetry_space_group_name_H-M   'P 1'
_cell_length_a   7.09971642
_cell_length_b   7.09971642
_cell_length_c   7.09971642
_cell_angle_alpha   146.21329471
_cell_angle_beta   109.66100231
_cell_angle_gamma   80.35355795
_symmetry_Int_Tables_number   1
_chemical_formula_structural   Rb2Te2Pd
_chemical_formula_sum   'Rb2 Te2 Pd1'
_cell_volume   183.06777584
_cell_formula_units_Z   1
loop_
 _symmetry_equiv_pos_site_id
 _symmetry_equiv_pos_as_xyz
  1  'x, y, z'
loop_
 _atom_site_type_symbol
 _atom_site_label
 _atom_site_symmetry_multiplicity
 _atom_site_fract_x
 _atom_site_fract_y
 _atom_site_fract_z
 _atom_site_occupancy
  Rb  Rb0  1  0.69700300  0.19700300  0.50000000  1
  Rb  Rb1  1  0.30299700  0.80299700  0.50000000  1
  Te  Te2  1  0.21158000  0.50000000  0.71158000  1
  Te  Te3  1  0.78842000  0.50000000  0.28842000  1
  Pd  Pd4  1  0.00000000  0.00000000  0.00000000  1
