# generated using pymatgen
data_BaCdSn
_symmetry_space_group_name_H-M   'P 1'
_cell_length_a   6.66146497
_cell_length_b   6.66146497
_cell_length_c   8.53825096
_cell_angle_alpha   50.15967840
_cell_angle_beta   50.15967840
_cell_angle_gamma   46.68657286
_symmetry_Int_Tables_number   1
_chemical_formula_structural   BaCdSn
_chemical_formula_sum   'Ba2 Cd2 Sn2'
_cell_volume   197.47857013
_cell_formula_units_Z   2
loop_
 _symmetry_equiv_pos_site_id
 _symmetry_equiv_pos_as_xyz
  1  'x, y, z'
loop_
 _atom_site_type_symbol
 _atom_site_label
 _atom_site_symmetry_multiplicity
 _atom_site_fract_x
 _atom_site_fract_y
 _atom_site_fract_z
 _atom_site_occupancy
  Ba  Ba0  1  0.54304300  0.54304300  0.70718300  1
  Ba  Ba1  1  0.45695700  0.45695700  0.29281700  1
  Cd  Cd2  1  0.16031500  0.16031500  0.27738200  1
  Cd  Cd3  1  0.83968500  0.83968500  0.72261800  1
  Sn  Sn4  1  0.83925000  0.83925000  0.10192700  1
  Sn  Sn5  1  0.16075000  0.16075000  0.89807300  1
