# generated using pymatgen
data_Pr2Ni12P5
_symmetry_space_group_name_H-M   'P 1'
_cell_length_a   3.67971000
_cell_length_b   10.87307500
_cell_length_c   13.14972494
_cell_angle_alpha   72.08351081
_cell_angle_beta   90.00000000
_cell_angle_gamma   90.00000000
_symmetry_Int_Tables_number   1
_chemical_formula_structural   Pr2Ni12P5
_chemical_formula_sum   'Pr4 Ni24 P10'
_cell_volume   500.60379266
_cell_formula_units_Z   2
loop_
 _symmetry_equiv_pos_site_id
 _symmetry_equiv_pos_as_xyz
  1  'x, y, z'
loop_
 _atom_site_type_symbol
 _atom_site_label
 _atom_site_symmetry_multiplicity
 _atom_site_fract_x
 _atom_site_fract_y
 _atom_site_fract_z
 _atom_site_occupancy
  Pr  Pr0  1  0.25000000  0.28002800  0.68308100  1
  Pr  Pr1  1  0.75000000  0.71997200  0.31691900  1
  Pr  Pr2  1  0.25000000  0.24789000  0.18721300  1
  Pr  Pr3  1  0.75000000  0.75211000  0.81278700  1
  Ni  Ni4  1  0.25000000  0.84355500  0.13532000  1
  Ni  Ni5  1  0.75000000  0.15644500  0.86468000  1
  Ni  Ni6  1  0.25000000  0.28685400  0.43813800  1
  Ni  Ni7  1  0.75000000  0.71314600  0.56186200  1
  Ni  Ni8  1  0.25000000  0.07172200  0.01454600  1
  Ni  Ni9  1  0.75000000  0.92827800  0.98545400  1
  Ni  Ni10  1  0.25000000  0.06590700  0.44822400  1
  Ni  Ni11  1  0.75000000  0.93409300  0.55177600  1
  Ni  Ni12  1  0.25000000  0.59533400  0.69549100  1
  Ni  Ni13  1  0.75000000  0.40466600  0.30450900  1
  Ni  Ni14  1  0.25000000  0.58135800  0.00885100  1
  Ni  Ni15  1  0.75000000  0.41864200  0.99114900  1
  Ni  Ni16  1  0.25000000  0.57865200  0.50966500  1
  Ni  Ni17  1  0.75000000  0.42134800  0.49033500  1
  Ni  Ni18  1  0.25000000  0.29797200  0.91880700  1
  Ni  Ni19  1  0.75000000  0.70202800  0.08119300  1
  Ni  Ni20  1  0.25000000  0.99304800  0.65931100  1
  Ni  Ni21  1  0.75000000  0.00695200  0.34068900  1
  Ni  Ni22  1  0.25000000  0.84292200  0.43838800  1
  Ni  Ni23  1  0.75000000  0.15707800  0.56161200  1
  Ni  Ni24  1  0.25000000  0.98865600  0.84940700  1
  Ni  Ni25  1  0.75000000  0.01134400  0.15059300  1
  Ni  Ni26  1  0.25000000  0.56179900  0.20374900  1
  Ni  Ni27  1  0.75000000  0.43820100  0.79625100  1
  P  P28  1  0.25000000  0.50794900  0.87078200  1
  P  P29  1  0.75000000  0.49205100  0.12921800  1
  P  P30  1  0.25000000  0.79896500  0.98345400  1
  P  P31  1  0.75000000  0.20103500  0.01654600  1
  P  P32  1  0.25000000  0.49392000  0.37827600  1
  P  P33  1  0.75000000  0.50608000  0.62172400  1
  P  P34  1  0.25000000  0.81051000  0.61187500  1
  P  P35  1  0.75000000  0.18949000  0.38812500  1
  P  P36  1  0.25000000  0.95045100  0.25989900  1
  P  P37  1  0.75000000  0.04954900  0.74010100  1
