# generated using pymatgen
data_CaFeBP2(HO5)2
_symmetry_space_group_name_H-M   'P 1'
_cell_length_a   6.64857350
_cell_length_b   6.64857350
_cell_length_c   9.27647294
_cell_angle_alpha   69.20853562
_cell_angle_beta   69.20853562
_cell_angle_gamma   77.78105373
_symmetry_Int_Tables_number   1
_chemical_formula_structural   CaFeBP2(HO5)2
_chemical_formula_sum   'Ca2 Fe2 B2 P4 H4 O20'
_cell_volume   356.66046064
_cell_formula_units_Z   2
loop_
 _symmetry_equiv_pos_site_id
 _symmetry_equiv_pos_as_xyz
  1  'x, y, z'
loop_
 _atom_site_type_symbol
 _atom_site_label
 _atom_site_symmetry_multiplicity
 _atom_site_fract_x
 _atom_site_fract_y
 _atom_site_fract_z
 _atom_site_occupancy
  Ca  Ca0  1  0.14901300  0.85098700  0.25000000  1
  Ca  Ca1  1  0.85098700  0.14901300  0.75000000  1
  Fe  Fe2  1  0.00000000  0.50000000  0.00000000  1
  Fe  Fe3  1  0.50000000  0.00000000  0.50000000  1
  B  B4  1  0.52644500  0.47355500  0.25000000  1
  B  B5  1  0.47355500  0.52644500  0.75000000  1
  P  P6  1  0.14901300  0.27900000  0.32585700  1
  P  P7  1  0.72100000  0.85098700  0.17414300  1
  P  P8  1  0.85098700  0.72100000  0.67414300  1
  P  P9  1  0.27900000  0.14901300  0.82585700  1
  H  H10  1  0.66707600  0.29251100  0.08767700  1
  H  H11  1  0.70748900  0.33292400  0.41232300  1
  H  H12  1  0.33292400  0.70748900  0.91232300  1
  H  H13  1  0.29251100  0.66707600  0.58767700  1
  O  O14  1  0.05125600  0.68340700  0.53890400  1
  O  O15  1  0.31659300  0.94874400  0.96109600  1
  O  O16  1  0.94874400  0.31659300  0.46109600  1
  O  O17  1  0.68340700  0.05125600  0.03890400  1
  O  O18  1  0.08852300  0.26021900  0.18465800  1
  O  O19  1  0.73978100  0.91147700  0.31534200  1
  O  O20  1  0.91147700  0.73978100  0.81534200  1
  O  O21  1  0.26021900  0.08852300  0.68465800  1
  O  O22  1  0.93497900  0.70825400  0.12285300  1
  O  O23  1  0.29174600  0.06502100  0.37714700  1
  O  O24  1  0.06502100  0.29174600  0.87714700  1
  O  O25  1  0.70825400  0.93497900  0.62285300  1
  O  O26  1  0.29740400  0.47116300  0.26056900  1
  O  O27  1  0.52883700  0.70259600  0.23943100  1
  O  O28  1  0.70259600  0.52883700  0.73943100  1
  O  O29  1  0.47116300  0.29740400  0.76056900  1
  O  O30  1  0.68091400  0.43048400  0.10204300  1
  O  O31  1  0.56951600  0.31908600  0.39795700  1
  O  O32  1  0.31908600  0.56951600  0.89795700  1
  O  O33  1  0.43048400  0.68091400  0.60204300  1
