# generated using pymatgen
data_Nd3(Ge3Pt2)2
_symmetry_space_group_name_H-M   'P 1'
_cell_length_a   4.46641500
_cell_length_b   8.94568400
_cell_length_c   26.27278600
_cell_angle_alpha   90.00000000
_cell_angle_beta   90.00000000
_cell_angle_gamma   90.00000000
_symmetry_Int_Tables_number   1
_chemical_formula_structural   Nd3(Ge3Pt2)2
_chemical_formula_sum   'Nd12 Ge24 Pt16'
_cell_volume   1049.73276933
_cell_formula_units_Z   4
loop_
 _symmetry_equiv_pos_site_id
 _symmetry_equiv_pos_as_xyz
  1  'x, y, z'
loop_
 _atom_site_type_symbol
 _atom_site_label
 _atom_site_symmetry_multiplicity
 _atom_site_fract_x
 _atom_site_fract_y
 _atom_site_fract_z
 _atom_site_occupancy
  Nd  Nd0  1  0.25000000  0.37502700  0.27922500  1
  Nd  Nd1  1  0.75000000  0.62497300  0.72077500  1
  Nd  Nd2  1  0.75000000  0.87502700  0.22077500  1
  Nd  Nd3  1  0.25000000  0.12497300  0.77922500  1
  Nd  Nd4  1  0.25000000  0.13253500  0.40769000  1
  Nd  Nd5  1  0.75000000  0.86746500  0.59231000  1
  Nd  Nd6  1  0.75000000  0.63253500  0.09231000  1
  Nd  Nd7  1  0.25000000  0.36746500  0.90769000  1
  Nd  Nd8  1  0.25000000  0.61633500  0.40805800  1
  Nd  Nd9  1  0.75000000  0.38366500  0.59194200  1
  Nd  Nd10  1  0.75000000  0.11633500  0.09194200  1
  Nd  Nd11  1  0.25000000  0.88366500  0.90805800  1
  Ge  Ge12  1  0.25000000  0.72670900  0.28581700  1
  Ge  Ge13  1  0.75000000  0.27329100  0.71418300  1
  Ge  Ge14  1  0.75000000  0.22670900  0.21418300  1
  Ge  Ge15  1  0.25000000  0.77329100  0.78581700  1
  Ge  Ge16  1  0.25000000  0.37310300  0.14146000  1
  Ge  Ge17  1  0.75000000  0.62689700  0.85854000  1
  Ge  Ge18  1  0.75000000  0.87310300  0.35854000  1
  Ge  Ge19  1  0.25000000  0.12689700  0.64146000  1
  Ge  Ge20  1  0.25000000  0.02373300  0.28546200  1
  Ge  Ge21  1  0.75000000  0.97626700  0.71453800  1
  Ge  Ge22  1  0.75000000  0.52373300  0.21453800  1
  Ge  Ge23  1  0.25000000  0.47626700  0.78546200  1
  Ge  Ge24  1  0.25000000  0.87339800  0.13823300  1
  Ge  Ge25  1  0.75000000  0.12660200  0.86176700  1
  Ge  Ge26  1  0.75000000  0.37339800  0.36176700  1
  Ge  Ge27  1  0.25000000  0.62660200  0.63823300  1
  Ge  Ge28  1  0.25000000  0.12809100  0.00234100  1
  Ge  Ge29  1  0.75000000  0.87190900  0.99765900  1
  Ge  Ge30  1  0.75000000  0.62809100  0.49765900  1
  Ge  Ge31  1  0.25000000  0.37190900  0.50234100  1
  Ge  Ge32  1  0.25000000  0.87661300  0.49875900  1
  Ge  Ge33  1  0.75000000  0.12338700  0.50124100  1
  Ge  Ge34  1  0.75000000  0.37661300  0.00124100  1
  Ge  Ge35  1  0.25000000  0.62338700  0.99875900  1
  Pt  Pt36  1  0.25000000  0.62406300  0.18719300  1
  Pt  Pt37  1  0.75000000  0.37593700  0.81280700  1
  Pt  Pt38  1  0.75000000  0.12406300  0.31280700  1
  Pt  Pt39  1  0.25000000  0.87593700  0.68719300  1
  Pt  Pt40  1  0.25000000  0.62748900  0.54370200  1
  Pt  Pt41  1  0.75000000  0.37251100  0.45629800  1
  Pt  Pt42  1  0.75000000  0.12748900  0.95629800  1
  Pt  Pt43  1  0.25000000  0.87251100  0.04370200  1
  Pt  Pt44  1  0.25000000  0.12411900  0.18732900  1
  Pt  Pt45  1  0.75000000  0.87588100  0.81267100  1
  Pt  Pt46  1  0.75000000  0.62411900  0.31267100  1
  Pt  Pt47  1  0.25000000  0.37588100  0.68732900  1
  Pt  Pt48  1  0.25000000  0.37841100  0.04817900  1
  Pt  Pt49  1  0.75000000  0.62158900  0.95182100  1
  Pt  Pt50  1  0.75000000  0.87841100  0.45182100  1
  Pt  Pt51  1  0.25000000  0.12158900  0.54817900  1
