# generated using pymatgen
data_Ba3Nb2NiO9
_symmetry_space_group_name_H-M   'P 1'
_cell_length_a   5.84486612
_cell_length_b   20.24583981
_cell_length_c   7.17986900
_cell_angle_alpha   89.99951133
_cell_angle_beta   89.99997922
_cell_angle_gamma   89.99997008
_symmetry_Int_Tables_number   1
_chemical_formula_structural   Ba3Nb2NiO9
_chemical_formula_sum   'Ba12 Nb8 Ni4 O36'
_cell_volume   849.62422054
_cell_formula_units_Z   4
loop_
 _symmetry_equiv_pos_site_id
 _symmetry_equiv_pos_as_xyz
  1  'x, y, z'
loop_
 _atom_site_type_symbol
 _atom_site_label
 _atom_site_symmetry_multiplicity
 _atom_site_fract_x
 _atom_site_fract_y
 _atom_site_fract_z
 _atom_site_occupancy
  Ba  Ba0  1  0.00000000  0.99998900  0.00000200  1
  Ba  Ba1  1  0.50000100  0.25000100  0.00001600  1
  Ba  Ba2  1  0.99999900  0.49999800  0.99998300  1
  Ba  Ba3  1  0.50000000  0.75001000  0.99999800  1
  Ba  Ba4  1  0.50000000  0.08336300  0.33486400  1
  Ba  Ba5  1  0.00000100  0.33332300  0.33482900  1
  Ba  Ba6  1  0.50000000  0.58330600  0.33485500  1
  Ba  Ba7  1  0.00000100  0.83334600  0.33485900  1
  Ba  Ba8  1  0.99999800  0.16669400  0.66514500  1
  Ba  Ba9  1  0.50000000  0.41667700  0.66517300  1
  Ba  Ba10  1  0.99999800  0.66663600  0.66513600  1
  Ba  Ba11  1  0.50000000  0.91665300  0.66514000  1
  Nb  Nb12  1  0.50000000  0.08332900  0.82136700  1
  Nb  Nb13  1  0.99999900  0.33333100  0.82142400  1
  Nb  Nb14  1  0.50000000  0.58335200  0.82132500  1
  Nb  Nb15  1  0.99999900  0.83334300  0.82125700  1
  Nb  Nb16  1  0.00000000  0.16664800  0.17867600  1
  Nb  Nb17  1  0.50000100  0.41666900  0.17857800  1
  Nb  Nb18  1  0.00000000  0.66667100  0.17863200  1
  Nb  Nb19  1  0.50000100  0.91665600  0.17874200  1
  Ni  Ni20  1  0.49999300  0.25027200  0.50027100  1
  Ni  Ni21  1  0.00000700  0.49973700  0.49972500  1
  Ni  Ni22  1  0.00000100  0.00029800  0.50018900  1
  Ni  Ni23  1  0.50000000  0.74970700  0.49981400  1
  O  O24  1  0.25003700  0.12500300  0.99998400  1
  O  O25  1  0.75000000  0.37500000  0.00000000  1
  O  O26  1  0.24996400  0.62499600  0.00001700  1
  O  O27  1  0.75000000  0.87500000  0.00000000  1
  O  O28  1  0.74996500  0.12500300  0.99998300  1
  O  O29  1  0.24999900  0.37500000  0.00000100  1
  O  O30  1  0.75003600  0.62499600  0.00001700  1
  O  O31  1  0.25000000  0.87499900  0.00000000  1
  O  O32  1  0.50000100  0.00000600  0.99998700  1
  O  O33  1  0.00000000  0.25000100  0.00001100  1
  O  O34  1  0.50000000  0.49999900  0.99998900  1
  O  O35  1  0.99999900  0.74999300  0.00001300  1
  O  O36  1  0.50000000  0.16457000  0.67363700  1
  O  O37  1  0.00000200  0.41453000  0.67366200  1
  O  O38  1  0.50000000  0.66450700  0.67367600  1
  O  O39  1  0.00000100  0.91454400  0.67369000  1
  O  O40  1  0.00000000  0.08549200  0.32632500  1
  O  O41  1  0.50000000  0.33547000  0.32633700  1
  O  O42  1  0.00000000  0.58542900  0.32636400  1
  O  O43  1  0.50000000  0.83545400  0.32631100  1
  O  O44  1  0.74356500  0.04276200  0.67367500  1
  O  O45  1  0.24353900  0.29275200  0.67371800  1
  O  O46  1  0.74361500  0.54271600  0.67365500  1
  O  O47  1  0.24363200  0.79270700  0.67364700  1
  O  O48  1  0.75638500  0.20728400  0.32634400  1
  O  O49  1  0.25646000  0.45724800  0.32628200  1
  O  O50  1  0.75643400  0.70723700  0.32632300  1
  O  O51  1  0.25636900  0.95729200  0.32635200  1
  O  O52  1  0.25643400  0.04276200  0.67367600  1
  O  O53  1  0.75646000  0.29275200  0.67371800  1
  O  O54  1  0.25638600  0.54271600  0.67365500  1
  O  O55  1  0.75636800  0.79270700  0.67364700  1
  O  O56  1  0.24361300  0.20728400  0.32634400  1
  O  O57  1  0.74354000  0.45724800  0.32628200  1
  O  O58  1  0.24356500  0.70723700  0.32632400  1
  O  O59  1  0.74363100  0.95729200  0.32635200  1
