# generated using pymatgen
data_K3TmCl6
_symmetry_space_group_name_H-M   'P 1'
_cell_length_a   7.77837200
_cell_length_b   12.61723800
_cell_length_c   13.16771076
_cell_angle_alpha   71.25989711
_cell_angle_beta   90.00000000
_cell_angle_gamma   90.00000000
_symmetry_Int_Tables_number   1
_chemical_formula_structural   K3TmCl6
_chemical_formula_sum   'K12 Tm4 Cl24'
_cell_volume   1223.78936963
_cell_formula_units_Z   4
loop_
 _symmetry_equiv_pos_site_id
 _symmetry_equiv_pos_as_xyz
  1  'x, y, z'
loop_
 _atom_site_type_symbol
 _atom_site_label
 _atom_site_symmetry_multiplicity
 _atom_site_fract_x
 _atom_site_fract_y
 _atom_site_fract_z
 _atom_site_occupancy
  K  K0  1  0.43463900  0.73456100  0.31489800  1
  K  K1  1  0.56536100  0.26543900  0.68510200  1
  K  K2  1  0.93463900  0.76543900  0.68510200  1
  K  K3  1  0.06536100  0.23456100  0.31489800  1
  K  K4  1  0.96755200  0.64044900  0.09873500  1
  K  K5  1  0.03244800  0.35955100  0.90126500  1
  K  K6  1  0.46755200  0.85955100  0.90126500  1
  K  K7  1  0.53244800  0.14044900  0.09873500  1
  K  K8  1  0.93445400  0.88726700  0.32017000  1
  K  K9  1  0.06554600  0.11273300  0.67983000  1
  K  K10  1  0.43445400  0.61273300  0.67983000  1
  K  K11  1  0.56554600  0.38726700  0.32017000  1
  Tm  Tm12  1  0.00000000  0.50000000  0.50000000  1
  Tm  Tm13  1  0.50000000  0.00000000  0.50000000  1
  Tm  Tm14  1  0.00000000  0.00000000  0.00000000  1
  Tm  Tm15  1  0.50000000  0.50000000  0.00000000  1
  Cl  Cl16  1  0.49774700  0.62790900  0.11847800  1
  Cl  Cl17  1  0.50225300  0.37209100  0.88152200  1
  Cl  Cl18  1  0.99774700  0.87209100  0.88152200  1
  Cl  Cl19  1  0.00225300  0.12790900  0.11847800  1
  Cl  Cl20  1  0.29335400  0.99472600  0.34694000  1
  Cl  Cl21  1  0.70664600  0.00527400  0.65306000  1
  Cl  Cl22  1  0.79335400  0.50527400  0.65306000  1
  Cl  Cl23  1  0.20664600  0.49472600  0.34694000  1
  Cl  Cl24  1  0.78662000  0.60696100  0.34904500  1
  Cl  Cl25  1  0.21338000  0.39303900  0.65095500  1
  Cl  Cl26  1  0.28662000  0.89303900  0.65095500  1
  Cl  Cl27  1  0.71338000  0.10696100  0.34904500  1
  Cl  Cl28  1  0.64043900  0.81054300  0.49996700  1
  Cl  Cl29  1  0.35956100  0.18945700  0.50003300  1
  Cl  Cl30  1  0.14043900  0.68945700  0.50003300  1
  Cl  Cl31  1  0.85956100  0.31054300  0.49996700  1
  Cl  Cl32  1  0.18107000  0.84777500  0.13669400  1
  Cl  Cl33  1  0.81893000  0.15222500  0.86330600  1
  Cl  Cl34  1  0.68107000  0.65222500  0.86330600  1
  Cl  Cl35  1  0.31893000  0.34777500  0.13669400  1
  Cl  Cl36  1  0.71984300  0.90383400  0.10032500  1
  Cl  Cl37  1  0.28015700  0.09616600  0.89967500  1
  Cl  Cl38  1  0.21984300  0.59616600  0.89967500  1
  Cl  Cl39  1  0.78015700  0.40383400  0.10032500  1
