# generated using pymatgen
data_Ho12(MnC3)5
_symmetry_space_group_name_H-M   'P 1'
_cell_length_a   5.02137600
_cell_length_b   10.42042185
_cell_length_c   10.42042185
_cell_angle_alpha   119.99999906
_cell_angle_beta   90.00000000
_cell_angle_gamma   90.00000000
_symmetry_Int_Tables_number   1
_chemical_formula_structural   Ho12(MnC3)5
_chemical_formula_sum   'Ho12 Mn5 C15'
_cell_volume   472.19782273
_cell_formula_units_Z   1
loop_
 _symmetry_equiv_pos_site_id
 _symmetry_equiv_pos_as_xyz
  1  'x, y, z'
loop_
 _atom_site_type_symbol
 _atom_site_label
 _atom_site_symmetry_multiplicity
 _atom_site_fract_x
 _atom_site_fract_y
 _atom_site_fract_z
 _atom_site_occupancy
  Ho  Ho0  1  0.50000000  0.20626200  0.20626200  1
  Ho  Ho1  1  0.50000000  0.00000000  0.79373800  1
  Ho  Ho2  1  0.50000000  0.79373800  0.00000000  1
  Ho  Ho3  1  0.00000000  0.73046500  0.18545600  1
  Ho  Ho4  1  0.00000000  0.45499100  0.26953500  1
  Ho  Ho5  1  0.00000000  0.54500900  0.81454400  1
  Ho  Ho6  1  0.00000000  0.81454400  0.54500900  1
  Ho  Ho7  1  0.00000000  0.18545600  0.73046500  1
  Ho  Ho8  1  0.00000000  0.26953500  0.45499100  1
  Ho  Ho9  1  0.50000000  0.57143300  0.57143300  1
  Ho  Ho10  1  0.50000000  0.00000000  0.42856700  1
  Ho  Ho11  1  0.50000000  0.42856700  0.00000000  1
  Mn  Mn12  1  0.00000000  0.84724100  0.84724100  1
  Mn  Mn13  1  0.00000000  0.00000000  0.15275900  1
  Mn  Mn14  1  0.00000000  0.15275900  0.00000000  1
  Mn  Mn15  1  0.50000000  0.66666700  0.33333300  1
  Mn  Mn16  1  0.50000000  0.33333300  0.66666700  1
  C  C17  1  0.00000000  0.67567900  0.67567900  1
  C  C18  1  0.00000000  0.00000000  0.32432100  1
  C  C19  1  0.00000000  0.32432100  0.00000000  1
  C  C20  1  0.00000000  0.20214100  0.20214100  1
  C  C21  1  0.00000000  0.00000000  0.79785900  1
  C  C22  1  0.00000000  0.79785900  0.00000000  1
  C  C23  1  0.00000000  0.54575600  0.54575600  1
  C  C24  1  0.00000000  0.00000000  0.45424400  1
  C  C25  1  0.00000000  0.45424400  0.00000000  1
  C  C26  1  0.50000000  0.71553800  0.19189100  1
  C  C27  1  0.50000000  0.47635300  0.28446200  1
  C  C28  1  0.50000000  0.52364700  0.80810900  1
  C  C29  1  0.50000000  0.80810900  0.52364700  1
  C  C30  1  0.50000000  0.19189100  0.71553800  1
  C  C31  1  0.50000000  0.28446200  0.47635300  1
