# generated using pymatgen
data_LuGeIr
_symmetry_space_group_name_H-M   'P 1'
_cell_length_a   4.25625900
_cell_length_b   6.71772800
_cell_length_c   7.62331200
_cell_angle_alpha   90.00000000
_cell_angle_beta   90.00000000
_cell_angle_gamma   90.00000000
_symmetry_Int_Tables_number   1
_chemical_formula_structural   LuGeIr
_chemical_formula_sum   'Lu4 Ge4 Ir4'
_cell_volume   217.96871177
_cell_formula_units_Z   4
loop_
 _symmetry_equiv_pos_site_id
 _symmetry_equiv_pos_as_xyz
  1  'x, y, z'
loop_
 _atom_site_type_symbol
 _atom_site_label
 _atom_site_symmetry_multiplicity
 _atom_site_fract_x
 _atom_site_fract_y
 _atom_site_fract_z
 _atom_site_occupancy
  Lu  Lu0  1  0.75000000  0.51014600  0.80880400  1
  Lu  Lu1  1  0.25000000  0.98985400  0.30880400  1
  Lu  Lu2  1  0.75000000  0.01014600  0.69119600  1
  Lu  Lu3  1  0.25000000  0.48985400  0.19119600  1
  Ge  Ge4  1  0.25000000  0.71209500  0.61600800  1
  Ge  Ge5  1  0.25000000  0.21209500  0.88399200  1
  Ge  Ge6  1  0.75000000  0.28790500  0.38399200  1
  Ge  Ge7  1  0.75000000  0.78790500  0.11600800  1
  Ir  Ir8  1  0.25000000  0.83714600  0.93892100  1
  Ir  Ir9  1  0.25000000  0.33714600  0.56107900  1
  Ir  Ir10  1  0.75000000  0.66285400  0.43892100  1
  Ir  Ir11  1  0.75000000  0.16285400  0.06107900  1
