# generated using pymatgen
data_Rb2Hg3Se4
_symmetry_space_group_name_H-M   'P 1'
_cell_length_a   10.09803534
_cell_length_b   10.09803534
_cell_length_c   10.09803534
_cell_angle_alpha   141.33898665
_cell_angle_beta   107.09110464
_cell_angle_gamma   85.71327975
_symmetry_Int_Tables_number   1
_chemical_formula_structural   Rb2Hg3Se4
_chemical_formula_sum   'Rb4 Hg6 Se8'
_cell_volume   593.85388850
_cell_formula_units_Z   2
loop_
 _symmetry_equiv_pos_site_id
 _symmetry_equiv_pos_as_xyz
  1  'x, y, z'
loop_
 _atom_site_type_symbol
 _atom_site_label
 _atom_site_symmetry_multiplicity
 _atom_site_fract_x
 _atom_site_fract_y
 _atom_site_fract_z
 _atom_site_occupancy
  Rb  Rb0  1  0.12031300  0.77085000  0.89116300  1
  Rb  Rb1  1  0.87968700  0.22915000  0.10883700  1
  Rb  Rb2  1  0.62031300  0.72915000  0.34946300  1
  Rb  Rb3  1  0.37968700  0.27085000  0.65053700  1
  Hg  Hg4  1  0.25000000  0.75000000  0.50000000  1
  Hg  Hg5  1  0.75000000  0.25000000  0.50000000  1
  Hg  Hg6  1  0.91427100  0.75000000  0.16427100  1
  Hg  Hg7  1  0.58572900  0.75000000  0.83572900  1
  Hg  Hg8  1  0.08572900  0.25000000  0.83572900  1
  Hg  Hg9  1  0.41427100  0.25000000  0.16427100  1
  Se  Se10  1  0.23257500  0.64014800  0.14530800  1
  Se  Se11  1  0.49484000  0.08726700  0.85469200  1
  Se  Se12  1  0.00516000  0.85985200  0.59242700  1
  Se  Se13  1  0.26742500  0.41273300  0.40757300  1
  Se  Se14  1  0.76742500  0.35985200  0.85469200  1
  Se  Se15  1  0.50516000  0.91273300  0.14530800  1
  Se  Se16  1  0.99484000  0.14014800  0.40757300  1
  Se  Se17  1  0.73257500  0.58726700  0.59242700  1
