# generated using pymatgen
data_Cs4Mn(AsS4)2
_symmetry_space_group_name_H-M   'P 1'
_cell_length_a   9.60230200
_cell_length_b   9.76252866
_cell_length_c   11.58446718
_cell_angle_alpha   105.22175569
_cell_angle_beta   104.62019834
_cell_angle_gamma   90.74922786
_symmetry_Int_Tables_number   1
_chemical_formula_structural   Cs4Mn(AsS4)2
_chemical_formula_sum   'Cs8 Mn2 As4 S16'
_cell_volume   1010.26330643
_cell_formula_units_Z   2
loop_
 _symmetry_equiv_pos_site_id
 _symmetry_equiv_pos_as_xyz
  1  'x, y, z'
loop_
 _atom_site_type_symbol
 _atom_site_label
 _atom_site_symmetry_multiplicity
 _atom_site_fract_x
 _atom_site_fract_y
 _atom_site_fract_z
 _atom_site_occupancy
  Cs  Cs0  1  0.93205700  0.52181800  0.24988000  1
  Cs  Cs1  1  0.06794300  0.47818200  0.75012000  1
  Cs  Cs2  1  0.76098600  0.98242900  0.45615500  1
  Cs  Cs3  1  0.23901400  0.01757100  0.54384500  1
  Cs  Cs4  1  0.59893400  0.74290400  0.01517700  1
  Cs  Cs5  1  0.40106600  0.25709600  0.98482300  1
  Cs  Cs6  1  0.61841300  0.68301700  0.62405500  1
  Cs  Cs7  1  0.38158700  0.31698300  0.37594500  1
  Mn  Mn8  1  0.85082400  0.13924700  0.92738600  1
  Mn  Mn9  1  0.14917600  0.86075300  0.07261400  1
  As  As10  1  0.95450200  0.10982200  0.22024000  1
  As  As11  1  0.04549800  0.89017800  0.77976000  1
  As  As12  1  0.36284500  0.69346700  0.25367700  1
  As  As13  1  0.63715500  0.30653300  0.74632300  1
  S  S14  1  0.98296600  0.88748000  0.22148200  1
  S  S15  1  0.01703400  0.11252000  0.77851800  1
  S  S16  1  0.61036400  0.08271200  0.75311300  1
  S  S17  1  0.38963600  0.91728800  0.24688700  1
  S  S18  1  0.28470900  0.67224200  0.40965200  1
  S  S19  1  0.71529100  0.32775800  0.59034800  1
  S  S20  1  0.80301500  0.39728800  0.92228700  1
  S  S21  1  0.19698500  0.60271200  0.07771300  1
  S  S22  1  0.00691800  0.25006200  0.40746400  1
  S  S23  1  0.99308200  0.74993800  0.59253600  1
  S  S24  1  0.09270200  0.16060400  0.10885800  1
  S  S25  1  0.90729800  0.83939600  0.89114200  1
  S  S26  1  0.73941400  0.13213900  0.10776200  1
  S  S27  1  0.26058600  0.86786100  0.89223800  1
  S  S28  1  0.56493800  0.59134500  0.26149100  1
  S  S29  1  0.43506200  0.40865500  0.73850900  1
