# generated using pymatgen
data_RbTa(CuSe2)2
_symmetry_space_group_name_H-M   'P 1'
_cell_length_a   10.25263169
_cell_length_b   10.25263169
_cell_length_c   7.86322100
_cell_angle_alpha   90.00000000
_cell_angle_beta   90.00000000
_cell_angle_gamma   147.42863826
_symmetry_Int_Tables_number   1
_chemical_formula_structural   RbTa(CuSe2)2
_chemical_formula_sum   'Rb2 Ta2 Cu4 Se8'
_cell_volume   444.97500463
_cell_formula_units_Z   2
loop_
 _symmetry_equiv_pos_site_id
 _symmetry_equiv_pos_as_xyz
  1  'x, y, z'
loop_
 _atom_site_type_symbol
 _atom_site_label
 _atom_site_symmetry_multiplicity
 _atom_site_fract_x
 _atom_site_fract_y
 _atom_site_fract_z
 _atom_site_occupancy
  Rb  Rb0  1  0.48563000  0.11794600  0.75000000  1
  Rb  Rb1  1  0.11794600  0.48563000  0.25000000  1
  Ta  Ta2  1  0.43859600  0.65065100  0.75000000  1
  Ta  Ta3  1  0.65065100  0.43859600  0.25000000  1
  Cu  Cu4  1  0.55899200  0.55899200  0.50000000  1
  Cu  Cu5  1  0.55899200  0.55899200  0.00000000  1
  Cu  Cu6  1  0.14833100  0.93983500  0.25000000  1
  Cu  Cu7  1  0.93983500  0.14833100  0.75000000  1
  Se  Se8  1  0.09033600  0.50101800  0.75000000  1
  Se  Se9  1  0.30224700  0.29617500  0.25000000  1
  Se  Se10  1  0.89594700  0.68643900  0.99722900  1
  Se  Se11  1  0.68643900  0.89594700  0.00277100  1
  Se  Se12  1  0.89594700  0.68643900  0.50277100  1
  Se  Se13  1  0.68643900  0.89594700  0.49722900  1
  Se  Se14  1  0.29617500  0.30224700  0.75000000  1
  Se  Se15  1  0.50101800  0.09033600  0.25000000  1
