# generated using pymatgen
data_Ca3UN4
_symmetry_space_group_name_H-M   'P 1'
_cell_length_a   6.91581659
_cell_length_b   9.21015240
_cell_length_c   6.08262950
_cell_angle_alpha   29.08928173
_cell_angle_beta   55.35507819
_cell_angle_gamma   41.33242428
_symmetry_Int_Tables_number   1
_chemical_formula_structural   Ca3UN4
_chemical_formula_sum   'Ca3 U1 N4'
_cell_volume   119.66990948
_cell_formula_units_Z   1
loop_
 _symmetry_equiv_pos_site_id
 _symmetry_equiv_pos_as_xyz
  1  'x, y, z'
loop_
 _atom_site_type_symbol
 _atom_site_label
 _atom_site_symmetry_multiplicity
 _atom_site_fract_x
 _atom_site_fract_y
 _atom_site_fract_z
 _atom_site_occupancy
  Ca  Ca0  1  0.25000000  0.50000000  0.00000000  1
  Ca  Ca1  1  0.75000000  0.50000000  0.00000000  1
  Ca  Ca2  1  0.50000000  0.00000000  0.00000000  1
  U  U3  1  0.00000000  0.00000000  0.00000000  1
  N  N4  1  0.50000000  0.50000000  0.50000000  1
  N  N5  1  0.20180300  0.00000000  0.59639300  1
  N  N6  1  0.00000000  0.50000000  0.50000000  1
  N  N7  1  0.79819700  0.00000000  0.40360700  1
