# generated using pymatgen
data_Ho4(Al8Pd3)3
_symmetry_space_group_name_H-M   'P 1'
_cell_length_a   7.47779227
_cell_length_b   7.55685783
_cell_length_c   13.24698710
_cell_angle_alpha   84.61934192
_cell_angle_beta   79.38335752
_cell_angle_gamma   60.09573686
_symmetry_Int_Tables_number   1
_chemical_formula_structural   Ho4(Al8Pd3)3
_chemical_formula_sum   'Ho4 Al24 Pd9'
_cell_volume   637.79450965
_cell_formula_units_Z   1
loop_
 _symmetry_equiv_pos_site_id
 _symmetry_equiv_pos_as_xyz
  1  'x, y, z'
loop_
 _atom_site_type_symbol
 _atom_site_label
 _atom_site_symmetry_multiplicity
 _atom_site_fract_x
 _atom_site_fract_y
 _atom_site_fract_z
 _atom_site_occupancy
  Ho  Ho0  1  0.39285900  0.16923200  0.80881800  1
  Ho  Ho1  1  0.60714100  0.83076800  0.19118200  1
  Ho  Ho2  1  0.73409700  0.49781300  0.80850600  1
  Ho  Ho3  1  0.26590300  0.50218700  0.19149400  1
  Al  Al4  1  0.68517900  0.83386500  0.94491800  1
  Al  Al5  1  0.31482100  0.16613500  0.05508200  1
  Al  Al6  1  0.14585300  0.83333900  0.56042900  1
  Al  Al7  1  0.85414700  0.16666100  0.43957100  1
  Al  Al8  1  0.47881500  0.16676400  0.55831800  1
  Al  Al9  1  0.52118500  0.83323600  0.44168200  1
  Al  Al10  1  0.21584400  0.16543400  0.32924100  1
  Al  Al11  1  0.78415600  0.83456600  0.67075900  1
  Al  Al12  1  0.43715700  0.50584200  0.67078700  1
  Al  Al13  1  0.56284300  0.49415800  0.32921300  1
  Al  Al14  1  0.10874400  0.15981600  0.66971300  1
  Al  Al15  1  0.89125600  0.84018400  0.33028700  1
  Al  Al16  1  0.35328300  0.49969500  0.94511400  1
  Al  Al17  1  0.64671700  0.50030500  0.05488600  1
  Al  Al18  1  0.01581300  0.16733300  0.95340500  1
  Al  Al19  1  0.98418700  0.83266700  0.04659500  1
  Al  Al20  1  0.18697100  0.49945500  0.44111500  1
  Al  Al21  1  0.81302900  0.50054500  0.55888500  1
  Al  Al22  1  0.73359800  0.16343600  0.18311800  1
  Al  Al23  1  0.26640200  0.83656400  0.81688200  1
  Al  Al24  1  0.06157800  0.63119000  0.81530800  1
  Al  Al25  1  0.93842200  0.36881000  0.18469200  1
  Al  Al26  1  0.85501200  0.04153000  0.81613200  1
  Al  Al27  1  0.14498800  0.95847000  0.18386800  1
  Pd  Pd28  1  0.11978700  0.49334700  0.63809100  1
  Pd  Pd29  1  0.88021300  0.50665300  0.36190900  1
  Pd  Pd30  1  0.65734300  0.17094800  0.99955500  1
  Pd  Pd31  1  0.34265700  0.82905200  0.00044500  1
  Pd  Pd32  1  0.53899200  0.16672000  0.36145700  1
  Pd  Pd33  1  0.46100800  0.83328000  0.63854300  1
  Pd  Pd34  1  0.77856300  0.17403700  0.63721100  1
  Pd  Pd35  1  0.22143700  0.82596300  0.36278900  1
  Pd  Pd36  1  0.00000000  0.50000000  0.00000000  1
