# generated using pymatgen
data_Nd9Al5Se21
_symmetry_space_group_name_H-M   'P 1'
_cell_length_a   12.25188624
_cell_length_b   12.25188624
_cell_length_c   12.25188717
_cell_angle_alpha   94.68072761
_cell_angle_beta   94.68072761
_cell_angle_gamma   94.68072578
_symmetry_Int_Tables_number   1
_chemical_formula_structural   Nd9Al5Se21
_chemical_formula_sum   'Nd18 Al10 Se42'
_cell_volume   1819.64233277
_cell_formula_units_Z   2
loop_
 _symmetry_equiv_pos_site_id
 _symmetry_equiv_pos_as_xyz
  1  'x, y, z'
loop_
 _atom_site_type_symbol
 _atom_site_label
 _atom_site_symmetry_multiplicity
 _atom_site_fract_x
 _atom_site_fract_y
 _atom_site_fract_z
 _atom_site_occupancy
  Nd  Nd0  1  0.26018000  0.12078900  0.88602100  1
  Nd  Nd1  1  0.92436500  0.77335700  0.54336600  1
  Nd  Nd2  1  0.60403400  0.44693900  0.23296400  1
  Nd  Nd3  1  0.44693900  0.23296400  0.60403400  1
  Nd  Nd4  1  0.12078900  0.88602100  0.26018000  1
  Nd  Nd5  1  0.77335700  0.54336600  0.92436500  1
  Nd  Nd6  1  0.54336600  0.92436500  0.77335700  1
  Nd  Nd7  1  0.23296400  0.60403400  0.44693900  1
  Nd  Nd8  1  0.88602100  0.26018000  0.12078900  1
  Nd  Nd9  1  0.41664400  0.56565700  0.79177000  1
  Nd  Nd10  1  0.06844500  0.22028000  0.44880400  1
  Nd  Nd11  1  0.75444600  0.89964100  0.12520100  1
  Nd  Nd12  1  0.22028000  0.44880400  0.06844500  1
  Nd  Nd13  1  0.89964100  0.12520100  0.75444600  1
  Nd  Nd14  1  0.56565700  0.79177000  0.41664400  1
  Nd  Nd15  1  0.12520100  0.75444600  0.89964100  1
  Nd  Nd16  1  0.79177000  0.41664400  0.56565700  1
  Nd  Nd17  1  0.44880400  0.06844500  0.22028000  1
  Al  Al18  1  0.95443600  0.61256100  0.27890700  1
  Al  Al19  1  0.61256100  0.27890700  0.95443600  1
  Al  Al20  1  0.27890700  0.95443600  0.61256100  1
  Al  Al21  1  0.45313100  0.77419700  0.11819900  1
  Al  Al22  1  0.11819900  0.45313100  0.77419700  1
  Al  Al23  1  0.77419700  0.11819900  0.45313100  1
  Al  Al24  1  0.14522300  0.14522300  0.14522300  1
  Al  Al25  1  0.82994600  0.82994600  0.82994600  1
  Al  Al26  1  0.33050800  0.33050800  0.33050800  1
  Al  Al27  1  0.64534600  0.64534600  0.64534600  1
  Se  Se28  1  0.82859900  0.49139200  0.15838900  1
  Se  Se29  1  0.49139200  0.15838900  0.82859900  1
  Se  Se30  1  0.15838900  0.82859900  0.49139200  1
  Se  Se31  1  0.65822700  0.99321200  0.32678400  1
  Se  Se32  1  0.32678400  0.65822700  0.99321200  1
  Se  Se33  1  0.99321200  0.32678400  0.65822700  1
  Se  Se34  1  0.99119200  0.55098200  0.45818800  1
  Se  Se35  1  0.64419300  0.21467700  0.13204900  1
  Se  Se36  1  0.30510200  0.89506800  0.79486800  1
  Se  Se37  1  0.89506800  0.79486800  0.30510200  1
  Se  Se38  1  0.55098200  0.45818800  0.99119200  1
  Se  Se39  1  0.21467700  0.13204900  0.64419300  1
  Se  Se40  1  0.13204900  0.64419300  0.21467700  1
  Se  Se41  1  0.79486800  0.30510200  0.89506800  1
  Se  Se42  1  0.45818800  0.99119200  0.55098200  1
  Se  Se43  1  0.52320300  0.93245600  0.03463200  1
  Se  Se44  1  0.18863500  0.61677500  0.70085100  1
  Se  Se45  1  0.83928100  0.28026400  0.36940300  1
  Se  Se46  1  0.61677500  0.70085100  0.18863500  1
  Se  Se47  1  0.28026400  0.36940300  0.83928100  1
  Se  Se48  1  0.93245600  0.03463200  0.52320300  1
  Se  Se49  1  0.36940300  0.83928100  0.28026400  1
  Se  Se50  1  0.03463200  0.52320300  0.93245600  1
  Se  Se51  1  0.70085100  0.18863500  0.61677500  1
  Se  Se52  1  0.69260300  0.59419600  0.44668200  1
  Se  Se53  1  0.33591900  0.24286900  0.10860200  1
  Se  Se54  1  0.00270800  0.90351300  0.76219200  1
  Se  Se55  1  0.90351300  0.76219200  0.00270800  1
  Se  Se56  1  0.59419600  0.44668200  0.69260300  1
  Se  Se57  1  0.24286900  0.10860200  0.33591900  1
  Se  Se58  1  0.10860200  0.33591900  0.24286900  1
  Se  Se59  1  0.76219200  0.00270800  0.90351300  1
  Se  Se60  1  0.44668200  0.69260300  0.59419600  1
  Se  Se61  1  0.62422800  0.71568100  0.85040000  1
  Se  Se62  1  0.27322400  0.37922200  0.51490600  1
  Se  Se63  1  0.96366800  0.05801500  0.20972300  1
  Se  Se64  1  0.37922200  0.51490600  0.27322400  1
  Se  Se65  1  0.05801500  0.20972300  0.96366800  1
  Se  Se66  1  0.71568100  0.85040000  0.62422800  1
  Se  Se67  1  0.20972300  0.96366800  0.05801500  1
  Se  Se68  1  0.85040000  0.62422800  0.71568100  1
  Se  Se69  1  0.51490600  0.27322400  0.37922200  1
