# generated using pymatgen
data_Sr(NiP2)2
_symmetry_space_group_name_H-M   'P 1'
_cell_length_a   10.61655449
_cell_length_b   9.82918328
_cell_length_c   5.43947601
_cell_angle_alpha   82.75275193
_cell_angle_beta   66.69893548
_cell_angle_gamma   30.54831259
_symmetry_Int_Tables_number   1
_chemical_formula_structural   Sr(NiP2)2
_chemical_formula_sum   'Sr2 Ni4 P8'
_cell_volume   235.33895485
_cell_formula_units_Z   2
loop_
 _symmetry_equiv_pos_site_id
 _symmetry_equiv_pos_as_xyz
  1  'x, y, z'
loop_
 _atom_site_type_symbol
 _atom_site_label
 _atom_site_symmetry_multiplicity
 _atom_site_fract_x
 _atom_site_fract_y
 _atom_site_fract_z
 _atom_site_occupancy
  Sr  Sr0  1  0.00000000  0.00000000  0.00000000  1
  Sr  Sr1  1  0.25000000  0.25000000  0.25000000  1
  Ni  Ni2  1  0.61961900  0.61961900  0.38038100  1
  Ni  Ni3  1  0.38038100  0.38038100  0.61961900  1
  Ni  Ni4  1  0.63038100  0.63038100  0.86961900  1
  Ni  Ni5  1  0.86961900  0.86961900  0.63038100  1
  P  P6  1  0.81047200  0.30251700  0.57546000  1
  P  P7  1  0.31155100  0.57546000  0.30251700  1
  P  P8  1  0.57546000  0.31155100  0.81047200  1
  P  P9  1  0.30251700  0.81047200  0.31155100  1
  P  P10  1  0.43952800  0.94748300  0.67454000  1
  P  P11  1  0.93844900  0.67454000  0.94748300  1
  P  P12  1  0.67454000  0.93844900  0.43952800  1
  P  P13  1  0.94748300  0.43952800  0.93844900  1
