# generated using pymatgen
data_Ce2ThS5
_symmetry_space_group_name_H-M   'P 1'
_cell_length_a   7.55140600
_cell_length_b   8.24961600
_cell_length_c   12.07104700
_cell_angle_alpha   90.00000000
_cell_angle_beta   90.00000000
_cell_angle_gamma   90.00000000
_symmetry_Int_Tables_number   1
_chemical_formula_structural   Ce2ThS5
_chemical_formula_sum   'Ce8 Th4 S20'
_cell_volume   751.98035523
_cell_formula_units_Z   4
loop_
 _symmetry_equiv_pos_site_id
 _symmetry_equiv_pos_as_xyz
  1  'x, y, z'
loop_
 _atom_site_type_symbol
 _atom_site_label
 _atom_site_symmetry_multiplicity
 _atom_site_fract_x
 _atom_site_fract_y
 _atom_site_fract_z
 _atom_site_occupancy
  Ce  Ce0  1  0.52118400  0.50052800  0.32225800  1
  Ce  Ce1  1  0.97881600  0.99947200  0.82225800  1
  Ce  Ce2  1  0.47881600  0.00052800  0.67774200  1
  Ce  Ce3  1  0.02118400  0.49947200  0.17774200  1
  Ce  Ce4  1  0.47881600  0.49947200  0.67774200  1
  Ce  Ce5  1  0.02118400  0.00052800  0.17774200  1
  Ce  Ce6  1  0.52118400  0.99947200  0.32225800  1
  Ce  Ce7  1  0.97881600  0.50052800  0.82225800  1
  Th  Th8  1  0.07554700  0.75000000  0.49062700  1
  Th  Th9  1  0.42445300  0.75000000  0.99062700  1
  Th  Th10  1  0.92445300  0.25000000  0.50937300  1
  Th  Th11  1  0.57554700  0.25000000  0.00937300  1
  S  S12  1  0.83518800  0.95687200  0.59931300  1
  S  S13  1  0.66481200  0.54312800  0.09931300  1
  S  S14  1  0.16481200  0.45687200  0.40068700  1
  S  S15  1  0.33518800  0.04312800  0.90068700  1
  S  S16  1  0.16481200  0.04312800  0.40068700  1
  S  S17  1  0.33518800  0.45687200  0.90068700  1
  S  S18  1  0.83518800  0.54312800  0.59931300  1
  S  S19  1  0.66481200  0.95687200  0.09931300  1
  S  S20  1  0.82797700  0.75000000  0.31183600  1
  S  S21  1  0.67202300  0.75000000  0.81183600  1
  S  S22  1  0.17202300  0.25000000  0.68816400  1
  S  S23  1  0.32797700  0.25000000  0.18816400  1
  S  S24  1  0.45949500  0.75000000  0.49856000  1
  S  S25  1  0.04050500  0.75000000  0.99856000  1
  S  S26  1  0.54050500  0.25000000  0.50144000  1
  S  S27  1  0.95949500  0.25000000  0.00144000  1
  S  S28  1  0.19871700  0.75000000  0.71698800  1
  S  S29  1  0.30128300  0.75000000  0.21698800  1
  S  S30  1  0.80128300  0.25000000  0.28301200  1
  S  S31  1  0.69871700  0.25000000  0.78301200  1
