# generated using pymatgen
data_ScH11(IO3)2
_symmetry_space_group_name_H-M   'P 1'
_cell_length_a   8.31838538
_cell_length_b   8.57421459
_cell_length_c   9.57427419
_cell_angle_alpha   94.70102828
_cell_angle_beta   119.54373511
_cell_angle_gamma   101.24155572
_symmetry_Int_Tables_number   1
_chemical_formula_structural   ScH11(IO3)2
_chemical_formula_sum   'Sc2 H22 I4 O12'
_cell_volume   569.85550558
_cell_formula_units_Z   2
loop_
 _symmetry_equiv_pos_site_id
 _symmetry_equiv_pos_as_xyz
  1  'x, y, z'
loop_
 _atom_site_type_symbol
 _atom_site_label
 _atom_site_symmetry_multiplicity
 _atom_site_fract_x
 _atom_site_fract_y
 _atom_site_fract_z
 _atom_site_occupancy
  Sc  Sc0  1  0.12242200  0.65505600  0.16811700  1
  Sc  Sc1  1  0.87757800  0.34494400  0.83188300  1
  H  H2  1  0.94257800  0.67398000  0.84079300  1
  H  H3  1  0.05742200  0.32602000  0.15920700  1
  H  H4  1  0.34522300  0.80979900  0.51413100  1
  H  H5  1  0.65477700  0.19020100  0.48586900  1
  H  H6  1  0.25983500  0.94503500  0.42113000  1
  H  H7  1  0.74016500  0.05496500  0.57887000  1
  H  H8  1  0.40792100  0.48150000  0.28230300  1
  H  H9  1  0.59207900  0.51850000  0.71769700  1
  H  H10  1  0.51417400  0.65995700  0.39370400  1
  H  H11  1  0.48582600  0.34004300  0.60629600  1
  H  H12  1  0.34980100  0.79994700  0.03511100  1
  H  H13  1  0.65019900  0.20005300  0.96488900  1
  H  H14  1  0.38401900  0.94399700  0.16853600  1
  H  H15  1  0.61598100  0.05600300  0.83146400  1
  H  H16  1  0.81343100  0.80610400  0.02500600  1
  H  H17  1  0.18656900  0.19389600  0.97499400  1
  H  H18  1  0.97513800  0.92770900  0.19570500  1
  H  H19  1  0.02486200  0.07229100  0.80429500  1
  H  H20  1  0.85429100  0.49017500  0.25573100  1
  H  H21  1  0.14570900  0.50982500  0.74426900  1
  H  H22  1  0.06276700  0.53782600  0.40702800  1
  H  H23  1  0.93723300  0.46217400  0.59297200  1
  I  I24  1  0.14821500  0.18837800  0.40090300  1
  I  I25  1  0.85178500  0.81162200  0.59909700  1
  I  I26  1  0.54775900  0.26333400  0.19537400  1
  I  I27  1  0.45224100  0.73666600  0.80462600  1
  O  O28  1  0.96505600  0.59706700  0.91578300  1
  O  O29  1  0.03494400  0.40293300  0.08421700  1
  O  O30  1  0.29585600  0.84296300  0.40725000  1
  O  O31  1  0.70414400  0.15703700  0.59275000  1
  O  O32  1  0.38571800  0.58268100  0.31698200  1
  O  O33  1  0.61428200  0.41731900  0.68301800  1
  O  O34  1  0.31901600  0.82809700  0.11911300  1
  O  O35  1  0.68098400  0.17190300  0.88088700  1
  O  O36  1  0.94575100  0.82671800  0.11898000  1
  O  O37  1  0.05424800  0.17328200  0.88102000  1
  O  O38  1  0.97824100  0.57460500  0.30913800  1
  O  O39  1  0.02175900  0.42539500  0.69086200  1
