# generated using pymatgen
data_Ba2NbP2O9F
_symmetry_space_group_name_H-M   'P 1'
_cell_length_a   7.28321800
_cell_length_b   7.19516500
_cell_length_c   9.16346356
_cell_angle_alpha   88.80183306
_cell_angle_beta   90.00000000
_cell_angle_gamma   90.00000000
_symmetry_Int_Tables_number   1
_chemical_formula_structural   Ba2NbP2O9F
_chemical_formula_sum   'Ba4 Nb2 P4 O18 F2'
_cell_volume   480.09673978
_cell_formula_units_Z   2
loop_
 _symmetry_equiv_pos_site_id
 _symmetry_equiv_pos_as_xyz
  1  'x, y, z'
loop_
 _atom_site_type_symbol
 _atom_site_label
 _atom_site_symmetry_multiplicity
 _atom_site_fract_x
 _atom_site_fract_y
 _atom_site_fract_z
 _atom_site_occupancy
  Ba  Ba0  1  0.63604500  0.32896600  0.56761400  1
  Ba  Ba1  1  0.13604500  0.67103400  0.43238600  1
  Ba  Ba2  1  0.35982500  0.67190600  0.92817100  1
  Ba  Ba3  1  0.85982500  0.32809400  0.07182900  1
  Nb  Nb4  1  0.49377400  0.97644000  0.24850400  1
  Nb  Nb5  1  0.99377400  0.02356000  0.75149600  1
  P  P6  1  0.64427100  0.80500000  0.57337500  1
  P  P7  1  0.14427100  0.19500000  0.42662500  1
  P  P8  1  0.35653300  0.19579300  0.92703800  1
  P  P9  1  0.85653300  0.80420700  0.07296200  1
  O  O10  1  0.28114300  0.32272600  0.50067200  1
  O  O11  1  0.78114300  0.67727400  0.49932800  1
  O  O12  1  0.71846100  0.67729300  0.99946600  1
  O  O13  1  0.21846100  0.32270700  0.00053400  1
  O  O14  1  0.56610100  0.95798100  0.46202200  1
  O  O15  1  0.06610100  0.04201900  0.53797800  1
  O  O16  1  0.43534200  0.04467600  0.03850600  1
  O  O17  1  0.93534200  0.95532400  0.96149400  1
  O  O18  1  0.74008800  0.93230400  0.68852400  1
  O  O19  1  0.24008800  0.06769600  0.31147600  1
  O  O20  1  0.26134300  0.06686800  0.81155300  1
  O  O21  1  0.76134300  0.93313200  0.18844700  1
  O  O22  1  0.51654000  0.30650400  0.85978700  1
  O  O23  1  0.01654000  0.69349600  0.14021300  1
  O  O24  1  0.48411000  0.69407400  0.64002600  1
  O  O25  1  0.98411000  0.30592600  0.35997400  1
  O  O26  1  0.41963900  0.74015300  0.23217700  1
  O  O27  1  0.91963900  0.25984700  0.76782300  1
  F  F28  1  0.58478400  0.25990200  0.26803700  1
  F  F29  1  0.08478400  0.74009800  0.73196300  1
