# generated using pymatgen
data_ErB4Mo
_symmetry_space_group_name_H-M   'P 1'
_cell_length_a   3.60612500
_cell_length_b   6.00747200
_cell_length_c   11.61753800
_cell_angle_alpha   90.00000000
_cell_angle_beta   90.00000000
_cell_angle_gamma   90.00000000
_symmetry_Int_Tables_number   1
_chemical_formula_structural   ErB4Mo
_chemical_formula_sum   'Er4 B16 Mo4'
_cell_volume   251.67879949
_cell_formula_units_Z   4
loop_
 _symmetry_equiv_pos_site_id
 _symmetry_equiv_pos_as_xyz
  1  'x, y, z'
loop_
 _atom_site_type_symbol
 _atom_site_label
 _atom_site_symmetry_multiplicity
 _atom_site_fract_x
 _atom_site_fract_y
 _atom_site_fract_z
 _atom_site_occupancy
  Er  Er0  1  0.00000000  0.62688700  0.35013200  1
  Er  Er1  1  0.00000000  0.37311300  0.64986800  1
  Er  Er2  1  0.00000000  0.12688700  0.14986800  1
  Er  Er3  1  0.00000000  0.87311300  0.85013200  1
  B  B4  1  0.50000000  0.78666800  0.18670600  1
  B  B5  1  0.50000000  0.21333200  0.81329400  1
  B  B6  1  0.50000000  0.28666800  0.31329400  1
  B  B7  1  0.50000000  0.71333200  0.68670600  1
  B  B8  1  0.50000000  0.86755500  0.03221300  1
  B  B9  1  0.50000000  0.13244500  0.96778700  1
  B  B10  1  0.50000000  0.36755500  0.46778700  1
  B  B11  1  0.50000000  0.63244500  0.53221300  1
  B  B12  1  0.50000000  0.88500900  0.45262300  1
  B  B13  1  0.50000000  0.11499100  0.54737700  1
  B  B14  1  0.50000000  0.38500900  0.04737700  1
  B  B15  1  0.50000000  0.61499100  0.95262300  1
  B  B16  1  0.50000000  0.97568100  0.30637900  1
  B  B17  1  0.50000000  0.02431900  0.69362100  1
  B  B18  1  0.50000000  0.47568100  0.19362100  1
  B  B19  1  0.50000000  0.52431900  0.80637900  1
  Mo  Mo20  1  0.00000000  0.62990400  0.08375200  1
  Mo  Mo21  1  0.00000000  0.37009600  0.91624800  1
  Mo  Mo22  1  0.00000000  0.12990400  0.41624800  1
  Mo  Mo23  1  0.00000000  0.87009600  0.58375200  1
