# generated using pymatgen
data_Eu3Ge5
_symmetry_space_group_name_H-M   'P 1'
_cell_length_a   6.27268956
_cell_length_b   6.27268956
_cell_length_c   9.80879200
_cell_angle_alpha   90.00000000
_cell_angle_beta   90.00000000
_cell_angle_gamma   101.65290384
_symmetry_Int_Tables_number   1
_chemical_formula_structural   Eu3Ge5
_chemical_formula_sum   'Eu6 Ge10'
_cell_volume   377.98834645
_cell_formula_units_Z   2
loop_
 _symmetry_equiv_pos_site_id
 _symmetry_equiv_pos_as_xyz
  1  'x, y, z'
loop_
 _atom_site_type_symbol
 _atom_site_label
 _atom_site_symmetry_multiplicity
 _atom_site_fract_x
 _atom_site_fract_y
 _atom_site_fract_z
 _atom_site_occupancy
  Eu  Eu0  1  0.20544300  0.79455700  0.50000000  1
  Eu  Eu1  1  0.20544300  0.79455700  0.00000000  1
  Eu  Eu2  1  0.79455700  0.20544300  0.50000000  1
  Eu  Eu3  1  0.79455700  0.20544300  0.00000000  1
  Eu  Eu4  1  0.65274500  0.65274500  0.25000000  1
  Eu  Eu5  1  0.34725500  0.34725500  0.75000000  1
  Ge  Ge6  1  0.48213900  0.09493200  0.25000000  1
  Ge  Ge7  1  0.90506800  0.51786100  0.75000000  1
  Ge  Ge8  1  0.51786100  0.90506800  0.75000000  1
  Ge  Ge9  1  0.09493200  0.48213900  0.25000000  1
  Ge  Ge10  1  0.30893900  0.30893900  0.44199200  1
  Ge  Ge11  1  0.69106100  0.69106100  0.55800800  1
  Ge  Ge12  1  0.30893900  0.30893900  0.05800800  1
  Ge  Ge13  1  0.69106100  0.69106100  0.94199200  1
  Ge  Ge14  1  0.05013300  0.05013300  0.25000000  1
  Ge  Ge15  1  0.94986700  0.94986700  0.75000000  1
