# generated using pymatgen
data_InH6(ClO)3
_symmetry_space_group_name_H-M   'P 1'
_cell_length_a   10.73935200
_cell_length_b   12.28096900
_cell_length_c   14.54789205
_cell_angle_alpha   54.51668297
_cell_angle_beta   90.00000000
_cell_angle_gamma   90.00000000
_symmetry_Int_Tables_number   1
_chemical_formula_structural   InH6(ClO)3
_chemical_formula_sum   'In8 H48 Cl24 O24'
_cell_volume   1562.38113628
_cell_formula_units_Z   8
loop_
 _symmetry_equiv_pos_site_id
 _symmetry_equiv_pos_as_xyz
  1  'x, y, z'
loop_
 _atom_site_type_symbol
 _atom_site_label
 _atom_site_symmetry_multiplicity
 _atom_site_fract_x
 _atom_site_fract_y
 _atom_site_fract_z
 _atom_site_occupancy
  In  In0  1  0.73683900  0.58603800  0.25870400  1
  In  In1  1  0.76316100  0.58603800  0.75870400  1
  In  In2  1  0.26316100  0.41396200  0.74129600  1
  In  In3  1  0.23683900  0.41396200  0.24129600  1
  In  In4  1  0.77018100  0.08072800  0.78982300  1
  In  In5  1  0.72981900  0.08072800  0.28982300  1
  In  In6  1  0.22981900  0.91927200  0.21017700  1
  In  In7  1  0.27018100  0.91927200  0.71017700  1
  H  H8  1  0.81596300  0.32141000  0.35539500  1
  H  H9  1  0.68403700  0.32141000  0.85539500  1
  H  H10  1  0.18403700  0.67859000  0.64460500  1
  H  H11  1  0.31596300  0.67859000  0.14460500  1
  H  H12  1  0.92332900  0.38991100  0.38266400  1
  H  H13  1  0.57667100  0.38991100  0.88266400  1
  H  H14  1  0.07667100  0.61008900  0.61733600  1
  H  H15  1  0.42332900  0.61008900  0.11733600  1
  H  H16  1  0.89784800  0.77008700  0.08140000  1
  H  H17  1  0.60215200  0.77008700  0.58140000  1
  H  H18  1  0.10215200  0.22991300  0.91860000  1
  H  H19  1  0.39784800  0.22991300  0.41860000  1
  H  H20  1  0.96831100  0.63294400  0.15132900  1
  H  H21  1  0.53168900  0.63294400  0.65132900  1
  H  H22  1  0.03168900  0.36705600  0.84867100  1
  H  H23  1  0.46831100  0.36705600  0.34867100  1
  H  H24  1  0.92574900  0.66981600  0.34866500  1
  H  H25  1  0.57425100  0.66981600  0.84866500  1
  H  H26  1  0.07425100  0.33018400  0.65133500  1
  H  H27  1  0.42574900  0.33018400  0.15133500  1
  H  H28  1  0.82249300  0.59836500  0.44496200  1
  H  H29  1  0.67750700  0.59836500  0.94496200  1
  H  H30  1  0.17750700  0.40163500  0.55503800  1
  H  H31  1  0.32249300  0.40163500  0.05503800  1
  H  H32  1  0.61348400  0.91367900  0.97759000  1
  H  H33  1  0.88651600  0.91367900  0.47759000  1
  H  H34  1  0.38651600  0.08632100  0.02241000  1
  H  H35  1  0.11348400  0.08632100  0.52241000  1
  H  H36  1  0.55081900  0.92065900  0.87467300  1
  H  H37  1  0.94918100  0.92065900  0.37467300  1
  H  H38  1  0.44918100  0.07934100  0.12532700  1
  H  H39  1  0.05081900  0.07934100  0.62532700  1
  H  H40  1  0.54092300  0.23038100  0.72441200  1
  H  H41  1  0.95907700  0.23038100  0.22441200  1
  H  H42  1  0.45907700  0.76961900  0.27558800  1
  H  H43  1  0.04092300  0.76961900  0.77558800  1
  H  H44  1  0.63012200  0.31889600  0.61689800  1
  H  H45  1  0.86987800  0.31889600  0.11689800  1
  H  H46  1  0.36987800  0.68110400  0.38310200  1
  H  H47  1  0.13012200  0.68110400  0.88310200  1
  H  H48  1  0.72957700  0.95889100  0.67236900  1
  H  H49  1  0.77042300  0.95889100  0.17236900  1
  H  H50  1  0.27042300  0.04110900  0.32763100  1
  H  H51  1  0.22957700  0.04110900  0.82763100  1
  H  H52  1  0.61039900  0.05191700  0.64443700  1
  H  H53  1  0.88960100  0.05191700  0.14443700  1
  H  H54  1  0.38960100  0.94808300  0.35556300  1
  H  H55  1  0.11039900  0.94808300  0.85556300  1
  Cl  Cl56  1  0.64983200  0.53981200  0.12764000  1
  Cl  Cl57  1  0.85016800  0.53981200  0.62764000  1
  Cl  Cl58  1  0.35016800  0.46018800  0.87236000  1
  Cl  Cl59  1  0.14983200  0.46018800  0.37236000  1
  Cl  Cl60  1  0.58813500  0.46067200  0.41570100  1
  Cl  Cl61  1  0.91186500  0.46067200  0.91570100  1
  Cl  Cl62  1  0.41186500  0.53932800  0.58429900  1
  Cl  Cl63  1  0.08813500  0.53932800  0.08429900  1
  Cl  Cl64  1  0.64196100  0.81479600  0.16147500  1
  Cl  Cl65  1  0.85803900  0.81479600  0.66147500  1
  Cl  Cl66  1  0.35803900  0.18520400  0.83852500  1
  Cl  Cl67  1  0.14196100  0.18520400  0.33852500  1
  Cl  Cl68  1  0.91227300  0.22125600  0.62783500  1
  Cl  Cl69  1  0.58772700  0.22125600  0.12783500  1
  Cl  Cl70  1  0.08772700  0.77874400  0.37216500  1
  Cl  Cl71  1  0.41227300  0.77874400  0.87216500  1
  Cl  Cl72  1  0.89672700  0.87376800  0.89183900  1
  Cl  Cl73  1  0.60327300  0.87376800  0.39183900  1
  Cl  Cl74  1  0.10327300  0.12623200  0.10816100  1
  Cl  Cl75  1  0.39672700  0.12623200  0.60816100  1
  Cl  Cl76  1  0.80686200  0.14897300  0.91591400  1
  Cl  Cl77  1  0.69313800  0.14897300  0.41591400  1
  Cl  Cl78  1  0.19313800  0.85102700  0.08408600  1
  Cl  Cl79  1  0.30686200  0.85102700  0.58408600  1
  O  O80  1  0.86101600  0.40615600  0.32654800  1
  O  O81  1  0.63898400  0.40615600  0.82654800  1
  O  O82  1  0.13898400  0.59384400  0.67345200  1
  O  O83  1  0.36101600  0.59384400  0.17345200  1
  O  O84  1  0.90999200  0.68942200  0.15920000  1
  O  O85  1  0.59000800  0.68942200  0.65920000  1
  O  O86  1  0.09000800  0.31057800  0.84080000  1
  O  O87  1  0.40999200  0.31057800  0.34080000  1
  O  O88  1  0.85155400  0.61232900  0.37465300  1
  O  O89  1  0.64844600  0.61232900  0.87465300  1
  O  O90  1  0.14844600  0.38767100  0.62534700  1
  O  O91  1  0.35155400  0.38767100  0.12534700  1
  O  O92  1  0.59958600  0.97184600  0.89501800  1
  O  O93  1  0.90041400  0.97184600  0.39501800  1
  O  O94  1  0.40041400  0.02815400  0.10498200  1
  O  O95  1  0.09958600  0.02815400  0.60498200  1
  O  O96  1  0.62755900  0.24519600  0.69734300  1
  O  O97  1  0.87244100  0.24519600  0.19734300  1
  O  O98  1  0.37244100  0.75480400  0.30265700  1
  O  O99  1  0.12755900  0.75480400  0.80265700  1
  O  O100  1  0.67611200  0.99900400  0.70039000  1
  O  O101  1  0.82388800  0.99900400  0.20039000  1
  O  O102  1  0.32388800  0.00099600  0.29961000  1
  O  O103  1  0.17611200  0.00099600  0.79961000  1
