# generated using pymatgen
data_Rb2LuCl5
_symmetry_space_group_name_H-M   'P 1'
_cell_length_a   7.34952900
_cell_length_b   9.46063500
_cell_length_c   14.88083500
_cell_angle_alpha   90.00000000
_cell_angle_beta   90.00000000
_cell_angle_gamma   90.00000000
_symmetry_Int_Tables_number   1
_chemical_formula_structural   Rb2LuCl5
_chemical_formula_sum   'Rb8 Lu4 Cl20'
_cell_volume   1034.68248257
_cell_formula_units_Z   4
loop_
 _symmetry_equiv_pos_site_id
 _symmetry_equiv_pos_as_xyz
  1  'x, y, z'
loop_
 _atom_site_type_symbol
 _atom_site_label
 _atom_site_symmetry_multiplicity
 _atom_site_fract_x
 _atom_site_fract_y
 _atom_site_fract_z
 _atom_site_occupancy
  Rb  Rb0  1  0.25000000  0.66382600  0.91706700  1
  Rb  Rb1  1  0.75000000  0.33617400  0.08293300  1
  Rb  Rb2  1  0.75000000  0.83617400  0.41706700  1
  Rb  Rb3  1  0.25000000  0.16382600  0.58293300  1
  Rb  Rb4  1  0.25000000  0.97624700  0.21198900  1
  Rb  Rb5  1  0.75000000  0.02375300  0.78801100  1
  Rb  Rb6  1  0.75000000  0.52375300  0.71198900  1
  Rb  Rb7  1  0.25000000  0.47624700  0.28801100  1
  Lu  Lu8  1  0.25000000  0.67887700  0.56512600  1
  Lu  Lu9  1  0.75000000  0.32112300  0.43487400  1
  Lu  Lu10  1  0.75000000  0.82112300  0.06512600  1
  Lu  Lu11  1  0.25000000  0.17887700  0.93487400  1
  Cl  Cl12  1  0.25000000  0.52048100  0.70349000  1
  Cl  Cl13  1  0.75000000  0.47951900  0.29651000  1
  Cl  Cl14  1  0.75000000  0.97951900  0.20349000  1
  Cl  Cl15  1  0.25000000  0.02048100  0.79651000  1
  Cl  Cl16  1  0.50580000  0.83449900  0.61823200  1
  Cl  Cl17  1  0.49420000  0.16550100  0.38176800  1
  Cl  Cl18  1  0.49420000  0.66550100  0.11823200  1
  Cl  Cl19  1  0.00580000  0.16550100  0.38176800  1
  Cl  Cl20  1  0.50580000  0.33449900  0.88176800  1
  Cl  Cl21  1  0.99420000  0.83449900  0.61823200  1
  Cl  Cl22  1  0.99420000  0.33449900  0.88176800  1
  Cl  Cl23  1  0.00580000  0.66550100  0.11823200  1
  Cl  Cl24  1  0.25000000  0.78758500  0.40392900  1
  Cl  Cl25  1  0.75000000  0.21241500  0.59607100  1
  Cl  Cl26  1  0.75000000  0.71241500  0.90392900  1
  Cl  Cl27  1  0.25000000  0.28758500  0.09607100  1
  Cl  Cl28  1  0.00000000  0.50000000  0.50000000  1
  Cl  Cl29  1  0.00000000  0.00000000  0.00000000  1
  Cl  Cl30  1  0.50000000  0.50000000  0.50000000  1
  Cl  Cl31  1  0.50000000  0.00000000  0.00000000  1
