# generated using pymatgen
data_Eu(DyS2)2
_symmetry_space_group_name_H-M   'P 1'
_cell_length_a   3.97083900
_cell_length_b   11.89585300
_cell_length_c   14.29208500
_cell_angle_alpha   90.00000000
_cell_angle_beta   90.00000000
_cell_angle_gamma   90.00000000
_symmetry_Int_Tables_number   1
_chemical_formula_structural   Eu(DyS2)2
_chemical_formula_sum   'Eu4 Dy8 S16'
_cell_volume   675.10831651
_cell_formula_units_Z   4
loop_
 _symmetry_equiv_pos_site_id
 _symmetry_equiv_pos_as_xyz
  1  'x, y, z'
loop_
 _atom_site_type_symbol
 _atom_site_label
 _atom_site_symmetry_multiplicity
 _atom_site_fract_x
 _atom_site_fract_y
 _atom_site_fract_z
 _atom_site_occupancy
  Eu  Eu0  1  0.25000000  0.75713400  0.33740900  1
  Eu  Eu1  1  0.25000000  0.25713400  0.16259100  1
  Eu  Eu2  1  0.75000000  0.24286600  0.66259100  1
  Eu  Eu3  1  0.75000000  0.74286600  0.83740900  1
  Dy  Dy4  1  0.25000000  0.43026700  0.39004400  1
  Dy  Dy5  1  0.25000000  0.93026700  0.10995600  1
  Dy  Dy6  1  0.75000000  0.56973300  0.60995600  1
  Dy  Dy7  1  0.75000000  0.06973300  0.89004400  1
  Dy  Dy8  1  0.25000000  0.41929500  0.89950900  1
  Dy  Dy9  1  0.25000000  0.91929500  0.60049100  1
  Dy  Dy10  1  0.75000000  0.58070500  0.10049100  1
  Dy  Dy11  1  0.75000000  0.08070500  0.39950900  1
  S  S12  1  0.25000000  0.20824400  0.82107100  1
  S  S13  1  0.25000000  0.70824400  0.67892900  1
  S  S14  1  0.75000000  0.79175600  0.17892900  1
  S  S15  1  0.75000000  0.29175600  0.32107100  1
  S  S16  1  0.25000000  0.13372800  0.52818400  1
  S  S17  1  0.25000000  0.63372800  0.97181600  1
  S  S18  1  0.75000000  0.86627200  0.47181600  1
  S  S19  1  0.75000000  0.36627200  0.02818400  1
  S  S20  1  0.25000000  0.02112300  0.28417500  1
  S  S21  1  0.25000000  0.52112300  0.21582500  1
  S  S22  1  0.75000000  0.97887700  0.71582500  1
  S  S23  1  0.75000000  0.47887700  0.78417500  1
  S  S24  1  0.25000000  0.41356900  0.58043400  1
  S  S25  1  0.25000000  0.91356900  0.91956600  1
  S  S26  1  0.75000000  0.58643100  0.41956600  1
  S  S27  1  0.75000000  0.08643100  0.08043400  1
