# generated using pymatgen
data_Cs2Re3Se4I3
_symmetry_space_group_name_H-M   'P 1'
_cell_length_a   10.37616831
_cell_length_b   11.99612512
_cell_length_c   29.89910774
_cell_angle_alpha   90.00000000
_cell_angle_beta   90.00000000
_cell_angle_gamma   106.32771558
_symmetry_Int_Tables_number   1
_chemical_formula_structural   Cs2Re3Se4I3
_chemical_formula_sum   'Cs16 Re24 Se32 I24'
_cell_volume   3571.55938542
_cell_formula_units_Z   8
loop_
 _symmetry_equiv_pos_site_id
 _symmetry_equiv_pos_as_xyz
  1  'x, y, z'
loop_
 _atom_site_type_symbol
 _atom_site_label
 _atom_site_symmetry_multiplicity
 _atom_site_fract_x
 _atom_site_fract_y
 _atom_site_fract_z
 _atom_site_occupancy
  Cs  Cs0  1  0.33430210  0.83328328  0.77012794  1
  Cs  Cs1  1  0.66569790  0.16671672  0.22987206  1
  Cs  Cs2  1  0.66569790  0.66671672  0.27012794  1
  Cs  Cs3  1  0.33430210  0.33328328  0.72987206  1
  Cs  Cs4  1  0.72771616  0.93350888  0.45623973  1
  Cs  Cs5  1  0.27228384  0.06649112  0.54376027  1
  Cs  Cs6  1  0.27228384  0.56649112  0.95623973  1
  Cs  Cs7  1  0.72771616  0.43350888  0.04376027  1
  Cs  Cs8  1  0.74542185  0.43275385  0.45720125  1
  Cs  Cs9  1  0.25457815  0.56724615  0.54279875  1
  Cs  Cs10  1  0.25457815  0.06724615  0.95720125  1
  Cs  Cs11  1  0.74542185  0.93275385  0.04279875  1
  Cs  Cs12  1  0.83775057  0.71076247  0.63697224  1
  Cs  Cs13  1  0.16224943  0.28923753  0.36302776  1
  Cs  Cs14  1  0.16224943  0.78923753  0.13697224  1
  Cs  Cs15  1  0.83775057  0.21076247  0.86302776  1
  Re  Re16  1  0.93066248  0.62288219  0.84753770  1
  Re  Re17  1  0.06933752  0.37711781  0.15246230  1
  Re  Re18  1  0.06933752  0.87711781  0.34753770  1
  Re  Re19  1  0.93066248  0.12288219  0.65246230  1
  Re  Re20  1  0.69638075  0.78818426  0.88903692  1
  Re  Re21  1  0.30361925  0.21181574  0.11096308  1
  Re  Re22  1  0.30361925  0.71181574  0.38903692  1
  Re  Re23  1  0.69638075  0.28818426  0.61096308  1
  Re  Re24  1  0.93393990  0.84496891  0.84870318  1
  Re  Re25  1  0.06606010  0.15503109  0.15129682  1
  Re  Re26  1  0.06606010  0.65503109  0.34870318  1
  Re  Re27  1  0.93393990  0.34496891  0.65129682  1
  Re  Re28  1  0.69339626  0.56579658  0.88765093  1
  Re  Re29  1  0.30660374  0.43420342  0.11234907  1
  Re  Re30  1  0.30660374  0.93420342  0.38765093  1
  Re  Re31  1  0.69339626  0.06579658  0.61234907  1
  Re  Re32  1  0.89863227  0.72364383  0.92421421  1
  Re  Re33  1  0.10136773  0.27635617  0.07578579  1
  Re  Re34  1  0.10136773  0.77635617  0.42421421  1
  Re  Re35  1  0.89863227  0.22364383  0.57578579  1
  Re  Re36  1  0.72681228  0.68705071  0.81250782  1
  Re  Re37  1  0.27318772  0.31294929  0.18749218  1
  Re  Re38  1  0.27318772  0.81294929  0.31250782  1
  Re  Re39  1  0.72681228  0.18705071  0.68749218  1
  Se  Se40  1  0.87584251  0.72240186  0.38339476  1
  Se  Se41  1  0.12415749  0.27759814  0.61660524  1
  Se  Se42  1  0.12415749  0.77759814  0.88339476  1
  Se  Se43  1  0.87584251  0.22240186  0.11660524  1
  Se  Se44  1  0.66677000  0.66762463  0.96092219  1
  Se  Se45  1  0.33323000  0.33237537  0.03907781  1
  Se  Se46  1  0.33323000  0.83237537  0.46092219  1
  Se  Se47  1  0.66677000  0.16762463  0.53907781  1
  Se  Se48  1  0.73462958  0.90088736  0.81543368  1
  Se  Se49  1  0.26537042  0.09911264  0.18456632  1
  Se  Se50  1  0.26537042  0.59911264  0.31543368  1
  Se  Se51  1  0.73462958  0.40088736  0.68456632  1
  Se  Se52  1  0.72913536  0.97597248  0.68689974  1
  Se  Se53  1  0.27086464  0.02402752  0.31310026  1
  Se  Se54  1  0.27086464  0.52402752  0.18689974  1
  Se  Se55  1  0.72913536  0.47597248  0.81310026  1
  Se  Se56  1  0.89236741  0.50995544  0.92125682  1
  Se  Se57  1  0.10763259  0.49004456  0.07874318  1
  Se  Se58  1  0.10763259  0.99004456  0.42125682  1
  Se  Se59  1  0.89236741  0.00995544  0.57874318  1
  Se  Se60  1  0.95716329  0.74195272  0.77565365  1
  Se  Se61  1  0.04283671  0.25804728  0.22434635  1
  Se  Se62  1  0.04283671  0.75804728  0.27565365  1
  Se  Se63  1  0.95716329  0.24195272  0.72434635  1
  Se  Se64  1  0.50293140  0.63364838  0.85374332  1
  Se  Se65  1  0.49706860  0.36635162  0.14625668  1
  Se  Se66  1  0.49706860  0.86635162  0.35374332  1
  Se  Se67  1  0.50293140  0.13364838  0.64625668  1
  Se  Se68  1  0.89784615  0.93623019  0.92324086  1
  Se  Se69  1  0.10215385  0.06376981  0.07675914  1
  Se  Se70  1  0.10215385  0.56376981  0.42324086  1
  Se  Se71  1  0.89784615  0.43623019  0.57675914  1
  I  I72  1  0.11190324  0.99678098  0.67891120  1
  I  I73  1  0.88809676  0.00321902  0.32108880  1
  I  I74  1  0.88809676  0.50321902  0.17891120  1
  I  I75  1  0.11190324  0.49678098  0.82108880  1
  I  I76  1  0.57729974  0.65326408  0.73105132  1
  I  I77  1  0.42270026  0.34673592  0.26894868  1
  I  I78  1  0.42270026  0.84673592  0.23105132  1
  I  I79  1  0.57729974  0.15326408  0.76894868  1
  I  I80  1  0.51732303  0.85103245  0.58429246  1
  I  I81  1  0.48267697  0.14896755  0.41570754  1
  I  I82  1  0.48267697  0.64896755  0.08429246  1
  I  I83  1  0.51732303  0.35103245  0.91570754  1
  I  I84  1  0.87598130  0.94180072  0.17525689  1
  I  I85  1  0.12401870  0.05819928  0.82474311  1
  I  I86  1  0.12401870  0.55819928  0.67525689  1
  I  I87  1  0.87598130  0.44180072  0.32474311  1
  I  I88  1  0.97300599  0.74802363  0.50932888  1
  I  I89  1  0.02699401  0.25197637  0.49067112  1
  I  I90  1  0.02699401  0.75197637  0.00932888  1
  I  I91  1  0.97300599  0.24802363  0.99067112  1
  I  I92  1  0.52653664  0.91831467  0.92230700  1
  I  I93  1  0.47346336  0.08168533  0.07769300  1
  I  I94  1  0.47346336  0.58168533  0.42230700  1
  I  I95  1  0.52653664  0.41831467  0.57769300  1
