# generated using pymatgen
data_Ca3Pd2
_symmetry_space_group_name_H-M   'P 1'
_cell_length_a   7.67030762
_cell_length_b   7.67030762
_cell_length_c   7.67030803
_cell_angle_alpha   71.95091489
_cell_angle_beta   71.95091489
_cell_angle_gamma   71.95091108
_symmetry_Int_Tables_number   1
_chemical_formula_structural   Ca3Pd2
_chemical_formula_sum   'Ca9 Pd6'
_cell_volume   396.37455879
_cell_formula_units_Z   3
loop_
 _symmetry_equiv_pos_site_id
 _symmetry_equiv_pos_as_xyz
  1  'x, y, z'
loop_
 _atom_site_type_symbol
 _atom_site_label
 _atom_site_symmetry_multiplicity
 _atom_site_fract_x
 _atom_site_fract_y
 _atom_site_fract_z
 _atom_site_occupancy
  Ca  Ca0  1  0.00000000  0.00000000  0.00000000  1
  Ca  Ca1  1  0.79443000  0.79443000  0.79443000  1
  Ca  Ca2  1  0.20557000  0.20557000  0.20557000  1
  Ca  Ca3  1  0.33196900  0.60747600  0.84019600  1
  Ca  Ca4  1  0.84019600  0.33196900  0.60747600  1
  Ca  Ca5  1  0.60747500  0.84019600  0.33196900  1
  Ca  Ca6  1  0.66803100  0.39252400  0.15980400  1
  Ca  Ca7  1  0.15980400  0.66803100  0.39252400  1
  Ca  Ca8  1  0.39252400  0.15980400  0.66803100  1
  Pd  Pd9  1  0.15329800  0.95774900  0.58866200  1
  Pd  Pd10  1  0.58866200  0.15329800  0.95774900  1
  Pd  Pd11  1  0.95774900  0.58866200  0.15329800  1
  Pd  Pd12  1  0.84670200  0.04225100  0.41133800  1
  Pd  Pd13  1  0.41133800  0.84670200  0.04225100  1
  Pd  Pd14  1  0.04225100  0.41133800  0.84670200  1
