# generated using pymatgen
data_Cs6Dy21Te34Cl
_symmetry_space_group_name_H-M   'P 1'
_cell_length_a   14.51289619
_cell_length_b   14.51289619
_cell_length_c   14.50279259
_cell_angle_alpha   65.79955937
_cell_angle_beta   65.79955937
_cell_angle_gamma   97.75967126
_symmetry_Int_Tables_number   1
_chemical_formula_structural   Cs6Dy21Te34Cl
_chemical_formula_sum   'Cs6 Dy21 Te34 Cl1'
_cell_volume   2366.71836565
_cell_formula_units_Z   1
loop_
 _symmetry_equiv_pos_site_id
 _symmetry_equiv_pos_as_xyz
  1  'x, y, z'
loop_
 _atom_site_type_symbol
 _atom_site_label
 _atom_site_symmetry_multiplicity
 _atom_site_fract_x
 _atom_site_fract_y
 _atom_site_fract_z
 _atom_site_occupancy
  Cs  Cs0  1  0.04227000  0.80513800  0.72333800  1
  Cs  Cs1  1  0.80513800  0.04227000  0.72333800  1
  Cs  Cs2  1  0.95773000  0.19486200  0.27666200  1
  Cs  Cs3  1  0.19486200  0.95773000  0.27666200  1
  Cs  Cs4  1  0.77981400  0.77981400  0.57477700  1
  Cs  Cs5  1  0.22018600  0.22018600  0.42522300  1
  Dy  Dy6  1  0.69959700  0.30040300  0.00000000  1
  Dy  Dy7  1  0.30040300  0.69959700  0.00000000  1
  Dy  Dy8  1  0.04622600  0.45798800  0.75067400  1
  Dy  Dy9  1  0.45798800  0.04622600  0.75067400  1
  Dy  Dy10  1  0.95377400  0.54201200  0.24932600  1
  Dy  Dy11  1  0.54201200  0.95377400  0.24932600  1
  Dy  Dy12  1  0.83002200  0.42763000  0.62257400  1
  Dy  Dy13  1  0.42763000  0.83002200  0.62257400  1
  Dy  Dy14  1  0.16997800  0.57237000  0.37742600  1
  Dy  Dy15  1  0.57237000  0.16997800  0.37742600  1
  Dy  Dy16  1  0.90174000  0.09826000  0.00000000  1
  Dy  Dy17  1  0.09826000  0.90174000  0.00000000  1
  Dy  Dy18  1  0.26625200  0.47043600  0.88925600  1
  Dy  Dy19  1  0.47043600  0.26625200  0.88925600  1
  Dy  Dy20  1  0.73374800  0.52956400  0.11074400  1
  Dy  Dy21  1  0.52956400  0.73374800  0.11074400  1
  Dy  Dy22  1  0.39903200  0.60096800  0.50000000  1
  Dy  Dy23  1  0.60096800  0.39903200  0.50000000  1
  Dy  Dy24  1  0.50000000  0.50000000  0.00000000  1
  Dy  Dy25  1  0.24469600  0.24469600  0.74762600  1
  Dy  Dy26  1  0.75530400  0.75530400  0.25237400  1
  Te  Te27  1  0.68772100  0.68772100  0.93363900  1
  Te  Te28  1  0.31227900  0.31227900  0.06636100  1
  Te  Te29  1  0.05900600  0.05900600  0.81304400  1
  Te  Te30  1  0.94099400  0.94099400  0.18695600  1
  Te  Te31  1  0.08804100  0.28851200  0.93259200  1
  Te  Te32  1  0.28851200  0.08804100  0.93259200  1
  Te  Te33  1  0.91195900  0.71148800  0.06740800  1
  Te  Te34  1  0.71148800  0.91195900  0.06740800  1
  Te  Te35  1  0.88616100  0.48591100  0.93733200  1
  Te  Te36  1  0.48591100  0.88616100  0.93733200  1
  Te  Te37  1  0.11383900  0.51408900  0.06266800  1
  Te  Te38  1  0.51408900  0.11383900  0.06266800  1
  Te  Te39  1  0.86572100  0.26565000  0.81206800  1
  Te  Te40  1  0.26565000  0.86572100  0.81206800  1
  Te  Te41  1  0.13427900  0.73435000  0.18793200  1
  Te  Te42  1  0.73435000  0.13427900  0.18793200  1
  Te  Te43  1  0.24143200  0.63706800  0.68919800  1
  Te  Te44  1  0.63706800  0.24143200  0.68919800  1
  Te  Te45  1  0.75856800  0.36293200  0.31080200  1
  Te  Te46  1  0.36293200  0.75856800  0.31080200  1
  Te  Te47  1  0.01305000  0.61623000  0.55861900  1
  Te  Te48  1  0.61623000  0.01305000  0.55861900  1
  Te  Te49  1  0.98695000  0.38377000  0.44138100  1
  Te  Te50  1  0.38377000  0.98695000  0.44138100  1
  Te  Te51  1  0.21209400  0.41589500  0.56250000  1
  Te  Te52  1  0.41589500  0.21209400  0.56250000  1
  Te  Te53  1  0.78790600  0.58410500  0.43750000  1
  Te  Te54  1  0.58410500  0.78790600  0.43750000  1
  Te  Te55  1  0.65814300  0.45940100  0.81258400  1
  Te  Te56  1  0.45940100  0.65814300  0.81258400  1
  Te  Te57  1  0.34185700  0.54059900  0.18741600  1
  Te  Te58  1  0.54059900  0.34185700  0.18741600  1
  Te  Te59  1  0.43167200  0.43167200  0.69090700  1
  Te  Te60  1  0.56832800  0.56832800  0.30909300  1
  Cl  Cl61  1  0.00000000  0.00000000  0.50000000  1
