# generated using pymatgen
data_Lu5Ge4
_symmetry_space_group_name_H-M   'P 1'
_cell_length_a   7.48612300
_cell_length_b   7.55310400
_cell_length_c   14.38676500
_cell_angle_alpha   90.00000000
_cell_angle_beta   90.00000000
_cell_angle_gamma   90.00000000
_symmetry_Int_Tables_number   1
_chemical_formula_structural   Lu5Ge4
_chemical_formula_sum   'Lu20 Ge16'
_cell_volume   813.47755152
_cell_formula_units_Z   4
loop_
 _symmetry_equiv_pos_site_id
 _symmetry_equiv_pos_as_xyz
  1  'x, y, z'
loop_
 _atom_site_type_symbol
 _atom_site_label
 _atom_site_symmetry_multiplicity
 _atom_site_fract_x
 _atom_site_fract_y
 _atom_site_fract_z
 _atom_site_occupancy
  Lu  Lu0  1  0.62020100  0.16145700  0.61810500  1
  Lu  Lu1  1  0.12020100  0.33854300  0.88189500  1
  Lu  Lu2  1  0.37979900  0.83854300  0.11810500  1
  Lu  Lu3  1  0.87979900  0.66145700  0.38189500  1
  Lu  Lu4  1  0.37979900  0.83854300  0.38189500  1
  Lu  Lu5  1  0.87979900  0.66145700  0.11810500  1
  Lu  Lu6  1  0.62020100  0.16145700  0.88189500  1
  Lu  Lu7  1  0.12020100  0.33854300  0.61810500  1
  Lu  Lu8  1  0.46961500  0.67619500  0.60014800  1
  Lu  Lu9  1  0.96961500  0.82380500  0.89985200  1
  Lu  Lu10  1  0.53038500  0.32380500  0.10014800  1
  Lu  Lu11  1  0.03038500  0.17619500  0.39985200  1
  Lu  Lu12  1  0.53038500  0.32380500  0.39985200  1
  Lu  Lu13  1  0.03038500  0.17619500  0.10014800  1
  Lu  Lu14  1  0.46961500  0.67619500  0.89985200  1
  Lu  Lu15  1  0.96961500  0.82380500  0.60014800  1
  Lu  Lu16  1  0.78476900  0.49856400  0.75000000  1
  Lu  Lu17  1  0.28476900  0.00143600  0.75000000  1
  Lu  Lu18  1  0.21523100  0.50143600  0.25000000  1
  Lu  Lu19  1  0.71523100  0.99856400  0.25000000  1
  Ge  Ge20  1  0.71943500  0.96781800  0.45617700  1
  Ge  Ge21  1  0.21943500  0.53218200  0.04382300  1
  Ge  Ge22  1  0.28056500  0.03218200  0.95617700  1
  Ge  Ge23  1  0.78056500  0.46781800  0.54382300  1
  Ge  Ge24  1  0.28056500  0.03218200  0.54382300  1
  Ge  Ge25  1  0.78056500  0.46781800  0.95617700  1
  Ge  Ge26  1  0.71943500  0.96781800  0.04382300  1
  Ge  Ge27  1  0.21943500  0.53218200  0.45617700  1
  Ge  Ge28  1  0.41721600  0.37969500  0.75000000  1
  Ge  Ge29  1  0.91721600  0.12030500  0.75000000  1
  Ge  Ge30  1  0.58278400  0.62030500  0.25000000  1
  Ge  Ge31  1  0.08278400  0.87969500  0.25000000  1
  Ge  Ge32  1  0.66076500  0.85906200  0.75000000  1
  Ge  Ge33  1  0.16076500  0.64093800  0.75000000  1
  Ge  Ge34  1  0.33923500  0.14093800  0.25000000  1
  Ge  Ge35  1  0.83923500  0.35906200  0.25000000  1
