# generated using pymatgen
data_PrAl2Ag
_symmetry_space_group_name_H-M   'P 1'
_cell_length_a   9.54831688
_cell_length_b   9.54831688
_cell_length_c   9.54831698
_cell_angle_alpha   34.73151004
_cell_angle_beta   34.73151004
_cell_angle_gamma   34.73151041
_symmetry_Int_Tables_number   1
_chemical_formula_structural   PrAl2Ag
_chemical_formula_sum   'Pr3 Al6 Ag3'
_cell_volume   252.18308333
_cell_formula_units_Z   3
loop_
 _symmetry_equiv_pos_site_id
 _symmetry_equiv_pos_as_xyz
  1  'x, y, z'
loop_
 _atom_site_type_symbol
 _atom_site_label
 _atom_site_symmetry_multiplicity
 _atom_site_fract_x
 _atom_site_fract_y
 _atom_site_fract_z
 _atom_site_occupancy
  Pr  Pr0  1  0.85913100  0.85913100  0.85913100  1
  Pr  Pr1  1  0.14086900  0.14086900  0.14086900  1
  Pr  Pr2  1  0.00000000  0.00000000  0.00000000  1
  Al  Al3  1  0.41473500  0.92256700  0.41473500  1
  Al  Al4  1  0.41473500  0.41473500  0.92256700  1
  Al  Al5  1  0.92256700  0.41473500  0.41473500  1
  Al  Al6  1  0.58526500  0.07743300  0.58526500  1
  Al  Al7  1  0.58526500  0.58526500  0.07743300  1
  Al  Al8  1  0.07743300  0.58526500  0.58526500  1
  Ag  Ag9  1  0.66503000  0.66503000  0.66503000  1
  Ag  Ag10  1  0.33497000  0.33497000  0.33497000  1
  Ag  Ag11  1  0.50000000  0.50000000  0.50000000  1
