# generated using pymatgen
data_Ho11Sn10
_symmetry_space_group_name_H-M   'P 1'
_cell_length_a   11.81960906
_cell_length_b   11.81960906
_cell_length_c   11.81960906
_cell_angle_alpha   121.12445282
_cell_angle_beta   121.12445282
_cell_angle_gamma   88.06318033
_symmetry_Int_Tables_number   1
_chemical_formula_structural   Ho11Sn10
_chemical_formula_sum   'Ho22 Sn20'
_cell_volume   1147.04445098
_cell_formula_units_Z   2
loop_
 _symmetry_equiv_pos_site_id
 _symmetry_equiv_pos_as_xyz
  1  'x, y, z'
loop_
 _atom_site_type_symbol
 _atom_site_label
 _atom_site_symmetry_multiplicity
 _atom_site_fract_x
 _atom_site_fract_y
 _atom_site_fract_z
 _atom_site_occupancy
  Ho  Ho0  1  0.81149000  0.06356600  0.25207600  1
  Ho  Ho1  1  0.81149000  0.55941400  0.74792400  1
  Ho  Ho2  1  0.06356600  0.81149000  0.25207600  1
  Ho  Ho3  1  0.55941400  0.81149000  0.74792400  1
  Ho  Ho4  1  0.18851000  0.93643400  0.74792400  1
  Ho  Ho5  1  0.18851000  0.44058600  0.25207600  1
  Ho  Ho6  1  0.93643400  0.18851000  0.74792400  1
  Ho  Ho7  1  0.44058600  0.18851000  0.25207600  1
  Ho  Ho8  1  0.17457000  0.17457000  0.34914000  1
  Ho  Ho9  1  0.82543000  0.82543000  0.65086000  1
  Ho  Ho10  1  0.17457000  0.82543000  0.00000000  1
  Ho  Ho11  1  0.82543000  0.17457000  0.00000000  1
  Ho  Ho12  1  0.66393600  0.66393600  0.00000000  1
  Ho  Ho13  1  0.33606400  0.33606400  0.00000000  1
  Ho  Ho14  1  0.60222400  0.93194200  0.32971800  1
  Ho  Ho15  1  0.60222400  0.27250500  0.67028200  1
  Ho  Ho16  1  0.93194200  0.60222400  0.32971800  1
  Ho  Ho17  1  0.27250500  0.60222400  0.67028200  1
  Ho  Ho18  1  0.39777600  0.06805800  0.67028200  1
  Ho  Ho19  1  0.39777600  0.72749500  0.32971800  1
  Ho  Ho20  1  0.06805800  0.39777600  0.67028200  1
  Ho  Ho21  1  0.72749500  0.39777600  0.32971800  1
  Sn  Sn22  1  0.35636600  0.00000000  0.35636600  1
  Sn  Sn23  1  0.64363400  0.00000000  0.64363400  1
  Sn  Sn24  1  0.00000000  0.64363400  0.64363400  1
  Sn  Sn25  1  0.00000000  0.35636600  0.35636600  1
  Sn  Sn26  1  0.88750300  0.88750300  0.00000000  1
  Sn  Sn27  1  0.11249700  0.11249700  0.00000000  1
  Sn  Sn28  1  0.37075600  0.37075600  0.74151200  1
  Sn  Sn29  1  0.62924400  0.62924400  0.25848800  1
  Sn  Sn30  1  0.37075600  0.62924400  0.00000000  1
  Sn  Sn31  1  0.62924400  0.37075600  0.00000000  1
  Sn  Sn32  1  0.75000000  0.25000000  0.50000000  1
  Sn  Sn33  1  0.25000000  0.75000000  0.50000000  1
  Sn  Sn34  1  0.88239100  0.88239100  0.41339100  1
  Sn  Sn35  1  0.46899900  0.46899900  0.58660900  1
  Sn  Sn36  1  0.88239100  0.46899900  0.00000000  1
  Sn  Sn37  1  0.46899900  0.88239100  0.00000000  1
  Sn  Sn38  1  0.11760900  0.11760900  0.58660900  1
  Sn  Sn39  1  0.53100100  0.53100100  0.41339100  1
  Sn  Sn40  1  0.11760900  0.53100100  0.00000000  1
  Sn  Sn41  1  0.53100100  0.11760900  0.00000000  1
