# generated using pymatgen
data_Zn3PBr3
_symmetry_space_group_name_H-M   'P 1'
_cell_length_a   4.06378200
_cell_length_b   6.70679700
_cell_length_c   7.07275924
_cell_angle_alpha   88.95061438
_cell_angle_beta   90.00000000
_cell_angle_gamma   90.00000000
_symmetry_Int_Tables_number   1
_chemical_formula_structural   Zn3PBr3
_chemical_formula_sum   'Zn3 P1 Br3'
_cell_volume   192.73544580
_cell_formula_units_Z   1
loop_
 _symmetry_equiv_pos_site_id
 _symmetry_equiv_pos_as_xyz
  1  'x, y, z'
loop_
 _atom_site_type_symbol
 _atom_site_label
 _atom_site_symmetry_multiplicity
 _atom_site_fract_x
 _atom_site_fract_y
 _atom_site_fract_z
 _atom_site_occupancy
  Zn  Zn0  1  0.00000000  0.47533000  0.70248300  1
  Zn  Zn1  1  0.50000000  0.49803800  0.12481700  1
  Zn  Zn2  1  0.50000000  0.02798300  0.84861400  1
  P  P3  1  0.50000000  0.37172400  0.82436400  1
  Br  Br4  1  0.00000000  0.87151900  0.67237900  1
  Br  Br5  1  0.50000000  0.86373600  0.16279100  1
  Br  Br6  1  0.00000000  0.38766900  0.33120300  1
