# generated using pymatgen
data_RbPrF4
_symmetry_space_group_name_H-M   'P 1'
_cell_length_a   3.84149600
_cell_length_b   6.49539600
_cell_length_c   16.34871000
_cell_angle_alpha   90.00000000
_cell_angle_beta   90.00000000
_cell_angle_gamma   90.00000000
_symmetry_Int_Tables_number   1
_chemical_formula_structural   RbPrF4
_chemical_formula_sum   'Rb4 Pr4 F16'
_cell_volume   407.93362912
_cell_formula_units_Z   4
loop_
 _symmetry_equiv_pos_site_id
 _symmetry_equiv_pos_as_xyz
  1  'x, y, z'
loop_
 _atom_site_type_symbol
 _atom_site_label
 _atom_site_symmetry_multiplicity
 _atom_site_fract_x
 _atom_site_fract_y
 _atom_site_fract_z
 _atom_site_occupancy
  Rb  Rb0  1  0.25000000  0.72572700  0.70017800  1
  Rb  Rb1  1  0.75000000  0.27427300  0.29982200  1
  Rb  Rb2  1  0.75000000  0.77427300  0.20017800  1
  Rb  Rb3  1  0.25000000  0.22572700  0.79982200  1
  Pr  Pr4  1  0.25000000  0.25126300  0.05854700  1
  Pr  Pr5  1  0.75000000  0.74873700  0.94145300  1
  Pr  Pr6  1  0.75000000  0.24873700  0.55854700  1
  Pr  Pr7  1  0.25000000  0.75126300  0.44145300  1
  F  F8  1  0.25000000  0.61292700  0.86983600  1
  F  F9  1  0.75000000  0.38707300  0.13016400  1
  F  F10  1  0.75000000  0.88707300  0.36983600  1
  F  F11  1  0.25000000  0.11292700  0.63016400  1
  F  F12  1  0.25000000  0.63050300  0.03456300  1
  F  F13  1  0.75000000  0.36949700  0.96543700  1
  F  F14  1  0.75000000  0.86949700  0.53456300  1
  F  F15  1  0.25000000  0.13050300  0.46543700  1
  F  F16  1  0.25000000  0.50019500  0.55467100  1
  F  F17  1  0.75000000  0.49980500  0.44532900  1
  F  F18  1  0.75000000  0.99980500  0.05467100  1
  F  F19  1  0.25000000  0.00019500  0.94532900  1
  F  F20  1  0.25000000  0.59671000  0.31291900  1
  F  F21  1  0.75000000  0.40329000  0.68708100  1
  F  F22  1  0.75000000  0.90329000  0.81291900  1
  F  F23  1  0.25000000  0.09671000  0.18708100  1
