# generated using pymatgen
data_Cs2La10Os2I17
_symmetry_space_group_name_H-M   'P 1'
_cell_length_a   11.94996687
_cell_length_b   11.94996687
_cell_length_c   10.16095915
_cell_angle_alpha   86.78989140
_cell_angle_beta   86.78989140
_cell_angle_gamma   107.78857003
_symmetry_Int_Tables_number   1
_chemical_formula_structural   Cs2La10Os2I17
_chemical_formula_sum   'Cs2 La10 Os2 I17'
_cell_volume   1375.37802448
_cell_formula_units_Z   1
loop_
 _symmetry_equiv_pos_site_id
 _symmetry_equiv_pos_as_xyz
  1  'x, y, z'
loop_
 _atom_site_type_symbol
 _atom_site_label
 _atom_site_symmetry_multiplicity
 _atom_site_fract_x
 _atom_site_fract_y
 _atom_site_fract_z
 _atom_site_occupancy
  Cs  Cs0  1  0.67441500  0.32558500  0.00000000  1
  Cs  Cs1  1  0.32558500  0.67441500  0.00000000  1
  La  La2  1  0.70741600  0.00731200  0.42670700  1
  La  La3  1  0.29258400  0.99268800  0.57329300  1
  La  La4  1  0.99268800  0.29258400  0.57329300  1
  La  La5  1  0.00731200  0.70741600  0.42670700  1
  La  La6  1  0.67028900  0.67028900  0.55600400  1
  La  La7  1  0.32971100  0.32971100  0.44399600  1
  La  La8  1  0.93613100  0.93613100  0.67969900  1
  La  La9  1  0.06386900  0.06386900  0.32030100  1
  La  La10  1  0.79316700  0.79316700  0.18289600  1
  La  La11  1  0.20683300  0.20683300  0.81710400  1
  Os  Os12  1  0.85740800  0.85740800  0.42922900  1
  Os  Os13  1  0.14259200  0.14259200  0.57077100  1
  I  I14  1  0.61474400  0.95020000  0.13797500  1
  I  I15  1  0.38525600  0.04980000  0.86202500  1
  I  I16  1  0.04980000  0.38525600  0.86202500  1
  I  I17  1  0.95020000  0.61474400  0.13797500  1
  I  I18  1  0.52847000  0.18996400  0.42027400  1
  I  I19  1  0.47153000  0.81003600  0.57972600  1
  I  I20  1  0.81003600  0.47153000  0.57972600  1
  I  I21  1  0.18996400  0.52847000  0.42027400  1
  I  I22  1  0.56224800  0.56224800  0.28053400  1
  I  I23  1  0.43775200  0.43775200  0.71946600  1
  I  I24  1  0.24817800  0.89951800  0.27309500  1
  I  I25  1  0.75182200  0.10048200  0.72690500  1
  I  I26  1  0.10048200  0.75182200  0.72690500  1
  I  I27  1  0.89951800  0.24817800  0.27309500  1
  I  I28  1  0.29015900  0.29015900  0.13057900  1
  I  I29  1  0.70984100  0.70984100  0.86942100  1
  I  I30  1  0.00000000  0.00000000  0.00000000  1
