# generated using pymatgen
data_In2Te5
_symmetry_space_group_name_H-M   'P 1'
_cell_length_a   8.91843910
_cell_length_b   8.91843910
_cell_length_c   42.48203866
_cell_angle_alpha   79.84262894
_cell_angle_beta   79.84262894
_cell_angle_gamma   28.42645560
_symmetry_Int_Tables_number   1
_chemical_formula_structural   In2Te5
_chemical_formula_sum   'In12 Te30'
_cell_volume   1581.64675813
_cell_formula_units_Z   6
loop_
 _symmetry_equiv_pos_site_id
 _symmetry_equiv_pos_as_xyz
  1  'x, y, z'
loop_
 _atom_site_type_symbol
 _atom_site_label
 _atom_site_symmetry_multiplicity
 _atom_site_fract_x
 _atom_site_fract_y
 _atom_site_fract_z
 _atom_site_occupancy
  In  In0  1  0.06364800  0.94766400  0.55627500  1
  In  In1  1  0.05233600  0.93635200  0.94372500  1
  In  In2  1  0.93635200  0.05233600  0.44372500  1
  In  In3  1  0.94766400  0.06364800  0.05627500  1
  In  In4  1  0.42052500  0.30782000  0.61090200  1
  In  In5  1  0.69218000  0.57947500  0.88909800  1
  In  In6  1  0.57947500  0.69218000  0.38909800  1
  In  In7  1  0.30782000  0.42052500  0.11090200  1
  In  In8  1  0.82493500  0.58139700  0.72192200  1
  In  In9  1  0.41860300  0.17506500  0.77807800  1
  In  In10  1  0.17506500  0.41860300  0.27807800  1
  In  In11  1  0.58139700  0.82493500  0.22192200  1
  Te  Te12  1  0.01474300  0.90502800  0.62574000  1
  Te  Te13  1  0.09497200  0.98525700  0.87426000  1
  Te  Te14  1  0.98525700  0.09497200  0.37426000  1
  Te  Te15  1  0.90502800  0.01474300  0.12574000  1
  Te  Te16  1  0.46607100  0.35508700  0.54111800  1
  Te  Te17  1  0.64491300  0.53392900  0.95888200  1
  Te  Te18  1  0.53392900  0.64491300  0.45888200  1
  Te  Te19  1  0.35508700  0.46607100  0.04111800  1
  Te  Te20  1  0.22919200  0.17439500  0.63051900  1
  Te  Te21  1  0.82560500  0.77080800  0.86948100  1
  Te  Te22  1  0.77080800  0.82560500  0.36948100  1
  Te  Te23  1  0.17439500  0.22919200  0.13051900  1
  Te  Te24  1  0.75470800  0.61504800  0.58119500  1
  Te  Te25  1  0.38495200  0.24529200  0.91880500  1
  Te  Te26  1  0.24529200  0.38495200  0.41880500  1
  Te  Te27  1  0.61504800  0.75470800  0.08119500  1
  Te  Te28  1  0.19347700  0.13885000  0.53245500  1
  Te  Te29  1  0.86115000  0.80652300  0.96754500  1
  Te  Te30  1  0.80652300  0.86115000  0.46754500  1
  Te  Te31  1  0.13885000  0.19347700  0.03245500  1
  Te  Te32  1  0.43086600  0.19378700  0.70828100  1
  Te  Te33  1  0.80621300  0.56913400  0.79171900  1
  Te  Te34  1  0.56913400  0.80621300  0.29171900  1
  Te  Te35  1  0.19378700  0.43086600  0.20828100  1
  Te  Te36  1  0.64233000  0.48053300  0.70049900  1
  Te  Te37  1  0.51946700  0.35767000  0.79950100  1
  Te  Te38  1  0.35767000  0.51946700  0.29950100  1
  Te  Te39  1  0.48053300  0.64233000  0.20049900  1
  Te  Te40  1  0.13352700  0.86647300  0.75000000  1
  Te  Te41  1  0.86647300  0.13352700  0.25000000  1
