# generated using pymatgen
data_Sc2InCu2
_symmetry_space_group_name_H-M   'P 1'
_cell_length_a   7.34055100
_cell_length_b   7.34055100
_cell_length_c   3.38432000
_cell_angle_alpha   90.00000000
_cell_angle_beta   90.00000000
_cell_angle_gamma   90.00000000
_symmetry_Int_Tables_number   1
_chemical_formula_structural   Sc2InCu2
_chemical_formula_sum   'Sc4 In2 Cu4'
_cell_volume   182.35964630
_cell_formula_units_Z   2
loop_
 _symmetry_equiv_pos_site_id
 _symmetry_equiv_pos_as_xyz
  1  'x, y, z'
loop_
 _atom_site_type_symbol
 _atom_site_label
 _atom_site_symmetry_multiplicity
 _atom_site_fract_x
 _atom_site_fract_y
 _atom_site_fract_z
 _atom_site_occupancy
  Sc  Sc0  1  0.16816500  0.33183500  0.00000000  1
  Sc  Sc1  1  0.83183500  0.66816500  0.00000000  1
  Sc  Sc2  1  0.66816500  0.16816500  0.00000000  1
  Sc  Sc3  1  0.33183500  0.83183500  0.00000000  1
  In  In4  1  0.00000000  0.00000000  0.50000000  1
  In  In5  1  0.50000000  0.50000000  0.50000000  1
  Cu  Cu6  1  0.37608600  0.12391400  0.50000000  1
  Cu  Cu7  1  0.62391400  0.87608600  0.50000000  1
  Cu  Cu8  1  0.87608600  0.37608600  0.50000000  1
  Cu  Cu9  1  0.12391400  0.62391400  0.50000000  1
