# generated using pymatgen
data_KV3O8
_symmetry_space_group_name_H-M   'P 1'
_cell_length_a   8.60335000
_cell_length_b   5.12065200
_cell_length_c   7.89042914
_cell_angle_alpha   81.26101141
_cell_angle_beta   90.00000000
_cell_angle_gamma   90.00000000
_symmetry_Int_Tables_number   1
_chemical_formula_structural   KV3O8
_chemical_formula_sum   'K2 V6 O16'
_cell_volume   343.57546256
_cell_formula_units_Z   2
loop_
 _symmetry_equiv_pos_site_id
 _symmetry_equiv_pos_as_xyz
  1  'x, y, z'
loop_
 _atom_site_type_symbol
 _atom_site_label
 _atom_site_symmetry_multiplicity
 _atom_site_fract_x
 _atom_site_fract_y
 _atom_site_fract_z
 _atom_site_occupancy
  K  K0  1  0.25000000  0.03331500  0.05933300  1
  K  K1  1  0.75000000  0.96668500  0.94066700  1
  V  V2  1  0.55502900  0.44708600  0.31627600  1
  V  V3  1  0.94497100  0.44708600  0.31627600  1
  V  V4  1  0.75000000  0.92608900  0.42611900  1
  V  V5  1  0.44497100  0.55291400  0.68372400  1
  V  V6  1  0.25000000  0.07391100  0.57388100  1
  V  V7  1  0.05502900  0.55291400  0.68372400  1
  O  O8  1  0.58822600  0.67793000  0.49423100  1
  O  O9  1  0.08822600  0.32207000  0.50576900  1
  O  O10  1  0.25000000  0.90329900  0.41561700  1
  O  O11  1  0.60144500  0.12271800  0.27416200  1
  O  O12  1  0.43687700  0.57867400  0.16546500  1
  O  O13  1  0.41177400  0.32207000  0.50576900  1
  O  O14  1  0.75000000  0.09670100  0.58438300  1
  O  O15  1  0.56312300  0.42132600  0.83453500  1
  O  O16  1  0.39855500  0.87728200  0.72583800  1
  O  O17  1  0.75000000  0.59304800  0.24221700  1
  O  O18  1  0.06312300  0.57867400  0.16546500  1
  O  O19  1  0.10144500  0.87728200  0.72583800  1
  O  O20  1  0.89855500  0.12271800  0.27416200  1
  O  O21  1  0.25000000  0.40695200  0.75778300  1
  O  O22  1  0.93687700  0.42132600  0.83453500  1
  O  O23  1  0.91177400  0.67793000  0.49423100  1
