# generated using pymatgen
data_Sr(CuO)2
_symmetry_space_group_name_H-M   'P 1'
_cell_length_a   6.28748970
_cell_length_b   6.28748970
_cell_length_c   6.28748970
_cell_angle_alpha   127.89824700
_cell_angle_beta   127.89824700
_cell_angle_gamma   76.78992193
_symmetry_Int_Tables_number   1
_chemical_formula_structural   Sr(CuO)2
_chemical_formula_sum   'Sr2 Cu4 O4'
_cell_volume   150.29060515
_cell_formula_units_Z   2
loop_
 _symmetry_equiv_pos_site_id
 _symmetry_equiv_pos_as_xyz
  1  'x, y, z'
loop_
 _atom_site_type_symbol
 _atom_site_label
 _atom_site_symmetry_multiplicity
 _atom_site_fract_x
 _atom_site_fract_y
 _atom_site_fract_z
 _atom_site_occupancy
  Sr  Sr0  1  0.25000000  0.75000000  0.50000000  1
  Sr  Sr1  1  0.50000000  0.50000000  0.00000000  1
  Cu  Cu2  1  0.87500000  0.62500000  0.75000000  1
  Cu  Cu3  1  0.87500000  0.12500000  0.75000000  1
  Cu  Cu4  1  0.87500000  0.12500000  0.25000000  1
  Cu  Cu5  1  0.37500000  0.12500000  0.25000000  1
  O  O6  1  0.25058600  0.25058600  0.00000000  1
  O  O7  1  0.00058600  0.50058600  0.50000000  1
  O  O8  1  0.49941400  0.99941400  0.50000000  1
  O  O9  1  0.74941400  0.74941400  0.00000000  1
