# generated using pymatgen
data_Ce2(ZnGe2)3
_symmetry_space_group_name_H-M   'P 1'
_cell_length_a   12.53333572
_cell_length_b   12.53333572
_cell_length_c   5.99453700
_cell_angle_alpha   90.00000000
_cell_angle_beta   90.00000000
_cell_angle_gamma   152.31473175
_symmetry_Int_Tables_number   1
_chemical_formula_structural   Ce2(ZnGe2)3
_chemical_formula_sum   'Ce4 Zn6 Ge12'
_cell_volume   437.50360772
_cell_formula_units_Z   2
loop_
 _symmetry_equiv_pos_site_id
 _symmetry_equiv_pos_as_xyz
  1  'x, y, z'
loop_
 _atom_site_type_symbol
 _atom_site_label
 _atom_site_symmetry_multiplicity
 _atom_site_fract_x
 _atom_site_fract_y
 _atom_site_fract_z
 _atom_site_occupancy
  Ce  Ce0  1  0.10656500  0.89343500  0.75000000  1
  Ce  Ce1  1  0.89343500  0.10656500  0.25000000  1
  Ce  Ce2  1  0.60568500  0.39431500  0.25000000  1
  Ce  Ce3  1  0.39431500  0.60568500  0.75000000  1
  Zn  Zn4  1  0.76898700  0.76898700  0.00000000  1
  Zn  Zn5  1  0.66051300  0.33948700  0.75000000  1
  Zn  Zn6  1  0.76898700  0.76898700  0.50000000  1
  Zn  Zn7  1  0.23101300  0.23101300  0.00000000  1
  Zn  Zn8  1  0.33948700  0.66051300  0.25000000  1
  Zn  Zn9  1  0.23101300  0.23101300  0.50000000  1
  Ge  Ge10  1  0.98358900  0.58378700  0.03387900  1
  Ge  Ge11  1  0.01641100  0.41621300  0.53387900  1
  Ge  Ge12  1  0.41621300  0.01641100  0.03387900  1
  Ge  Ge13  1  0.58378700  0.98358900  0.53387900  1
  Ge  Ge14  1  0.01641100  0.41621300  0.96612100  1
  Ge  Ge15  1  0.98358900  0.58378700  0.46612100  1
  Ge  Ge16  1  0.58378700  0.98358900  0.96612100  1
  Ge  Ge17  1  0.44255900  0.55744100  0.25000000  1
  Ge  Ge18  1  0.92778200  0.07221800  0.75000000  1
  Ge  Ge19  1  0.07221800  0.92778200  0.25000000  1
  Ge  Ge20  1  0.55744100  0.44255900  0.75000000  1
  Ge  Ge21  1  0.41621300  0.01641100  0.46612100  1
