# generated using pymatgen
data_BaSiPd
_symmetry_space_group_name_H-M   'P 1'
_cell_length_a   6.74981300
_cell_length_b   6.74981300
_cell_length_c   6.74981300
_cell_angle_alpha   90.00000000
_cell_angle_beta   90.00000000
_cell_angle_gamma   90.00000000
_symmetry_Int_Tables_number   1
_chemical_formula_structural   BaSiPd
_chemical_formula_sum   'Ba4 Si4 Pd4'
_cell_volume   307.52131515
_cell_formula_units_Z   4
loop_
 _symmetry_equiv_pos_site_id
 _symmetry_equiv_pos_as_xyz
  1  'x, y, z'
loop_
 _atom_site_type_symbol
 _atom_site_label
 _atom_site_symmetry_multiplicity
 _atom_site_fract_x
 _atom_site_fract_y
 _atom_site_fract_z
 _atom_site_occupancy
  Ba  Ba0  1  0.36760400  0.86760400  0.63239600  1
  Ba  Ba1  1  0.86760400  0.63239600  0.36760400  1
  Ba  Ba2  1  0.63239600  0.36760400  0.86760400  1
  Ba  Ba3  1  0.13239600  0.13239600  0.13239600  1
  Si  Si4  1  0.65622000  0.15622000  0.34378000  1
  Si  Si5  1  0.15622000  0.34378000  0.65622000  1
  Si  Si6  1  0.34378000  0.65622000  0.15622000  1
  Si  Si7  1  0.84378000  0.84378000  0.84378000  1
  Pd  Pd8  1  0.09453300  0.59453300  0.90546700  1
  Pd  Pd9  1  0.59453300  0.90546700  0.09453300  1
  Pd  Pd10  1  0.90546700  0.09453300  0.59453300  1
  Pd  Pd11  1  0.40546700  0.40546700  0.40546700  1
