# generated using pymatgen
data_Rb2NaMn3F12
_symmetry_space_group_name_H-M   'P 1'
_cell_length_a   7.28928500
_cell_length_b   7.65951658
_cell_length_c   10.36300464
_cell_angle_alpha   89.87657229
_cell_angle_beta   86.65216816
_cell_angle_gamma   89.51309140
_symmetry_Int_Tables_number   1
_chemical_formula_structural   Rb2NaMn3F12
_chemical_formula_sum   'Rb4 Na2 Mn6 F24'
_cell_volume   577.58234292
_cell_formula_units_Z   2
loop_
 _symmetry_equiv_pos_site_id
 _symmetry_equiv_pos_as_xyz
  1  'x, y, z'
loop_
 _atom_site_type_symbol
 _atom_site_label
 _atom_site_symmetry_multiplicity
 _atom_site_fract_x
 _atom_site_fract_y
 _atom_site_fract_z
 _atom_site_occupancy
  Rb  Rb0  1  0.51789000  0.74881800  0.60646600  1
  Rb  Rb1  1  0.48211000  0.25118200  0.39353400  1
  Rb  Rb2  1  0.02680300  0.26258600  0.13868900  1
  Rb  Rb3  1  0.97319700  0.73741400  0.86131100  1
  Na  Na4  1  0.70779200  0.23834700  0.74606200  1
  Na  Na5  1  0.29220800  0.76165300  0.25393800  1
  Mn  Mn6  1  0.81137300  0.74806900  0.21635600  1
  Mn  Mn7  1  0.18862700  0.25193100  0.78364400  1
  Mn  Mn8  1  0.00000000  0.50000000  0.50000000  1
  Mn  Mn9  1  0.00000000  0.00000000  0.50000000  1
  Mn  Mn10  1  0.50000000  0.00000000  0.00000000  1
  Mn  Mn11  1  0.50000000  0.50000000  0.00000000  1
  F  F12  1  0.03984600  0.72928400  0.12715400  1
  F  F13  1  0.96015400  0.27071600  0.87284600  1
  F  F14  1  0.59057200  0.76798200  0.31458800  1
  F  F15  1  0.40942800  0.23201800  0.68541200  1
  F  F16  1  0.76744000  0.43361600  0.56674400  1
  F  F17  1  0.23256000  0.56638400  0.43325600  1
  F  F18  1  0.75296300  0.04925300  0.54604000  1
  F  F19  1  0.24703700  0.95074700  0.45396000  1
  F  F20  1  0.63165600  0.95275100  0.84272900  1
  F  F21  1  0.36834400  0.04724900  0.15727100  1
  F  F22  1  0.62084400  0.53345700  0.83785900  1
  F  F23  1  0.37915600  0.46654300  0.16214100  1
  F  F24  1  0.58552500  0.23324400  0.98738800  1
  F  F25  1  0.41447500  0.76675600  0.01261200  1
  F  F26  1  0.27792200  0.44478600  0.91869100  1
  F  F27  1  0.72207800  0.55521400  0.08130900  1
  F  F28  1  0.25530300  0.06756200  0.89777200  1
  F  F29  1  0.74469700  0.93243800  0.10222800  1
  F  F30  1  0.05864100  0.05353700  0.67223000  1
  F  F31  1  0.94135900  0.94646300  0.32777000  1
  F  F32  1  0.94907600  0.73269900  0.56391900  1
  F  F33  1  0.05092400  0.26730100  0.43608100  1
  F  F34  1  0.11912900  0.44581500  0.67910200  1
  F  F35  1  0.88087100  0.55418500  0.32089800  1
