# generated using pymatgen
data_Sm3AuO6
_symmetry_space_group_name_H-M   'P 1'
_cell_length_a   3.74591200
_cell_length_b   5.67705800
_cell_length_c   7.17281835
_cell_angle_alpha   90.59167503
_cell_angle_beta   102.67001737
_cell_angle_gamma   91.12226833
_symmetry_Int_Tables_number   1
_chemical_formula_structural   Sm3AuO6
_chemical_formula_sum   'Sm3 Au1 O6'
_cell_volume   148.77584450
_cell_formula_units_Z   1
loop_
 _symmetry_equiv_pos_site_id
 _symmetry_equiv_pos_as_xyz
  1  'x, y, z'
loop_
 _atom_site_type_symbol
 _atom_site_label
 _atom_site_symmetry_multiplicity
 _atom_site_fract_x
 _atom_site_fract_y
 _atom_site_fract_z
 _atom_site_occupancy
  Sm  Sm0  1  0.60916300  0.52915300  0.76508400  1
  Sm  Sm1  1  0.39083700  0.47084700  0.23491600  1
  Sm  Sm2  1  0.00000000  0.00000000  0.50000000  1
  Au  Au3  1  0.00000000  0.00000000  0.00000000  1
  O  O4  1  0.84463800  0.69460700  0.11458100  1
  O  O5  1  0.15536200  0.30539300  0.88541900  1
  O  O6  1  0.51770900  0.25602300  0.52230500  1
  O  O7  1  0.48229100  0.74397700  0.47769500  1
  O  O8  1  0.12514600  0.79342900  0.79167000  1
  O  O9  1  0.87485400  0.20657100  0.20833000  1
