# generated using pymatgen
data_Cs2Zr(AgTe2)2
_symmetry_space_group_name_H-M   'P 1'
_cell_length_a   8.47574878
_cell_length_b   8.47574878
_cell_length_c   6.66419400
_cell_angle_alpha   90.00000000
_cell_angle_beta   90.00000000
_cell_angle_gamma   133.58743284
_symmetry_Int_Tables_number   1
_chemical_formula_structural   Cs2Zr(AgTe2)2
_chemical_formula_sum   'Cs2 Zr1 Ag2 Te4'
_cell_volume   346.76569010
_cell_formula_units_Z   1
loop_
 _symmetry_equiv_pos_site_id
 _symmetry_equiv_pos_as_xyz
  1  'x, y, z'
loop_
 _atom_site_type_symbol
 _atom_site_label
 _atom_site_symmetry_multiplicity
 _atom_site_fract_x
 _atom_site_fract_y
 _atom_site_fract_z
 _atom_site_occupancy
  Cs  Cs0  1  0.50000000  0.00000000  0.25886800  1
  Cs  Cs1  1  0.00000000  0.50000000  0.74113200  1
  Zr  Zr2  1  0.00000000  0.00000000  0.00000000  1
  Ag  Ag3  1  0.00000000  0.00000000  0.50000000  1
  Ag  Ag4  1  0.50000000  0.50000000  0.00000000  1
  Te  Te5  1  0.86476900  0.65691200  0.23846800  1
  Te  Te6  1  0.13523100  0.34308800  0.23846800  1
  Te  Te7  1  0.65691200  0.86476900  0.76153200  1
  Te  Te8  1  0.34308800  0.13523100  0.76153200  1
