# generated using pymatgen
data_ErH3
_symmetry_space_group_name_H-M   'P 1'
_cell_length_a   6.24443892
_cell_length_b   6.24443892
_cell_length_c   6.53921900
_cell_angle_alpha   90.00000000
_cell_angle_beta   90.00000000
_cell_angle_gamma   120.00000972
_symmetry_Int_Tables_number   1
_chemical_formula_structural   ErH3
_chemical_formula_sum   'Er6 H18'
_cell_volume   220.82249620
_cell_formula_units_Z   6
loop_
 _symmetry_equiv_pos_site_id
 _symmetry_equiv_pos_as_xyz
  1  'x, y, z'
loop_
 _atom_site_type_symbol
 _atom_site_label
 _atom_site_symmetry_multiplicity
 _atom_site_fract_x
 _atom_site_fract_y
 _atom_site_fract_z
 _atom_site_occupancy
  Er  Er0  1  0.66256600  0.00000000  0.75000000  1
  Er  Er1  1  0.33743400  0.33743400  0.75000000  1
  Er  Er2  1  0.00000000  0.66256600  0.75000000  1
  Er  Er3  1  0.66256600  0.66256600  0.25000000  1
  Er  Er4  1  0.00000000  0.33743400  0.25000000  1
  Er  Er5  1  0.33743400  0.00000000  0.25000000  1
  H  H6  1  0.32164100  0.97057600  0.90810800  1
  H  H7  1  0.64893500  0.67835900  0.90810800  1
  H  H8  1  0.02942400  0.35106500  0.90810800  1
  H  H9  1  0.32164100  0.35106500  0.40810800  1
  H  H10  1  0.02942400  0.67835900  0.40810800  1
  H  H11  1  0.64893500  0.97057600  0.40810800  1
  H  H12  1  0.67835900  0.02942400  0.09189200  1
  H  H13  1  0.35106500  0.32164100  0.09189200  1
  H  H14  1  0.97057600  0.64893500  0.09189200  1
  H  H15  1  0.67835900  0.64893500  0.59189200  1
  H  H16  1  0.97057600  0.32164100  0.59189200  1
  H  H17  1  0.35106500  0.02942400  0.59189200  1
  H  H18  1  0.66666700  0.33333300  0.81491600  1
  H  H19  1  0.66666700  0.33333300  0.31491600  1
  H  H20  1  0.33333300  0.66666700  0.18508400  1
  H  H21  1  0.33333300  0.66666700  0.68508400  1
  H  H22  1  0.00000000  0.00000000  0.75000000  1
  H  H23  1  0.00000000  0.00000000  0.25000000  1
