# generated using pymatgen
data_Zr2Te4Br2O11
_symmetry_space_group_name_H-M   'P 1'
_cell_length_a   7.96533500
_cell_length_b   9.89598575
_cell_length_c   10.82668548
_cell_angle_alpha   113.09791989
_cell_angle_beta   107.38993119
_cell_angle_gamma   98.44462520
_symmetry_Int_Tables_number   1
_chemical_formula_structural   Zr2Te4Br2O11
_chemical_formula_sum   'Zr4 Te8 Br4 O22'
_cell_volume   714.40804197
_cell_formula_units_Z   2
loop_
 _symmetry_equiv_pos_site_id
 _symmetry_equiv_pos_as_xyz
  1  'x, y, z'
loop_
 _atom_site_type_symbol
 _atom_site_label
 _atom_site_symmetry_multiplicity
 _atom_site_fract_x
 _atom_site_fract_y
 _atom_site_fract_z
 _atom_site_occupancy
  Zr  Zr0  1  0.88798800  0.11123000  0.61924200  1
  Zr  Zr1  1  0.11201200  0.88877000  0.38075800  1
  Zr  Zr2  1  0.62408500  0.38961100  0.89213200  1
  Zr  Zr3  1  0.37591500  0.61038900  0.10786800  1
  Te  Te4  1  0.25474500  0.01065000  0.78613800  1
  Te  Te5  1  0.74525500  0.98935000  0.21386200  1
  Te  Te6  1  0.48520000  0.25984400  0.47996000  1
  Te  Te7  1  0.51480000  0.74015600  0.52004000  1
  Te  Te8  1  0.78111700  0.48168100  0.25633100  1
  Te  Te9  1  0.21888300  0.51831900  0.74366900  1
  Te  Te10  1  0.98607400  0.24050100  0.99199700  1
  Te  Te11  1  0.01392600  0.75949900  0.00800300  1
  Br  Br12  1  0.09841900  0.37441200  0.36507000  1
  Br  Br13  1  0.90158100  0.62558800  0.63493000  1
  Br  Br14  1  0.63350100  0.88593000  0.89180800  1
  Br  Br15  1  0.36649900  0.11407000  0.10819200  1
  O  O16  1  0.51357800  0.35976100  0.67713300  1
  O  O17  1  0.48642200  0.64023900  0.32286700  1
  O  O18  1  0.68202000  0.17364200  0.49764500  1
  O  O19  1  0.31798000  0.82635800  0.50235500  1
  O  O20  1  0.06789500  0.11181300  0.82548700  1
  O  O21  1  0.93210500  0.88818700  0.17451300  1
  O  O22  1  0.58467300  0.49232700  0.10424700  1
  O  O23  1  0.41532700  0.50767300  0.89575300  1
  O  O24  1  0.81847600  0.36493600  0.07663300  1
  O  O25  1  0.18152400  0.63506400  0.92336700  1
  O  O26  1  0.81707200  0.24402100  0.82122300  1
  O  O27  1  0.18292800  0.75597900  0.17877700  1
  O  O28  1  0.10550500  0.99053800  0.59652300  1
  O  O29  1  0.89449500  0.00946200  0.40347700  1
  O  O30  1  0.93069500  0.67657800  0.31837100  1
  O  O31  1  0.06930500  0.32342200  0.68162900  1
  O  O32  1  0.70540100  0.91729300  0.58061700  1
  O  O33  1  0.29459900  0.08270700  0.41938300  1
  O  O34  1  0.17269100  0.41849600  0.05282900  1
  O  O35  1  0.82730900  0.58150400  0.94717100  1
  O  O36  1  0.44172600  0.17946700  0.83189400  1
  O  O37  1  0.55827400  0.82053300  0.16810600  1
