# generated using pymatgen
data_Cs3Sc2Br9
_symmetry_space_group_name_H-M   'P 1'
_cell_length_a   7.93736908
_cell_length_b   7.93736908
_cell_length_c   20.01865900
_cell_angle_alpha   90.00000000
_cell_angle_beta   90.00000000
_cell_angle_gamma   119.99999235
_symmetry_Int_Tables_number   1
_chemical_formula_structural   Cs3Sc2Br9
_chemical_formula_sum   'Cs6 Sc4 Br18'
_cell_volume   1092.24181115
_cell_formula_units_Z   2
loop_
 _symmetry_equiv_pos_site_id
 _symmetry_equiv_pos_as_xyz
  1  'x, y, z'
loop_
 _atom_site_type_symbol
 _atom_site_label
 _atom_site_symmetry_multiplicity
 _atom_site_fract_x
 _atom_site_fract_y
 _atom_site_fract_z
 _atom_site_occupancy
  Cs  Cs0  1  0.33333300  0.66666700  0.07223900  1
  Cs  Cs1  1  0.66666700  0.33333300  0.92776100  1
  Cs  Cs2  1  0.66666700  0.33333300  0.57223900  1
  Cs  Cs3  1  0.33333300  0.66666700  0.42776100  1
  Cs  Cs4  1  0.00000000  0.00000000  0.25000000  1
  Cs  Cs5  1  0.00000000  0.00000000  0.75000000  1
  Sc  Sc6  1  0.33333300  0.66666700  0.65817700  1
  Sc  Sc7  1  0.66666700  0.33333300  0.34182300  1
  Sc  Sc8  1  0.66666700  0.33333300  0.15817700  1
  Sc  Sc9  1  0.33333300  0.66666700  0.84182300  1
  Br  Br10  1  0.17319100  0.34638200  0.59240400  1
  Br  Br11  1  0.82680900  0.65361800  0.40759600  1
  Br  Br12  1  0.65361800  0.82680900  0.59240400  1
  Br  Br13  1  0.82680900  0.65361800  0.09240400  1
  Br  Br14  1  0.34638200  0.17319100  0.40759600  1
  Br  Br15  1  0.17319100  0.34638200  0.90759600  1
  Br  Br16  1  0.17319100  0.82680900  0.59240400  1
  Br  Br17  1  0.34638200  0.17319100  0.09240400  1
  Br  Br18  1  0.82680900  0.17319100  0.40759600  1
  Br  Br19  1  0.65361800  0.82680900  0.90759600  1
  Br  Br20  1  0.82680900  0.17319100  0.09240400  1
  Br  Br21  1  0.17319100  0.82680900  0.90759600  1
  Br  Br22  1  0.51464100  0.02928200  0.25000000  1
  Br  Br23  1  0.48535900  0.97071800  0.75000000  1
  Br  Br24  1  0.97071800  0.48535900  0.25000000  1
  Br  Br25  1  0.02928200  0.51464100  0.75000000  1
  Br  Br26  1  0.51464100  0.48535900  0.25000000  1
  Br  Br27  1  0.48535900  0.51464100  0.75000000  1
