# generated using pymatgen
data_Cs4(BS)9
_symmetry_space_group_name_H-M   'P 1'
_cell_length_a   10.63143700
_cell_length_b   10.73054080
_cell_length_c   11.16221225
_cell_angle_alpha   93.10213264
_cell_angle_beta   103.04740937
_cell_angle_gamma   110.23040503
_symmetry_Int_Tables_number   1
_chemical_formula_structural   Cs4(BS)9
_chemical_formula_sum   'Cs8 B18 S18'
_cell_volume   1151.75998196
_cell_formula_units_Z   2
loop_
 _symmetry_equiv_pos_site_id
 _symmetry_equiv_pos_as_xyz
  1  'x, y, z'
loop_
 _atom_site_type_symbol
 _atom_site_label
 _atom_site_symmetry_multiplicity
 _atom_site_fract_x
 _atom_site_fract_y
 _atom_site_fract_z
 _atom_site_occupancy
  Cs  Cs0  1  0.65112000  0.01006900  0.37881300  1
  Cs  Cs1  1  0.34888000  0.98993100  0.62118700  1
  Cs  Cs2  1  0.61312600  0.36882200  0.12835400  1
  Cs  Cs3  1  0.38687400  0.63117800  0.87164600  1
  Cs  Cs4  1  0.75398300  0.62216500  0.47036900  1
  Cs  Cs5  1  0.24601700  0.37783500  0.52963100  1
  Cs  Cs6  1  0.81790800  0.38000500  0.75692600  1
  Cs  Cs7  1  0.18209200  0.61999500  0.24307400  1
  B  B8  1  0.12770400  0.13964600  0.08439800  1
  B  B9  1  0.87229600  0.86035400  0.91560200  1
  B  B10  1  0.11973500  0.97830200  0.11986300  1
  B  B11  1  0.88026500  0.02169800  0.88013700  1
  B  B12  1  0.16003800  0.03212700  0.97957800  1
  B  B13  1  0.83996200  0.96787300  0.02042200  1
  B  B14  1  0.06122200  0.12984100  0.92038800  1
  B  B15  1  0.93877800  0.87015900  0.07961200  1
  B  B16  1  0.95542700  0.13596000  0.02410300  1
  B  B17  1  0.04457300  0.86404000  0.97589700  1
  B  B18  1  0.99124100  0.04157500  0.14435000  1
  B  B19  1  0.00875900  0.95842500  0.85565000  1
  B  B20  1  0.34813500  0.17675200  0.29663900  1
  B  B21  1  0.65186500  0.82324800  0.70336100  1
  B  B22  1  0.31846600  0.22658500  0.85841100  1
  B  B23  1  0.68153400  0.77341500  0.14158900  1
  B  B24  1  0.93010100  0.25218900  0.24832100  1
  B  B25  1  0.06989900  0.74781100  0.75167900  1
  S  S26  1  0.27543400  0.27767000  0.19369500  1
  S  S27  1  0.72456600  0.72233000  0.80630500  1
  S  S28  1  0.26358400  0.99108700  0.25780300  1
  S  S29  1  0.73641600  0.00891300  0.74219700  1
  S  S30  1  0.33122300  0.08663600  0.94230400  1
  S  S31  1  0.66877700  0.91336400  0.05769600  1
  S  S32  1  0.15655600  0.26222200  0.83744100  1
  S  S33  1  0.84344400  0.73777800  0.16255900  1
  S  S34  1  0.91387600  0.27936200  0.08287300  1
  S  S35  1  0.08612400  0.72063800  0.91712700  1
  S  S36  1  0.97550500  0.10813800  0.29539800  1
  S  S37  1  0.02449500  0.89186200  0.70460200  1
  S  S38  1  0.49447600  0.25373800  0.42681200  1
  S  S39  1  0.50552400  0.74626200  0.57318800  1
  S  S40  1  0.45753000  0.32570300  0.79983600  1
  S  S41  1  0.54247000  0.67429700  0.20016400  1
  S  S42  1  0.90682800  0.36261500  0.35833000  1
  S  S43  1  0.09317200  0.63738500  0.64167000  1
