# generated using pymatgen
data_EuSnP
_symmetry_space_group_name_H-M   'P 1'
_cell_length_a   4.26987300
_cell_length_b   4.26987300
_cell_length_c   8.73492400
_cell_angle_alpha   90.00000000
_cell_angle_beta   90.00000000
_cell_angle_gamma   90.00000000
_symmetry_Int_Tables_number   1
_chemical_formula_structural   EuSnP
_chemical_formula_sum   'Eu2 Sn2 P2'
_cell_volume   159.25352222
_cell_formula_units_Z   2
loop_
 _symmetry_equiv_pos_site_id
 _symmetry_equiv_pos_as_xyz
  1  'x, y, z'
loop_
 _atom_site_type_symbol
 _atom_site_label
 _atom_site_symmetry_multiplicity
 _atom_site_fract_x
 _atom_site_fract_y
 _atom_site_fract_z
 _atom_site_occupancy
  Eu  Eu0  1  0.00000000  0.50000000  0.16851300  1
  Eu  Eu1  1  0.50000000  0.00000000  0.83148700  1
  Sn  Sn2  1  0.50000000  0.00000000  0.45038600  1
  Sn  Sn3  1  0.00000000  0.50000000  0.54961400  1
  P  P4  1  0.00000000  0.50000000  0.83634700  1
  P  P5  1  0.50000000  0.00000000  0.16365300  1
