# generated using pymatgen
data_KAlBr4
_symmetry_space_group_name_H-M   'P 1'
_cell_length_a   7.63665300
_cell_length_b   9.12030000
_cell_length_c   13.42252754
_cell_angle_alpha   74.44086103
_cell_angle_beta   90.00000000
_cell_angle_gamma   90.00000000
_symmetry_Int_Tables_number   1
_chemical_formula_structural   KAlBr4
_chemical_formula_sum   'K4 Al4 Br16'
_cell_volume   900.60102560
_cell_formula_units_Z   4
loop_
 _symmetry_equiv_pos_site_id
 _symmetry_equiv_pos_as_xyz
  1  'x, y, z'
loop_
 _atom_site_type_symbol
 _atom_site_label
 _atom_site_symmetry_multiplicity
 _atom_site_fract_x
 _atom_site_fract_y
 _atom_site_fract_z
 _atom_site_occupancy
  K  K0  1  0.89359600  0.00000000  0.75000000  1
  K  K1  1  0.10640400  0.00000000  0.25000000  1
  K  K2  1  0.35713100  0.50000000  0.75000000  1
  K  K3  1  0.64286900  0.50000000  0.25000000  1
  Al  Al4  1  0.78490500  0.71595700  0.54421400  1
  Al  Al5  1  0.21509500  0.28404300  0.45578600  1
  Al  Al6  1  0.78490500  0.28404300  0.95578600  1
  Al  Al7  1  0.21509500  0.71595700  0.04421400  1
  Br  Br8  1  0.25727200  0.80039200  0.86516500  1
  Br  Br9  1  0.74272800  0.19960800  0.13483500  1
  Br  Br10  1  0.25727200  0.19960800  0.63483500  1
  Br  Br11  1  0.74272800  0.80039200  0.36516500  1
  Br  Br12  1  0.58022200  0.83578500  0.62562700  1
  Br  Br13  1  0.41977800  0.16421500  0.37437300  1
  Br  Br14  1  0.58022200  0.16421500  0.87437300  1
  Br  Br15  1  0.41977800  0.83578500  0.12562700  1
  Br  Br16  1  0.74321200  0.45698700  0.60104300  1
  Br  Br17  1  0.25678800  0.54301300  0.39895700  1
  Br  Br18  1  0.74321200  0.54301300  0.89895700  1
  Br  Br19  1  0.25678800  0.45698700  0.10104300  1
  Br  Br20  1  0.93640300  0.78779700  0.08457700  1
  Br  Br21  1  0.06359700  0.21220300  0.91542300  1
  Br  Br22  1  0.93640300  0.21220300  0.41542300  1
  Br  Br23  1  0.06359700  0.78779700  0.58457700  1
