# generated using pymatgen
data_Ho3(CuSn)4
_symmetry_space_group_name_H-M   'P 1'
_cell_length_a   8.41496233
_cell_length_b   8.41496233
_cell_length_c   8.41496233
_cell_angle_alpha   149.23051855
_cell_angle_beta   131.31713406
_cell_angle_gamma   58.70404312
_symmetry_Int_Tables_number   1
_chemical_formula_structural   Ho3(CuSn)4
_chemical_formula_sum   'Ho3 Cu4 Sn4'
_cell_volume   227.17579083
_cell_formula_units_Z   1
loop_
 _symmetry_equiv_pos_site_id
 _symmetry_equiv_pos_as_xyz
  1  'x, y, z'
loop_
 _atom_site_type_symbol
 _atom_site_label
 _atom_site_symmetry_multiplicity
 _atom_site_fract_x
 _atom_site_fract_y
 _atom_site_fract_z
 _atom_site_occupancy
  Ho  Ho0  1  0.00000000  0.00000000  0.00000000  1
  Ho  Ho1  1  0.36905300  0.86905300  0.50000000  1
  Ho  Ho2  1  0.63094700  0.13094700  0.50000000  1
  Cu  Cu3  1  0.63980100  0.32852100  0.31128000  1
  Cu  Cu4  1  0.01724100  0.32852100  0.68872000  1
  Cu  Cu5  1  0.36019900  0.67147900  0.68872000  1
  Cu  Cu6  1  0.98275900  0.67147900  0.31128000  1
  Sn  Sn7  1  0.21584900  0.21584900  0.00000000  1
  Sn  Sn8  1  0.78415100  0.78415100  0.00000000  1
  Sn  Sn9  1  0.70307800  0.50000000  0.20307800  1
  Sn  Sn10  1  0.29692200  0.50000000  0.79692200  1
