# generated using pymatgen
data_Cs3Y7Se12
_symmetry_space_group_name_H-M   'P 1'
_cell_length_a   4.18443400
_cell_length_b   12.95306100
_cell_length_c   26.49189100
_cell_angle_alpha   90.00000000
_cell_angle_beta   90.00000000
_cell_angle_gamma   90.00000000
_symmetry_Int_Tables_number   1
_chemical_formula_structural   Cs3Y7Se12
_chemical_formula_sum   'Cs6 Y14 Se24'
_cell_volume   1435.89304683
_cell_formula_units_Z   2
loop_
 _symmetry_equiv_pos_site_id
 _symmetry_equiv_pos_as_xyz
  1  'x, y, z'
loop_
 _atom_site_type_symbol
 _atom_site_label
 _atom_site_symmetry_multiplicity
 _atom_site_fract_x
 _atom_site_fract_y
 _atom_site_fract_z
 _atom_site_occupancy
  Cs  Cs0  1  0.50000000  0.52313400  0.12907800  1
  Cs  Cs1  1  0.50000000  0.96681900  0.86640000  1
  Cs  Cs2  1  0.00000000  0.03318100  0.36640000  1
  Cs  Cs3  1  0.00000000  0.47686600  0.62907800  1
  Cs  Cs4  1  0.50000000  0.80521200  0.47315700  1
  Cs  Cs5  1  0.00000000  0.19478800  0.97315700  1
  Y  Y6  1  0.50000000  0.46318400  0.41574200  1
  Y  Y7  1  0.50000000  0.03705700  0.58595700  1
  Y  Y8  1  0.00000000  0.96294300  0.08595700  1
  Y  Y9  1  0.00000000  0.53681600  0.91574200  1
  Y  Y10  1  0.50000000  0.66699600  0.78901500  1
  Y  Y11  1  0.50000000  0.83311800  0.21103600  1
  Y  Y12  1  0.00000000  0.16688200  0.71103600  1
  Y  Y13  1  0.00000000  0.33300400  0.28901500  1
  Y  Y14  1  0.00000000  0.24981600  0.49989900  1
  Y  Y15  1  0.50000000  0.75018400  0.99989900  1
  Y  Y16  1  0.50000000  0.33826500  0.81526500  1
  Y  Y17  1  0.50000000  0.16379900  0.18363200  1
  Y  Y18  1  0.00000000  0.83620100  0.68363200  1
  Y  Y19  1  0.00000000  0.66173500  0.31526500  1
  Se  Se20  1  0.50000000  0.68511400  0.89673200  1
  Se  Se21  1  0.50000000  0.81391600  0.10342300  1
  Se  Se22  1  0.00000000  0.18608400  0.60342300  1
  Se  Se23  1  0.00000000  0.31488600  0.39673200  1
  Se  Se24  1  0.50000000  0.49567300  0.30294100  1
  Se  Se25  1  0.50000000  0.00396900  0.69746500  1
  Se  Se26  1  0.00000000  0.99603100  0.19746500  1
  Se  Se27  1  0.00000000  0.50432700  0.80294100  1
  Se  Se28  1  0.50000000  0.38549000  0.92005300  1
  Se  Se29  1  0.50000000  0.11542600  0.07908900  1
  Se  Se30  1  0.00000000  0.88457400  0.57908900  1
  Se  Se31  1  0.00000000  0.61451000  0.42005300  1
  Se  Se32  1  0.50000000  0.31197800  0.71008900  1
  Se  Se33  1  0.50000000  0.18739500  0.28954000  1
  Se  Se34  1  0.00000000  0.81260500  0.78954000  1
  Se  Se35  1  0.00000000  0.68802200  0.21008900  1
  Se  Se36  1  0.50000000  0.68883600  0.68155800  1
  Se  Se37  1  0.50000000  0.81136500  0.32060900  1
  Se  Se38  1  0.00000000  0.18863500  0.82060900  1
  Se  Se39  1  0.00000000  0.31116400  0.18155800  1
  Se  Se40  1  0.50000000  0.39905800  0.51675300  1
  Se  Se41  1  0.50000000  0.09639000  0.48297600  1
  Se  Se42  1  0.00000000  0.90361000  0.98297600  1
  Se  Se43  1  0.00000000  0.60094200  0.01675300  1
