# generated using pymatgen
data_Gd2ZrS5
_symmetry_space_group_name_H-M   'P 1'
_cell_length_a   7.30517000
_cell_length_b   7.83678900
_cell_length_c   11.61509700
_cell_angle_alpha   90.00000000
_cell_angle_beta   90.00000000
_cell_angle_gamma   90.00000000
_symmetry_Int_Tables_number   1
_chemical_formula_structural   Gd2ZrS5
_chemical_formula_sum   'Gd8 Zr4 S20'
_cell_volume   664.95356973
_cell_formula_units_Z   4
loop_
 _symmetry_equiv_pos_site_id
 _symmetry_equiv_pos_as_xyz
  1  'x, y, z'
loop_
 _atom_site_type_symbol
 _atom_site_label
 _atom_site_symmetry_multiplicity
 _atom_site_fract_x
 _atom_site_fract_y
 _atom_site_fract_z
 _atom_site_occupancy
  Gd  Gd0  1  0.52265600  0.49799000  0.32139300  1
  Gd  Gd1  1  0.97734400  0.00201000  0.82139300  1
  Gd  Gd2  1  0.47734400  0.99799000  0.67860700  1
  Gd  Gd3  1  0.02265600  0.50201000  0.17860700  1
  Gd  Gd4  1  0.47734400  0.50201000  0.67860700  1
  Gd  Gd5  1  0.02265600  0.99799000  0.17860700  1
  Gd  Gd6  1  0.52265600  0.00201000  0.32139300  1
  Gd  Gd7  1  0.97734400  0.49799000  0.82139300  1
  Zr  Zr8  1  0.07922000  0.75000000  0.49265900  1
  Zr  Zr9  1  0.42078000  0.75000000  0.99265900  1
  Zr  Zr10  1  0.92078000  0.25000000  0.50734100  1
  Zr  Zr11  1  0.57922000  0.25000000  0.00734100  1
  S  S12  1  0.83956100  0.96218500  0.59259000  1
  S  S13  1  0.66043900  0.53781500  0.09259000  1
  S  S14  1  0.16043900  0.46218500  0.40741000  1
  S  S15  1  0.33956100  0.03781500  0.90741000  1
  S  S16  1  0.16043900  0.03781500  0.40741000  1
  S  S17  1  0.33956100  0.46218500  0.90741000  1
  S  S18  1  0.83956100  0.53781500  0.59259000  1
  S  S19  1  0.66043900  0.96218500  0.09259000  1
  S  S20  1  0.83370100  0.75000000  0.31758200  1
  S  S21  1  0.66629900  0.75000000  0.81758200  1
  S  S22  1  0.16629900  0.25000000  0.68241800  1
  S  S23  1  0.33370100  0.25000000  0.18241800  1
  S  S24  1  0.44908500  0.75000000  0.49657800  1
  S  S25  1  0.05091500  0.75000000  0.99657800  1
  S  S26  1  0.55091500  0.25000000  0.50342200  1
  S  S27  1  0.94908500  0.25000000  0.00342200  1
  S  S28  1  0.19028600  0.75000000  0.70827100  1
  S  S29  1  0.30971400  0.75000000  0.20827100  1
  S  S30  1  0.80971400  0.25000000  0.29172900  1
  S  S31  1  0.69028600  0.25000000  0.79172900  1
