# generated using pymatgen
data_SrZn5
_symmetry_space_group_name_H-M   'P 1'
_cell_length_a   5.23201100
_cell_length_b   6.86153700
_cell_length_c   13.16722000
_cell_angle_alpha   90.00000000
_cell_angle_beta   90.00000000
_cell_angle_gamma   90.00000000
_symmetry_Int_Tables_number   1
_chemical_formula_structural   SrZn5
_chemical_formula_sum   'Sr4 Zn20'
_cell_volume   472.69841910
_cell_formula_units_Z   4
loop_
 _symmetry_equiv_pos_site_id
 _symmetry_equiv_pos_as_xyz
  1  'x, y, z'
loop_
 _atom_site_type_symbol
 _atom_site_label
 _atom_site_symmetry_multiplicity
 _atom_site_fract_x
 _atom_site_fract_y
 _atom_site_fract_z
 _atom_site_occupancy
  Sr  Sr0  1  0.25000000  0.64663700  0.91050700  1
  Sr  Sr1  1  0.25000000  0.85336300  0.41050700  1
  Sr  Sr2  1  0.75000000  0.35336300  0.08949300  1
  Sr  Sr3  1  0.75000000  0.14663700  0.58949300  1
  Zn  Zn4  1  0.25000000  0.33912300  0.71405900  1
  Zn  Zn5  1  0.25000000  0.16087700  0.21405900  1
  Zn  Zn6  1  0.75000000  0.66087700  0.28594100  1
  Zn  Zn7  1  0.75000000  0.83912300  0.78594100  1
  Zn  Zn8  1  0.25000000  0.95787800  0.70559500  1
  Zn  Zn9  1  0.25000000  0.54212200  0.20559500  1
  Zn  Zn10  1  0.75000000  0.04212200  0.29440500  1
  Zn  Zn11  1  0.75000000  0.45787800  0.79440500  1
  Zn  Zn12  1  0.99811200  0.15275300  0.85711100  1
  Zn  Zn13  1  0.50188800  0.34724700  0.35711100  1
  Zn  Zn14  1  0.49811200  0.84724700  0.14288900  1
  Zn  Zn15  1  0.00188800  0.65275300  0.64288900  1
  Zn  Zn16  1  0.00188800  0.84724700  0.14288900  1
  Zn  Zn17  1  0.49811200  0.65275300  0.64288900  1
  Zn  Zn18  1  0.50188800  0.15275300  0.85711100  1
  Zn  Zn19  1  0.99811200  0.34724700  0.35711100  1
  Zn  Zn20  1  0.25000000  0.40571000  0.52180800  1
  Zn  Zn21  1  0.25000000  0.09429000  0.02180800  1
  Zn  Zn22  1  0.75000000  0.59429000  0.47819200  1
  Zn  Zn23  1  0.75000000  0.90571000  0.97819200  1
