# generated using pymatgen
data_EuGa3Cu
_symmetry_space_group_name_H-M   'P 1'
_cell_length_a   6.11147480
_cell_length_b   6.11147480
_cell_length_c   6.11147480
_cell_angle_alpha   139.02687460
_cell_angle_beta   139.02687460
_cell_angle_gamma   59.33387595
_symmetry_Int_Tables_number   1
_chemical_formula_structural   EuGa3Cu
_chemical_formula_sum   'Eu1 Ga3 Cu1'
_cell_volume   97.18115500
_cell_formula_units_Z   1
loop_
 _symmetry_equiv_pos_site_id
 _symmetry_equiv_pos_as_xyz
  1  'x, y, z'
loop_
 _atom_site_type_symbol
 _atom_site_label
 _atom_site_symmetry_multiplicity
 _atom_site_fract_x
 _atom_site_fract_y
 _atom_site_fract_z
 _atom_site_occupancy
  Eu  Eu0  1  0.00000000  0.00000000  0.00000000  1
  Ga  Ga1  1  0.61849600  0.61849600  0.00000000  1
  Ga  Ga2  1  0.38150400  0.38150400  0.00000000  1
  Ga  Ga3  1  0.75000000  0.25000000  0.50000000  1
  Cu  Cu4  1  0.25000000  0.75000000  0.50000000  1
