# generated using pymatgen
data_LiFeN
_symmetry_space_group_name_H-M   'P 1'
_cell_length_a   2.88205393
_cell_length_b   9.35426200
_cell_length_c   5.20355343
_cell_angle_alpha   90.00000000
_cell_angle_beta   123.63240442
_cell_angle_gamma   90.00000000
_symmetry_Int_Tables_number   1
_chemical_formula_structural   LiFeN
_chemical_formula_sum   'Li4 Fe4 N4'
_cell_volume   116.80254292
_cell_formula_units_Z   4
loop_
 _symmetry_equiv_pos_site_id
 _symmetry_equiv_pos_as_xyz
  1  'x, y, z'
loop_
 _atom_site_type_symbol
 _atom_site_label
 _atom_site_symmetry_multiplicity
 _atom_site_fract_x
 _atom_site_fract_y
 _atom_site_fract_z
 _atom_site_occupancy
  Li  Li0  1  0.48735900  0.50133900  0.73736900  1
  Li  Li1  1  0.51264100  0.00133900  0.76263100  1
  Li  Li2  1  0.51264100  0.49866100  0.26263100  1
  Li  Li3  1  0.48735900  0.99866100  0.23736900  1
  Fe  Fe4  1  0.20668800  0.24166000  0.95684400  1
  Fe  Fe5  1  0.79331200  0.74166000  0.54315600  1
  Fe  Fe6  1  0.79331200  0.75834000  0.04315600  1
  Fe  Fe7  1  0.20668800  0.25834000  0.45684400  1
  N  N8  1  0.13373700  0.85309200  0.88368900  1
  N  N9  1  0.86626300  0.35309200  0.61631100  1
  N  N10  1  0.86626300  0.14690800  0.11631100  1
  N  N11  1  0.13373700  0.64690800  0.38368900  1
