# generated using pymatgen
data_Tm3Ni
_symmetry_space_group_name_H-M   'P 1'
_cell_length_a   6.23382200
_cell_length_b   6.72203200
_cell_length_c   9.42771700
_cell_angle_alpha   90.00000000
_cell_angle_beta   90.00000000
_cell_angle_gamma   90.00000000
_symmetry_Int_Tables_number   1
_chemical_formula_structural   Tm3Ni
_chemical_formula_sum   'Tm12 Ni4'
_cell_volume   395.05859089
_cell_formula_units_Z   4
loop_
 _symmetry_equiv_pos_site_id
 _symmetry_equiv_pos_as_xyz
  1  'x, y, z'
loop_
 _atom_site_type_symbol
 _atom_site_label
 _atom_site_symmetry_multiplicity
 _atom_site_fract_x
 _atom_site_fract_y
 _atom_site_fract_z
 _atom_site_occupancy
  Tm  Tm0  1  0.63819800  0.03239400  0.25000000  1
  Tm  Tm1  1  0.36180200  0.96760600  0.75000000  1
  Tm  Tm2  1  0.13819800  0.46760600  0.75000000  1
  Tm  Tm3  1  0.86180200  0.53239400  0.25000000  1
  Tm  Tm4  1  0.18014500  0.17876200  0.06500900  1
  Tm  Tm5  1  0.81985500  0.82123800  0.93499100  1
  Tm  Tm6  1  0.68014500  0.32123800  0.93499100  1
  Tm  Tm7  1  0.81985500  0.82123800  0.56500900  1
  Tm  Tm8  1  0.31985500  0.67876200  0.06500900  1
  Tm  Tm9  1  0.18014500  0.17876200  0.43499100  1
  Tm  Tm10  1  0.31985500  0.67876200  0.43499100  1
  Tm  Tm11  1  0.68014500  0.32123800  0.56500900  1
  Ni  Ni12  1  0.44496300  0.39389600  0.25000000  1
  Ni  Ni13  1  0.55503700  0.60610400  0.75000000  1
  Ni  Ni14  1  0.94496300  0.10610400  0.75000000  1
  Ni  Ni15  1  0.05503700  0.89389600  0.25000000  1
