# generated using pymatgen
data_Ba3SbI3
_symmetry_space_group_name_H-M   'P 1'
_cell_length_a   12.35217922
_cell_length_b   12.35217922
_cell_length_c   12.35217922
_cell_angle_alpha   109.47122063
_cell_angle_beta   109.47122063
_cell_angle_gamma   109.47122063
_symmetry_Int_Tables_number   1
_chemical_formula_structural   Ba3SbI3
_chemical_formula_sum   'Ba12 Sb4 I12'
_cell_volume   1450.80439501
_cell_formula_units_Z   4
loop_
 _symmetry_equiv_pos_site_id
 _symmetry_equiv_pos_as_xyz
  1  'x, y, z'
loop_
 _atom_site_type_symbol
 _atom_site_label
 _atom_site_symmetry_multiplicity
 _atom_site_fract_x
 _atom_site_fract_y
 _atom_site_fract_z
 _atom_site_occupancy
  Ba  Ba0  1  0.48689600  0.49344800  0.24344800  1
  Ba  Ba1  1  0.75000000  0.24344800  0.25655200  1
  Ba  Ba2  1  0.75000000  0.00655200  0.49344800  1
  Ba  Ba3  1  0.24344800  0.48689600  0.49344800  1
  Ba  Ba4  1  0.25655200  0.75000000  0.24344800  1
  Ba  Ba5  1  0.01310400  0.25655200  0.00655200  1
  Ba  Ba6  1  0.00655200  0.01310400  0.25655200  1
  Ba  Ba7  1  0.49344800  0.75000000  0.00655200  1
  Ba  Ba8  1  0.49344800  0.24344800  0.48689600  1
  Ba  Ba9  1  0.00655200  0.49344800  0.75000000  1
  Ba  Ba10  1  0.25655200  0.00655200  0.01310400  1
  Ba  Ba11  1  0.24344800  0.25655200  0.75000000  1
  Sb  Sb12  1  0.25000000  0.25000000  0.25000000  1
  Sb  Sb13  1  0.50000000  0.00000000  0.25000000  1
  Sb  Sb14  1  0.00000000  0.25000000  0.50000000  1
  Sb  Sb15  1  0.25000000  0.50000000  0.00000000  1
  I  I16  1  0.25000000  0.74924300  0.75075700  1
  I  I17  1  0.49848500  0.49924300  0.74924300  1
  I  I18  1  0.00151500  0.75075700  0.00075700  1
  I  I19  1  0.75075700  0.25000000  0.74924300  1
  I  I20  1  0.00075700  0.00151500  0.75075700  1
  I  I21  1  0.25000000  0.00075700  0.49924300  1
  I  I22  1  0.74924300  0.49848500  0.49924300  1
  I  I23  1  0.49924300  0.25000000  0.00075700  1
  I  I24  1  0.74924300  0.75075700  0.25000000  1
  I  I25  1  0.75075700  0.00075700  0.00151500  1
  I  I26  1  0.00075700  0.49924300  0.25000000  1
  I  I27  1  0.49924300  0.74924300  0.49848500  1
