# generated using pymatgen
data_Mn3O4
_symmetry_space_group_name_H-M   'P 1'
_cell_length_a   5.87014059
_cell_length_b   6.34807416
_cell_length_c   5.87328714
_cell_angle_alpha   117.49296085
_cell_angle_beta   89.99975597
_cell_angle_gamma   117.65252172
_symmetry_Int_Tables_number   1
_chemical_formula_structural   Mn3O4
_chemical_formula_sum   'Mn6 O8'
_cell_volume   165.45414816
_cell_formula_units_Z   2
loop_
 _symmetry_equiv_pos_site_id
 _symmetry_equiv_pos_as_xyz
  1  'x, y, z'
loop_
 _atom_site_type_symbol
 _atom_site_label
 _atom_site_symmetry_multiplicity
 _atom_site_fract_x
 _atom_site_fract_y
 _atom_site_fract_z
 _atom_site_occupancy
  Mn  Mn0  1  0.37413600  0.24910800  0.62373700  1
  Mn  Mn1  1  0.62586700  0.75090300  0.37626500  1
  Mn  Mn2  1  0.49999700  0.99999700  0.99999600  1
  Mn  Mn3  1  0.00000400  0.49999900  0.00000100  1
  Mn  Mn4  1  0.99999700  0.99999700  0.99999900  1
  Mn  Mn5  1  0.00000500  0.50000600  0.50000100  1
  O  O6  1  0.78601400  0.51672300  0.75850400  1
  O  O7  1  0.24077000  0.98363900  0.21399100  1
  O  O8  1  0.75914600  0.01622800  0.23076700  1
  O  O9  1  0.75922900  0.01635800  0.78600800  1
  O  O10  1  0.77127800  0.48411800  0.24192900  1
  O  O11  1  0.21398500  0.48327400  0.24149600  1
  O  O12  1  0.22872000  0.51588000  0.75807100  1
  O  O13  1  0.24085300  0.98377100  0.76923300  1
