# generated using pymatgen
data_EuTa3O9
_symmetry_space_group_name_H-M   'P 1'
_cell_length_a   8.81925377
_cell_length_b   8.81925377
_cell_length_c   9.71717006
_cell_angle_alpha   57.00765121
_cell_angle_beta   57.00765121
_cell_angle_gamma   36.93967422
_symmetry_Int_Tables_number   1
_chemical_formula_structural   EuTa3O9
_chemical_formula_sum   'Eu2 Ta6 O18'
_cell_volume   371.90289859
_cell_formula_units_Z   2
loop_
 _symmetry_equiv_pos_site_id
 _symmetry_equiv_pos_as_xyz
  1  'x, y, z'
loop_
 _atom_site_type_symbol
 _atom_site_label
 _atom_site_symmetry_multiplicity
 _atom_site_fract_x
 _atom_site_fract_y
 _atom_site_fract_z
 _atom_site_occupancy
  Eu  Eu0  1  0.66699300  0.66699300  0.99969700  1
  Eu  Eu1  1  0.33300700  0.33300700  0.00030300  1
  Ta  Ta2  1  0.07745900  0.07745900  0.25766800  1
  Ta  Ta3  1  0.41567200  0.41567200  0.25247700  1
  Ta  Ta4  1  0.74933800  0.74933800  0.26125500  1
  Ta  Ta5  1  0.92254100  0.92254100  0.74233200  1
  Ta  Ta6  1  0.25066200  0.25066200  0.73874500  1
  Ta  Ta7  1  0.58432800  0.58432800  0.74752300  1
  O  O8  1  0.42545000  0.92516800  0.22436800  1
  O  O9  1  0.74963100  0.26910100  0.23284600  1
  O  O10  1  0.09489000  0.57582300  0.23265400  1
  O  O11  1  0.25036900  0.73089900  0.76715400  1
  O  O12  1  0.57455000  0.07483200  0.77563200  1
  O  O13  1  0.90511000  0.42417700  0.76734600  1
  O  O14  1  0.92516800  0.42545000  0.22436800  1
  O  O15  1  0.26910100  0.74963100  0.23284600  1
  O  O16  1  0.57582300  0.09489000  0.23265400  1
  O  O17  1  0.73089900  0.25036900  0.76715400  1
  O  O18  1  0.07483200  0.57455000  0.77563200  1
  O  O19  1  0.42417700  0.90511000  0.76734600  1
  O  O20  1  0.00000000  0.00000000  0.50000000  1
  O  O21  1  0.33390800  0.33390800  0.49829100  1
  O  O22  1  0.66609200  0.66609200  0.50170900  1
  O  O23  1  0.17271400  0.17271400  0.99994500  1
  O  O24  1  0.50000000  0.50000000  0.00000000  1
  O  O25  1  0.82728600  0.82728600  0.00005500  1
