# generated using pymatgen
data_Tb4MgRu
_symmetry_space_group_name_H-M   'P 1'
_cell_length_a   9.74685321
_cell_length_b   9.74685321
_cell_length_c   9.74685321
_cell_angle_alpha   60.00000000
_cell_angle_beta   60.00000000
_cell_angle_gamma   60.00000000
_symmetry_Int_Tables_number   1
_chemical_formula_structural   Tb4MgRu
_chemical_formula_sum   'Tb16 Mg4 Ru4'
_cell_volume   654.75417862
_cell_formula_units_Z   4
loop_
 _symmetry_equiv_pos_site_id
 _symmetry_equiv_pos_as_xyz
  1  'x, y, z'
loop_
 _atom_site_type_symbol
 _atom_site_label
 _atom_site_symmetry_multiplicity
 _atom_site_fract_x
 _atom_site_fract_y
 _atom_site_fract_z
 _atom_site_occupancy
  Tb  Tb0  1  0.59350000  0.59350000  0.59350000  1
  Tb  Tb1  1  0.59350000  0.59350000  0.21950100  1
  Tb  Tb2  1  0.59350000  0.21950100  0.59350000  1
  Tb  Tb3  1  0.21950100  0.59350000  0.59350000  1
  Tb  Tb4  1  0.06320400  0.43679600  0.43679600  1
  Tb  Tb5  1  0.43679600  0.06320400  0.06320400  1
  Tb  Tb6  1  0.43679600  0.06320400  0.43679600  1
  Tb  Tb7  1  0.06320400  0.43679600  0.06320400  1
  Tb  Tb8  1  0.43679600  0.43679600  0.06320400  1
  Tb  Tb9  1  0.06320400  0.06320400  0.43679600  1
  Tb  Tb10  1  0.18704900  0.81295100  0.81295100  1
  Tb  Tb11  1  0.81295100  0.18704900  0.18704900  1
  Tb  Tb12  1  0.81295100  0.18704900  0.81295100  1
  Tb  Tb13  1  0.18704900  0.81295100  0.18704900  1
  Tb  Tb14  1  0.81295100  0.81295100  0.18704900  1
  Tb  Tb15  1  0.18704900  0.18704900  0.81295100  1
  Mg  Mg16  1  0.82901700  0.82901700  0.82901700  1
  Mg  Mg17  1  0.82901700  0.82901700  0.51294800  1
  Mg  Mg18  1  0.82901700  0.51294800  0.82901700  1
  Mg  Mg19  1  0.51294800  0.82901700  0.82901700  1
  Ru  Ru20  1  0.38895900  0.38895900  0.38895900  1
  Ru  Ru21  1  0.38895900  0.38895900  0.83312200  1
  Ru  Ru22  1  0.38895900  0.83312200  0.38895900  1
  Ru  Ru23  1  0.83312200  0.38895900  0.38895900  1
