# generated using pymatgen
data_LiZr2(AsO4)3
_symmetry_space_group_name_H-M   'P 1'
_cell_length_a   9.33996000
_cell_length_b   9.30935800
_cell_length_c   15.91503228
_cell_angle_alpha   54.83565605
_cell_angle_beta   90.00000000
_cell_angle_gamma   90.00000000
_symmetry_Int_Tables_number   1
_chemical_formula_structural   LiZr2(AsO4)3
_chemical_formula_sum   'Li4 Zr8 As12 O48'
_cell_volume   1131.25854553
_cell_formula_units_Z   4
loop_
 _symmetry_equiv_pos_site_id
 _symmetry_equiv_pos_as_xyz
  1  'x, y, z'
loop_
 _atom_site_type_symbol
 _atom_site_label
 _atom_site_symmetry_multiplicity
 _atom_site_fract_x
 _atom_site_fract_y
 _atom_site_fract_z
 _atom_site_occupancy
  Li  Li0  1  0.71667200  0.97456900  0.82662300  1
  Li  Li1  1  0.78332800  0.97456900  0.32662300  1
  Li  Li2  1  0.28332800  0.02543100  0.17337700  1
  Li  Li3  1  0.21667200  0.02543100  0.67337700  1
  Zr  Zr4  1  0.96124000  0.14267800  0.11222100  1
  Zr  Zr5  1  0.53876000  0.14267800  0.61222100  1
  Zr  Zr6  1  0.03876000  0.85732200  0.88777900  1
  Zr  Zr7  1  0.46124000  0.85732200  0.38777900  1
  Zr  Zr8  1  0.52247300  0.37008700  0.87945500  1
  Zr  Zr9  1  0.97752700  0.37008700  0.37945500  1
  Zr  Zr10  1  0.47752700  0.62991300  0.12054500  1
  Zr  Zr11  1  0.02247300  0.62991300  0.62054500  1
  As  As12  1  0.60326900  0.96677400  0.14447100  1
  As  As13  1  0.89673100  0.96677400  0.64447100  1
  As  As14  1  0.39673100  0.03322600  0.85552900  1
  As  As15  1  0.10326900  0.03322600  0.35552900  1
  As  As16  1  0.87752800  0.24528400  0.85445100  1
  As  As17  1  0.62247200  0.24528400  0.35445100  1
  As  As18  1  0.12247200  0.75471600  0.14554900  1
  As  As19  1  0.37752800  0.75471600  0.64554900  1
  As  As20  1  0.75219200  0.54034300  0.99078600  1
  As  As21  1  0.74780800  0.54034300  0.49078600  1
  As  As22  1  0.24780800  0.45965700  0.00921400  1
  As  As23  1  0.25219200  0.45965700  0.50921400  1
  O  O24  1  0.91979300  0.17041900  0.97818800  1
  O  O25  1  0.58020700  0.17041900  0.47818800  1
  O  O26  1  0.08020700  0.82958100  0.02181200  1
  O  O27  1  0.41979300  0.82958100  0.52181200  1
  O  O28  1  0.76493800  0.00552000  0.18053700  1
  O  O29  1  0.73506200  0.00552000  0.68053700  1
  O  O30  1  0.23506200  0.99448000  0.81946300  1
  O  O31  1  0.26493800  0.99448000  0.31946300  1
  O  O32  1  0.87925300  0.38363300  0.06130000  1
  O  O33  1  0.62074700  0.38363300  0.56130000  1
  O  O34  1  0.12074700  0.61636700  0.93870000  1
  O  O35  1  0.37925300  0.61636700  0.43870000  1
  O  O36  1  0.09720800  0.92195800  0.16051500  1
  O  O37  1  0.40279200  0.92195800  0.66051500  1
  O  O38  1  0.90279200  0.07804200  0.83948500  1
  O  O39  1  0.59720800  0.07804200  0.33948500  1
  O  O40  1  0.97625600  0.07025800  0.26637700  1
  O  O41  1  0.52374400  0.07025800  0.76637700  1
  O  O42  1  0.02374400  0.92974200  0.73362300  1
  O  O43  1  0.47625600  0.92974200  0.23362300  1
  O  O44  1  0.17185200  0.25304400  0.08098800  1
  O  O45  1  0.32814800  0.25304400  0.58098800  1
  O  O46  1  0.82814800  0.74695600  0.91901200  1
  O  O47  1  0.67185200  0.74695600  0.41901200  1
  O  O48  1  0.54153000  0.14876700  0.03319100  1
  O  O49  1  0.95847000  0.14876700  0.53319100  1
  O  O50  1  0.45847000  0.85123300  0.96680900  1
  O  O51  1  0.04153000  0.85123300  0.46680900  1
  O  O52  1  0.69834900  0.28655200  0.83519300  1
  O  O53  1  0.80165100  0.28655200  0.33519300  1
  O  O54  1  0.30165100  0.71344800  0.16480700  1
  O  O55  1  0.19834900  0.71344800  0.66480700  1
  O  O56  1  0.67163100  0.50720400  0.90765000  1
  O  O57  1  0.82836900  0.50720400  0.40765000  1
  O  O58  1  0.32836900  0.49279600  0.09235000  1
  O  O59  1  0.17163100  0.49279600  0.59235000  1
  O  O60  1  0.38364100  0.21111800  0.85945700  1
  O  O61  1  0.11635900  0.21111800  0.35945700  1
  O  O62  1  0.61635900  0.78888200  0.14054300  1
  O  O63  1  0.88364100  0.78888200  0.64054300  1
  O  O64  1  0.48512300  0.58226500  0.72645300  1
  O  O65  1  0.01487700  0.58226500  0.22645300  1
  O  O66  1  0.51487700  0.41773500  0.27354700  1
  O  O67  1  0.98512300  0.41773500  0.77354700  1
  O  O68  1  0.36164500  0.46632100  0.92402400  1
  O  O69  1  0.13835500  0.46632100  0.42402400  1
  O  O70  1  0.63835500  0.53367900  0.07597600  1
  O  O71  1  0.86164500  0.53367900  0.57597600  1
