# generated using pymatgen
data_HfFeSi
_symmetry_space_group_name_H-M   'P 1'
_cell_length_a   3.98172900
_cell_length_b   6.34715500
_cell_length_c   6.94226600
_cell_angle_alpha   90.00000000
_cell_angle_beta   90.00000000
_cell_angle_gamma   90.00000000
_symmetry_Int_Tables_number   1
_chemical_formula_structural   HfFeSi
_chemical_formula_sum   'Hf4 Fe4 Si4'
_cell_volume   175.44946668
_cell_formula_units_Z   4
loop_
 _symmetry_equiv_pos_site_id
 _symmetry_equiv_pos_as_xyz
  1  'x, y, z'
loop_
 _atom_site_type_symbol
 _atom_site_label
 _atom_site_symmetry_multiplicity
 _atom_site_fract_x
 _atom_site_fract_y
 _atom_site_fract_z
 _atom_site_occupancy
  Hf  Hf0  1  0.25000000  0.99405600  0.30095400  1
  Hf  Hf1  1  0.25000000  0.49405600  0.19904600  1
  Hf  Hf2  1  0.75000000  0.00594400  0.69904600  1
  Hf  Hf3  1  0.75000000  0.50594400  0.80095400  1
  Fe  Fe4  1  0.25000000  0.15700100  0.93893100  1
  Fe  Fe5  1  0.25000000  0.65700100  0.56106900  1
  Fe  Fe6  1  0.75000000  0.84299900  0.06106900  1
  Fe  Fe7  1  0.75000000  0.34299900  0.43893100  1
  Si  Si8  1  0.25000000  0.28986700  0.60701200  1
  Si  Si9  1  0.25000000  0.78986700  0.89298800  1
  Si  Si10  1  0.75000000  0.71013300  0.39298800  1
  Si  Si11  1  0.75000000  0.21013300  0.10701200  1
