# generated using pymatgen
data_KNb4AsO13
_symmetry_space_group_name_H-M   'P 1'
_cell_length_a   7.48686803
_cell_length_b   7.48686803
_cell_length_c   10.19735700
_cell_angle_alpha   90.00000000
_cell_angle_beta   90.00000000
_cell_angle_gamma   90.92948923
_symmetry_Int_Tables_number   1
_chemical_formula_structural   KNb4AsO13
_chemical_formula_sum   'K2 Nb8 As2 O26'
_cell_volume   571.51920642
_cell_formula_units_Z   2
loop_
 _symmetry_equiv_pos_site_id
 _symmetry_equiv_pos_as_xyz
  1  'x, y, z'
loop_
 _atom_site_type_symbol
 _atom_site_label
 _atom_site_symmetry_multiplicity
 _atom_site_fract_x
 _atom_site_fract_y
 _atom_site_fract_z
 _atom_site_occupancy
  K  K0  1  0.44015400  0.44015400  0.44007700  1
  K  K1  1  0.55984600  0.55984600  0.94007700  1
  Nb  Nb2  1  0.55640600  0.89745000  0.25067400  1
  Nb  Nb3  1  0.10255000  0.44359400  0.75067400  1
  Nb  Nb4  1  0.44359400  0.10255000  0.75067400  1
  Nb  Nb5  1  0.89745000  0.55640600  0.25067400  1
  Nb  Nb6  1  0.17370200  0.82761300  0.50063200  1
  Nb  Nb7  1  0.17238700  0.82629800  0.00063200  1
  Nb  Nb8  1  0.82761300  0.17370200  0.50063200  1
  Nb  Nb9  1  0.82629800  0.17238700  0.00063200  1
  As  As10  1  0.16310900  0.16310900  0.24879800  1
  As  As11  1  0.83689100  0.83689100  0.74879800  1
  O  O12  1  0.65954900  0.65954900  0.24983800  1
  O  O13  1  0.34045100  0.34045100  0.74983800  1
  O  O14  1  0.38794900  0.13010000  0.25141000  1
  O  O15  1  0.86990000  0.61205100  0.75141000  1
  O  O16  1  0.61205100  0.86990000  0.75141000  1
  O  O17  1  0.13010000  0.38794900  0.25141000  1
  O  O18  1  0.79760300  0.36036000  0.38524300  1
  O  O19  1  0.63863300  0.20145000  0.61372300  1
  O  O20  1  0.79855000  0.36136700  0.11372300  1
  O  O21  1  0.63964000  0.20239700  0.88524300  1
  O  O22  1  0.20145000  0.63863300  0.61372300  1
  O  O23  1  0.36036000  0.79760300  0.38524300  1
  O  O24  1  0.20239700  0.63964000  0.88524300  1
  O  O25  1  0.36136700  0.79855000  0.11372300  1
  O  O26  1  0.06861800  0.06861800  0.38934000  1
  O  O27  1  0.93219900  0.93219900  0.60993300  1
  O  O28  1  0.06780100  0.06780100  0.10993300  1
  O  O29  1  0.93138200  0.93138200  0.88934000  1
  O  O30  1  0.69290400  0.99214800  0.38884600  1
  O  O31  1  0.00922800  0.30700600  0.61067800  1
  O  O32  1  0.69299400  0.99077200  0.11067800  1
  O  O33  1  0.00785200  0.30709600  0.88884600  1
  O  O34  1  0.30700600  0.00922800  0.61067800  1
  O  O35  1  0.99214800  0.69290400  0.38884600  1
  O  O36  1  0.30709600  0.00785200  0.88884600  1
  O  O37  1  0.99077200  0.69299400  0.11067800  1
