# generated using pymatgen
data_LaMoClO4
_symmetry_space_group_name_H-M   'P 1'
_cell_length_a   5.90318500
_cell_length_b   8.07667200
_cell_length_c   19.42328002
_cell_angle_alpha   89.99738938
_cell_angle_beta   90.00000000
_cell_angle_gamma   90.00000000
_symmetry_Int_Tables_number   1
_chemical_formula_structural   LaMoClO4
_chemical_formula_sum   'La8 Mo8 Cl8 O32'
_cell_volume   926.06487252
_cell_formula_units_Z   8
loop_
 _symmetry_equiv_pos_site_id
 _symmetry_equiv_pos_as_xyz
  1  'x, y, z'
loop_
 _atom_site_type_symbol
 _atom_site_label
 _atom_site_symmetry_multiplicity
 _atom_site_fract_x
 _atom_site_fract_y
 _atom_site_fract_z
 _atom_site_occupancy
  La  La0  1  0.69944900  0.37314800  0.10443200  1
  La  La1  1  0.19944900  0.12685200  0.89556800  1
  La  La2  1  0.30055100  0.62685200  0.89556800  1
  La  La3  1  0.80055100  0.87314800  0.10443200  1
  La  La4  1  0.70094100  0.37767500  0.60462800  1
  La  La5  1  0.20094100  0.12232500  0.39537200  1
  La  La6  1  0.29905900  0.62232500  0.39537200  1
  La  La7  1  0.79905900  0.87767500  0.60462800  1
  Mo  Mo8  1  0.74803600  0.40997300  0.82144000  1
  Mo  Mo9  1  0.24803600  0.09002700  0.17856000  1
  Mo  Mo10  1  0.25196400  0.59002700  0.17856000  1
  Mo  Mo11  1  0.75196400  0.90997300  0.82144000  1
  Mo  Mo12  1  0.75626800  0.34096000  0.32115100  1
  Mo  Mo13  1  0.25626800  0.15904000  0.67884900  1
  Mo  Mo14  1  0.24373200  0.65904000  0.67884900  1
  Mo  Mo15  1  0.74373200  0.84096000  0.32115100  1
  Cl  Cl16  1  0.76024000  0.12442000  0.98858700  1
  Cl  Cl17  1  0.26024000  0.37558000  0.01141300  1
  Cl  Cl18  1  0.23976000  0.87558000  0.01141300  1
  Cl  Cl19  1  0.73976000  0.62442000  0.98858700  1
  Cl  Cl20  1  0.75949800  0.12699100  0.48853700  1
  Cl  Cl21  1  0.25949800  0.37300900  0.51146300  1
  Cl  Cl22  1  0.24050200  0.87300900  0.51146300  1
  Cl  Cl23  1  0.74050200  0.62699100  0.48853700  1
  O  O24  1  0.76668200  0.37401400  0.73132400  1
  O  O25  1  0.26668200  0.12598600  0.26867600  1
  O  O26  1  0.23331800  0.62598600  0.26867600  1
  O  O27  1  0.73331800  0.87401400  0.73132400  1
  O  O28  1  0.81417300  0.12869600  0.82771800  1
  O  O29  1  0.31417300  0.37130400  0.17228200  1
  O  O30  1  0.18582700  0.87130400  0.17228200  1
  O  O31  1  0.68582700  0.62869600  0.82771800  1
  O  O32  1  0.98618400  0.15265100  0.13497600  1
  O  O33  1  0.48618400  0.34734900  0.86502400  1
  O  O34  1  0.01381600  0.84734900  0.86502400  1
  O  O35  1  0.51381600  0.65265100  0.13497600  1
  O  O36  1  0.52030000  0.10018000  0.13260300  1
  O  O37  1  0.02030000  0.39982000  0.86739700  1
  O  O38  1  0.47970000  0.89982000  0.86739700  1
  O  O39  1  0.97970000  0.60018000  0.13260300  1
  O  O40  1  0.76014500  0.37951400  0.23127000  1
  O  O41  1  0.26014500  0.12048600  0.76873000  1
  O  O42  1  0.23985500  0.62048600  0.76873000  1
  O  O43  1  0.73985500  0.87951400  0.23127000  1
  O  O44  1  0.81613800  0.12184300  0.32709800  1
  O  O45  1  0.31613800  0.37815700  0.67290200  1
  O  O46  1  0.18386200  0.87815700  0.67290200  1
  O  O47  1  0.68386200  0.62184300  0.32709800  1
  O  O48  1  0.97926300  0.15022200  0.63550400  1
  O  O49  1  0.47926300  0.34977800  0.36449600  1
  O  O50  1  0.02073700  0.84977800  0.36449600  1
  O  O51  1  0.52073700  0.65022200  0.63550400  1
  O  O52  1  0.51314200  0.09701800  0.63237900  1
  O  O53  1  0.01314200  0.40298200  0.36762100  1
  O  O54  1  0.48685800  0.90298200  0.36762100  1
  O  O55  1  0.98685800  0.59701800  0.63237900  1
