# generated using pymatgen
data_CeAlAu
_symmetry_space_group_name_H-M   'P 1'
_cell_length_a   4.57098900
_cell_length_b   7.47812700
_cell_length_c   7.80792400
_cell_angle_alpha   90.00000000
_cell_angle_beta   90.00000000
_cell_angle_gamma   90.00000000
_symmetry_Int_Tables_number   1
_chemical_formula_structural   CeAlAu
_chemical_formula_sum   'Ce4 Al4 Au4'
_cell_volume   266.89386443
_cell_formula_units_Z   4
loop_
 _symmetry_equiv_pos_site_id
 _symmetry_equiv_pos_as_xyz
  1  'x, y, z'
loop_
 _atom_site_type_symbol
 _atom_site_label
 _atom_site_symmetry_multiplicity
 _atom_site_fract_x
 _atom_site_fract_y
 _atom_site_fract_z
 _atom_site_occupancy
  Ce  Ce0  1  0.25000000  0.01010900  0.30421000  1
  Ce  Ce1  1  0.25000000  0.51010900  0.19579000  1
  Ce  Ce2  1  0.75000000  0.98989100  0.69579000  1
  Ce  Ce3  1  0.75000000  0.48989100  0.80421000  1
  Al  Al4  1  0.25000000  0.17589700  0.92177700  1
  Al  Al5  1  0.25000000  0.67589700  0.57822300  1
  Al  Al6  1  0.75000000  0.82410300  0.07822300  1
  Al  Al7  1  0.75000000  0.32410300  0.42177700  1
  Au  Au8  1  0.25000000  0.29680400  0.59645200  1
  Au  Au9  1  0.25000000  0.79680400  0.90354800  1
  Au  Au10  1  0.75000000  0.70319600  0.40354800  1
  Au  Au11  1  0.75000000  0.20319600  0.09645200  1
