# generated using pymatgen
data_NaScP2O7
_symmetry_space_group_name_H-M   'P 1'
_cell_length_a   5.36276200
_cell_length_b   8.96783000
_cell_length_c   13.56626105
_cell_angle_alpha   64.19199083
_cell_angle_beta   90.00000000
_cell_angle_gamma   90.00000000
_symmetry_Int_Tables_number   1
_chemical_formula_structural   NaScP2O7
_chemical_formula_sum   'Na4 Sc4 P8 O28'
_cell_volume   587.35816771
_cell_formula_units_Z   4
loop_
 _symmetry_equiv_pos_site_id
 _symmetry_equiv_pos_as_xyz
  1  'x, y, z'
loop_
 _atom_site_type_symbol
 _atom_site_label
 _atom_site_symmetry_multiplicity
 _atom_site_fract_x
 _atom_site_fract_y
 _atom_site_fract_z
 _atom_site_occupancy
  Na  Na0  1  0.73104000  0.45073000  0.68981400  1
  Na  Na1  1  0.76896000  0.45073000  0.18981400  1
  Na  Na2  1  0.26896000  0.54927000  0.31018600  1
  Na  Na3  1  0.23104000  0.54927000  0.81018600  1
  Sc  Sc4  1  0.76161900  0.26011500  0.97252400  1
  Sc  Sc5  1  0.73838100  0.26011500  0.47252400  1
  Sc  Sc6  1  0.23838100  0.73988500  0.02747600  1
  Sc  Sc7  1  0.26161900  0.73988500  0.52747600  1
  P  P8  1  0.72381000  0.68105600  0.88352700  1
  P  P9  1  0.77619000  0.68105600  0.38352700  1
  P  P10  1  0.27619000  0.31894400  0.11647300  1
  P  P11  1  0.22381000  0.31894400  0.61647300  1
  P  P12  1  0.75405800  0.83171700  0.14701300  1
  P  P13  1  0.74594200  0.83171700  0.64701300  1
  P  P14  1  0.24594200  0.16828300  0.85298700  1
  P  P15  1  0.25405800  0.16828300  0.35298700  1
  O  O16  1  0.99522000  0.25474700  0.84690300  1
  O  O17  1  0.50478000  0.25474700  0.34690300  1
  O  O18  1  0.00478000  0.74525300  0.15309700  1
  O  O19  1  0.49522000  0.74525300  0.65309700  1
  O  O20  1  0.46199000  0.27220200  0.86522400  1
  O  O21  1  0.03801000  0.27220200  0.36522400  1
  O  O22  1  0.53801000  0.72779800  0.13477600  1
  O  O23  1  0.96199000  0.72779800  0.63477600  1
  O  O24  1  0.74578600  0.01143000  0.06364100  1
  O  O25  1  0.75421400  0.01143000  0.56364100  1
  O  O26  1  0.25421400  0.98857000  0.93635900  1
  O  O27  1  0.24578600  0.98857000  0.43635900  1
  O  O28  1  0.77284900  0.52396700  0.86734900  1
  O  O29  1  0.72715100  0.52396700  0.36734900  1
  O  O30  1  0.22715100  0.47603300  0.13265100  1
  O  O31  1  0.27284900  0.47603300  0.63265100  1
  O  O32  1  0.71891900  0.83464600  0.26522300  1
  O  O33  1  0.78108100  0.83464600  0.76522300  1
  O  O34  1  0.28108100  0.16535400  0.73477700  1
  O  O35  1  0.21891900  0.16535400  0.23477700  1
  O  O36  1  0.90526600  0.70223000  0.96217800  1
  O  O37  1  0.59473400  0.70223000  0.46217800  1
  O  O38  1  0.09473400  0.29777000  0.03782200  1
  O  O39  1  0.40526600  0.29777000  0.53782200  1
  O  O40  1  0.44975100  0.69101500  0.91230100  1
  O  O41  1  0.05024900  0.69101500  0.41230100  1
  O  O42  1  0.55024900  0.30898500  0.08769900  1
  O  O43  1  0.94975100  0.30898500  0.58769900  1
