# generated using pymatgen
data_SrPrGa3O7
_symmetry_space_group_name_H-M   'P 1'
_cell_length_a   8.09475845
_cell_length_b   8.09475845
_cell_length_c   5.36793700
_cell_angle_alpha   90.00000000
_cell_angle_beta   90.00000000
_cell_angle_gamma   90.27174151
_symmetry_Int_Tables_number   1
_chemical_formula_structural   SrPrGa3O7
_chemical_formula_sum   'Sr2 Pr2 Ga6 O14'
_cell_volume   351.73073011
_cell_formula_units_Z   2
loop_
 _symmetry_equiv_pos_site_id
 _symmetry_equiv_pos_as_xyz
  1  'x, y, z'
loop_
 _atom_site_type_symbol
 _atom_site_label
 _atom_site_symmetry_multiplicity
 _atom_site_fract_x
 _atom_site_fract_y
 _atom_site_fract_z
 _atom_site_occupancy
  Sr  Sr0  1  0.16155600  0.83844400  0.49017800  1
  Sr  Sr1  1  0.83844400  0.16155600  0.49017800  1
  Pr  Pr2  1  0.66276100  0.66276100  0.51092800  1
  Pr  Pr3  1  0.33723900  0.33723900  0.51092800  1
  Ga  Ga4  1  0.35716700  0.64283300  0.03462700  1
  Ga  Ga5  1  0.85548500  0.85548500  0.96575700  1
  Ga  Ga6  1  0.64283300  0.35716700  0.03462700  1
  Ga  Ga7  1  0.14451500  0.14451500  0.96575700  1
  Ga  Ga8  1  0.50000000  0.00000000  0.99847600  1
  Ga  Ga9  1  0.00000000  0.50000000  0.99847600  1
  O  O10  1  0.00000000  0.00000000  0.81369500  1
  O  O11  1  0.50000000  0.50000000  0.20548900  1
  O  O12  1  0.41887300  0.83516300  0.20502800  1
  O  O13  1  0.90629700  0.65916400  0.79100800  1
  O  O14  1  0.58112700  0.16483700  0.20502800  1
  O  O15  1  0.09370300  0.34083600  0.79100800  1
  O  O16  1  0.34083600  0.09370300  0.79100800  1
  O  O17  1  0.83516300  0.41887300  0.20502800  1
  O  O18  1  0.65916400  0.90629700  0.79100800  1
  O  O19  1  0.16483700  0.58112700  0.20502800  1
  O  O20  1  0.36972900  0.63027100  0.69578000  1
  O  O21  1  0.85058500  0.85058500  0.30258900  1
  O  O22  1  0.63027100  0.36972900  0.69578000  1
  O  O23  1  0.14941500  0.14941500  0.30258900  1
