# generated using pymatgen
data_Rb2SmCl5
_symmetry_space_group_name_H-M   'P 1'
_cell_length_a   8.35512900
_cell_length_b   8.82924400
_cell_length_c   13.66420200
_cell_angle_alpha   90.00000000
_cell_angle_beta   90.00000000
_cell_angle_gamma   90.00000000
_symmetry_Int_Tables_number   1
_chemical_formula_structural   Rb2SmCl5
_chemical_formula_sum   'Rb8 Sm4 Cl20'
_cell_volume   1008.00097494
_cell_formula_units_Z   4
loop_
 _symmetry_equiv_pos_site_id
 _symmetry_equiv_pos_as_xyz
  1  'x, y, z'
loop_
 _atom_site_type_symbol
 _atom_site_label
 _atom_site_symmetry_multiplicity
 _atom_site_fract_x
 _atom_site_fract_y
 _atom_site_fract_z
 _atom_site_occupancy
  Rb  Rb0  1  0.53470700  0.49957600  0.82611300  1
  Rb  Rb1  1  0.46529300  0.50042400  0.17388700  1
  Rb  Rb2  1  0.03470700  0.50042400  0.67388700  1
  Rb  Rb3  1  0.46529300  0.99957600  0.17388700  1
  Rb  Rb4  1  0.96529300  0.49957600  0.32611300  1
  Rb  Rb5  1  0.53470700  0.00042400  0.82611300  1
  Rb  Rb6  1  0.96529300  0.00042400  0.32611300  1
  Rb  Rb7  1  0.03470700  0.99957600  0.67388700  1
  Sm  Sm8  1  0.57084000  0.75000000  0.50186000  1
  Sm  Sm9  1  0.42916000  0.25000000  0.49814000  1
  Sm  Sm10  1  0.07084000  0.25000000  0.99814000  1
  Sm  Sm11  1  0.92916000  0.75000000  0.00186000  1
  Cl  Cl12  1  0.83547600  0.75000000  0.80851100  1
  Cl  Cl13  1  0.16452400  0.25000000  0.19148900  1
  Cl  Cl14  1  0.33547600  0.25000000  0.69148900  1
  Cl  Cl15  1  0.66452400  0.75000000  0.30851100  1
  Cl  Cl16  1  0.36840800  0.75000000  0.66101200  1
  Cl  Cl17  1  0.63159200  0.25000000  0.33898800  1
  Cl  Cl18  1  0.86840800  0.25000000  0.83898800  1
  Cl  Cl19  1  0.13159200  0.75000000  0.16101200  1
  Cl  Cl20  1  0.90173900  0.75000000  0.51371600  1
  Cl  Cl21  1  0.09826100  0.25000000  0.48628400  1
  Cl  Cl22  1  0.40173900  0.25000000  0.98628400  1
  Cl  Cl23  1  0.59826100  0.75000000  0.01371600  1
  Cl  Cl24  1  0.65095600  0.03925300  0.57816100  1
  Cl  Cl25  1  0.34904400  0.96074700  0.42183900  1
  Cl  Cl26  1  0.15095600  0.96074700  0.92183900  1
  Cl  Cl27  1  0.34904400  0.53925300  0.42183900  1
  Cl  Cl28  1  0.84904400  0.03925300  0.07816100  1
  Cl  Cl29  1  0.65095600  0.46074700  0.57816100  1
  Cl  Cl30  1  0.84904400  0.46074700  0.07816100  1
  Cl  Cl31  1  0.15095600  0.53925300  0.92183900  1
