# generated using pymatgen
data_K2Sn2Hg3S8
_symmetry_space_group_name_H-M   'P 1'
_cell_length_a   6.71082042
_cell_length_b   6.71082042
_cell_length_c   20.04598300
_cell_angle_alpha   90.00000000
_cell_angle_beta   90.00000000
_cell_angle_gamma   96.70864281
_symmetry_Int_Tables_number   1
_chemical_formula_structural   K2Sn2Hg3S8
_chemical_formula_sum   'K4 Sn4 Hg6 S16'
_cell_volume   896.59181227
_cell_formula_units_Z   2
loop_
 _symmetry_equiv_pos_site_id
 _symmetry_equiv_pos_as_xyz
  1  'x, y, z'
loop_
 _atom_site_type_symbol
 _atom_site_label
 _atom_site_symmetry_multiplicity
 _atom_site_fract_x
 _atom_site_fract_y
 _atom_site_fract_z
 _atom_site_occupancy
  K  K0  1  0.85958900  0.44710300  0.88228200  1
  K  K1  1  0.44710300  0.85958900  0.11771800  1
  K  K2  1  0.35958900  0.94710300  0.61771800  1
  K  K3  1  0.94710300  0.35958900  0.38228200  1
  Sn  Sn4  1  0.37538400  0.94871000  0.86396500  1
  Sn  Sn5  1  0.94871000  0.37538400  0.13603500  1
  Sn  Sn6  1  0.87538400  0.44871000  0.63603500  1
  Sn  Sn7  1  0.44871000  0.87538400  0.36396500  1
  Hg  Hg8  1  0.31272500  0.39187700  0.75298200  1
  Hg  Hg9  1  0.39187700  0.31272500  0.24701800  1
  Hg  Hg10  1  0.81272500  0.89187700  0.74701800  1
  Hg  Hg11  1  0.89187700  0.81272500  0.25298200  1
  Hg  Hg12  1  0.01556900  0.01556900  0.00000000  1
  Hg  Hg13  1  0.51556900  0.51556900  0.50000000  1
  S  S14  1  0.23055800  0.40162100  0.63297600  1
  S  S15  1  0.40162100  0.23055800  0.36702400  1
  S  S16  1  0.73055800  0.90162100  0.86702400  1
  S  S17  1  0.90162100  0.73055800  0.13297600  1
  S  S18  1  0.32667900  0.30227500  0.87186100  1
  S  S19  1  0.30227500  0.32667900  0.12813900  1
  S  S20  1  0.82667900  0.80227500  0.62813900  1
  S  S21  1  0.80227500  0.82667900  0.37186100  1
  S  S22  1  0.23975800  0.78463700  0.96705600  1
  S  S23  1  0.78463700  0.23975800  0.03294400  1
  S  S24  1  0.73975800  0.28463700  0.53294400  1
  S  S25  1  0.28463700  0.73975800  0.46705600  1
  S  S26  1  0.22098500  0.79586000  0.76712300  1
  S  S27  1  0.79586000  0.22098500  0.23287700  1
  S  S28  1  0.29586000  0.72098500  0.26712300  1
  S  S29  1  0.72098500  0.29586000  0.73287700  1
