# generated using pymatgen
data_Cs2CoBr4
_symmetry_space_group_name_H-M   'P 1'
_cell_length_a   7.88326400
_cell_length_b   10.46563500
_cell_length_c   14.03847400
_cell_angle_alpha   90.00000000
_cell_angle_beta   90.00000000
_cell_angle_gamma   90.00000000
_symmetry_Int_Tables_number   1
_chemical_formula_structural   Cs2CoBr4
_chemical_formula_sum   'Cs8 Co4 Br16'
_cell_volume   1158.22132527
_cell_formula_units_Z   4
loop_
 _symmetry_equiv_pos_site_id
 _symmetry_equiv_pos_as_xyz
  1  'x, y, z'
loop_
 _atom_site_type_symbol
 _atom_site_label
 _atom_site_symmetry_multiplicity
 _atom_site_fract_x
 _atom_site_fract_y
 _atom_site_fract_z
 _atom_site_occupancy
  Cs  Cs0  1  0.25000000  0.98463300  0.17557000  1
  Cs  Cs1  1  0.75000000  0.01536700  0.82443000  1
  Cs  Cs2  1  0.75000000  0.51536700  0.67557000  1
  Cs  Cs3  1  0.25000000  0.48463300  0.32443000  1
  Cs  Cs4  1  0.25000000  0.65047100  0.91203500  1
  Cs  Cs5  1  0.75000000  0.34952900  0.08796500  1
  Cs  Cs6  1  0.75000000  0.84952900  0.41203500  1
  Cs  Cs7  1  0.25000000  0.15047100  0.58796500  1
  Co  Co8  1  0.25000000  0.73275900  0.57700200  1
  Co  Co9  1  0.75000000  0.26724100  0.42299800  1
  Co  Co10  1  0.75000000  0.76724100  0.07700200  1
  Co  Co11  1  0.25000000  0.23275900  0.92299800  1
  Br  Br12  1  0.00390300  0.81267300  0.65525000  1
  Br  Br13  1  0.99609700  0.18732700  0.34475000  1
  Br  Br14  1  0.99609700  0.68732700  0.15525000  1
  Br  Br15  1  0.50390300  0.18732700  0.34475000  1
  Br  Br16  1  0.00390300  0.31267300  0.84475000  1
  Br  Br17  1  0.49609700  0.81267300  0.65525000  1
  Br  Br18  1  0.49609700  0.31267300  0.84475000  1
  Br  Br19  1  0.50390300  0.68732700  0.15525000  1
  Br  Br20  1  0.25000000  0.50631700  0.58877300  1
  Br  Br21  1  0.75000000  0.49368300  0.41122700  1
  Br  Br22  1  0.75000000  0.99368300  0.08877300  1
  Br  Br23  1  0.25000000  0.00631700  0.91122700  1
  Br  Br24  1  0.25000000  0.31119100  0.08374300  1
  Br  Br25  1  0.75000000  0.68880900  0.91625700  1
  Br  Br26  1  0.75000000  0.18880900  0.58374300  1
  Br  Br27  1  0.25000000  0.81119100  0.41625700  1
