# generated using pymatgen
data_CaTi4(PO4)6
_symmetry_space_group_name_H-M   'P 1'
_cell_length_a   8.87169715
_cell_length_b   8.87169715
_cell_length_c   8.87169707
_cell_angle_alpha   57.70203607
_cell_angle_beta   57.70203607
_cell_angle_gamma   57.70202840
_symmetry_Int_Tables_number   1
_chemical_formula_structural   CaTi4(PO4)6
_chemical_formula_sum   'Ca1 Ti4 P6 O24'
_cell_volume   467.67964498
_cell_formula_units_Z   1
loop_
 _symmetry_equiv_pos_site_id
 _symmetry_equiv_pos_as_xyz
  1  'x, y, z'
loop_
 _atom_site_type_symbol
 _atom_site_label
 _atom_site_symmetry_multiplicity
 _atom_site_fract_x
 _atom_site_fract_y
 _atom_site_fract_z
 _atom_site_occupancy
  Ca  Ca0  1  0.00000000  0.00000000  0.00000000  1
  Ti  Ti1  1  0.63999100  0.63999100  0.63999100  1
  Ti  Ti2  1  0.85157000  0.85157000  0.85157000  1
  Ti  Ti3  1  0.14843000  0.14843000  0.14843000  1
  Ti  Ti4  1  0.36000900  0.36000900  0.36000900  1
  P  P5  1  0.75305400  0.02994300  0.46000400  1
  P  P6  1  0.46000400  0.75305400  0.02994300  1
  P  P7  1  0.02994300  0.46000400  0.75305400  1
  P  P8  1  0.24694600  0.97005700  0.53999600  1
  P  P9  1  0.53999600  0.24694600  0.97005700  1
  P  P10  1  0.97005700  0.53999600  0.24694600  1
  O  O11  1  0.46143600  0.56321800  0.19731800  1
  O  O12  1  0.19731800  0.46143600  0.56321800  1
  O  O13  1  0.56321800  0.19731800  0.46143600  1
  O  O14  1  0.53856400  0.43678200  0.80268200  1
  O  O15  1  0.80268200  0.53856400  0.43678200  1
  O  O16  1  0.43678200  0.80268200  0.53856400  1
  O  O17  1  0.08945800  0.91750800  0.73480900  1
  O  O18  1  0.73480900  0.08945800  0.91750800  1
  O  O19  1  0.91750800  0.73480900  0.08945800  1
  O  O20  1  0.91054200  0.08249200  0.26519100  1
  O  O21  1  0.26519100  0.91054200  0.08249200  1
  O  O22  1  0.00463600  0.37866500  0.19659500  1
  O  O23  1  0.37866500  0.19659500  0.00463600  1
  O  O24  1  0.19659500  0.00463600  0.37866500  1
  O  O25  1  0.99536400  0.62133500  0.80340500  1
  O  O26  1  0.62133500  0.80340500  0.99536400  1
  O  O27  1  0.80340500  0.99536400  0.62133500  1
  O  O28  1  0.48504300  0.74578100  0.84877300  1
  O  O29  1  0.74578100  0.84877300  0.48504300  1
  O  O30  1  0.84877300  0.48504300  0.74578100  1
  O  O31  1  0.51495700  0.25421900  0.15122700  1
  O  O32  1  0.25421900  0.15122700  0.51495700  1
  O  O33  1  0.15122700  0.51495700  0.25421900  1
  O  O34  1  0.08249200  0.26519100  0.91054200  1
