# generated using pymatgen
data_YTlS2
_symmetry_space_group_name_H-M   'P 1'
_cell_length_a   7.86578918
_cell_length_b   7.86578918
_cell_length_c   7.86578940
_cell_angle_alpha   29.77695169
_cell_angle_beta   29.77695169
_cell_angle_gamma   29.77696051
_symmetry_Int_Tables_number   1
_chemical_formula_structural   YTlS2
_chemical_formula_sum   'Y1 Tl1 S2'
_cell_volume   106.28393330
_cell_formula_units_Z   1
loop_
 _symmetry_equiv_pos_site_id
 _symmetry_equiv_pos_as_xyz
  1  'x, y, z'
loop_
 _atom_site_type_symbol
 _atom_site_label
 _atom_site_symmetry_multiplicity
 _atom_site_fract_x
 _atom_site_fract_y
 _atom_site_fract_z
 _atom_site_occupancy
  Y  Y0  1  0.00000000  0.00000000  0.00000000  1
  Tl  Tl1  1  0.50000000  0.50000000  0.50000000  1
  S  S2  1  0.73251800  0.73251800  0.73251800  1
  S  S3  1  0.26748200  0.26748200  0.26748200  1
