# generated using pymatgen
data_Mg3MoN4
_symmetry_space_group_name_H-M   'P 1'
_cell_length_a   6.77615800
_cell_length_b   5.85947700
_cell_length_c   5.29002100
_cell_angle_alpha   90.00000000
_cell_angle_beta   90.00000000
_cell_angle_gamma   90.00000000
_symmetry_Int_Tables_number   1
_chemical_formula_structural   Mg3MoN4
_chemical_formula_sum   'Mg6 Mo2 N8'
_cell_volume   210.03891871
_cell_formula_units_Z   2
loop_
 _symmetry_equiv_pos_site_id
 _symmetry_equiv_pos_as_xyz
  1  'x, y, z'
loop_
 _atom_site_type_symbol
 _atom_site_label
 _atom_site_symmetry_multiplicity
 _atom_site_fract_x
 _atom_site_fract_y
 _atom_site_fract_z
 _atom_site_occupancy
  Mg  Mg0  1  0.25225600  0.16924800  0.85727400  1
  Mg  Mg1  1  0.74774400  0.16924800  0.85727400  1
  Mg  Mg2  1  0.24774400  0.83075200  0.35727400  1
  Mg  Mg3  1  0.75225600  0.83075200  0.35727400  1
  Mg  Mg4  1  0.00000000  0.66068700  0.85816000  1
  Mg  Mg5  1  0.50000000  0.33931300  0.35816000  1
  Mo  Mo6  1  0.00000000  0.32910800  0.34943500  1
  Mo  Mo7  1  0.50000000  0.67089200  0.84943500  1
  N  N8  1  0.00000000  0.63553500  0.45636400  1
  N  N9  1  0.50000000  0.36446500  0.95636400  1
  N  N10  1  0.00000000  0.32643300  0.99715300  1
  N  N11  1  0.50000000  0.67356700  0.49715300  1
  N  N12  1  0.76886000  0.17700900  0.45698000  1
  N  N13  1  0.23114000  0.17700900  0.45698000  1
  N  N14  1  0.73114000  0.82299100  0.95698000  1
  N  N15  1  0.26886000  0.82299100  0.95698000  1
