# generated using pymatgen
data_Rb2Sr(PO3)4
_symmetry_space_group_name_H-M   'P 1'
_cell_length_a   7.53268705
_cell_length_b   7.53268705
_cell_length_c   7.53268705
_cell_angle_alpha   118.72803100
_cell_angle_beta   118.72803100
_cell_angle_gamma   92.21760591
_symmetry_Int_Tables_number   1
_chemical_formula_structural   Rb2Sr(PO3)4
_chemical_formula_sum   'Rb2 Sr1 P4 O12'
_cell_volume   307.78921080
_cell_formula_units_Z   1
loop_
 _symmetry_equiv_pos_site_id
 _symmetry_equiv_pos_as_xyz
  1  'x, y, z'
loop_
 _atom_site_type_symbol
 _atom_site_label
 _atom_site_symmetry_multiplicity
 _atom_site_fract_x
 _atom_site_fract_y
 _atom_site_fract_z
 _atom_site_occupancy
  Rb  Rb0  1  0.42267600  0.92267600  0.50000000  1
  Rb  Rb1  1  0.07732400  0.57732400  0.50000000  1
  Sr  Sr2  1  0.00000000  0.00000000  0.00000000  1
  P  P3  1  0.56324600  0.00240500  0.12974700  1
  P  P4  1  0.87265900  0.43350000  0.87025300  1
  P  P5  1  0.56650000  0.43675400  0.43915900  1
  P  P6  1  0.99759500  0.12734100  0.56084100  1
  O  O7  1  0.62220300  0.26209600  0.25599500  1
  O  O8  1  0.00610100  0.36620800  0.74400500  1
  O  O9  1  0.63379200  0.37779700  0.63989300  1
  O  O10  1  0.73790400  0.99389900  0.36010700  1
  O  O11  1  0.61100600  0.91718200  0.93842300  1
  O  O12  1  0.97875900  0.67258200  0.06157700  1
  O  O13  1  0.32741800  0.38899400  0.30617600  1
  O  O14  1  0.08281800  0.02124100  0.69382400  1
  O  O15  1  0.34599600  0.90362500  0.06573900  1
  O  O16  1  0.83788600  0.28025700  0.93426100  1
  O  O17  1  0.71974300  0.65400400  0.55762800  1
  O  O18  1  0.09637500  0.16211400  0.44237200  1
