# generated using pymatgen
data_ThS2
_symmetry_space_group_name_H-M   'P 1'
_cell_length_a   4.29954400
_cell_length_b   7.27797400
_cell_length_c   8.65001000
_cell_angle_alpha   90.00000000
_cell_angle_beta   90.00000000
_cell_angle_gamma   90.00000000
_symmetry_Int_Tables_number   1
_chemical_formula_structural   ThS2
_chemical_formula_sum   'Th4 S8'
_cell_volume   270.67584861
_cell_formula_units_Z   4
loop_
 _symmetry_equiv_pos_site_id
 _symmetry_equiv_pos_as_xyz
  1  'x, y, z'
loop_
 _atom_site_type_symbol
 _atom_site_label
 _atom_site_symmetry_multiplicity
 _atom_site_fract_x
 _atom_site_fract_y
 _atom_site_fract_z
 _atom_site_occupancy
  Th  Th0  1  0.75000000  0.24971200  0.38275200  1
  Th  Th1  1  0.25000000  0.75028800  0.61724800  1
  Th  Th2  1  0.75000000  0.74971200  0.11724800  1
  Th  Th3  1  0.25000000  0.25028800  0.88275200  1
  S  S4  1  0.75000000  0.63943300  0.42922100  1
  S  S5  1  0.25000000  0.36056700  0.57077900  1
  S  S6  1  0.75000000  0.13943300  0.07077900  1
  S  S7  1  0.25000000  0.86056700  0.92922100  1
  S  S8  1  0.75000000  0.52757300  0.83501700  1
  S  S9  1  0.25000000  0.47242700  0.16498300  1
  S  S10  1  0.75000000  0.02757300  0.66498300  1
  S  S11  1  0.25000000  0.97242700  0.33501700  1
