# generated using pymatgen
data_Li2MnGeO4
_symmetry_space_group_name_H-M   'P 1'
_cell_length_a   7.58430850
_cell_length_b   7.58430709
_cell_length_c   8.31167506
_cell_angle_alpha   65.04946262
_cell_angle_beta   65.04933017
_cell_angle_gamma   94.32565006
_symmetry_Int_Tables_number   1
_chemical_formula_structural   Li2MnGeO4
_chemical_formula_sum   'Li8 Mn4 Ge4 O16'
_cell_volume   373.89136221
_cell_formula_units_Z   4
loop_
 _symmetry_equiv_pos_site_id
 _symmetry_equiv_pos_as_xyz
  1  'x, y, z'
loop_
 _atom_site_type_symbol
 _atom_site_label
 _atom_site_symmetry_multiplicity
 _atom_site_fract_x
 _atom_site_fract_y
 _atom_site_fract_z
 _atom_site_occupancy
  Li  Li0  1  0.28992500  0.45797300  0.74959700  1
  Li  Li1  1  0.78992500  0.95797400  0.74959400  1
  Li  Li2  1  0.20756200  0.03952200  0.75042300  1
  Li  Li3  1  0.70755900  0.53952100  0.75042400  1
  Li  Li4  1  0.45797200  0.28992500  0.24959500  1
  Li  Li5  1  0.95797200  0.78992500  0.24959700  1
  Li  Li6  1  0.53952000  0.70756100  0.25042300  1
  Li  Li7  1  0.03952100  0.20756100  0.25042200  1
  Mn  Mn8  1  0.41520800  0.08461500  0.00001000  1
  Mn  Mn9  1  0.58462600  0.91518400  0.50001400  1
  Mn  Mn10  1  0.91518900  0.58464200  0.00001500  1
  Mn  Mn11  1  0.08463100  0.41519600  0.50001900  1
  Ge  Ge12  1  0.83523000  0.15721100  0.99999100  1
  Ge  Ge13  1  0.33522900  0.65720900  0.99999100  1
  Ge  Ge14  1  0.15720900  0.83523100  0.49999000  1
  Ge  Ge15  1  0.65721000  0.33522900  0.49999000  1
  O  O16  1  0.23163300  0.86198400  0.00000200  1
  O  O17  1  0.73163500  0.36198500  0.00000200  1
  O  O18  1  0.36198200  0.73163200  0.50000100  1
  O  O19  1  0.86198400  0.23163700  0.50000300  1
  O  O20  1  0.66480500  0.98172500  0.99998600  1
  O  O21  1  0.16480100  0.48172900  0.99998500  1
  O  O22  1  0.98172500  0.66480400  0.49998700  1
  O  O23  1  0.48172900  0.16480100  0.49998500  1
  O  O24  1  0.08058700  0.25299400  0.77647300  1
  O  O25  1  0.58058900  0.75299600  0.77647000  1
  O  O26  1  0.02944500  0.85708100  0.72351500  1
  O  O27  1  0.52944500  0.35708100  0.72351800  1
  O  O28  1  0.25299800  0.08058800  0.27646800  1
  O  O29  1  0.75299300  0.58058900  0.27647400  1
  O  O30  1  0.35707900  0.52944600  0.22351800  1
  O  O31  1  0.85707900  0.02944400  0.22351800  1
