# generated using pymatgen
data_Dy3Zn11
_symmetry_space_group_name_H-M   'P 1'
_cell_length_a   8.14192541
_cell_length_b   8.14192541
_cell_length_c   8.14192541
_cell_angle_alpha   148.36245780
_cell_angle_beta   114.34063080
_cell_angle_gamma   74.71954584
_symmetry_Int_Tables_number   1
_chemical_formula_structural   Dy3Zn11
_chemical_formula_sum   'Dy3 Zn11'
_cell_volume   253.60308463
_cell_formula_units_Z   1
loop_
 _symmetry_equiv_pos_site_id
 _symmetry_equiv_pos_as_xyz
  1  'x, y, z'
loop_
 _atom_site_type_symbol
 _atom_site_label
 _atom_site_symmetry_multiplicity
 _atom_site_fract_x
 _atom_site_fract_y
 _atom_site_fract_z
 _atom_site_occupancy
  Dy  Dy0  1  0.00000000  0.00000000  0.00000000  1
  Dy  Dy1  1  0.29378000  0.29378000  0.00000000  1
  Dy  Dy2  1  0.70622000  0.70622000  0.00000000  1
  Zn  Zn3  1  0.50000000  0.00000000  0.50000000  1
  Zn  Zn4  1  0.68204800  0.50000000  0.18204800  1
  Zn  Zn5  1  0.31795200  0.50000000  0.81795200  1
  Zn  Zn6  1  0.69945500  0.34051800  0.35893700  1
  Zn  Zn7  1  0.30054500  0.65948200  0.64106300  1
  Zn  Zn8  1  0.98158200  0.34051800  0.64106300  1
  Zn  Zn9  1  0.01841800  0.65948200  0.35893700  1
  Zn  Zn10  1  0.41797300  0.13794200  0.28003100  1
  Zn  Zn11  1  0.58202700  0.86205800  0.71996900  1
  Zn  Zn12  1  0.85791100  0.13794200  0.71996900  1
  Zn  Zn13  1  0.14208900  0.86205800  0.28003100  1
