# generated using pymatgen
data_KNa3Al12H24(SO7)8
_symmetry_space_group_name_H-M   'P 1'
_cell_length_a   7.05387100
_cell_length_b   12.07637100
_cell_length_c   12.21795515
_cell_angle_alpha   70.29133654
_cell_angle_beta   90.00000000
_cell_angle_gamma   90.00000000
_symmetry_Int_Tables_number   1
_chemical_formula_structural   KNa3Al12H24(SO7)8
_chemical_formula_sum   'K1 Na3 Al12 H24 S8 O56'
_cell_volume   979.81865803
_cell_formula_units_Z   1
loop_
 _symmetry_equiv_pos_site_id
 _symmetry_equiv_pos_as_xyz
  1  'x, y, z'
loop_
 _atom_site_type_symbol
 _atom_site_label
 _atom_site_symmetry_multiplicity
 _atom_site_fract_x
 _atom_site_fract_y
 _atom_site_fract_z
 _atom_site_occupancy
  K  K0  1  0.50000000  0.00000000  0.50000000  1
  Na  Na1  1  0.00000000  0.00000000  0.00000000  1
  Na  Na2  1  0.50000000  0.50000000  0.00000000  1
  Na  Na3  1  0.00000000  0.50000000  0.50000000  1
  Al  Al4  1  0.75034500  0.74871000  0.50021300  1
  Al  Al5  1  0.24965500  0.25129000  0.49978700  1
  Al  Al6  1  0.75005000  0.25009100  0.99985700  1
  Al  Al7  1  0.24995000  0.74990900  0.00014300  1
  Al  Al8  1  0.00000000  0.74982700  0.24985200  1
  Al  Al9  1  0.50000000  0.25122800  0.24917100  1
  Al  Al10  1  0.00000000  0.25017300  0.75014800  1
  Al  Al11  1  0.50000000  0.74877200  0.75082900  1
  Al  Al12  1  0.75034500  0.25129000  0.49978700  1
  Al  Al13  1  0.24965500  0.74871000  0.50021300  1
  Al  Al14  1  0.75005000  0.74990900  0.00014300  1
  Al  Al15  1  0.24995000  0.25009100  0.99985700  1
  H  H16  1  0.70533700  0.16656400  0.84626500  1
  H  H17  1  0.20530200  0.16739600  0.34596500  1
  H  H18  1  0.70523100  0.66657300  0.34612700  1
  H  H19  1  0.20512400  0.66654800  0.84629200  1
  H  H20  1  0.29466300  0.16656400  0.84626500  1
  H  H21  1  0.79469800  0.16739600  0.34596500  1
  H  H22  1  0.29476900  0.66657300  0.34612700  1
  H  H23  1  0.79487600  0.66654800  0.84629200  1
  H  H24  1  0.50000000  0.16739600  0.64065000  1
  H  H25  1  0.00000000  0.16657300  0.14092800  1
  H  H26  1  0.50000000  0.66655900  0.14098000  1
  H  H27  1  0.00000000  0.66657200  0.64106200  1
  H  H28  1  0.29476900  0.33342700  0.65387300  1
  H  H29  1  0.79487600  0.33345200  0.15370800  1
  H  H30  1  0.29466300  0.83343600  0.15373500  1
  H  H31  1  0.79469800  0.83260400  0.65403500  1
  H  H32  1  0.70523100  0.33342700  0.65387300  1
  H  H33  1  0.20512400  0.33345200  0.15370800  1
  H  H34  1  0.70533700  0.83343600  0.15373500  1
  H  H35  1  0.20530200  0.83260400  0.65403500  1
  H  H36  1  0.50000000  0.33344100  0.85902000  1
  H  H37  1  0.00000000  0.33342800  0.35893800  1
  H  H38  1  0.50000000  0.83260400  0.35935000  1
  H  H39  1  0.00000000  0.83342700  0.85907200  1
  S  S40  1  0.50000000  0.54111900  0.65298700  1
  S  S41  1  0.00000000  0.54153800  0.15279600  1
  S  S42  1  0.50000000  0.04188000  0.15217600  1
  S  S43  1  0.00000000  0.04218000  0.65315500  1
  S  S44  1  0.50000000  0.95812000  0.84782400  1
  S  S45  1  0.00000000  0.95782000  0.34684500  1
  S  S46  1  0.50000000  0.45888100  0.34701300  1
  S  S47  1  0.00000000  0.45846200  0.84720400  1
  O  O48  1  0.81167900  0.20760600  0.86803000  1
  O  O49  1  0.31019100  0.21029800  0.36662500  1
  O  O50  1  0.81206800  0.70719500  0.36799200  1
  O  O51  1  0.31163900  0.70719500  0.86845400  1
  O  O52  1  0.18832100  0.20760600  0.86803000  1
  O  O53  1  0.68980900  0.21029800  0.36662500  1
  O  O54  1  0.18793200  0.70719500  0.36799200  1
  O  O55  1  0.68836100  0.70719500  0.86845400  1
  O  O56  1  0.50000000  0.21039600  0.55642400  1
  O  O57  1  0.00000000  0.20753000  0.05635500  1
  O  O58  1  0.50000000  0.70754600  0.05637300  1
  O  O59  1  0.00000000  0.70688700  0.55634400  1
  O  O60  1  0.18793200  0.29280500  0.63200800  1
  O  O61  1  0.68836100  0.29280500  0.13154600  1
  O  O62  1  0.18832100  0.79239400  0.13197000  1
  O  O63  1  0.68980900  0.78970200  0.63337500  1
  O  O64  1  0.81206800  0.29280500  0.63200800  1
  O  O65  1  0.31163900  0.29280500  0.13154600  1
  O  O66  1  0.81167900  0.79239400  0.13197000  1
  O  O67  1  0.31019100  0.78970200  0.63337500  1
  O  O68  1  0.50000000  0.29245400  0.94362700  1
  O  O69  1  0.00000000  0.29311300  0.44365600  1
  O  O70  1  0.50000000  0.78960400  0.44357600  1
  O  O71  1  0.00000000  0.79247000  0.94364500  1
  O  O72  1  0.67319000  0.91410600  0.92017700  1
  O  O73  1  0.17266000  0.91294400  0.41937900  1
  O  O74  1  0.67309700  0.41468200  0.41946200  1
  O  O75  1  0.17307100  0.41408900  0.91963400  1
  O  O76  1  0.32681000  0.91410600  0.92017700  1
  O  O77  1  0.82734000  0.91294400  0.41937900  1
  O  O78  1  0.32690300  0.41468200  0.41946200  1
  O  O79  1  0.82692900  0.41408900  0.91963400  1
  O  O80  1  0.50000000  0.91289000  0.74785400  1
  O  O81  1  0.00000000  0.91413200  0.24592700  1
  O  O82  1  0.50000000  0.41462100  0.24638400  1
  O  O83  1  0.00000000  0.41411400  0.74662800  1
  O  O84  1  0.32690300  0.58531800  0.58053800  1
  O  O85  1  0.82692900  0.58591100  0.08036600  1
  O  O86  1  0.32681000  0.08589400  0.07982300  1
  O  O87  1  0.82734000  0.08705600  0.58062100  1
  O  O88  1  0.67309700  0.58531800  0.58053800  1
  O  O89  1  0.17307100  0.58591100  0.08036600  1
  O  O90  1  0.67319000  0.08589400  0.07982300  1
  O  O91  1  0.17266000  0.08705600  0.58062100  1
  O  O92  1  0.50000000  0.58537900  0.75361600  1
  O  O93  1  0.00000000  0.58588600  0.25337200  1
  O  O94  1  0.50000000  0.08711000  0.25214600  1
  O  O95  1  0.00000000  0.08586800  0.75407300  1
  O  O96  1  0.50000000  0.41223000  0.69596800  1
  O  O97  1  0.00000000  0.41258600  0.19575900  1
  O  O98  1  0.50000000  0.91289700  0.19582500  1
  O  O99  1  0.00000000  0.91318700  0.69548100  1
  O  O100  1  0.50000000  0.08710300  0.80417500  1
  O  O101  1  0.00000000  0.08681300  0.30451900  1
  O  O102  1  0.50000000  0.58777000  0.30403200  1
  O  O103  1  0.00000000  0.58741400  0.80424100  1
