# generated using pymatgen
data_Ca2CrN3
_symmetry_space_group_name_H-M   'P 1'
_cell_length_a   5.90884693
_cell_length_b   5.90884693
_cell_length_c   11.65821400
_cell_angle_alpha   90.00000000
_cell_angle_beta   90.00000000
_cell_angle_gamma   124.57937679
_symmetry_Int_Tables_number   1
_chemical_formula_structural   Ca2CrN3
_chemical_formula_sum   'Ca8 Cr4 N12'
_cell_volume   335.13291985
_cell_formula_units_Z   4
loop_
 _symmetry_equiv_pos_site_id
 _symmetry_equiv_pos_as_xyz
  1  'x, y, z'
loop_
 _atom_site_type_symbol
 _atom_site_label
 _atom_site_symmetry_multiplicity
 _atom_site_fract_x
 _atom_site_fract_y
 _atom_site_fract_z
 _atom_site_occupancy
  Ca  Ca0  1  0.54983500  0.45016500  0.64163700  1
  Ca  Ca1  1  0.45016500  0.54983500  0.35836300  1
  Ca  Ca2  1  0.95016500  0.04983500  0.14163700  1
  Ca  Ca3  1  0.04983500  0.95016500  0.85836300  1
  Ca  Ca4  1  0.85816900  0.14183100  0.57967600  1
  Ca  Ca5  1  0.14183100  0.85816900  0.42032400  1
  Ca  Ca6  1  0.64183100  0.35816900  0.07967600  1
  Ca  Ca7  1  0.35816900  0.64183100  0.92032400  1
  Cr  Cr8  1  0.74495200  0.25504800  0.83942900  1
  Cr  Cr9  1  0.25504800  0.74495200  0.16057100  1
  Cr  Cr10  1  0.75504800  0.24495200  0.33942900  1
  Cr  Cr11  1  0.24495200  0.75504800  0.66057100  1
  N  N12  1  0.84437800  0.15562200  0.96276900  1
  N  N13  1  0.15562200  0.84437800  0.03723100  1
  N  N14  1  0.65562200  0.34437800  0.46276900  1
  N  N15  1  0.34437800  0.65562200  0.53723100  1
  N  N16  1  0.58126000  0.41874000  0.86702600  1
  N  N17  1  0.41874000  0.58126000  0.13297400  1
  N  N18  1  0.91874000  0.08126000  0.36702600  1
  N  N19  1  0.08126000  0.91874000  0.63297400  1
  N  N20  1  0.53783200  0.96216800  0.75000000  1
  N  N21  1  0.96216800  0.53783200  0.25000000  1
  N  N22  1  0.46216800  0.03783200  0.25000000  1
  N  N23  1  0.03783200  0.46216800  0.75000000  1
