# generated using pymatgen
data_W5I16
_symmetry_space_group_name_H-M   'P 1'
_cell_length_a   10.75933400
_cell_length_b   10.82271500
_cell_length_c   30.27008700
_cell_angle_alpha   90.00000000
_cell_angle_beta   90.00000000
_cell_angle_gamma   90.00000000
_symmetry_Int_Tables_number   1
_chemical_formula_structural   W5I16
_chemical_formula_sum   'W20 I64'
_cell_volume   3524.80650036
_cell_formula_units_Z   4
loop_
 _symmetry_equiv_pos_site_id
 _symmetry_equiv_pos_as_xyz
  1  'x, y, z'
loop_
 _atom_site_type_symbol
 _atom_site_label
 _atom_site_symmetry_multiplicity
 _atom_site_fract_x
 _atom_site_fract_y
 _atom_site_fract_z
 _atom_site_occupancy
  W  W0  1  0.57952500  0.32479500  0.62348200  1
  W  W1  1  0.07952500  0.67520500  0.37651800  1
  W  W2  1  0.07952500  0.82479500  0.87651800  1
  W  W3  1  0.57952500  0.17520500  0.12348200  1
  W  W4  1  0.75742800  0.16788000  0.59607900  1
  W  W5  1  0.25742800  0.83212000  0.40392100  1
  W  W6  1  0.25742800  0.66788000  0.90392100  1
  W  W7  1  0.75742800  0.33212000  0.09607900  1
  W  W8  1  0.76028400  0.25666200  0.67859500  1
  W  W9  1  0.26028400  0.74333800  0.32140500  1
  W  W10  1  0.26028400  0.75666200  0.82140500  1
  W  W11  1  0.76028400  0.24333800  0.17859500  1
  W  W12  1  0.75643700  0.48567800  0.64763900  1
  W  W13  1  0.25643700  0.51432200  0.35236100  1
  W  W14  1  0.25643700  0.98567800  0.85236100  1
  W  W15  1  0.75643700  0.01432200  0.14763900  1
  W  W16  1  0.75569700  0.39954500  0.56607300  1
  W  W17  1  0.25569700  0.60045500  0.43392700  1
  W  W18  1  0.25569700  0.89954500  0.93392700  1
  W  W19  1  0.75569700  0.10045500  0.06607300  1
  I  I20  1  0.57641900  0.07984300  0.65570300  1
  I  I21  1  0.07641900  0.92015700  0.34429700  1
  I  I22  1  0.07641900  0.57984300  0.84429700  1
  I  I23  1  0.57641900  0.42015700  0.15570300  1
  I  I24  1  0.57603500  0.42250600  0.70999200  1
  I  I25  1  0.07603500  0.57749400  0.29000800  1
  I  I26  1  0.07603500  0.92250600  0.79000800  1
  I  I27  1  0.57603500  0.07749400  0.20999200  1
  I  I28  1  0.56532100  0.56804200  0.59101200  1
  I  I29  1  0.06532100  0.43195800  0.40898800  1
  I  I30  1  0.06532100  0.06804200  0.90898800  1
  I  I31  1  0.56532100  0.93195800  0.09101200  1
  I  I32  1  0.56777100  0.23654700  0.53639500  1
  I  I33  1  0.06777100  0.76345300  0.46360500  1
  I  I34  1  0.06777100  0.73654700  0.96360500  1
  I  I35  1  0.56777100  0.26345300  0.03639500  1
  I  I36  1  0.94508700  0.09301300  0.65282300  1
  I  I37  1  0.44508700  0.90698700  0.34717700  1
  I  I38  1  0.44508700  0.59301300  0.84717700  1
  I  I39  1  0.94508700  0.40698700  0.15282300  1
  I  I40  1  0.94496200  0.41958300  0.70497800  1
  I  I41  1  0.44496200  0.58041700  0.29502200  1
  I  I42  1  0.44496200  0.91958300  0.79502200  1
  I  I43  1  0.94496200  0.08041700  0.20497800  1
  I  I44  1  0.94247500  0.56272300  0.59083400  1
  I  I45  1  0.44247500  0.43727700  0.40916600  1
  I  I46  1  0.44247500  0.06272300  0.90916600  1
  I  I47  1  0.94247500  0.93727700  0.09083400  1
  I  I48  1  0.94563800  0.24324400  0.54059200  1
  I  I49  1  0.44563800  0.75675600  0.45940800  1
  I  I50  1  0.44563800  0.74324400  0.95940800  1
  I  I51  1  0.94563800  0.25675600  0.04059200  1
  I  I52  1  0.30957700  0.31328700  0.62742400  1
  I  I53  1  0.80957700  0.68671300  0.37257600  1
  I  I54  1  0.80957700  0.81328700  0.87257600  1
  I  I55  1  0.30957700  0.18671300  0.12742400  1
  I  I56  1  0.75782600  0.93601000  0.55336400  1
  I  I57  1  0.25782600  0.06399000  0.44663600  1
  I  I58  1  0.25782600  0.43601000  0.94663600  1
  I  I59  1  0.75782600  0.56399000  0.05336400  1
  I  I60  1  0.76442900  0.15021900  0.76451800  1
  I  I61  1  0.26442900  0.84978100  0.23548200  1
  I  I62  1  0.26442900  0.65021900  0.73548200  1
  I  I63  1  0.76442900  0.34978100  0.26451800  1
  I  I64  1  0.76037500  0.73311200  0.68100900  1
  I  I65  1  0.26037500  0.26688800  0.31899100  1
  I  I66  1  0.26037500  0.23311200  0.81899100  1
  I  I67  1  0.76037500  0.76688800  0.18100900  1
  I  I68  1  0.75678500  0.50965600  0.48241300  1
  I  I69  1  0.25678500  0.49034400  0.51758700  1
  I  I70  1  0.25678500  0.00965600  0.01758700  1
  I  I71  1  0.75678500  0.99034400  0.98241300  1
  I  I72  1  0.27481900  0.24518900  0.72147300  1
  I  I73  1  0.77481900  0.75481100  0.27852700  1
  I  I74  1  0.77481900  0.74518900  0.77852700  1
  I  I75  1  0.27481900  0.25481100  0.22147300  1
  I  I76  1  0.76239000  0.32184300  0.85499700  1
  I  I77  1  0.26239000  0.67815700  0.14500300  1
  I  I78  1  0.26239000  0.82184300  0.64500300  1
  I  I79  1  0.76239000  0.17815700  0.35499700  1
  I  I80  1  0.76061000  0.05780800  0.43773100  1
  I  I81  1  0.26061000  0.94219200  0.56226900  1
  I  I82  1  0.26061000  0.55780800  0.06226900  1
  I  I83  1  0.76061000  0.44219200  0.93773100  1
