# generated using pymatgen
data_RbNb2PSe10
_symmetry_space_group_name_H-M   'P 1'
_cell_length_a   8.10462800
_cell_length_b   7.67437700
_cell_length_c   13.77425913
_cell_angle_alpha   73.23378374
_cell_angle_beta   90.00000000
_cell_angle_gamma   90.00000000
_symmetry_Int_Tables_number   1
_chemical_formula_structural   RbNb2PSe10
_chemical_formula_sum   'Rb2 Nb4 P2 Se20'
_cell_volume   820.31112277
_cell_formula_units_Z   2
loop_
 _symmetry_equiv_pos_site_id
 _symmetry_equiv_pos_as_xyz
  1  'x, y, z'
loop_
 _atom_site_type_symbol
 _atom_site_label
 _atom_site_symmetry_multiplicity
 _atom_site_fract_x
 _atom_site_fract_y
 _atom_site_fract_z
 _atom_site_occupancy
  Rb  Rb0  1  0.48921900  0.81350500  0.30828300  1
  Rb  Rb1  1  0.51078100  0.81350500  0.80828300  1
  Nb  Nb2  1  0.05974800  0.26527800  0.33264400  1
  Nb  Nb3  1  0.94025200  0.26527800  0.83264400  1
  Nb  Nb4  1  0.06092200  0.25747800  0.03961100  1
  Nb  Nb5  1  0.93907800  0.25747800  0.53961100  1
  P  P6  1  0.40408100  0.40634100  0.15958200  1
  P  P7  1  0.59591900  0.40634100  0.65958200  1
  Se  Se8  1  0.13902900  0.00713500  0.49973400  1
  Se  Se9  1  0.86097100  0.00713500  0.99973400  1
  Se  Se10  1  0.16336200  0.21639600  0.69303400  1
  Se  Se11  1  0.83663800  0.21639600  0.19303400  1
  Se  Se12  1  0.39458900  0.20750800  0.06887500  1
  Se  Se13  1  0.60541100  0.20750800  0.56887500  1
  Se  Se14  1  0.14128100  0.51071400  0.14358600  1
  Se  Se15  1  0.85871900  0.51071400  0.64358600  1
  Se  Se16  1  0.06004400  0.01132200  0.22558300  1
  Se  Se17  1  0.93995600  0.01132200  0.72558300  1
  Se  Se18  1  0.11862300  0.52498900  0.42519600  1
  Se  Se19  1  0.88137700  0.52498900  0.92519600  1
  Se  Se20  1  0.40511200  0.27221400  0.32712100  1
  Se  Se21  1  0.59488800  0.27221400  0.82712100  1
  Se  Se22  1  0.59853800  0.60630800  0.11015100  1
  Se  Se23  1  0.40146200  0.60630800  0.61015100  1
  Se  Se24  1  0.14903500  0.50602400  0.86512900  1
  Se  Se25  1  0.85096500  0.50602400  0.36512900  1
  Se  Se26  1  0.13453200  0.00596800  0.95008100  1
  Se  Se27  1  0.86546800  0.00596800  0.45008100  1
