# generated using pymatgen
data_Mg3Pd5
_symmetry_space_group_name_H-M   'P 1'
_cell_length_a   4.34690800
_cell_length_b   5.51642300
_cell_length_c   10.59412400
_cell_angle_alpha   90.00000000
_cell_angle_beta   90.00000000
_cell_angle_gamma   90.00000000
_symmetry_Int_Tables_number   1
_chemical_formula_structural   Mg3Pd5
_chemical_formula_sum   'Mg6 Pd10'
_cell_volume   254.04055981
_cell_formula_units_Z   2
loop_
 _symmetry_equiv_pos_site_id
 _symmetry_equiv_pos_as_xyz
  1  'x, y, z'
loop_
 _atom_site_type_symbol
 _atom_site_label
 _atom_site_symmetry_multiplicity
 _atom_site_fract_x
 _atom_site_fract_y
 _atom_site_fract_z
 _atom_site_occupancy
  Mg  Mg0  1  0.00000000  0.00000000  0.50000000  1
  Mg  Mg1  1  0.00000000  0.50000000  0.00000000  1
  Mg  Mg2  1  0.50000000  0.15057300  0.13573700  1
  Mg  Mg3  1  0.50000000  0.84942700  0.86426300  1
  Mg  Mg4  1  0.50000000  0.34942700  0.63573700  1
  Mg  Mg5  1  0.50000000  0.65057300  0.36426300  1
  Pd  Pd6  1  0.50000000  0.16405300  0.38720600  1
  Pd  Pd7  1  0.50000000  0.83594700  0.61279400  1
  Pd  Pd8  1  0.50000000  0.33594700  0.88720600  1
  Pd  Pd9  1  0.50000000  0.66405300  0.11279400  1
  Pd  Pd10  1  0.00000000  0.36909700  0.24334500  1
  Pd  Pd11  1  0.00000000  0.63090300  0.75665500  1
  Pd  Pd12  1  0.00000000  0.13090300  0.74334500  1
  Pd  Pd13  1  0.00000000  0.86909700  0.25665500  1
  Pd  Pd14  1  0.00000000  0.00000000  0.00000000  1
  Pd  Pd15  1  0.00000000  0.50000000  0.50000000  1
