# generated using pymatgen
data_HfAl2
_symmetry_space_group_name_H-M   'P 1'
_cell_length_a   5.24810950
_cell_length_b   5.24810950
_cell_length_c   8.72715300
_cell_angle_alpha   90.00000000
_cell_angle_beta   90.00000000
_cell_angle_gamma   119.99999365
_symmetry_Int_Tables_number   1
_chemical_formula_structural   HfAl2
_chemical_formula_sum   'Hf4 Al8'
_cell_volume   208.16562964
_cell_formula_units_Z   4
loop_
 _symmetry_equiv_pos_site_id
 _symmetry_equiv_pos_as_xyz
  1  'x, y, z'
loop_
 _atom_site_type_symbol
 _atom_site_label
 _atom_site_symmetry_multiplicity
 _atom_site_fract_x
 _atom_site_fract_y
 _atom_site_fract_z
 _atom_site_occupancy
  Hf  Hf0  1  0.33333300  0.66666700  0.43631900  1
  Hf  Hf1  1  0.66666700  0.33333300  0.93631900  1
  Hf  Hf2  1  0.66666700  0.33333300  0.56368100  1
  Hf  Hf3  1  0.33333300  0.66666700  0.06368100  1
  Al  Al4  1  0.17056900  0.34113900  0.75000000  1
  Al  Al5  1  0.82943100  0.17056900  0.25000000  1
  Al  Al6  1  0.34113900  0.17056900  0.25000000  1
  Al  Al7  1  0.65886100  0.82943100  0.75000000  1
  Al  Al8  1  0.00000000  0.00000000  0.00000000  1
  Al  Al9  1  0.00000000  0.00000000  0.50000000  1
  Al  Al10  1  0.82943100  0.65886100  0.25000000  1
  Al  Al11  1  0.17056900  0.82943100  0.75000000  1
