# generated using pymatgen
data_CsOsC3(ClO)3
_symmetry_space_group_name_H-M   'P 1'
_cell_length_a   9.33448500
_cell_length_b   10.15472500
_cell_length_c   11.38237248
_cell_angle_alpha   88.88960060
_cell_angle_beta   90.00000000
_cell_angle_gamma   90.00000000
_symmetry_Int_Tables_number   1
_chemical_formula_structural   CsOsC3(ClO)3
_chemical_formula_sum   'Cs4 Os4 C12 Cl12 O12'
_cell_volume   1078.72255427
_cell_formula_units_Z   4
loop_
 _symmetry_equiv_pos_site_id
 _symmetry_equiv_pos_as_xyz
  1  'x, y, z'
loop_
 _atom_site_type_symbol
 _atom_site_label
 _atom_site_symmetry_multiplicity
 _atom_site_fract_x
 _atom_site_fract_y
 _atom_site_fract_z
 _atom_site_occupancy
  Cs  Cs0  1  0.24758000  0.88142300  0.04260100  1
  Cs  Cs1  1  0.74758000  0.11857700  0.45739900  1
  Cs  Cs2  1  0.75242000  0.11857700  0.95739900  1
  Cs  Cs3  1  0.25242000  0.88142300  0.54260100  1
  Os  Os4  1  0.11953600  0.29578300  0.70961400  1
  Os  Os5  1  0.61953600  0.70421700  0.79038600  1
  Os  Os6  1  0.88046400  0.70421700  0.29038600  1
  Os  Os7  1  0.38046400  0.29578300  0.20961400  1
  C  C8  1  0.11952200  0.36757600  0.86179700  1
  C  C9  1  0.61952200  0.63242400  0.63820300  1
  C  C10  1  0.88047800  0.63242400  0.13820300  1
  C  C11  1  0.38047800  0.36757600  0.36179700  1
  C  C12  1  0.12922200  0.46422400  0.63572000  1
  C  C13  1  0.62922200  0.53577600  0.86428000  1
  C  C14  1  0.87077800  0.53577600  0.36428000  1
  C  C15  1  0.37077800  0.46422400  0.13572000  1
  C  C16  1  0.32149300  0.27579100  0.70947000  1
  C  C17  1  0.82149300  0.72420900  0.79053000  1
  C  C18  1  0.67850700  0.72420900  0.29053000  1
  C  C19  1  0.17850700  0.27579100  0.20947000  1
  Cl  Cl20  1  0.10934900  0.19771000  0.51435400  1
  Cl  Cl21  1  0.60934900  0.80229000  0.98564600  1
  Cl  Cl22  1  0.89065100  0.80229000  0.48564600  1
  Cl  Cl23  1  0.39065100  0.19771000  0.01435400  1
  Cl  Cl24  1  0.08724800  0.07113300  0.79167300  1
  Cl  Cl25  1  0.58724800  0.92886700  0.70832700  1
  Cl  Cl26  1  0.91275200  0.92886700  0.20832700  1
  Cl  Cl27  1  0.41275200  0.07113300  0.29167300  1
  Cl  Cl28  1  0.85688900  0.31402500  0.70488400  1
  Cl  Cl29  1  0.35688900  0.68597500  0.79511600  1
  Cl  Cl30  1  0.14311100  0.68597500  0.29511600  1
  Cl  Cl31  1  0.64311100  0.31402500  0.20488400  1
  O  O32  1  0.11626700  0.41227700  0.95464000  1
  O  O33  1  0.61626700  0.58772300  0.54536000  1
  O  O34  1  0.88373300  0.58772300  0.04536000  1
  O  O35  1  0.38373300  0.41227700  0.45464000  1
  O  O36  1  0.13215300  0.56600100  0.58806900  1
  O  O37  1  0.63215300  0.43399900  0.91193100  1
  O  O38  1  0.86784700  0.43399900  0.41193100  1
  O  O39  1  0.36784700  0.56600100  0.08806900  1
  O  O40  1  0.44491100  0.26267300  0.70623500  1
  O  O41  1  0.94491100  0.73732700  0.79376500  1
  O  O42  1  0.55508900  0.73732700  0.29376500  1
  O  O43  1  0.05508900  0.26267300  0.20623500  1
