# generated using pymatgen
data_Rb3TmCl6
_symmetry_space_group_name_H-M   'P 1'
_cell_length_a   13.61981584
_cell_length_b   13.61981584
_cell_length_c   12.91851734
_cell_angle_alpha   80.80397746
_cell_angle_beta   80.80397746
_cell_angle_gamma   34.05321620
_symmetry_Int_Tables_number   1
_chemical_formula_structural   Rb3TmCl6
_chemical_formula_sum   'Rb12 Tm4 Cl24'
_cell_volume   1323.00598196
_cell_formula_units_Z   4
loop_
 _symmetry_equiv_pos_site_id
 _symmetry_equiv_pos_as_xyz
  1  'x, y, z'
loop_
 _atom_site_type_symbol
 _atom_site_label
 _atom_site_symmetry_multiplicity
 _atom_site_fract_x
 _atom_site_fract_y
 _atom_site_fract_z
 _atom_site_occupancy
  Rb  Rb0  1  0.30251900  0.79677500  0.56680200  1
  Rb  Rb1  1  0.69748100  0.20322500  0.43319800  1
  Rb  Rb2  1  0.20322500  0.69748100  0.93319800  1
  Rb  Rb3  1  0.79677500  0.30251900  0.06680200  1
  Rb  Rb4  1  0.46629700  0.84147000  0.85576500  1
  Rb  Rb5  1  0.53370300  0.15853000  0.14423500  1
  Rb  Rb6  1  0.15853000  0.53370300  0.64423500  1
  Rb  Rb7  1  0.84147000  0.46629700  0.35576500  1
  Rb  Rb8  1  0.65084200  0.02533800  0.79974700  1
  Rb  Rb9  1  0.34915800  0.97466200  0.20025300  1
  Rb  Rb10  1  0.97466200  0.34915800  0.70025300  1
  Rb  Rb11  1  0.02533800  0.65084200  0.29974700  1
  Tm  Tm12  1  0.78378400  0.21621600  0.75000000  1
  Tm  Tm13  1  0.21621600  0.78378400  0.25000000  1
  Tm  Tm14  1  0.50000000  0.00000000  0.50000000  1
  Tm  Tm15  1  0.00000000  0.50000000  0.00000000  1
  Cl  Cl16  1  0.62181500  0.72527200  0.58060300  1
  Cl  Cl17  1  0.37818500  0.27472800  0.41939700  1
  Cl  Cl18  1  0.27472800  0.37818500  0.91939700  1
  Cl  Cl19  1  0.72527200  0.62181500  0.08060300  1
  Cl  Cl20  1  0.49824600  0.38526100  0.68007500  1
  Cl  Cl21  1  0.50175400  0.61473900  0.31992500  1
  Cl  Cl22  1  0.61473900  0.50175400  0.81992500  1
  Cl  Cl23  1  0.38526100  0.49824600  0.18007500  1
  Cl  Cl24  1  0.78083800  0.86354800  0.53450600  1
  Cl  Cl25  1  0.21916200  0.13645200  0.46549400  1
  Cl  Cl26  1  0.13645200  0.21916200  0.96549400  1
  Cl  Cl27  1  0.86354800  0.78083800  0.03450600  1
  Cl  Cl28  1  0.91661900  0.96668400  0.19586000  1
  Cl  Cl29  1  0.08338100  0.03331600  0.80414000  1
  Cl  Cl30  1  0.03331600  0.08338100  0.30414000  1
  Cl  Cl31  1  0.96668400  0.91661900  0.69586000  1
  Cl  Cl32  1  0.71799800  0.16710200  0.93300200  1
  Cl  Cl33  1  0.28200200  0.83289800  0.06699800  1
  Cl  Cl34  1  0.83289800  0.28200200  0.56699800  1
  Cl  Cl35  1  0.16710200  0.71799800  0.43300200  1
  Cl  Cl36  1  0.36151500  0.13924200  0.68439800  1
  Cl  Cl37  1  0.63848500  0.86075800  0.31560200  1
  Cl  Cl38  1  0.86075800  0.63848500  0.81560200  1
  Cl  Cl39  1  0.13924200  0.36151500  0.18439800  1
