# generated using pymatgen
data_Hf5Si3N
_symmetry_space_group_name_H-M   'P 1'
_cell_length_a   7.82946647
_cell_length_b   7.82946647
_cell_length_c   5.55729500
_cell_angle_alpha   90.00000000
_cell_angle_beta   90.00000000
_cell_angle_gamma   120.00000400
_symmetry_Int_Tables_number   1
_chemical_formula_structural   Hf5Si3N
_chemical_formula_sum   'Hf10 Si6 N2'
_cell_volume   295.02471729
_cell_formula_units_Z   2
loop_
 _symmetry_equiv_pos_site_id
 _symmetry_equiv_pos_as_xyz
  1  'x, y, z'
loop_
 _atom_site_type_symbol
 _atom_site_label
 _atom_site_symmetry_multiplicity
 _atom_site_fract_x
 _atom_site_fract_y
 _atom_site_fract_z
 _atom_site_occupancy
  Hf  Hf0  1  0.23503900  0.00000000  0.25000000  1
  Hf  Hf1  1  0.76496100  0.00000000  0.75000000  1
  Hf  Hf2  1  0.00000000  0.23503900  0.25000000  1
  Hf  Hf3  1  0.00000000  0.76496100  0.75000000  1
  Hf  Hf4  1  0.76496100  0.76496100  0.25000000  1
  Hf  Hf5  1  0.23503900  0.23503900  0.75000000  1
  Hf  Hf6  1  0.33333300  0.66666700  0.00000000  1
  Hf  Hf7  1  0.66666700  0.33333300  0.00000000  1
  Hf  Hf8  1  0.66666700  0.33333300  0.50000000  1
  Hf  Hf9  1  0.33333300  0.66666700  0.50000000  1
  Si  Si10  1  0.59605900  0.00000000  0.25000000  1
  Si  Si11  1  0.40394100  0.00000000  0.75000000  1
  Si  Si12  1  0.00000000  0.59605900  0.25000000  1
  Si  Si13  1  0.00000000  0.40394100  0.75000000  1
  Si  Si14  1  0.40394100  0.40394100  0.25000000  1
  Si  Si15  1  0.59605900  0.59605900  0.75000000  1
  N  N16  1  0.00000000  0.00000000  0.00000000  1
  N  N17  1  0.00000000  0.00000000  0.50000000  1
