# generated using pymatgen
data_Cd41Ir8
_symmetry_space_group_name_H-M   'P 1'
_cell_length_a   10.27750813
_cell_length_b   10.27750813
_cell_length_c   10.27750774
_cell_angle_alpha   94.78021111
_cell_angle_beta   94.78021111
_cell_angle_gamma   94.78020542
_symmetry_Int_Tables_number   1
_chemical_formula_structural   Cd41Ir8
_chemical_formula_sum   'Cd41 Ir8'
_cell_volume   1073.58124845
_cell_formula_units_Z   1
loop_
 _symmetry_equiv_pos_site_id
 _symmetry_equiv_pos_as_xyz
  1  'x, y, z'
loop_
 _atom_site_type_symbol
 _atom_site_label
 _atom_site_symmetry_multiplicity
 _atom_site_fract_x
 _atom_site_fract_y
 _atom_site_fract_z
 _atom_site_occupancy
  Cd  Cd0  1  0.00000000  0.00000000  0.00000000  1
  Cd  Cd1  1  0.50000000  0.50000000  0.50000000  1
  Cd  Cd2  1  0.00000000  0.50000000  0.50000000  1
  Cd  Cd3  1  0.50000000  0.00000000  0.50000000  1
  Cd  Cd4  1  0.50000000  0.50000000  0.00000000  1
  Cd  Cd5  1  0.77737500  0.45046500  0.07359800  1
  Cd  Cd6  1  0.07359800  0.77737500  0.45046500  1
  Cd  Cd7  1  0.45046500  0.07359800  0.77737500  1
  Cd  Cd8  1  0.22262500  0.54953500  0.92640200  1
  Cd  Cd9  1  0.92640200  0.22262500  0.54953500  1
  Cd  Cd10  1  0.54953500  0.92640200  0.22262500  1
  Cd  Cd11  1  0.73070500  0.04934100  0.86978000  1
  Cd  Cd12  1  0.86978000  0.73070500  0.04934100  1
  Cd  Cd13  1  0.04934100  0.86978000  0.73070500  1
  Cd  Cd14  1  0.26929500  0.95065900  0.13022000  1
  Cd  Cd15  1  0.13022000  0.26929500  0.95065900  1
  Cd  Cd16  1  0.95065900  0.13022000  0.26929500  1
  Cd  Cd17  1  0.68223500  0.17830700  0.12685900  1
  Cd  Cd18  1  0.12685900  0.68223500  0.17830700  1
  Cd  Cd19  1  0.17830700  0.12685900  0.68223500  1
  Cd  Cd20  1  0.31776500  0.82169300  0.87314100  1
  Cd  Cd21  1  0.87314100  0.31776500  0.82169300  1
  Cd  Cd22  1  0.82169300  0.87314100  0.31776500  1
  Cd  Cd23  1  0.38916000  0.36383000  0.73890100  1
  Cd  Cd24  1  0.73890100  0.38916000  0.36383000  1
  Cd  Cd25  1  0.36383000  0.73890100  0.38916000  1
  Cd  Cd26  1  0.61084000  0.63617000  0.26109900  1
  Cd  Cd27  1  0.26109900  0.61084000  0.63617000  1
  Cd  Cd28  1  0.63617000  0.26109900  0.61084000  1
  Cd  Cd29  1  0.96563800  0.59589200  0.78383000  1
  Cd  Cd30  1  0.78383000  0.96563800  0.59589200  1
  Cd  Cd31  1  0.59589200  0.78383000  0.96563800  1
  Cd  Cd32  1  0.03436200  0.40410800  0.21617000  1
  Cd  Cd33  1  0.21617000  0.03436200  0.40410800  1
  Cd  Cd34  1  0.40410800  0.21617000  0.03436200  1
  Cd  Cd35  1  0.66978400  0.53748400  0.77588700  1
  Cd  Cd36  1  0.77588700  0.66978400  0.53748400  1
  Cd  Cd37  1  0.53748400  0.77588700  0.66978400  1
  Cd  Cd38  1  0.33021600  0.46251600  0.22411300  1
  Cd  Cd39  1  0.22411300  0.33021600  0.46251600  1
  Cd  Cd40  1  0.46251600  0.22411300  0.33021600  1
  Ir  Ir41  1  0.61749500  0.28565600  0.88886400  1
  Ir  Ir42  1  0.88886400  0.61749500  0.28565600  1
  Ir  Ir43  1  0.28565600  0.88886400  0.61749500  1
  Ir  Ir44  1  0.38250500  0.71434400  0.11113600  1
  Ir  Ir45  1  0.11113600  0.38250500  0.71434400  1
  Ir  Ir46  1  0.71434400  0.11113600  0.38250500  1
  Ir  Ir47  1  0.80522600  0.80522600  0.80522600  1
  Ir  Ir48  1  0.19477400  0.19477400  0.19477400  1
