# generated using pymatgen
data_Er2CuSi3
_symmetry_space_group_name_H-M   'P 1'
_cell_length_a   7.48500079
_cell_length_b   7.48500079
_cell_length_c   7.48500079
_cell_angle_alpha   149.52275204
_cell_angle_beta   148.51235902
_cell_angle_gamma   44.39092532
_symmetry_Int_Tables_number   1
_chemical_formula_structural   Er2CuSi3
_chemical_formula_sum   'Er2 Cu1 Si3'
_cell_volume   110.76414419
_cell_formula_units_Z   1
loop_
 _symmetry_equiv_pos_site_id
 _symmetry_equiv_pos_as_xyz
  1  'x, y, z'
loop_
 _atom_site_type_symbol
 _atom_site_label
 _atom_site_symmetry_multiplicity
 _atom_site_fract_x
 _atom_site_fract_y
 _atom_site_fract_z
 _atom_site_occupancy
  Er  Er0  1  0.75266500  0.25266500  0.50000000  1
  Er  Er1  1  0.99770400  0.99770400  0.00000000  1
  Cu  Cu2  1  0.16405000  0.66405000  0.50000000  1
  Si  Si3  1  0.58792600  0.58792600  0.00000000  1
  Si  Si4  1  0.32703200  0.82703200  0.50000000  1
  Si  Si5  1  0.42062200  0.42062200  0.00000000  1
