# generated using pymatgen
data_RbMg149
_symmetry_space_group_name_H-M   'P 1'
_cell_length_a   16.02967280
_cell_length_b   16.02967826
_cell_length_c   15.67793300
_cell_angle_alpha   90.00000000
_cell_angle_beta   90.00000000
_cell_angle_gamma   120.00000955
_symmetry_Int_Tables_number   1
_chemical_formula_structural   RbMg149
_chemical_formula_sum   'Rb1 Mg149'
_cell_volume   3488.74202842
_cell_formula_units_Z   1
loop_
 _symmetry_equiv_pos_site_id
 _symmetry_equiv_pos_as_xyz
  1  'x, y, z'
loop_
 _atom_site_type_symbol
 _atom_site_label
 _atom_site_symmetry_multiplicity
 _atom_site_fract_x
 _atom_site_fract_y
 _atom_site_fract_z
 _atom_site_occupancy
  Rb  Rb0  1  0.00000000  -0.00000000  0.00000000  1
  Mg  Mg1  1  0.60054965  0.20110031  0.00000000  1
  Mg  Mg2  1  0.79887054  0.20112846  0.00000000  1
  Mg  Mg3  1  0.40225793  0.20112946  0.00000000  1
  Mg  Mg4  1  0.00240718  0.21241958  0.00000000  1
  Mg  Mg5  1  0.21001340  0.21241958  0.00000000  1
  Mg  Mg6  1  0.60054965  0.39944935  0.00000000  1
  Mg  Mg7  1  0.79889969  0.39945035  0.00000000  1
  Mg  Mg8  1  0.00052740  0.40304935  0.00000000  1
  Mg  Mg9  1  0.40252195  0.40305035  0.00000000  1
  Mg  Mg10  1  0.20202049  0.40404198  0.00000000  1
  Mg  Mg11  1  0.59694965  0.59747805  0.00000000  1
  Mg  Mg12  1  0.00052740  0.59747805  0.00000000  1
  Mg  Mg13  1  0.79887054  0.59774207  0.00000000  1
  Mg  Mg14  1  0.39933671  0.60066329  0.00000000  1
  Mg  Mg15  1  0.20132558  0.60066329  0.00000000  1
  Mg  Mg16  1  0.00240718  0.78998660  0.00000000  1
  Mg  Mg17  1  0.78758042  0.78998660  0.00000000  1
  Mg  Mg18  1  0.20202049  0.79797851  0.00000000  1
  Mg  Mg19  1  0.59595802  0.79797951  0.00000000  1
  Mg  Mg20  1  0.39933671  0.79867442  0.00000000  1
  Mg  Mg21  1  0.78758042  0.99759282  0.00000000  1
  Mg  Mg22  1  0.21001340  0.99759382  0.00000000  1
  Mg  Mg23  1  0.59694965  0.99947160  0.00000000  1
  Mg  Mg24  1  0.40252195  0.99947260  0.00000000  1
  Mg  Mg25  1  0.26323982  0.13161991  0.16521219  1
  Mg  Mg26  1  0.86838009  0.13161991  0.16521219  1
  Mg  Mg27  1  0.86838009  0.73676018  0.16521219  1
  Mg  Mg28  1  0.66666700  0.33333300  0.16623514  1
  Mg  Mg29  1  0.46579277  0.13310910  0.16652748  1
  Mg  Mg30  1  0.66731733  0.13311010  0.16652748  1
  Mg  Mg31  1  0.86688990  0.33268267  0.16652748  1
  Mg  Mg32  1  0.46579277  0.33268267  0.16652748  1
  Mg  Mg33  1  0.86688990  0.53420723  0.16652748  1
  Mg  Mg34  1  0.66731733  0.53420823  0.16652748  1
  Mg  Mg35  1  0.26709973  0.53419947  0.16734461  1
  Mg  Mg36  1  0.46580053  0.73290027  0.16734461  1
  Mg  Mg37  1  0.26709973  0.73290027  0.16734461  1
  Mg  Mg38  1  0.46649022  0.53350978  0.16784225  1
  Mg  Mg39  1  0.06702057  0.53350978  0.16784225  1
  Mg  Mg40  1  0.46649022  0.93297943  0.16784225  1
  Mg  Mg41  1  0.26849285  0.33631798  0.16810300  1
  Mg  Mg42  1  0.06782613  0.33631898  0.16810300  1
  Mg  Mg43  1  0.66368202  0.73150715  0.16810300  1
  Mg  Mg44  1  0.06782613  0.73150715  0.16810300  1
  Mg  Mg45  1  0.26849285  0.93217387  0.16810300  1
  Mg  Mg46  1  0.66368202  0.93217387  0.16810300  1
  Mg  Mg47  1  0.07059654  0.14119309  0.17590544  1
  Mg  Mg48  1  0.07059654  0.92940346  0.17590544  1
  Mg  Mg49  1  0.85880691  0.92940346  0.17590544  1
  Mg  Mg50  1  0.40009557  0.20004779  0.33272624  1
  Mg  Mg51  1  0.79995221  0.20004779  0.33272624  1
  Mg  Mg52  1  0.79995221  0.59990443  0.33272624  1
  Mg  Mg53  1  0.60010423  0.20020946  0.33309467  1
  Mg  Mg54  1  0.60010423  0.39989477  0.33309467  1
  Mg  Mg55  1  0.79979054  0.39989477  0.33309467  1
  Mg  Mg56  1  0.40004794  0.59995206  0.33386732  1
  Mg  Mg57  1  0.19990413  0.59995206  0.33386732  1
  Mg  Mg58  1  0.40004794  0.80009587  0.33386732  1
  Mg  Mg59  1  0.20008660  0.40017221  0.33385138  1
  Mg  Mg60  1  0.20008660  0.79991340  0.33385138  1
  Mg  Mg61  1  0.59982779  0.79991340  0.33385138  1
  Mg  Mg62  1  0.59938017  0.00021921  0.33398442  1
  Mg  Mg63  1  0.40083904  0.00021921  0.33398442  1
  Mg  Mg64  1  0.99978079  0.40061983  0.33398442  1
  Mg  Mg65  1  0.40083904  0.40061983  0.33398442  1
  Mg  Mg66  1  0.99978079  0.59916096  0.33398442  1
  Mg  Mg67  1  0.59938017  0.59916096  0.33398442  1
  Mg  Mg68  1  0.00000000  -0.00000000  0.33389430  1
  Mg  Mg69  1  0.20179924  0.00055693  0.33545304  1
  Mg  Mg70  1  0.79875769  0.00055693  0.33545304  1
  Mg  Mg71  1  0.20179924  0.20124231  0.33545304  1
  Mg  Mg72  1  0.99944307  0.20124231  0.33545304  1
  Mg  Mg73  1  0.99944307  0.79820076  0.33545304  1
  Mg  Mg74  1  0.79875769  0.79820076  0.33545304  1
  Mg  Mg75  1  0.06678609  0.13357119  0.50000000  1
  Mg  Mg76  1  0.86617435  0.13382565  0.50000000  1
  Mg  Mg77  1  0.26765130  0.13382565  0.50000000  1
  Mg  Mg78  1  0.66709582  0.13412503  0.50000000  1
  Mg  Mg79  1  0.46702921  0.13412503  0.50000000  1
  Mg  Mg80  1  0.46702921  0.33290418  0.50000000  1
  Mg  Mg81  1  0.86587597  0.33290418  0.50000000  1
  Mg  Mg82  1  0.66666700  0.33333300  0.50000000  1
  Mg  Mg83  1  0.26689138  0.33419615  0.50000000  1
  Mg  Mg84  1  0.06730478  0.33419615  0.50000000  1
  Mg  Mg85  1  0.66709582  0.53297079  0.50000000  1
  Mg  Mg86  1  0.86587597  0.53297079  0.50000000  1
  Mg  Mg87  1  0.06680309  0.53340205  0.50000000  1
  Mg  Mg88  1  0.46659895  0.53340205  0.50000000  1
  Mg  Mg89  1  0.26689908  0.53379716  0.50000000  1
  Mg  Mg90  1  0.86617435  0.73234870  0.50000000  1
  Mg  Mg91  1  0.66580385  0.73310862  0.50000000  1
  Mg  Mg92  1  0.06730478  0.73310862  0.50000000  1
  Mg  Mg93  1  0.46620284  0.73310092  0.50000000  1
  Mg  Mg94  1  0.26689908  0.73310192  0.50000000  1
  Mg  Mg95  1  0.26689138  0.93269522  0.50000000  1
  Mg  Mg96  1  0.66580385  0.93269622  0.50000000  1
  Mg  Mg97  1  0.06678609  0.93321391  0.50000000  1
  Mg  Mg98  1  0.86642881  0.93321391  0.50000000  1
  Mg  Mg99  1  0.46659895  0.93319691  0.50000000  1
  Mg  Mg100  1  0.20179924  0.00055693  0.66454696  1
  Mg  Mg101  1  0.79875769  0.00055693  0.66454696  1
  Mg  Mg102  1  0.20179924  0.20124231  0.66454696  1
  Mg  Mg103  1  0.99944307  0.20124231  0.66454696  1
  Mg  Mg104  1  0.99944307  0.79820076  0.66454696  1
  Mg  Mg105  1  0.79875769  0.79820076  0.66454696  1
  Mg  Mg106  1  0.00000000  -0.00000000  0.66610670  1
  Mg  Mg107  1  0.59938017  0.00021921  0.66601558  1
  Mg  Mg108  1  0.40083904  0.00021921  0.66601558  1
  Mg  Mg109  1  0.99978079  0.40061983  0.66601558  1
  Mg  Mg110  1  0.40083904  0.40061983  0.66601558  1
  Mg  Mg111  1  0.99978079  0.59916096  0.66601558  1
  Mg  Mg112  1  0.59938017  0.59916096  0.66601558  1
  Mg  Mg113  1  0.20008660  0.40017221  0.66614862  1
  Mg  Mg114  1  0.20008660  0.79991340  0.66614862  1
  Mg  Mg115  1  0.59982779  0.79991340  0.66614862  1
  Mg  Mg116  1  0.40004794  0.59995206  0.66613168  1
  Mg  Mg117  1  0.19990413  0.59995206  0.66613168  1
  Mg  Mg118  1  0.40004794  0.80009587  0.66613168  1
  Mg  Mg119  1  0.60010423  0.20020946  0.66690533  1
  Mg  Mg120  1  0.60010423  0.39989477  0.66690533  1
  Mg  Mg121  1  0.79979054  0.39989477  0.66690533  1
  Mg  Mg122  1  0.40009557  0.20004779  0.66727476  1
  Mg  Mg123  1  0.79995221  0.20004779  0.66727476  1
  Mg  Mg124  1  0.79995221  0.59990443  0.66727476  1
  Mg  Mg125  1  0.07059654  0.14119309  0.82409456  1
  Mg  Mg126  1  0.07059654  0.92940346  0.82409456  1
  Mg  Mg127  1  0.85880691  0.92940346  0.82409456  1
  Mg  Mg128  1  0.26849285  0.33631798  0.83189700  1
  Mg  Mg129  1  0.06782613  0.33631898  0.83189700  1
  Mg  Mg130  1  0.66368202  0.73150715  0.83189700  1
  Mg  Mg131  1  0.06782613  0.73150715  0.83189700  1
  Mg  Mg132  1  0.26849285  0.93217387  0.83189700  1
  Mg  Mg133  1  0.66368202  0.93217387  0.83189700  1
  Mg  Mg134  1  0.46649022  0.53350978  0.83215775  1
  Mg  Mg135  1  0.06702057  0.53350978  0.83215775  1
  Mg  Mg136  1  0.46649022  0.93297943  0.83215775  1
  Mg  Mg137  1  0.26709973  0.53419947  0.83265639  1
  Mg  Mg138  1  0.46580053  0.73290027  0.83265639  1
  Mg  Mg139  1  0.26709973  0.73290027  0.83265639  1
  Mg  Mg140  1  0.46579277  0.13310910  0.83347352  1
  Mg  Mg141  1  0.66731733  0.13311010  0.83347352  1
  Mg  Mg142  1  0.86688990  0.33268267  0.83347352  1
  Mg  Mg143  1  0.46579277  0.33268267  0.83347352  1
  Mg  Mg144  1  0.86688990  0.53420723  0.83347352  1
  Mg  Mg145  1  0.66731733  0.53420823  0.83347352  1
  Mg  Mg146  1  0.66666700  0.33333300  0.83376486  1
  Mg  Mg147  1  0.26323982  0.13161991  0.83478781  1
  Mg  Mg148  1  0.86838009  0.13161991  0.83478781  1
  Mg  Mg149  1  0.86838009  0.73676018  0.83478781  1
