# generated using pymatgen
data_LaCeSb2(SBr)4
_symmetry_space_group_name_H-M   'P 1'
_cell_length_a   9.35497300
_cell_length_b   8.76112400
_cell_length_c   17.57773024
_cell_angle_alpha   75.73563323
_cell_angle_beta   90.00000000
_cell_angle_gamma   90.00000000
_symmetry_Int_Tables_number   1
_chemical_formula_structural   LaCeSb2(SBr)4
_chemical_formula_sum   'La4 Ce4 Sb8 S16 Br16'
_cell_volume   1396.25501303
_cell_formula_units_Z   4
loop_
 _symmetry_equiv_pos_site_id
 _symmetry_equiv_pos_as_xyz
  1  'x, y, z'
loop_
 _atom_site_type_symbol
 _atom_site_label
 _atom_site_symmetry_multiplicity
 _atom_site_fract_x
 _atom_site_fract_y
 _atom_site_fract_z
 _atom_site_occupancy
  La  La0  1  0.36848600  0.12244000  0.25601600  1
  La  La1  1  0.86848600  0.87756000  0.24398400  1
  La  La2  1  0.63151400  0.87756000  0.74398400  1
  La  La3  1  0.13151400  0.12244000  0.75601600  1
  Ce  Ce4  1  0.36320800  0.61215700  0.26334600  1
  Ce  Ce5  1  0.86320800  0.38784300  0.23665400  1
  Ce  Ce6  1  0.63679200  0.38784300  0.73665400  1
  Ce  Ce7  1  0.13679200  0.61215700  0.76334600  1
  Sb  Sb8  1  0.54312200  0.26986500  0.45336100  1
  Sb  Sb9  1  0.04312200  0.73013500  0.04663900  1
  Sb  Sb10  1  0.45687800  0.73013500  0.54663900  1
  Sb  Sb11  1  0.95687800  0.26986500  0.95336100  1
  Sb  Sb12  1  0.65844200  0.72598600  0.05478400  1
  Sb  Sb13  1  0.15844200  0.27401400  0.44521600  1
  Sb  Sb14  1  0.34155800  0.27401400  0.94521600  1
  Sb  Sb15  1  0.84155800  0.72598600  0.55478400  1
  S  S16  1  0.66408600  0.65978300  0.19760200  1
  S  S17  1  0.16408600  0.34021700  0.30239800  1
  S  S18  1  0.33591400  0.34021700  0.80239800  1
  S  S19  1  0.83591400  0.65978300  0.69760200  1
  S  S20  1  0.85015800  0.92670400  0.05264900  1
  S  S21  1  0.35015800  0.07329600  0.44735100  1
  S  S22  1  0.14984200  0.07329600  0.94735100  1
  S  S23  1  0.64984200  0.92670400  0.55264900  1
  S  S24  1  0.84884800  0.52429400  0.05401800  1
  S  S25  1  0.34884800  0.47570600  0.44598200  1
  S  S26  1  0.15115200  0.47570600  0.94598200  1
  S  S27  1  0.65115200  0.52429400  0.55401800  1
  S  S28  1  0.56294100  0.33845600  0.30966900  1
  S  S29  1  0.06294100  0.66154400  0.19033100  1
  S  S30  1  0.43705900  0.66154400  0.69033100  1
  S  S31  1  0.93705900  0.33845600  0.80966900  1
  Br  Br32  1  0.37093300  0.92044200  0.13395700  1
  Br  Br33  1  0.87093300  0.07955800  0.36604300  1
  Br  Br34  1  0.62906700  0.07955800  0.86604300  1
  Br  Br35  1  0.12906700  0.92044200  0.63395700  1
  Br  Br36  1  0.05791700  0.16234200  0.15999900  1
  Br  Br37  1  0.55791700  0.83765800  0.34000100  1
  Br  Br38  1  0.94208300  0.83765800  0.84000100  1
  Br  Br39  1  0.44208300  0.16234200  0.65999900  1
  Br  Br40  1  0.37315800  0.44532000  0.12887400  1
  Br  Br41  1  0.87315800  0.55468000  0.37112600  1
  Br  Br42  1  0.62684200  0.55468000  0.87112600  1
  Br  Br43  1  0.12684200  0.44532000  0.62887400  1
  Br  Br44  1  0.17409600  0.84175100  0.33387200  1
  Br  Br45  1  0.67409600  0.15824900  0.16612800  1
  Br  Br46  1  0.82590400  0.15824900  0.66612800  1
  Br  Br47  1  0.32590400  0.84175100  0.83387200  1
