# generated using pymatgen
data_U2PtC2
_symmetry_space_group_name_H-M   'P 1'
_cell_length_a   6.73411484
_cell_length_b   6.73411484
_cell_length_c   6.73411484
_cell_angle_alpha   149.66991155
_cell_angle_beta   149.66991155
_cell_angle_gamma   43.42615340
_symmetry_Int_Tables_number   1
_chemical_formula_structural   U2PtC2
_chemical_formula_sum   'U2 Pt1 C2'
_cell_volume   77.66342053
_cell_formula_units_Z   1
loop_
 _symmetry_equiv_pos_site_id
 _symmetry_equiv_pos_as_xyz
  1  'x, y, z'
loop_
 _atom_site_type_symbol
 _atom_site_label
 _atom_site_symmetry_multiplicity
 _atom_site_fract_x
 _atom_site_fract_y
 _atom_site_fract_z
 _atom_site_occupancy
  U  U0  1  0.64869400  0.64869400  0.00000000  1
  U  U1  1  0.35130600  0.35130600  0.00000000  1
  Pt  Pt2  1  0.00000000  0.00000000  0.00000000  1
  C  C3  1  0.83131200  0.83131200  0.00000000  1
  C  C4  1  0.16868800  0.16868800  0.00000000  1
