# generated using pymatgen
data_NdNiGe
_symmetry_space_group_name_H-M   'P 1'
_cell_length_a   4.40021500
_cell_length_b   7.23344500
_cell_length_c   7.29576000
_cell_angle_alpha   90.00000000
_cell_angle_beta   90.00000000
_cell_angle_gamma   90.00000000
_symmetry_Int_Tables_number   1
_chemical_formula_structural   NdNiGe
_chemical_formula_sum   'Nd4 Ni4 Ge4'
_cell_volume   232.21465255
_cell_formula_units_Z   4
loop_
 _symmetry_equiv_pos_site_id
 _symmetry_equiv_pos_as_xyz
  1  'x, y, z'
loop_
 _atom_site_type_symbol
 _atom_site_label
 _atom_site_symmetry_multiplicity
 _atom_site_fract_x
 _atom_site_fract_y
 _atom_site_fract_z
 _atom_site_occupancy
  Nd  Nd0  1  0.25000000  0.69675500  0.98127300  1
  Nd  Nd1  1  0.75000000  0.30324500  0.01872700  1
  Nd  Nd2  1  0.75000000  0.19675500  0.51872700  1
  Nd  Nd3  1  0.25000000  0.80324500  0.48127300  1
  Ni  Ni4  1  0.25000000  0.07987300  0.17340100  1
  Ni  Ni5  1  0.75000000  0.92012700  0.82659900  1
  Ni  Ni6  1  0.75000000  0.57987300  0.32659900  1
  Ni  Ni7  1  0.25000000  0.42012700  0.67340100  1
  Ge  Ge8  1  0.25000000  0.40549800  0.31081000  1
  Ge  Ge9  1  0.75000000  0.59450200  0.68919000  1
  Ge  Ge10  1  0.75000000  0.90549800  0.18919000  1
  Ge  Ge11  1  0.25000000  0.09450200  0.81081000  1
