# generated using pymatgen
data_ThMn2SiC
_symmetry_space_group_name_H-M   'P 1'
_cell_length_a   5.72592707
_cell_length_b   5.72592707
_cell_length_c   7.04990300
_cell_angle_alpha   90.00000000
_cell_angle_beta   90.00000000
_cell_angle_gamma   140.67156112
_symmetry_Int_Tables_number   1
_chemical_formula_structural   ThMn2SiC
_chemical_formula_sum   'Th2 Mn4 Si2 C2'
_cell_volume   146.48830118
_cell_formula_units_Z   2
loop_
 _symmetry_equiv_pos_site_id
 _symmetry_equiv_pos_as_xyz
  1  'x, y, z'
loop_
 _atom_site_type_symbol
 _atom_site_label
 _atom_site_symmetry_multiplicity
 _atom_site_fract_x
 _atom_site_fract_y
 _atom_site_fract_z
 _atom_site_occupancy
  Th  Th0  1  0.55063800  0.44936200  0.25000000  1
  Th  Th1  1  0.44936200  0.55063800  0.75000000  1
  Mn  Mn2  1  0.83217700  0.16782300  0.06203700  1
  Mn  Mn3  1  0.16782300  0.83217700  0.93796300  1
  Mn  Mn4  1  0.16782300  0.83217700  0.56203700  1
  Mn  Mn5  1  0.83217700  0.16782300  0.43796300  1
  Si  Si6  1  0.27012000  0.72988000  0.25000000  1
  Si  Si7  1  0.72988000  0.27012000  0.75000000  1
  C  C8  1  0.00000000  0.00000000  0.00000000  1
  C  C9  1  0.00000000  0.00000000  0.50000000  1
