# generated using pymatgen
data_CsLiU(PS4)2
_symmetry_space_group_name_H-M   'P 1'
_cell_length_a   13.24006702
_cell_length_b   13.24006702
_cell_length_c   13.24006752
_cell_angle_alpha   72.46178423
_cell_angle_beta   72.46178423
_cell_angle_gamma   72.46178338
_symmetry_Int_Tables_number   1
_chemical_formula_structural   CsLiU(PS4)2
_chemical_formula_sum   'Cs6 Li6 U6 P12 S48'
_cell_volume   2052.85938947
_cell_formula_units_Z   6
loop_
 _symmetry_equiv_pos_site_id
 _symmetry_equiv_pos_as_xyz
  1  'x, y, z'
loop_
 _atom_site_type_symbol
 _atom_site_label
 _atom_site_symmetry_multiplicity
 _atom_site_fract_x
 _atom_site_fract_y
 _atom_site_fract_z
 _atom_site_occupancy
  Cs  Cs0  1  0.25000000  0.25000000  0.25000000  1
  Cs  Cs1  1  0.75000000  0.75000000  0.75000000  1
  Cs  Cs2  1  0.42256300  0.42256300  0.42256300  1
  Cs  Cs3  1  0.92256300  0.92256300  0.92256300  1
  Cs  Cs4  1  0.57743700  0.57743700  0.57743700  1
  Cs  Cs5  1  0.07743700  0.07743700  0.07743700  1
  Li  Li6  1  0.61106300  0.88893700  0.25000000  1
  Li  Li7  1  0.25000000  0.61106300  0.88893700  1
  Li  Li8  1  0.88893700  0.25000000  0.61106300  1
  Li  Li9  1  0.75000000  0.38893700  0.11106300  1
  Li  Li10  1  0.11106300  0.75000000  0.38893700  1
  Li  Li11  1  0.38893700  0.11106300  0.75000000  1
  U  U12  1  0.91341600  0.58658400  0.25000000  1
  U  U13  1  0.25000000  0.91341600  0.58658400  1
  U  U14  1  0.58658400  0.25000000  0.91341600  1
  U  U15  1  0.75000000  0.08658400  0.41341600  1
  U  U16  1  0.41341600  0.75000000  0.08658400  1
  U  U17  1  0.08658400  0.41341600  0.75000000  1
  P  P18  1  0.17288800  0.18926300  0.62509300  1
  P  P19  1  0.62509300  0.17288800  0.18926300  1
  P  P20  1  0.18926300  0.62509300  0.17288800  1
  P  P21  1  0.12509300  0.68926300  0.67288800  1
  P  P22  1  0.67288800  0.12509300  0.68926300  1
  P  P23  1  0.68926300  0.67288800  0.12509300  1
  P  P24  1  0.82711200  0.81073700  0.37490700  1
  P  P25  1  0.37490700  0.82711200  0.81073700  1
  P  P26  1  0.81073700  0.37490700  0.82711200  1
  P  P27  1  0.87490700  0.31073700  0.32711200  1
  P  P28  1  0.32711200  0.87490700  0.31073700  1
  P  P29  1  0.31073700  0.32711200  0.87490700  1
  S  S30  1  0.16355500  0.35011900  0.54587700  1
  S  S31  1  0.54587700  0.16355500  0.35011900  1
  S  S32  1  0.35011900  0.54587700  0.16355500  1
  S  S33  1  0.04587700  0.85011900  0.66355500  1
  S  S34  1  0.66355500  0.04587700  0.85011900  1
  S  S35  1  0.85011900  0.66355500  0.04587700  1
  S  S36  1  0.83644500  0.64988100  0.45412300  1
  S  S37  1  0.45412300  0.83644500  0.64988100  1
  S  S38  1  0.64988100  0.45412300  0.83644500  1
  S  S39  1  0.95412300  0.14988100  0.33644500  1
  S  S40  1  0.33644500  0.95412300  0.14988100  1
  S  S41  1  0.14988100  0.33644500  0.95412300  1
  S  S42  1  0.30996100  0.37269300  0.71183800  1
  S  S43  1  0.71183800  0.30996100  0.37269300  1
  S  S44  1  0.37269300  0.71183800  0.30996100  1
  S  S45  1  0.21183800  0.87269300  0.80996100  1
  S  S46  1  0.80996100  0.21183800  0.87269300  1
  S  S47  1  0.87269300  0.80996100  0.21183800  1
  S  S48  1  0.69003900  0.62730700  0.28816200  1
  S  S49  1  0.28816200  0.69003900  0.62730700  1
  S  S50  1  0.62730700  0.28816200  0.69003900  1
  S  S51  1  0.78816200  0.12730700  0.19003900  1
  S  S52  1  0.19003900  0.78816200  0.12730700  1
  S  S53  1  0.12730700  0.19003900  0.78816200  1
  S  S54  1  0.32645800  0.09429100  0.58839700  1
  S  S55  1  0.58839700  0.32645800  0.09429100  1
  S  S56  1  0.09429100  0.58839700  0.32645800  1
  S  S57  1  0.08839700  0.59429100  0.82645800  1
  S  S58  1  0.82645800  0.08839700  0.59429100  1
  S  S59  1  0.59429100  0.82645800  0.08839700  1
  S  S60  1  0.67354200  0.90570900  0.41160300  1
  S  S61  1  0.41160300  0.67354200  0.90570900  1
  S  S62  1  0.90570900  0.41160300  0.67354200  1
  S  S63  1  0.91160300  0.40570900  0.17354200  1
  S  S64  1  0.17354200  0.91160300  0.40570900  1
  S  S65  1  0.40570900  0.17354200  0.91160300  1
  S  S66  1  0.08560100  0.61437700  0.57957300  1
  S  S67  1  0.57957300  0.08560100  0.61437700  1
  S  S68  1  0.61437700  0.57957300  0.08560100  1
  S  S69  1  0.07957300  0.11437700  0.58560100  1
  S  S70  1  0.58560100  0.07957300  0.11437700  1
  S  S71  1  0.11437700  0.58560100  0.07957300  1
  S  S72  1  0.91439900  0.38562300  0.42042700  1
  S  S73  1  0.42042700  0.91439900  0.38562300  1
  S  S74  1  0.38562300  0.42042700  0.91439900  1
  S  S75  1  0.92042700  0.88562300  0.41439900  1
  S  S76  1  0.41439900  0.92042700  0.88562300  1
  S  S77  1  0.88562300  0.41439900  0.92042700  1
