# generated using pymatgen
data_LiEu3O4
_symmetry_space_group_name_H-M   'P 1'
_cell_length_a   3.45547700
_cell_length_b   11.51308300
_cell_length_c   11.74007500
_cell_angle_alpha   90.00000000
_cell_angle_beta   90.00000000
_cell_angle_gamma   90.00000000
_symmetry_Int_Tables_number   1
_chemical_formula_structural   LiEu3O4
_chemical_formula_sum   'Li4 Eu12 O16'
_cell_volume   467.05767550
_cell_formula_units_Z   4
loop_
 _symmetry_equiv_pos_site_id
 _symmetry_equiv_pos_as_xyz
  1  'x, y, z'
loop_
 _atom_site_type_symbol
 _atom_site_label
 _atom_site_symmetry_multiplicity
 _atom_site_fract_x
 _atom_site_fract_y
 _atom_site_fract_z
 _atom_site_occupancy
  Li  Li0  1  0.75000000  0.34837100  0.59458800  1
  Li  Li1  1  0.75000000  0.84837100  0.90541200  1
  Li  Li2  1  0.25000000  0.65162900  0.40541200  1
  Li  Li3  1  0.25000000  0.15162900  0.09458800  1
  Eu  Eu4  1  0.75000000  0.14115400  0.29575600  1
  Eu  Eu5  1  0.75000000  0.64115400  0.20424400  1
  Eu  Eu6  1  0.25000000  0.85884600  0.70424400  1
  Eu  Eu7  1  0.25000000  0.35884600  0.79575600  1
  Eu  Eu8  1  0.75000000  0.10197100  0.88893000  1
  Eu  Eu9  1  0.75000000  0.60197100  0.61107000  1
  Eu  Eu10  1  0.25000000  0.89802900  0.11107000  1
  Eu  Eu11  1  0.25000000  0.39802900  0.38893000  1
  Eu  Eu12  1  0.75000000  0.36876900  0.07272300  1
  Eu  Eu13  1  0.75000000  0.86876900  0.42727700  1
  Eu  Eu14  1  0.25000000  0.63123100  0.92727700  1
  Eu  Eu15  1  0.25000000  0.13123100  0.57272300  1
  O  O16  1  0.75000000  0.26055400  0.45883400  1
  O  O17  1  0.75000000  0.76055400  0.04116600  1
  O  O18  1  0.25000000  0.73944600  0.54116600  1
  O  O19  1  0.25000000  0.23944600  0.95883400  1
  O  O20  1  0.75000000  0.05262400  0.10563800  1
  O  O21  1  0.75000000  0.55262400  0.39436200  1
  O  O22  1  0.25000000  0.94737600  0.89436200  1
  O  O23  1  0.25000000  0.44737600  0.60563800  1
  O  O24  1  0.75000000  0.47962000  0.88326600  1
  O  O25  1  0.75000000  0.97962000  0.61673400  1
  O  O26  1  0.25000000  0.52038000  0.11673400  1
  O  O27  1  0.25000000  0.02038000  0.38326600  1
  O  O28  1  0.75000000  0.23194500  0.71748600  1
  O  O29  1  0.75000000  0.73194500  0.78251400  1
  O  O30  1  0.25000000  0.76805500  0.28251400  1
  O  O31  1  0.25000000  0.26805500  0.21748600  1
