# generated using pymatgen
data_HfNiGe
_symmetry_space_group_name_H-M   'P 1'
_cell_length_a   3.87347200
_cell_length_b   6.49594200
_cell_length_c   7.28600600
_cell_angle_alpha   90.00000000
_cell_angle_beta   90.00000000
_cell_angle_gamma   90.00000000
_symmetry_Int_Tables_number   1
_chemical_formula_structural   HfNiGe
_chemical_formula_sum   'Hf4 Ni4 Ge4'
_cell_volume   183.32938607
_cell_formula_units_Z   4
loop_
 _symmetry_equiv_pos_site_id
 _symmetry_equiv_pos_as_xyz
  1  'x, y, z'
loop_
 _atom_site_type_symbol
 _atom_site_label
 _atom_site_symmetry_multiplicity
 _atom_site_fract_x
 _atom_site_fract_y
 _atom_site_fract_z
 _atom_site_occupancy
  Hf  Hf0  1  0.25000000  0.01609800  0.18818000  1
  Hf  Hf1  1  0.25000000  0.51609800  0.31182000  1
  Hf  Hf2  1  0.75000000  0.98390200  0.81182000  1
  Hf  Hf3  1  0.75000000  0.48390200  0.68818000  1
  Ni  Ni4  1  0.25000000  0.14307200  0.56341000  1
  Ni  Ni5  1  0.25000000  0.64307200  0.93659000  1
  Ni  Ni6  1  0.75000000  0.85692800  0.43659000  1
  Ni  Ni7  1  0.75000000  0.35692800  0.06341000  1
  Ge  Ge8  1  0.25000000  0.76944000  0.61507700  1
  Ge  Ge9  1  0.25000000  0.26944000  0.88492300  1
  Ge  Ge10  1  0.75000000  0.23056000  0.38492300  1
  Ge  Ge11  1  0.75000000  0.73056000  0.11507700  1
