# generated using pymatgen
data_Zr4NbGa3
_symmetry_space_group_name_H-M   'P 1'
_cell_length_a   8.10871879
_cell_length_b   8.10871879
_cell_length_c   8.10871879
_cell_angle_alpha   96.22595943
_cell_angle_beta   96.22595943
_cell_angle_gamma   141.54533339
_symmetry_Int_Tables_number   1
_chemical_formula_structural   Zr4NbGa3
_chemical_formula_sum   'Zr8 Nb2 Ga6'
_cell_volume   313.07389145
_cell_formula_units_Z   2
loop_
 _symmetry_equiv_pos_site_id
 _symmetry_equiv_pos_as_xyz
  1  'x, y, z'
loop_
 _atom_site_type_symbol
 _atom_site_label
 _atom_site_symmetry_multiplicity
 _atom_site_fract_x
 _atom_site_fract_y
 _atom_site_fract_z
 _atom_site_occupancy
  Zr  Zr0  1  0.71985600  0.58121200  0.30106800  1
  Zr  Zr1  1  0.28014400  0.41878800  0.69893200  1
  Zr  Zr2  1  0.78014400  0.08121200  0.86135700  1
  Zr  Zr3  1  0.21985600  0.91878800  0.13864300  1
  Zr  Zr4  1  0.58121200  0.28014400  0.86135700  1
  Zr  Zr5  1  0.41878800  0.71985600  0.13864300  1
  Zr  Zr6  1  0.08121200  0.21985600  0.30106800  1
  Zr  Zr7  1  0.91878800  0.78014400  0.69893200  1
  Nb  Nb8  1  0.75000000  0.25000000  0.50000000  1
  Nb  Nb9  1  0.25000000  0.75000000  0.50000000  1
  Ga  Ga10  1  0.15840900  0.65840900  0.81681800  1
  Ga  Ga11  1  0.84159100  0.34159100  0.18318200  1
  Ga  Ga12  1  0.34159100  0.15840900  0.50000000  1
  Ga  Ga13  1  0.65840900  0.84159100  0.50000000  1
  Ga  Ga14  1  0.25000000  0.25000000  0.00000000  1
  Ga  Ga15  1  0.75000000  0.75000000  0.00000000  1
