# generated using pymatgen
data_BaEr2O4
_symmetry_space_group_name_H-M   'P 1'
_cell_length_a   3.45011100
_cell_length_b   10.46152900
_cell_length_c   12.14328700
_cell_angle_alpha   90.00000000
_cell_angle_beta   90.00000000
_cell_angle_gamma   90.00000000
_symmetry_Int_Tables_number   1
_chemical_formula_structural   BaEr2O4
_chemical_formula_sum   'Ba4 Er8 O16'
_cell_volume   438.29295556
_cell_formula_units_Z   4
loop_
 _symmetry_equiv_pos_site_id
 _symmetry_equiv_pos_as_xyz
  1  'x, y, z'
loop_
 _atom_site_type_symbol
 _atom_site_label
 _atom_site_symmetry_multiplicity
 _atom_site_fract_x
 _atom_site_fract_y
 _atom_site_fract_z
 _atom_site_occupancy
  Ba  Ba0  1  0.75000000  0.25346200  0.14899200  1
  Ba  Ba1  1  0.75000000  0.75346200  0.35100800  1
  Ba  Ba2  1  0.25000000  0.74653800  0.85100800  1
  Ba  Ba3  1  0.25000000  0.24653800  0.64899200  1
  Er  Er4  1  0.75000000  0.42187500  0.89146200  1
  Er  Er5  1  0.75000000  0.92187500  0.60853800  1
  Er  Er6  1  0.25000000  0.57812500  0.10853800  1
  Er  Er7  1  0.25000000  0.07812500  0.39146200  1
  Er  Er8  1  0.75000000  0.92764300  0.11112100  1
  Er  Er9  1  0.75000000  0.42764300  0.38887900  1
  Er  Er10  1  0.25000000  0.07235700  0.88887900  1
  Er  Er11  1  0.25000000  0.57235700  0.61112100  1
  O  O12  1  0.75000000  0.20875900  0.84214200  1
  O  O13  1  0.75000000  0.70875900  0.65785800  1
  O  O14  1  0.25000000  0.79124100  0.15785800  1
  O  O15  1  0.25000000  0.29124100  0.34214200  1
  O  O16  1  0.75000000  0.11386300  0.51773900  1
  O  O17  1  0.75000000  0.61386300  0.98226100  1
  O  O18  1  0.25000000  0.88613700  0.48226100  1
  O  O19  1  0.25000000  0.38613700  0.01773900  1
  O  O20  1  0.75000000  0.01947700  0.28319900  1
  O  O21  1  0.75000000  0.51947700  0.21680100  1
  O  O22  1  0.25000000  0.98052300  0.71680100  1
  O  O23  1  0.25000000  0.48052300  0.78319900  1
  O  O24  1  0.75000000  0.42999800  0.57328800  1
  O  O25  1  0.75000000  0.92999800  0.92671200  1
  O  O26  1  0.25000000  0.57000200  0.42671200  1
  O  O27  1  0.25000000  0.07000200  0.07328800  1
