# generated using pymatgen
data_Sm2AsSe
_symmetry_space_group_name_H-M   'P 1'
_cell_length_a   7.28229349
_cell_length_b   7.28229349
_cell_length_c   7.28229346
_cell_angle_alpha   33.48971206
_cell_angle_beta   33.48971206
_cell_angle_gamma   33.48971635
_symmetry_Int_Tables_number   1
_chemical_formula_structural   Sm2AsSe
_chemical_formula_sum   'Sm2 As1 Se1'
_cell_volume   104.72312129
_cell_formula_units_Z   1
loop_
 _symmetry_equiv_pos_site_id
 _symmetry_equiv_pos_as_xyz
  1  'x, y, z'
loop_
 _atom_site_type_symbol
 _atom_site_label
 _atom_site_symmetry_multiplicity
 _atom_site_fract_x
 _atom_site_fract_y
 _atom_site_fract_z
 _atom_site_occupancy
  Sm  Sm0  1  0.25377400  0.25377400  0.25377400  1
  Sm  Sm1  1  0.74622600  0.74622600  0.74622600  1
  As  As2  1  0.00000000  0.00000000  0.00000000  1
  Se  Se3  1  0.50000000  0.50000000  0.50000000  1
