# generated using pymatgen
data_Mg2VN3
_symmetry_space_group_name_H-M   'P 1'
_cell_length_a   5.75123937
_cell_length_b   5.75123937
_cell_length_c   5.11987700
_cell_angle_alpha   90.00000000
_cell_angle_beta   90.00000000
_cell_angle_gamma   119.17427117
_symmetry_Int_Tables_number   1
_chemical_formula_structural   Mg2VN3
_chemical_formula_sum   'Mg4 V2 N6'
_cell_volume   147.86549039
_cell_formula_units_Z   2
loop_
 _symmetry_equiv_pos_site_id
 _symmetry_equiv_pos_as_xyz
  1  'x, y, z'
loop_
 _atom_site_type_symbol
 _atom_site_label
 _atom_site_symmetry_multiplicity
 _atom_site_fract_x
 _atom_site_fract_y
 _atom_site_fract_z
 _atom_site_occupancy
  Mg  Mg0  1  0.66879100  0.99855900  0.52133900  1
  Mg  Mg1  1  0.99855900  0.66879100  0.52133900  1
  Mg  Mg2  1  0.33120900  0.00144100  0.02133900  1
  Mg  Mg3  1  0.00144100  0.33120900  0.02133900  1
  V  V4  1  0.33656500  0.33656500  0.51769100  1
  V  V5  1  0.66343500  0.66343500  0.01769100  1
  N  N6  1  0.66769400  0.96495900  0.10678400  1
  N  N7  1  0.96495900  0.66769400  0.10678400  1
  N  N8  1  0.33230600  0.03504100  0.60678400  1
  N  N9  1  0.03504100  0.33230600  0.60678400  1
  N  N10  1  0.36350500  0.36350500  0.15406300  1
  N  N11  1  0.63649500  0.63649500  0.65406300  1
