# generated using pymatgen
data_K4CrO4
_symmetry_space_group_name_H-M   'P 1'
_cell_length_a   6.41371030
_cell_length_b   9.60790609
_cell_length_c   6.45432976
_cell_angle_alpha   72.14136212
_cell_angle_beta   66.77662235
_cell_angle_gamma   79.87187902
_symmetry_Int_Tables_number   1
_chemical_formula_structural   K4CrO4
_chemical_formula_sum   'K8 Cr2 O8'
_cell_volume   347.20648635
_cell_formula_units_Z   2
loop_
 _symmetry_equiv_pos_site_id
 _symmetry_equiv_pos_as_xyz
  1  'x, y, z'
loop_
 _atom_site_type_symbol
 _atom_site_label
 _atom_site_symmetry_multiplicity
 _atom_site_fract_x
 _atom_site_fract_y
 _atom_site_fract_z
 _atom_site_occupancy
  K  K0  1  0.22293300  0.61638500  0.96273800  1
  K  K1  1  0.77699100  0.38362500  0.03745500  1
  K  K2  1  0.24904100  0.83834900  0.41194500  1
  K  K3  1  0.75098700  0.16167100  0.58812100  1
  K  K4  1  0.75288300  0.97259500  0.23238900  1
  K  K5  1  0.24702800  0.02742600  0.76769900  1
  K  K6  1  0.72611500  0.56335200  0.48685600  1
  K  K7  1  0.27387900  0.43666500  0.51317000  1
  Cr  Cr8  1  0.27226100  0.24776400  0.15638300  1
  Cr  Cr9  1  0.72779100  0.75221600  0.84343900  1
  O  O10  1  0.95508700  0.62755700  0.70644300  1
  O  O11  1  0.04497700  0.37242000  0.29351200  1
  O  O12  1  0.44441600  0.34533200  0.86245400  1
  O  O13  1  0.55567500  0.65467900  0.13744900  1
  O  O14  1  0.55066900  0.80782000  0.66519200  1
  O  O15  1  0.44928600  0.19218200  0.33473700  1
  O  O16  1  0.87075300  0.90134200  0.83651700  1
  O  O17  1  0.12922700  0.09861900  0.16350000  1
