# generated using pymatgen
data_Mo2CN
_symmetry_space_group_name_H-M   'P 1'
_cell_length_a   2.82895900
_cell_length_b   2.91026900
_cell_length_c   5.03543300
_cell_angle_alpha   90.00000000
_cell_angle_beta   90.00000000
_cell_angle_gamma   90.00000000
_symmetry_Int_Tables_number   1
_chemical_formula_structural   Mo2CN
_chemical_formula_sum   'Mo2 C1 N1'
_cell_volume   41.45687941
_cell_formula_units_Z   1
loop_
 _symmetry_equiv_pos_site_id
 _symmetry_equiv_pos_as_xyz
  1  'x, y, z'
loop_
 _atom_site_type_symbol
 _atom_site_label
 _atom_site_symmetry_multiplicity
 _atom_site_fract_x
 _atom_site_fract_y
 _atom_site_fract_z
 _atom_site_occupancy
  Mo  Mo0  1  0.50000000  0.50000000  0.16641700  1
  Mo  Mo1  1  0.50000000  0.00000000  0.66741100  1
  C  C2  1  0.00000000  0.00000000  0.99869400  1
  N  N3  1  0.00000000  0.50000000  0.50077800  1
