# generated using pymatgen
data_Na4Ge2PbS6
_symmetry_space_group_name_H-M   'P 1'
_cell_length_a   6.89806974
_cell_length_b   6.89806974
_cell_length_c   7.83642157
_cell_angle_alpha   81.55415971
_cell_angle_beta   81.55415971
_cell_angle_gamma   119.75738829
_symmetry_Int_Tables_number   1
_chemical_formula_structural   Na4Ge2PbS6
_chemical_formula_sum   'Na4 Ge2 Pb1 S6'
_cell_volume   309.53810882
_cell_formula_units_Z   1
loop_
 _symmetry_equiv_pos_site_id
 _symmetry_equiv_pos_as_xyz
  1  'x, y, z'
loop_
 _atom_site_type_symbol
 _atom_site_label
 _atom_site_symmetry_multiplicity
 _atom_site_fract_x
 _atom_site_fract_y
 _atom_site_fract_z
 _atom_site_occupancy
  Na  Na0  1  0.82122800  0.17877200  0.00000000  1
  Na  Na1  1  0.17888000  0.82112000  0.00000000  1
  Na  Na2  1  0.49991700  0.50008300  0.00000000  1
  Na  Na3  1  0.66490400  0.33509600  0.50000000  1
  Ge  Ge4  1  0.05216600  0.05215900  0.33815800  1
  Ge  Ge5  1  0.94784100  0.94783400  0.66184200  1
  Pb  Pb6  1  0.33522700  0.66477300  0.50000000  1
  S  S7  1  0.08285200  0.39317800  0.24873500  1
  S  S8  1  0.39279900  0.08212900  0.24854200  1
  S  S9  1  0.91787100  0.60720100  0.75145800  1
  S  S10  1  0.60682200  0.91714800  0.75126500  1
  S  S11  1  0.77472400  0.77523200  0.24669700  1
  S  S12  1  0.22476800  0.22527600  0.75330300  1
