# generated using pymatgen
data_Zn11Rh2
_symmetry_space_group_name_H-M   'P 1'
_cell_length_a   7.91253810
_cell_length_b   7.91253810
_cell_length_c   7.91253810
_cell_angle_alpha   109.47122063
_cell_angle_beta   109.47122063
_cell_angle_gamma   109.47122063
_symmetry_Int_Tables_number   1
_chemical_formula_structural   Zn11Rh2
_chemical_formula_sum   'Zn22 Rh4'
_cell_volume   381.35158110
_cell_formula_units_Z   2
loop_
 _symmetry_equiv_pos_site_id
 _symmetry_equiv_pos_as_xyz
  1  'x, y, z'
loop_
 _atom_site_type_symbol
 _atom_site_label
 _atom_site_symmetry_multiplicity
 _atom_site_fract_x
 _atom_site_fract_y
 _atom_site_fract_z
 _atom_site_occupancy
  Zn  Zn0  1  0.00000000  0.78666700  0.00000000  1
  Zn  Zn1  1  0.78666700  0.00000000  0.00000000  1
  Zn  Zn2  1  0.00000000  0.00000000  0.78666700  1
  Zn  Zn3  1  0.21333300  0.21333300  0.21333300  1
  Zn  Zn4  1  0.35119200  0.61715900  0.35119200  1
  Zn  Zn5  1  0.26596700  0.00000000  0.64880800  1
  Zn  Zn6  1  0.64880800  0.00000000  0.26596700  1
  Zn  Zn7  1  0.26596700  0.64880800  0.00000000  1
  Zn  Zn8  1  0.73403300  0.73403300  0.38284100  1
  Zn  Zn9  1  0.38284100  0.73403300  0.73403300  1
  Zn  Zn10  1  0.00000000  0.64880800  0.26596700  1
  Zn  Zn11  1  0.00000000  0.26596700  0.64880800  1
  Zn  Zn12  1  0.64880800  0.26596700  0.00000000  1
  Zn  Zn13  1  0.35119200  0.35119200  0.61715900  1
  Zn  Zn14  1  0.61715900  0.35119200  0.35119200  1
  Zn  Zn15  1  0.73403300  0.38284100  0.73403300  1
  Zn  Zn16  1  0.35599400  0.35599400  0.00000000  1
  Zn  Zn17  1  0.00000000  0.64400600  0.64400600  1
  Zn  Zn18  1  0.00000000  0.35599400  0.35599400  1
  Zn  Zn19  1  0.35599400  0.00000000  0.35599400  1
  Zn  Zn20  1  0.64400600  0.00000000  0.64400600  1
  Zn  Zn21  1  0.64400600  0.64400600  0.00000000  1
  Rh  Rh22  1  0.00000000  0.34335100  0.00000000  1
  Rh  Rh23  1  0.34335100  0.00000000  0.00000000  1
  Rh  Rh24  1  0.00000000  0.00000000  0.34335100  1
  Rh  Rh25  1  0.65664900  0.65664900  0.65664900  1
