# generated using pymatgen
data_La2P3(HO2)5
_symmetry_space_group_name_H-M   'P 1'
_cell_length_a   6.79100800
_cell_length_b   11.08923467
_cell_length_c   14.31725521
_cell_angle_alpha   100.72742970
_cell_angle_beta   89.99916656
_cell_angle_gamma   107.82848094
_symmetry_Int_Tables_number   1
_chemical_formula_structural   La2P3(HO2)5
_chemical_formula_sum   'La8 P12 H20 O40'
_cell_volume   1006.60260831
_cell_formula_units_Z   4
loop_
 _symmetry_equiv_pos_site_id
 _symmetry_equiv_pos_as_xyz
  1  'x, y, z'
loop_
 _atom_site_type_symbol
 _atom_site_label
 _atom_site_symmetry_multiplicity
 _atom_site_fract_x
 _atom_site_fract_y
 _atom_site_fract_z
 _atom_site_occupancy
  La  La0  1  0.72819100  0.22469500  0.65478200  1
  La  La1  1  0.50340600  0.77534600  0.84522800  1
  La  La2  1  0.27180500  0.77530600  0.34521800  1
  La  La3  1  0.49658800  0.22465400  0.15477400  1
  La  La4  1  0.72038000  0.43512800  0.91611300  1
  La  La5  1  0.28533100  0.56491100  0.58387400  1
  La  La6  1  0.27962500  0.56487500  0.08389000  1
  La  La7  1  0.71466400  0.43508900  0.41612400  1
  P  P8  1  0.99857000  0.73426500  0.94644300  1
  P  P9  1  0.26431200  0.26571500  0.55357200  1
  P  P10  1  0.00142800  0.26573300  0.05355900  1
  P  P11  1  0.73568500  0.73428600  0.44642800  1
  P  P12  1  0.22716200  0.43734900  0.81754600  1
  P  P13  1  0.78979700  0.56263500  0.68246300  1
  P  P14  1  0.77284000  0.56265000  0.18245600  1
  P  P15  1  0.21020100  0.43736400  0.31753500  1
  P  P16  1  0.48581300  0.12190000  0.88295900  1
  P  P17  1  0.36383500  0.87811000  0.61704800  1
  P  P18  1  0.51418500  0.87810000  0.11704200  1
  P  P19  1  0.63616300  0.12189100  0.38295200  1
  H  H20  1  0.00366600  0.82125500  0.03284200  1
  H  H21  1  0.18240400  0.17874700  0.46715600  1
  H  H22  1  0.99633800  0.17874800  0.96715800  1
  H  H23  1  0.81759800  0.82125200  0.53284500  1
  H  H24  1  0.30438600  0.34667300  0.76061100  1
  H  H25  1  0.95766600  0.65332700  0.73938400  1
  H  H26  1  0.69561700  0.65332700  0.23938900  1
  H  H27  1  0.04233100  0.34667400  0.26061400  1
  H  H28  1  0.26929400  0.07345500  0.86233600  1
  H  H29  1  0.19574700  0.92653400  0.63771600  1
  H  H30  1  0.73070500  0.92654500  0.13766300  1
  H  H31  1  0.80425000  0.07346600  0.36228500  1
  H  H32  1  0.91772500  0.00757700  0.67816800  1
  H  H33  1  0.91013300  0.99242900  0.82182100  1
  H  H34  1  0.08227900  0.99242300  0.32183200  1
  H  H35  1  0.08986700  0.00757000  0.17817800  1
  H  H36  1  0.12306100  0.12671900  0.67749900  1
  H  H37  1  0.99631400  0.87329000  0.82248800  1
  H  H38  1  0.87694000  0.87328100  0.32250000  1
  H  H39  1  0.00368400  0.12671100  0.17751100  1
  O  O40  1  0.52257900  0.21581900  0.98058700  1
  O  O41  1  0.30666600  0.78418300  0.51942500  1
  O  O42  1  0.47742000  0.78417900  0.01941200  1
  O  O43  1  0.69333300  0.21581600  0.48057700  1
  O  O44  1  0.77290800  0.68094500  0.90263600  1
  O  O45  1  0.09198700  0.31906100  0.59737900  1
  O  O46  1  0.22709500  0.31905700  0.09736500  1
  O  O47  1  0.90801100  0.68093900  0.40261900  1
  O  O48  1  0.15336300  0.80645300  0.88242900  1
  O  O49  1  0.34688500  0.19351600  0.61757300  1
  O  O50  1  0.84664100  0.19355000  0.11756900  1
  O  O51  1  0.65311400  0.80648300  0.38242700  1
  O  O52  1  0.36067200  0.47656000  0.91381400  1
  O  O53  1  0.88411800  0.52337100  0.58620600  1
  O  O54  1  0.63933600  0.52344100  0.08618600  1
  O  O55  1  0.11587600  0.47662900  0.41379200  1
  O  O56  1  0.26655300  0.55599300  0.76886500  1
  O  O57  1  0.71045700  0.44403900  0.73118400  1
  O  O58  1  0.73344900  0.44400700  0.23113600  1
  O  O59  1  0.28954300  0.55596300  0.26881600  1
  O  O60  1  0.05108900  0.61668000  0.97067200  1
  O  O61  1  0.43441100  0.38329400  0.52932500  1
  O  O62  1  0.94891400  0.38332100  0.02932600  1
  O  O63  1  0.56559000  0.61670200  0.47067400  1
  O  O64  1  0.56839900  0.00819800  0.87755800  1
  O  O65  1  0.56000500  0.99186500  0.62239300  1
  O  O66  1  0.43160100  0.99180000  0.12244100  1
  O  O67  1  0.43999300  0.00813200  0.37760800  1
  O  O68  1  0.57529300  0.20932900  0.80991900  1
  O  O69  1  0.36603500  0.79066000  0.69005900  1
  O  O70  1  0.42470800  0.79067100  0.19008100  1
  O  O71  1  0.63396500  0.20934000  0.30994400  1
  O  O72  1  0.99626100  0.36976500  0.82488400  1
  O  O73  1  0.62654000  0.63026100  0.67508700  1
  O  O74  1  0.00374500  0.63023500  0.17511700  1
  O  O75  1  0.37346000  0.36974200  0.32491300  1
  O  O76  1  0.97711600  0.10143100  0.69692600  1
  O  O77  1  0.87563300  0.89856800  0.80309500  1
  O  O78  1  0.02288500  0.89856700  0.30307400  1
  O  O79  1  0.12436600  0.10143000  0.19690400  1
