# generated using pymatgen
data_TlMo2(PO4)3
_symmetry_space_group_name_H-M   'P 1'
_cell_length_a   9.03054400
_cell_length_b   9.45025800
_cell_length_c   12.51052500
_cell_angle_alpha   90.00000000
_cell_angle_beta   90.00000000
_cell_angle_gamma   90.00000000
_symmetry_Int_Tables_number   1
_chemical_formula_structural   TlMo2(PO4)3
_chemical_formula_sum   'Tl4 Mo8 P12 O48'
_cell_volume   1067.66034722
_cell_formula_units_Z   4
loop_
 _symmetry_equiv_pos_site_id
 _symmetry_equiv_pos_as_xyz
  1  'x, y, z'
loop_
 _atom_site_type_symbol
 _atom_site_label
 _atom_site_symmetry_multiplicity
 _atom_site_fract_x
 _atom_site_fract_y
 _atom_site_fract_z
 _atom_site_occupancy
  Tl  Tl0  1  0.83057200  0.16359500  0.25000000  1
  Tl  Tl1  1  0.83057200  0.33640500  0.75000000  1
  Tl  Tl2  1  0.16942800  0.66359500  0.25000000  1
  Tl  Tl3  1  0.16942800  0.83640500  0.75000000  1
  Mo  Mo4  1  0.75209100  0.96999500  0.89982800  1
  Mo  Mo5  1  0.24790900  0.46999500  0.89982800  1
  Mo  Mo6  1  0.75209100  0.53000500  0.39982800  1
  Mo  Mo7  1  0.75209100  0.96999500  0.60017200  1
  Mo  Mo8  1  0.24790900  0.03000500  0.39982800  1
  Mo  Mo9  1  0.24790900  0.46999500  0.60017200  1
  Mo  Mo10  1  0.75209100  0.53000500  0.10017200  1
  Mo  Mo11  1  0.24790900  0.03000500  0.10017200  1
  P  P12  1  0.40745600  0.36180100  0.36968900  1
  P  P13  1  0.40745600  0.13819900  0.63031100  1
  P  P14  1  0.59254400  0.86180100  0.13031100  1
  P  P15  1  0.59254400  0.63819900  0.86968900  1
  P  P16  1  0.59254400  0.63819900  0.63031100  1
  P  P17  1  0.59254400  0.86180100  0.36968900  1
  P  P18  1  0.40745600  0.13819900  0.86968900  1
  P  P19  1  0.40745600  0.36180100  0.13031100  1
  P  P20  1  0.97202700  0.25000000  0.50000000  1
  P  P21  1  0.97202700  0.25000000  0.00000000  1
  P  P22  1  0.02797300  0.75000000  0.50000000  1
  P  P23  1  0.02797300  0.75000000  0.00000000  1
  O  O24  1  0.64201500  0.58994400  0.75000000  1
  O  O25  1  0.64201500  0.91005600  0.25000000  1
  O  O26  1  0.35798500  0.08994400  0.75000000  1
  O  O27  1  0.35798500  0.41005600  0.25000000  1
  O  O28  1  0.06509100  0.16118100  0.42107900  1
  O  O29  1  0.06509100  0.33881900  0.57892100  1
  O  O30  1  0.93490900  0.66118100  0.07892100  1
  O  O31  1  0.93490900  0.83881900  0.92107900  1
  O  O32  1  0.93490900  0.83881900  0.57892100  1
  O  O33  1  0.93490900  0.66118100  0.42107900  1
  O  O34  1  0.06509100  0.33881900  0.92107900  1
  O  O35  1  0.06509100  0.16118100  0.07892100  1
  O  O36  1  0.42991400  0.89591400  0.38414000  1
  O  O37  1  0.42991400  0.60408600  0.61586000  1
  O  O38  1  0.57008600  0.39591400  0.11586000  1
  O  O39  1  0.57008600  0.10408600  0.88414000  1
  O  O40  1  0.57008600  0.10408600  0.61586000  1
  O  O41  1  0.61329900  0.79743600  0.62189600  1
  O  O42  1  0.57008600  0.39591400  0.38414000  1
  O  O43  1  0.42991400  0.89591400  0.11586000  1
  O  O44  1  0.38670100  0.20256400  0.37810400  1
  O  O45  1  0.38670100  0.29743600  0.62189600  1
  O  O46  1  0.61329900  0.70256400  0.12189600  1
  O  O47  1  0.61329900  0.79743600  0.87810400  1
  O  O48  1  0.21295600  0.01859700  0.25000000  1
  O  O49  1  0.21295600  0.48140300  0.75000000  1
  O  O50  1  0.78704400  0.51859700  0.25000000  1
  O  O51  1  0.78704400  0.98140300  0.75000000  1
  O  O52  1  0.12590200  0.84659300  0.07044900  1
  O  O53  1  0.12590200  0.65340700  0.92955100  1
  O  O54  1  0.87409800  0.34659300  0.42955100  1
  O  O55  1  0.87409800  0.15340700  0.57044900  1
  O  O56  1  0.87409800  0.15340700  0.92955100  1
  O  O57  1  0.87409800  0.34659300  0.07044900  1
  O  O58  1  0.12590200  0.65340700  0.57044900  1
  O  O59  1  0.12590200  0.84659300  0.42955100  1
  O  O60  1  0.30011000  0.04948500  0.93751300  1
  O  O61  1  0.30011000  0.45051500  0.06248700  1
  O  O62  1  0.69989000  0.54948500  0.56248700  1
  O  O63  1  0.69989000  0.95051500  0.43751300  1
  O  O64  1  0.69989000  0.95051500  0.06248700  1
  O  O65  1  0.69989000  0.54948500  0.93751300  1
  O  O66  1  0.30011000  0.45051500  0.43751300  1
  O  O67  1  0.30011000  0.04948500  0.56248700  1
  O  O68  1  0.38670100  0.20256400  0.12189600  1
  O  O69  1  0.38670100  0.29743600  0.87810400  1
  O  O70  1  0.61329900  0.70256400  0.37810400  1
  O  O71  1  0.42991400  0.60408600  0.88414000  1
