# generated using pymatgen
data_Mg149Ru
_symmetry_space_group_name_H-M   'P 1'
_cell_length_a   15.92221169
_cell_length_b   15.92221709
_cell_length_c   15.63554652
_cell_angle_alpha   90.00000000
_cell_angle_beta   90.00000000
_cell_angle_gamma   120.00001320
_symmetry_Int_Tables_number   1
_chemical_formula_structural   Mg149Ru
_chemical_formula_sum   'Mg149 Ru1'
_cell_volume   3432.81638672
_cell_formula_units_Z   1
loop_
 _symmetry_equiv_pos_site_id
 _symmetry_equiv_pos_as_xyz
  1  'x, y, z'
loop_
 _atom_site_type_symbol
 _atom_site_label
 _atom_site_symmetry_multiplicity
 _atom_site_fract_x
 _atom_site_fract_y
 _atom_site_fract_z
 _atom_site_occupancy
  Mg  Mg0  1  0.39743088  0.00033966  -0.00000000  1
  Mg  Mg1  1  0.60290778  0.00033966  -0.00000000  1
  Mg  Mg2  1  0.18963858  0.00178032  -0.00000000  1
  Mg  Mg3  1  0.81214274  0.00178032  -0.00000000  1
  Mg  Mg4  1  0.99821868  0.18785726  -0.00000000  1
  Mg  Mg5  1  0.18963858  0.18785826  -0.00000000  1
  Mg  Mg6  1  0.39777797  0.19888948  -0.00000000  1
  Mg  Mg7  1  0.80111152  0.19888948  -0.00000000  1
  Mg  Mg8  1  0.59974234  0.19948368  -0.00000000  1
  Mg  Mg9  1  0.19830839  0.39661777  -0.00000000  1
  Mg  Mg10  1  0.39743088  0.39709122  -0.00000000  1
  Mg  Mg11  1  0.99966034  0.39709122  -0.00000000  1
  Mg  Mg12  1  0.80051532  0.40025766  -0.00000000  1
  Mg  Mg13  1  0.59974234  0.40025866  -0.00000000  1
  Mg  Mg14  1  0.40019790  0.59980210  -0.00000000  1
  Mg  Mg15  1  0.19960319  0.59980210  -0.00000000  1
  Mg  Mg16  1  0.80111152  0.60222203  -0.00000000  1
  Mg  Mg17  1  0.60290778  0.60256812  -0.00000000  1
  Mg  Mg18  1  0.99966034  0.60256812  -0.00000000  1
  Mg  Mg19  1  0.40019790  0.80039581  -0.00000000  1
  Mg  Mg20  1  0.60338323  0.80169161  -0.00000000  1
  Mg  Mg21  1  0.19830839  0.80169161  -0.00000000  1
  Mg  Mg22  1  0.99821868  0.81036142  -0.00000000  1
  Mg  Mg23  1  0.81214274  0.81036142  -0.00000000  1
  Mg  Mg24  1  0.06302139  0.12604178  0.15662399  1
  Mg  Mg25  1  0.06302139  0.93697861  0.15662399  1
  Mg  Mg26  1  0.87395822  0.93697961  0.15662399  1
  Mg  Mg27  1  0.06603428  0.33074851  0.16539160  1
  Mg  Mg28  1  0.26471423  0.33074851  0.16539160  1
  Mg  Mg29  1  0.06603428  0.73528677  0.16539160  1
  Mg  Mg30  1  0.66925249  0.73528677  0.16539160  1
  Mg  Mg31  1  0.66925249  0.93396572  0.16539160  1
  Mg  Mg32  1  0.26471423  0.93396572  0.16539160  1
  Mg  Mg33  1  0.06656439  0.53328220  0.16599782  1
  Mg  Mg34  1  0.46671780  0.53328220  0.16599782  1
  Mg  Mg35  1  0.46671780  0.93343561  0.16599782  1
  Mg  Mg36  1  0.26635847  0.53271593  0.16622812  1
  Mg  Mg37  1  0.46728407  0.73364153  0.16622812  1
  Mg  Mg38  1  0.26635847  0.73364253  0.16622812  1
  Mg  Mg39  1  0.46720630  0.13369382  0.16670304  1
  Mg  Mg40  1  0.66648752  0.13369382  0.16670304  1
  Mg  Mg41  1  0.46720630  0.33351248  0.16670304  1
  Mg  Mg42  1  0.86630618  0.33351248  0.16670304  1
  Mg  Mg43  1  0.86630618  0.53279370  0.16670304  1
  Mg  Mg44  1  0.66648752  0.53279370  0.16670304  1
  Mg  Mg45  1  0.66666700  0.33333400  0.16670552  1
  Mg  Mg46  1  0.86554411  0.13445589  0.16720499  1
  Mg  Mg47  1  0.26891179  0.13445589  0.16720499  1
  Mg  Mg48  1  0.86554411  0.73108821  0.16720499  1
  Mg  Mg49  1  0.19857997  0.19896557  0.33091568  1
  Mg  Mg50  1  0.00038560  0.19896557  0.33091568  1
  Mg  Mg51  1  0.00038560  0.80142103  0.33091568  1
  Mg  Mg52  1  0.80103543  0.80142103  0.33091568  1
  Mg  Mg53  1  0.19857997  0.99961440  0.33091568  1
  Mg  Mg54  1  0.80103543  0.99961440  0.33091568  1
  Mg  Mg55  1  -0.00000000  0.00000000  0.33178828  1
  Mg  Mg56  1  0.39932336  0.99983635  0.33269219  1
  Mg  Mg57  1  0.60051299  0.99983735  0.33269219  1
  Mg  Mg58  1  0.00016265  0.39948601  0.33269219  1
  Mg  Mg59  1  0.39932336  0.39948601  0.33269219  1
  Mg  Mg60  1  0.60051299  0.60067664  0.33269219  1
  Mg  Mg61  1  0.00016265  0.60067664  0.33269219  1
  Mg  Mg62  1  0.19997636  0.39995271  0.33301959  1
  Mg  Mg63  1  0.60004729  0.80002364  0.33301959  1
  Mg  Mg64  1  0.19997636  0.80002364  0.33301959  1
  Mg  Mg65  1  0.19999900  0.59999950  0.33335144  1
  Mg  Mg66  1  0.40000050  0.59999950  0.33335144  1
  Mg  Mg67  1  0.40000050  0.80000100  0.33335144  1
  Mg  Mg68  1  0.59981631  0.19963262  0.33350909  1
  Mg  Mg69  1  0.59981631  0.40018369  0.33350909  1
  Mg  Mg70  1  0.80036738  0.40018369  0.33350909  1
  Mg  Mg71  1  0.80006842  0.19993058  0.33364705  1
  Mg  Mg72  1  0.39986216  0.19993058  0.33364705  1
  Mg  Mg73  1  0.80006842  0.60013784  0.33364705  1
  Mg  Mg74  1  0.26606121  0.13303010  0.50000000  1
  Mg  Mg75  1  0.86696990  0.13303010  0.50000000  1
  Mg  Mg76  1  0.06657624  0.13315249  0.50000000  1
  Mg  Mg77  1  0.46685280  0.13346968  0.50000000  1
  Mg  Mg78  1  0.66661788  0.13346968  0.50000000  1
  Mg  Mg79  1  0.26637958  0.33268824  0.50000000  1
  Mg  Mg80  1  0.06630866  0.33268824  0.50000000  1
  Mg  Mg81  1  0.86652932  0.33338212  0.50000000  1
  Mg  Mg82  1  0.46685280  0.33338212  0.50000000  1
  Mg  Mg83  1  0.66666700  0.33333400  0.50000000  1
  Mg  Mg84  1  0.26646856  0.53293812  0.50000000  1
  Mg  Mg85  1  0.46687642  0.53312258  0.50000000  1
  Mg  Mg86  1  0.06624615  0.53312358  0.50000000  1
  Mg  Mg87  1  0.86652932  0.53314720  0.50000000  1
  Mg  Mg88  1  0.66661788  0.53314820  0.50000000  1
  Mg  Mg89  1  0.46706188  0.73353144  0.50000000  1
  Mg  Mg90  1  0.26646856  0.73353144  0.50000000  1
  Mg  Mg91  1  0.06630866  0.73362042  0.50000000  1
  Mg  Mg92  1  0.66731176  0.73362042  0.50000000  1
  Mg  Mg93  1  0.86696990  0.73393979  0.50000000  1
  Mg  Mg94  1  0.06657624  0.93342376  0.50000000  1
  Mg  Mg95  1  0.86684751  0.93342376  0.50000000  1
  Mg  Mg96  1  0.46687642  0.93375385  0.50000000  1
  Mg  Mg97  1  0.26637958  0.93369134  0.50000000  1
  Mg  Mg98  1  0.66731176  0.93369134  0.50000000  1
  Mg  Mg99  1  0.80006842  0.19993058  0.66635195  1
  Mg  Mg100  1  0.39986216  0.19993058  0.66635195  1
  Mg  Mg101  1  0.80006842  0.60013784  0.66635195  1
  Mg  Mg102  1  0.59981631  0.19963262  0.66649091  1
  Mg  Mg103  1  0.59981631  0.40018369  0.66649091  1
  Mg  Mg104  1  0.80036738  0.40018369  0.66649091  1
  Mg  Mg105  1  0.19999900  0.59999950  0.66664856  1
  Mg  Mg106  1  0.40000050  0.59999950  0.66664856  1
  Mg  Mg107  1  0.40000050  0.80000100  0.66664856  1
  Mg  Mg108  1  0.19997636  0.39995271  0.66698041  1
  Mg  Mg109  1  0.60004729  0.80002364  0.66698041  1
  Mg  Mg110  1  0.19997636  0.80002364  0.66698041  1
  Mg  Mg111  1  0.39932336  0.99983635  0.66730781  1
  Mg  Mg112  1  0.60051299  0.99983735  0.66730781  1
  Mg  Mg113  1  0.00016265  0.39948601  0.66730781  1
  Mg  Mg114  1  0.39932336  0.39948601  0.66730781  1
  Mg  Mg115  1  0.60051299  0.60067664  0.66730781  1
  Mg  Mg116  1  0.00016265  0.60067664  0.66730781  1
  Mg  Mg117  1  -0.00000000  0.00000000  0.66821072  1
  Mg  Mg118  1  0.19857997  0.19896557  0.66908432  1
  Mg  Mg119  1  0.00038560  0.19896557  0.66908432  1
  Mg  Mg120  1  0.00038560  0.80142103  0.66908432  1
  Mg  Mg121  1  0.80103543  0.80142103  0.66908432  1
  Mg  Mg122  1  0.19857997  0.99961440  0.66908432  1
  Mg  Mg123  1  0.80103543  0.99961440  0.66908432  1
  Mg  Mg124  1  0.86554411  0.13445589  0.83279601  1
  Mg  Mg125  1  0.26891179  0.13445589  0.83279601  1
  Mg  Mg126  1  0.86554411  0.73108821  0.83279601  1
  Mg  Mg127  1  0.66666700  0.33333400  0.83329548  1
  Mg  Mg128  1  0.46720630  0.13369382  0.83329696  1
  Mg  Mg129  1  0.66648752  0.13369382  0.83329696  1
  Mg  Mg130  1  0.46720630  0.33351248  0.83329696  1
  Mg  Mg131  1  0.86630618  0.33351248  0.83329696  1
  Mg  Mg132  1  0.86630618  0.53279370  0.83329696  1
  Mg  Mg133  1  0.66648752  0.53279370  0.83329696  1
  Mg  Mg134  1  0.26635847  0.53271593  0.83377188  1
  Mg  Mg135  1  0.46728407  0.73364153  0.83377188  1
  Mg  Mg136  1  0.26635847  0.73364253  0.83377188  1
  Mg  Mg137  1  0.06656439  0.53328220  0.83400318  1
  Mg  Mg138  1  0.46671780  0.53328220  0.83400318  1
  Mg  Mg139  1  0.46671780  0.93343561  0.83400318  1
  Mg  Mg140  1  0.06603428  0.33074851  0.83460840  1
  Mg  Mg141  1  0.26471423  0.33074851  0.83460840  1
  Mg  Mg142  1  0.06603428  0.73528677  0.83460840  1
  Mg  Mg143  1  0.66925249  0.73528677  0.83460840  1
  Mg  Mg144  1  0.66925249  0.93396572  0.83460840  1
  Mg  Mg145  1  0.26471423  0.93396572  0.83460840  1
  Mg  Mg146  1  0.06302139  0.12604178  0.84337601  1
  Mg  Mg147  1  0.06302139  0.93697861  0.84337601  1
  Mg  Mg148  1  0.87395822  0.93697961  0.84337601  1
  Ru  Ru149  1  -0.00000000  0.00000000  -0.00000000  1
