# generated using pymatgen
data_BaEr2Si3O10
_symmetry_space_group_name_H-M   'P 1'
_cell_length_a   12.25787100
_cell_length_b   5.42268000
_cell_length_c   6.88369124
_cell_angle_alpha   73.56486093
_cell_angle_beta   90.00000000
_cell_angle_gamma   90.00000000
_symmetry_Int_Tables_number   1
_chemical_formula_structural   BaEr2Si3O10
_chemical_formula_sum   'Ba2 Er4 Si6 O20'
_cell_volume   438.86676904
_cell_formula_units_Z   2
loop_
 _symmetry_equiv_pos_site_id
 _symmetry_equiv_pos_as_xyz
  1  'x, y, z'
loop_
 _atom_site_type_symbol
 _atom_site_label
 _atom_site_symmetry_multiplicity
 _atom_site_fract_x
 _atom_site_fract_y
 _atom_site_fract_z
 _atom_site_occupancy
  Ba  Ba0  1  0.25000000  0.23905500  0.01916800  1
  Ba  Ba1  1  0.75000000  0.76094500  0.98083200  1
  Er  Er2  1  0.09917300  0.84182000  0.68424000  1
  Er  Er3  1  0.59917300  0.15818000  0.31576000  1
  Er  Er4  1  0.90082700  0.15818000  0.31576000  1
  Er  Er5  1  0.40082700  0.84182000  0.68424000  1
  Si  Si6  1  0.25000000  0.41860000  0.48897600  1
  Si  Si7  1  0.75000000  0.58140000  0.51102400  1
  Si  Si8  1  0.06127600  0.69585600  0.21360800  1
  Si  Si9  1  0.56127600  0.30414400  0.78639200  1
  Si  Si10  1  0.93872400  0.30414400  0.78639200  1
  Si  Si11  1  0.43872400  0.69585600  0.21360800  1
  O  O12  1  0.25000000  0.63354300  0.61303000  1
  O  O13  1  0.75000000  0.36645700  0.38697000  1
  O  O14  1  0.25000000  0.12296800  0.63493500  1
  O  O15  1  0.75000000  0.87703200  0.36506500  1
  O  O16  1  0.14275900  0.45174000  0.33889000  1
  O  O17  1  0.64275900  0.54826000  0.66111000  1
  O  O18  1  0.85724100  0.54826000  0.66111000  1
  O  O19  1  0.35724100  0.45174000  0.33889000  1
  O  O20  1  0.94496700  0.56422800  0.19193800  1
  O  O21  1  0.44496700  0.43577200  0.80806200  1
  O  O22  1  0.05503300  0.43577200  0.80806200  1
  O  O23  1  0.55503300  0.56422800  0.19193800  1
  O  O24  1  0.12289000  0.83518200  0.00141300  1
  O  O25  1  0.62289000  0.16481800  0.99858700  1
  O  O26  1  0.87711000  0.16481800  0.99858700  1
  O  O27  1  0.37711000  0.83518200  0.00141300  1
  O  O28  1  0.05037300  0.89968500  0.35194000  1
  O  O29  1  0.55037300  0.10031500  0.64806000  1
  O  O30  1  0.94962700  0.10031500  0.64806000  1
  O  O31  1  0.44962700  0.89968500  0.35194000  1
