# generated using pymatgen
data_B2Mo(PbO2)6
_symmetry_space_group_name_H-M   'P 1'
_cell_length_a   9.90837897
_cell_length_b   9.90837897
_cell_length_c   11.92932600
_cell_angle_alpha   90.00000000
_cell_angle_beta   90.00000000
_cell_angle_gamma   141.93134546
_symmetry_Int_Tables_number   1
_chemical_formula_structural   B2Mo(PbO2)6
_chemical_formula_sum   'B4 Mo2 Pb12 O24'
_cell_volume   722.15155916
_cell_formula_units_Z   2
loop_
 _symmetry_equiv_pos_site_id
 _symmetry_equiv_pos_as_xyz
  1  'x, y, z'
loop_
 _atom_site_type_symbol
 _atom_site_label
 _atom_site_symmetry_multiplicity
 _atom_site_fract_x
 _atom_site_fract_y
 _atom_site_fract_z
 _atom_site_occupancy
  B  B0  1  0.74610500  0.25389500  0.50000000  1
  B  B1  1  0.74610500  0.25389500  0.00000000  1
  B  B2  1  0.25389500  0.74610500  0.50000000  1
  B  B3  1  0.25389500  0.74610500  0.00000000  1
  Mo  Mo4  1  0.26662700  0.26662700  0.25000000  1
  Mo  Mo5  1  0.73337300  0.73337300  0.75000000  1
  Pb  Pb6  1  0.09606200  0.51033600  0.25000000  1
  Pb  Pb7  1  0.48966400  0.90393800  0.75000000  1
  Pb  Pb8  1  0.90393800  0.48966400  0.75000000  1
  Pb  Pb9  1  0.51033600  0.09606200  0.25000000  1
  Pb  Pb10  1  0.86737000  0.65494200  0.40790400  1
  Pb  Pb11  1  0.34505800  0.13263000  0.59209600  1
  Pb  Pb12  1  0.86737000  0.65494200  0.09209600  1
  Pb  Pb13  1  0.34505800  0.13263000  0.90790400  1
  Pb  Pb14  1  0.13263000  0.34505800  0.59209600  1
  Pb  Pb15  1  0.65494200  0.86737000  0.40790400  1
  Pb  Pb16  1  0.13263000  0.34505800  0.90790400  1
  Pb  Pb17  1  0.65494200  0.86737000  0.09209600  1
  O  O18  1  0.16233800  0.72792200  0.40311700  1
  O  O19  1  0.27207800  0.83766200  0.59688300  1
  O  O20  1  0.16233800  0.72792200  0.09688300  1
  O  O21  1  0.27207800  0.83766200  0.90311700  1
  O  O22  1  0.83766200  0.27207800  0.59688300  1
  O  O23  1  0.72792200  0.16233800  0.40311700  1
  O  O24  1  0.83766200  0.27207800  0.90311700  1
  O  O25  1  0.72792200  0.16233800  0.09688300  1
  O  O26  1  0.67126400  0.32873600  0.50000000  1
  O  O27  1  0.67126400  0.32873600  0.00000000  1
  O  O28  1  0.32873600  0.67126400  0.50000000  1
  O  O29  1  0.32873600  0.67126400  0.00000000  1
  O  O30  1  0.78057800  0.48312600  0.25000000  1
  O  O31  1  0.51687400  0.21942200  0.75000000  1
  O  O32  1  0.21942200  0.51687400  0.75000000  1
  O  O33  1  0.48312600  0.78057800  0.25000000  1
  O  O34  1  0.17592600  0.02029100  0.25000000  1
  O  O35  1  0.97970900  0.82407400  0.75000000  1
  O  O36  1  0.82407400  0.97970900  0.75000000  1
  O  O37  1  0.02029100  0.17592600  0.25000000  1
  O  O38  1  0.42440000  0.42440000  0.37381500  1
  O  O39  1  0.57560000  0.57560000  0.62618500  1
  O  O40  1  0.42440000  0.42440000  0.12618500  1
  O  O41  1  0.57560000  0.57560000  0.87381500  1
