# generated using pymatgen
data_Tb5CoBi2
_symmetry_space_group_name_H-M   'P 1'
_cell_length_a   8.05717400
_cell_length_b   8.91118200
_cell_length_c   12.42666800
_cell_angle_alpha   90.00000000
_cell_angle_beta   90.00000000
_cell_angle_gamma   90.00000000
_symmetry_Int_Tables_number   1
_chemical_formula_structural   Tb5CoBi2
_chemical_formula_sum   'Tb20 Co4 Bi8'
_cell_volume   892.22163884
_cell_formula_units_Z   4
loop_
 _symmetry_equiv_pos_site_id
 _symmetry_equiv_pos_as_xyz
  1  'x, y, z'
loop_
 _atom_site_type_symbol
 _atom_site_label
 _atom_site_symmetry_multiplicity
 _atom_site_fract_x
 _atom_site_fract_y
 _atom_site_fract_z
 _atom_site_occupancy
  Tb  Tb0  1  0.84739000  0.75000000  0.80166300  1
  Tb  Tb1  1  0.15261000  0.25000000  0.19833700  1
  Tb  Tb2  1  0.34739000  0.25000000  0.69833700  1
  Tb  Tb3  1  0.65261000  0.75000000  0.30166300  1
  Tb  Tb4  1  0.37869200  0.75000000  0.68974500  1
  Tb  Tb5  1  0.62130800  0.25000000  0.31025500  1
  Tb  Tb6  1  0.87869200  0.25000000  0.81025500  1
  Tb  Tb7  1  0.12130800  0.75000000  0.18974500  1
  Tb  Tb8  1  0.95574600  0.75000000  0.50242700  1
  Tb  Tb9  1  0.04425400  0.25000000  0.49757300  1
  Tb  Tb10  1  0.45574600  0.25000000  0.99757300  1
  Tb  Tb11  1  0.54425400  0.75000000  0.00242700  1
  Tb  Tb12  1  0.67623300  0.03321700  0.56199400  1
  Tb  Tb13  1  0.32376700  0.96678300  0.43800600  1
  Tb  Tb14  1  0.17623300  0.96678300  0.93800600  1
  Tb  Tb15  1  0.32376700  0.53321700  0.43800600  1
  Tb  Tb16  1  0.82376700  0.03321700  0.06199400  1
  Tb  Tb17  1  0.67623300  0.46678300  0.56199400  1
  Tb  Tb18  1  0.82376700  0.46678300  0.06199400  1
  Tb  Tb19  1  0.17623300  0.53321700  0.93800600  1
  Co  Co20  1  0.55973600  0.75000000  0.50841100  1
  Co  Co21  1  0.44026400  0.25000000  0.49158900  1
  Co  Co22  1  0.05973600  0.25000000  0.99158900  1
  Co  Co23  1  0.94026400  0.75000000  0.00841100  1
  Bi  Bi24  1  0.56986500  0.49271000  0.82580800  1
  Bi  Bi25  1  0.43013500  0.50729000  0.17419200  1
  Bi  Bi26  1  0.06986500  0.50729000  0.67419200  1
  Bi  Bi27  1  0.43013500  0.99271000  0.17419200  1
  Bi  Bi28  1  0.93013500  0.49271000  0.32580800  1
  Bi  Bi29  1  0.56986500  0.00729000  0.82580800  1
  Bi  Bi30  1  0.93013500  0.00729000  0.32580800  1
  Bi  Bi31  1  0.06986500  0.99271000  0.67419200  1
