# generated using pymatgen
data_La6S3(OF4)2
_symmetry_space_group_name_H-M   'P 1'
_cell_length_a   3.97113800
_cell_length_b   13.80195500
_cell_length_c   13.90137573
_cell_angle_alpha   60.25209381
_cell_angle_beta   90.00000000
_cell_angle_gamma   90.00000000
_symmetry_Int_Tables_number   1
_chemical_formula_structural   La6S3(OF4)2
_chemical_formula_sum   'La12 S6 O4 F16'
_cell_volume   661.51794087
_cell_formula_units_Z   2
loop_
 _symmetry_equiv_pos_site_id
 _symmetry_equiv_pos_as_xyz
  1  'x, y, z'
loop_
 _atom_site_type_symbol
 _atom_site_label
 _atom_site_symmetry_multiplicity
 _atom_site_fract_x
 _atom_site_fract_y
 _atom_site_fract_z
 _atom_site_occupancy
  La  La0  1  0.00000000  0.72015900  0.22648100  1
  La  La1  1  0.00000000  0.22542500  0.05481500  1
  La  La2  1  0.00000000  0.04957100  0.71272700  1
  La  La3  1  0.50000000  0.28901900  0.76185400  1
  La  La4  1  0.50000000  0.76203500  0.94720700  1
  La  La5  1  0.50000000  0.94537700  0.29306300  1
  La  La6  1  0.00000000  0.47343400  0.13826500  1
  La  La7  1  0.00000000  0.12994500  0.39682500  1
  La  La8  1  0.00000000  0.38615400  0.47619900  1
  La  La9  1  0.50000000  0.53743700  0.86121300  1
  La  La10  1  0.50000000  0.87344600  0.60162800  1
  La  La11  1  0.50000000  0.60455000  0.53673400  1
  S  S12  1  0.00000000  0.80318700  0.47004600  1
  S  S13  1  0.00000000  0.47363600  0.72150900  1
  S  S14  1  0.00000000  0.71715000  0.81121500  1
  S  S15  1  0.50000000  0.19201900  0.53133400  1
  S  S16  1  0.50000000  0.53375300  0.28040400  1
  S  S17  1  0.50000000  0.28263600  0.18267400  1
  O  O18  1  0.00000000  0.97942900  0.58700200  1
  O  O19  1  0.50000000  0.41790800  0.56474900  1
  O  O20  1  0.50000000  0.56305800  0.02055900  1
  O  O21  1  0.50000000  0.02050100  0.41178800  1
  F  F22  1  0.00000000  0.90455000  0.20080300  1
  F  F23  1  0.00000000  0.20318000  0.89315900  1
  F  F24  1  0.00000000  0.89084600  0.90500700  1
  F  F25  1  0.50000000  0.09678100  0.79729200  1
  F  F26  1  0.50000000  0.80054200  0.10474900  1
  F  F27  1  0.50000000  0.10350800  0.09560900  1
  F  F28  1  0.00000000  0.68132900  0.07248300  1
  F  F29  1  0.00000000  0.07040600  0.24681000  1
  F  F30  1  0.00000000  0.24801700  0.68117600  1
  F  F31  1  0.50000000  0.32269800  0.92851100  1
  F  F32  1  0.50000000  0.92588200  0.75414000  1
  F  F33  1  0.50000000  0.74691500  0.32178200  1
  F  F34  1  0.00000000  0.33350100  0.33328800  1
  F  F35  1  0.50000000  0.66932300  0.66690700  1
  F  F36  1  0.00000000  0.58847500  0.43420200  1
  F  F37  1  0.00000000  0.43421900  0.97579300  1
