# generated using pymatgen
data_Tm4B3C4
_symmetry_space_group_name_H-M   'P 1'
_cell_length_a   3.45069700
_cell_length_b   3.54537231
_cell_length_c   11.77295057
_cell_angle_alpha   92.83417640
_cell_angle_beta   96.17323246
_cell_angle_gamma   90.19396137
_symmetry_Int_Tables_number   1
_chemical_formula_structural   Tm4B3C4
_chemical_formula_sum   'Tm4 B3 C4'
_cell_volume   143.01451037
_cell_formula_units_Z   1
loop_
 _symmetry_equiv_pos_site_id
 _symmetry_equiv_pos_as_xyz
  1  'x, y, z'
loop_
 _atom_site_type_symbol
 _atom_site_label
 _atom_site_symmetry_multiplicity
 _atom_site_fract_x
 _atom_site_fract_y
 _atom_site_fract_z
 _atom_site_occupancy
  Tm  Tm0  1  0.80657300  0.02396300  0.65067400  1
  Tm  Tm1  1  0.19342700  0.97603700  0.34932600  1
  Tm  Tm2  1  0.38734500  0.55496400  0.86003400  1
  Tm  Tm3  1  0.61265500  0.44503600  0.13996600  1
  B  B4  1  0.00000000  0.00000000  0.00000000  1
  B  B5  1  0.26752600  0.50621000  0.54051900  1
  B  B6  1  0.73247400  0.49379000  0.45948100  1
  C  C7  1  0.88880000  0.06465100  0.87876500  1
  C  C8  1  0.11120000  0.93534900  0.12123500  1
  C  C9  1  0.31350700  0.52738400  0.66870200  1
  C  C10  1  0.68649300  0.47261600  0.33129800  1
