# generated using pymatgen
data_Y2P7Rh12
_symmetry_space_group_name_H-M   'P 1'
_cell_length_a   9.62063498
_cell_length_b   9.62063498
_cell_length_c   3.88690200
_cell_angle_alpha   90.00000000
_cell_angle_beta   90.00000000
_cell_angle_gamma   119.99999299
_symmetry_Int_Tables_number   1
_chemical_formula_structural   Y2P7Rh12
_chemical_formula_sum   'Y2 P7 Rh12'
_cell_volume   311.56002347
_cell_formula_units_Z   1
loop_
 _symmetry_equiv_pos_site_id
 _symmetry_equiv_pos_as_xyz
  1  'x, y, z'
loop_
 _atom_site_type_symbol
 _atom_site_label
 _atom_site_symmetry_multiplicity
 _atom_site_fract_x
 _atom_site_fract_y
 _atom_site_fract_z
 _atom_site_occupancy
  Y  Y0  1  0.33333300  0.66666700  0.74944400  1
  Y  Y1  1  0.66666700  0.33333300  0.25055600  1
  P  P2  1  0.00000000  0.00000000  0.50000000  1
  P  P3  1  0.40511400  0.28661300  0.75340700  1
  P  P4  1  0.71338700  0.11850100  0.75340700  1
  P  P5  1  0.88149900  0.59488600  0.75340700  1
  P  P6  1  0.59488600  0.71338700  0.24659300  1
  P  P7  1  0.28661300  0.88149900  0.24659300  1
  P  P8  1  0.11850100  0.40511400  0.24659300  1
  Rh  Rh9  1  0.44957300  0.06798300  0.75072000  1
  Rh  Rh10  1  0.93201700  0.38159000  0.75072000  1
  Rh  Rh11  1  0.61841000  0.55042700  0.75072000  1
  Rh  Rh12  1  0.55042700  0.93201700  0.24928000  1
  Rh  Rh13  1  0.06798300  0.61841000  0.24928000  1
  Rh  Rh14  1  0.38159000  0.44957300  0.24928000  1
  Rh  Rh15  1  0.15074300  0.26135600  0.74977900  1
  Rh  Rh16  1  0.73864400  0.88938700  0.74977900  1
  Rh  Rh17  1  0.11061300  0.84925700  0.74977900  1
  Rh  Rh18  1  0.84925700  0.73864400  0.25022100  1
  Rh  Rh19  1  0.26135600  0.11061300  0.25022100  1
  Rh  Rh20  1  0.88938700  0.15074300  0.25022100  1
