# generated using pymatgen
data_KSm(CO3)2
_symmetry_space_group_name_H-M   'P 1'
_cell_length_a   6.53724015
_cell_length_b   6.53724015
_cell_length_c   7.11083762
_cell_angle_alpha   76.04551490
_cell_angle_beta   76.04551490
_cell_angle_gamma   96.41363326
_symmetry_Int_Tables_number   1
_chemical_formula_structural   KSm(CO3)2
_chemical_formula_sum   'K2 Sm2 C4 O12'
_cell_volume   281.52014713
_cell_formula_units_Z   2
loop_
 _symmetry_equiv_pos_site_id
 _symmetry_equiv_pos_as_xyz
  1  'x, y, z'
loop_
 _atom_site_type_symbol
 _atom_site_label
 _atom_site_symmetry_multiplicity
 _atom_site_fract_x
 _atom_site_fract_y
 _atom_site_fract_z
 _atom_site_occupancy
  K  K0  1  0.62014500  0.37985500  0.75000000  1
  K  K1  1  0.37985500  0.62014500  0.25000000  1
  Sm  Sm2  1  0.09718700  0.90281300  0.75000000  1
  Sm  Sm3  1  0.90281300  0.09718700  0.25000000  1
  C  C4  1  0.64550400  0.88979000  0.75797900  1
  C  C5  1  0.35449600  0.11021000  0.24202100  1
  C  C6  1  0.11021000  0.35449600  0.74202100  1
  C  C7  1  0.88979000  0.64550400  0.25797900  1
  O  O8  1  0.44708000  0.89570400  0.77949200  1
  O  O9  1  0.55292000  0.10429600  0.22050800  1
  O  O10  1  0.10429600  0.55292000  0.72050800  1
  O  O11  1  0.89570400  0.44708000  0.27949200  1
  O  O12  1  0.71209100  0.75058400  0.88184100  1
  O  O13  1  0.28790900  0.24941600  0.11815900  1
  O  O14  1  0.24941600  0.28790900  0.61815900  1
  O  O15  1  0.75058400  0.71209100  0.38184100  1
  O  O16  1  0.79456200  0.03095700  0.61038700  1
  O  O17  1  0.20543800  0.96904300  0.38961300  1
  O  O18  1  0.96904300  0.20543800  0.88961300  1
  O  O19  1  0.03095700  0.79456200  0.11038700  1
