# generated using pymatgen
data_Tm6Co2Sn
_symmetry_space_group_name_H-M   'P 1'
_cell_length_a   8.24963808
_cell_length_b   8.24963808
_cell_length_c   8.24963808
_cell_angle_alpha   111.53024487
_cell_angle_beta   109.74834868
_cell_angle_gamma   107.16461871
_symmetry_Int_Tables_number   1
_chemical_formula_structural   Tm6Co2Sn
_chemical_formula_sum   'Tm12 Co4 Sn2'
_cell_volume   431.56634084
_cell_formula_units_Z   2
loop_
 _symmetry_equiv_pos_site_id
 _symmetry_equiv_pos_as_xyz
  1  'x, y, z'
loop_
 _atom_site_type_symbol
 _atom_site_label
 _atom_site_symmetry_multiplicity
 _atom_site_fract_x
 _atom_site_fract_y
 _atom_site_fract_z
 _atom_site_occupancy
  Tm  Tm0  1  0.44756800  0.23504600  0.21252200  1
  Tm  Tm1  1  0.55243200  0.76495400  0.78747800  1
  Tm  Tm2  1  0.02252400  0.23504600  0.78747800  1
  Tm  Tm3  1  0.97747600  0.76495400  0.21252200  1
  Tm  Tm4  1  0.18573700  0.28425100  0.46998800  1
  Tm  Tm5  1  0.81426300  0.71574900  0.53001200  1
  Tm  Tm6  1  0.18573700  0.71574900  0.90148600  1
  Tm  Tm7  1  0.81426300  0.28425100  0.09851400  1
  Tm  Tm8  1  0.32195900  0.63038400  0.30842400  1
  Tm  Tm9  1  0.67804100  0.36961600  0.69157600  1
  Tm  Tm10  1  0.32195900  0.01353500  0.69157600  1
  Tm  Tm11  1  0.67804100  0.98646500  0.30842400  1
  Co  Co12  1  0.35468200  0.00000000  0.35468200  1
  Co  Co13  1  0.64531800  0.00000000  0.64531800  1
  Co  Co14  1  0.11483700  0.61483700  0.50000000  1
  Co  Co15  1  0.88516300  0.38516300  0.50000000  1
  Sn  Sn16  1  0.50000000  0.50000000  0.00000000  1
  Sn  Sn17  1  0.00000000  0.00000000  0.00000000  1
