# generated using pymatgen
data_Gd(AlCu)6
_symmetry_space_group_name_H-M   'P 1'
_cell_length_a   6.62856118
_cell_length_b   6.62856118
_cell_length_c   6.62856118
_cell_angle_alpha   134.86328587
_cell_angle_beta   99.11371862
_cell_angle_gamma   97.82732072
_symmetry_Int_Tables_number   1
_chemical_formula_structural   Gd(AlCu)6
_chemical_formula_sum   'Gd1 Al6 Cu6'
_cell_volume   190.60757612
_cell_formula_units_Z   1
loop_
 _symmetry_equiv_pos_site_id
 _symmetry_equiv_pos_as_xyz
  1  'x, y, z'
loop_
 _atom_site_type_symbol
 _atom_site_label
 _atom_site_symmetry_multiplicity
 _atom_site_fract_x
 _atom_site_fract_y
 _atom_site_fract_z
 _atom_site_occupancy
  Gd  Gd0  1  0.00000000  0.00000000  0.00000000  1
  Al  Al1  1  0.34899000  0.34899000  0.00000000  1
  Al  Al2  1  0.65101000  0.65101000  0.00000000  1
  Al  Al3  1  0.65325300  0.00000000  0.65325300  1
  Al  Al4  1  0.34674700  0.00000000  0.34674700  1
  Al  Al5  1  0.79685400  0.29685400  0.50000000  1
  Al  Al6  1  0.20314600  0.70314600  0.50000000  1
  Cu  Cu7  1  0.50000000  0.00000000  0.00000000  1
  Cu  Cu8  1  0.50000000  0.50000000  0.50000000  1
  Cu  Cu9  1  0.00000000  0.00000000  0.50000000  1
  Cu  Cu10  1  0.00000000  0.50000000  0.00000000  1
  Cu  Cu11  1  0.22927600  0.50000000  0.72927600  1
  Cu  Cu12  1  0.77072400  0.50000000  0.27072400  1
