# generated using pymatgen
data_Cs2HoCl5
_symmetry_space_group_name_H-M   'P 1'
_cell_length_a   7.56196800
_cell_length_b   9.71945400
_cell_length_c   15.51526200
_cell_angle_alpha   90.00000000
_cell_angle_beta   90.00000000
_cell_angle_gamma   90.00000000
_symmetry_Int_Tables_number   1
_chemical_formula_structural   Cs2HoCl5
_chemical_formula_sum   'Cs8 Ho4 Cl20'
_cell_volume   1140.34383148
_cell_formula_units_Z   4
loop_
 _symmetry_equiv_pos_site_id
 _symmetry_equiv_pos_as_xyz
  1  'x, y, z'
loop_
 _atom_site_type_symbol
 _atom_site_label
 _atom_site_symmetry_multiplicity
 _atom_site_fract_x
 _atom_site_fract_y
 _atom_site_fract_z
 _atom_site_occupancy
  Cs  Cs0  1  0.25000000  0.66548200  0.91620800  1
  Cs  Cs1  1  0.75000000  0.33451800  0.08379200  1
  Cs  Cs2  1  0.75000000  0.83451800  0.41620800  1
  Cs  Cs3  1  0.25000000  0.16548200  0.58379200  1
  Cs  Cs4  1  0.25000000  0.97546600  0.21239800  1
  Cs  Cs5  1  0.75000000  0.02453400  0.78760200  1
  Cs  Cs6  1  0.75000000  0.52453400  0.71239800  1
  Cs  Cs7  1  0.25000000  0.47546600  0.28760200  1
  Ho  Ho8  1  0.25000000  0.67755200  0.56537900  1
  Ho  Ho9  1  0.75000000  0.32244800  0.43462100  1
  Ho  Ho10  1  0.75000000  0.82244800  0.06537900  1
  Ho  Ho11  1  0.25000000  0.17755200  0.93462100  1
  Cl  Cl12  1  0.25000000  0.51943600  0.70027700  1
  Cl  Cl13  1  0.75000000  0.48056400  0.29972300  1
  Cl  Cl14  1  0.75000000  0.98056400  0.20027700  1
  Cl  Cl15  1  0.25000000  0.01943600  0.79972300  1
  Cl  Cl16  1  0.50204000  0.83325000  0.61867800  1
  Cl  Cl17  1  0.49796000  0.16675000  0.38132200  1
  Cl  Cl18  1  0.49796000  0.66675000  0.11867800  1
  Cl  Cl19  1  0.00204000  0.16675000  0.38132200  1
  Cl  Cl20  1  0.50204000  0.33325000  0.88132200  1
  Cl  Cl21  1  0.99796000  0.83325000  0.61867800  1
  Cl  Cl22  1  0.99796000  0.33325000  0.88132200  1
  Cl  Cl23  1  0.00204000  0.66675000  0.11867800  1
  Cl  Cl24  1  0.25000000  0.78791700  0.40947100  1
  Cl  Cl25  1  0.75000000  0.21208300  0.59052900  1
  Cl  Cl26  1  0.75000000  0.71208300  0.90947100  1
  Cl  Cl27  1  0.25000000  0.28791700  0.09052900  1
  Cl  Cl28  1  0.00000000  0.50000000  0.50000000  1
  Cl  Cl29  1  0.00000000  0.00000000  0.00000000  1
  Cl  Cl30  1  0.50000000  0.50000000  0.50000000  1
  Cl  Cl31  1  0.50000000  0.00000000  0.00000000  1
