# generated using pymatgen
data_Na2CaZrSi2O7F2
_symmetry_space_group_name_H-M   'P 1'
_cell_length_a   10.60879400
_cell_length_b   7.35373700
_cell_length_c   10.20076833
_cell_angle_alpha   89.91092297
_cell_angle_beta   90.00000000
_cell_angle_gamma   90.00000000
_symmetry_Int_Tables_number   1
_chemical_formula_structural   Na2CaZrSi2O7F2
_chemical_formula_sum   'Na8 Ca4 Zr4 Si8 O28 F8'
_cell_volume   795.80464462
_cell_formula_units_Z   4
loop_
 _symmetry_equiv_pos_site_id
 _symmetry_equiv_pos_as_xyz
  1  'x, y, z'
loop_
 _atom_site_type_symbol
 _atom_site_label
 _atom_site_symmetry_multiplicity
 _atom_site_fract_x
 _atom_site_fract_y
 _atom_site_fract_z
 _atom_site_occupancy
  Na  Na0  1  0.42790100  0.61829300  0.12017000  1
  Na  Na1  1  0.57209900  0.38170700  0.87983000  1
  Na  Na2  1  0.92790100  0.38170700  0.37983000  1
  Na  Na3  1  0.07209900  0.61829300  0.62017000  1
  Na  Na4  1  0.43112300  0.12817400  0.12436500  1
  Na  Na5  1  0.56887700  0.87182600  0.87563500  1
  Na  Na6  1  0.93112300  0.87182600  0.37563500  1
  Na  Na7  1  0.06887700  0.12817400  0.62436500  1
  Ca  Ca8  1  0.29875000  0.37390800  0.39413000  1
  Ca  Ca9  1  0.70125000  0.62609200  0.60587000  1
  Ca  Ca10  1  0.79875000  0.62609200  0.10587000  1
  Ca  Ca11  1  0.20125000  0.37390800  0.89413000  1
  Zr  Zr12  1  0.80208500  0.12569300  0.10900400  1
  Zr  Zr13  1  0.19791500  0.87430700  0.89099600  1
  Zr  Zr14  1  0.30208500  0.87430700  0.39099600  1
  Zr  Zr15  1  0.69791500  0.12569300  0.60900400  1
  Si  Si16  1  0.12028400  0.59886800  0.17081300  1
  Si  Si17  1  0.87971600  0.40113200  0.82918700  1
  Si  Si18  1  0.62028400  0.40113200  0.32918700  1
  Si  Si19  1  0.37971600  0.59886800  0.67081300  1
  Si  Si20  1  0.12098000  0.15467400  0.16689400  1
  Si  Si21  1  0.87902000  0.84532600  0.83310600  1
  Si  Si22  1  0.62098000  0.84532600  0.33310600  1
  Si  Si23  1  0.37902000  0.15467400  0.66689400  1
  O  O24  1  0.14783100  0.66245400  0.01796200  1
  O  O25  1  0.85216900  0.33754600  0.98203800  1
  O  O26  1  0.64783100  0.33754600  0.48203800  1
  O  O27  1  0.35216900  0.66245400  0.51796200  1
  O  O28  1  0.23746000  0.66741100  0.26539900  1
  O  O29  1  0.76254000  0.33258900  0.73460100  1
  O  O30  1  0.73746000  0.33258900  0.23460100  1
  O  O31  1  0.26254000  0.66741100  0.76539900  1
  O  O32  1  0.14903100  0.37537900  0.16574300  1
  O  O33  1  0.85096900  0.62462100  0.83425700  1
  O  O34  1  0.64903100  0.62462100  0.33425700  1
  O  O35  1  0.35096900  0.37537900  0.66574300  1
  O  O36  1  0.15010800  0.08822100  0.01712600  1
  O  O37  1  0.84989200  0.91177900  0.98287400  1
  O  O38  1  0.65010800  0.91177900  0.48287400  1
  O  O39  1  0.34989200  0.08822100  0.51712600  1
  O  O40  1  0.48089800  0.36052200  0.27737500  1
  O  O41  1  0.51910200  0.63947800  0.72262500  1
  O  O42  1  0.98089800  0.63947800  0.22262500  1
  O  O43  1  0.01910200  0.36052200  0.77737500  1
  O  O44  1  0.97546500  0.11679500  0.21087900  1
  O  O45  1  0.02453500  0.88320500  0.78912100  1
  O  O46  1  0.47546500  0.88320500  0.28912100  1
  O  O47  1  0.52453500  0.11679500  0.71087900  1
  O  O48  1  0.22841800  0.07914900  0.26848000  1
  O  O49  1  0.77158200  0.92085100  0.73152000  1
  O  O50  1  0.72841800  0.92085100  0.23152000  1
  O  O51  1  0.27158200  0.07914900  0.76848000  1
  F  F52  1  0.38726100  0.37076200  0.98506900  1
  F  F53  1  0.61273900  0.62923800  0.01493100  1
  F  F54  1  0.88726100  0.62923800  0.51493100  1
  F  F55  1  0.11273900  0.37076200  0.48506900  1
  F  F56  1  0.62289400  0.12450100  0.01571000  1
  F  F57  1  0.37710600  0.87549900  0.98429000  1
  F  F58  1  0.12289400  0.87549900  0.48429000  1
  F  F59  1  0.87710600  0.12450100  0.51571000  1
