# generated using pymatgen
data_SbAsO5
_symmetry_space_group_name_H-M   'P 1'
_cell_length_a   4.99108500
_cell_length_b   8.96461700
_cell_length_c   9.31589500
_cell_angle_alpha   90.00000000
_cell_angle_beta   90.00000000
_cell_angle_gamma   90.00000000
_symmetry_Int_Tables_number   1
_chemical_formula_structural   SbAsO5
_chemical_formula_sum   'Sb4 As4 O20'
_cell_volume   416.82263120
_cell_formula_units_Z   4
loop_
 _symmetry_equiv_pos_site_id
 _symmetry_equiv_pos_as_xyz
  1  'x, y, z'
loop_
 _atom_site_type_symbol
 _atom_site_label
 _atom_site_symmetry_multiplicity
 _atom_site_fract_x
 _atom_site_fract_y
 _atom_site_fract_z
 _atom_site_occupancy
  Sb  Sb0  1  0.88147600  0.65291900  0.10267200  1
  Sb  Sb1  1  0.38147600  0.84708100  0.89732800  1
  Sb  Sb2  1  0.11852400  0.15291900  0.39732800  1
  Sb  Sb3  1  0.61852400  0.34708100  0.60267200  1
  As  As4  1  0.89034000  0.02863700  0.71152200  1
  As  As5  1  0.39034000  0.47136300  0.28847800  1
  As  As6  1  0.10966000  0.52863700  0.78847800  1
  As  As7  1  0.60966000  0.97136300  0.21152200  1
  O  O8  1  0.05156300  0.50045100  0.96979800  1
  O  O9  1  0.55156300  0.99954900  0.03020200  1
  O  O10  1  0.94843700  0.00045100  0.53020200  1
  O  O11  1  0.44843700  0.49954900  0.46979800  1
  O  O12  1  0.22099200  0.70653600  0.74810700  1
  O  O13  1  0.72099200  0.79346400  0.25189300  1
  O  O14  1  0.77900800  0.20653600  0.75189300  1
  O  O15  1  0.27900800  0.29346400  0.24810700  1
  O  O16  1  0.92044700  0.32520000  0.46962100  1
  O  O17  1  0.42044700  0.17480000  0.53037900  1
  O  O18  1  0.07955300  0.82520000  0.03037900  1
  O  O19  1  0.57955300  0.67480000  0.96962100  1
  O  O20  1  0.17277400  0.61374300  0.24914400  1
  O  O21  1  0.67277400  0.88625700  0.75085600  1
  O  O22  1  0.82722600  0.11374300  0.25085600  1
  O  O23  1  0.32722600  0.38625700  0.74914400  1
  O  O24  1  0.68493200  0.48020700  0.19225500  1
  O  O25  1  0.18493200  0.01979300  0.80774500  1
  O  O26  1  0.31506800  0.98020700  0.30774500  1
  O  O27  1  0.81506800  0.51979300  0.69225500  1
