# generated using pymatgen
data_K3Ge17
_symmetry_space_group_name_H-M   'P 1'
_cell_length_a   11.31109362
_cell_length_b   11.31109362
_cell_length_c   11.31109362
_cell_angle_alpha   60.00000000
_cell_angle_beta   60.00000000
_cell_angle_gamma   60.00000000
_symmetry_Int_Tables_number   1
_chemical_formula_structural   K3Ge17
_chemical_formula_sum   'K6 Ge34'
_cell_volume   1023.29014809
_cell_formula_units_Z   2
loop_
 _symmetry_equiv_pos_site_id
 _symmetry_equiv_pos_as_xyz
  1  'x, y, z'
loop_
 _atom_site_type_symbol
 _atom_site_label
 _atom_site_symmetry_multiplicity
 _atom_site_fract_x
 _atom_site_fract_y
 _atom_site_fract_z
 _atom_site_occupancy
  K  K0  1  0.12500000  0.62500000  0.62500000  1
  K  K1  1  0.62500000  0.12500000  0.62500000  1
  K  K2  1  0.62500000  0.62500000  0.12500000  1
  K  K3  1  0.62500000  0.62500000  0.62500000  1
  K  K4  1  0.25000000  0.25000000  0.25000000  1
  K  K5  1  0.00000000  0.00000000  0.00000000  1
  Ge  Ge6  1  0.75000000  0.75000000  0.75000000  1
  Ge  Ge7  1  0.50000000  0.50000000  0.50000000  1
  Ge  Ge8  1  0.46596800  0.84467700  0.84467700  1
  Ge  Ge9  1  0.84467700  0.46596800  0.84467700  1
  Ge  Ge10  1  0.84467700  0.84467700  0.46596800  1
  Ge  Ge11  1  0.84467700  0.84467700  0.84467700  1
  Ge  Ge12  1  0.78403200  0.40532300  0.40532300  1
  Ge  Ge13  1  0.40532300  0.78403200  0.40532300  1
  Ge  Ge14  1  0.40532300  0.40532300  0.78403200  1
  Ge  Ge15  1  0.40532300  0.40532300  0.40532300  1
  Ge  Ge16  1  0.38741500  0.99763600  0.99763600  1
  Ge  Ge17  1  0.99763600  0.38741500  0.61731300  1
  Ge  Ge18  1  0.99763600  0.61731300  0.38741500  1
  Ge  Ge19  1  0.61731300  0.99763600  0.99763600  1
  Ge  Ge20  1  0.99763600  0.99763600  0.38741500  1
  Ge  Ge21  1  0.38741500  0.61731300  0.99763600  1
  Ge  Ge22  1  0.61731300  0.38741500  0.99763600  1
  Ge  Ge23  1  0.99763600  0.99763600  0.61731300  1
  Ge  Ge24  1  0.99763600  0.38741500  0.99763600  1
  Ge  Ge25  1  0.61731300  0.99763600  0.38741500  1
  Ge  Ge26  1  0.38741500  0.99763600  0.61731300  1
  Ge  Ge27  1  0.99763600  0.61731300  0.99763600  1
  Ge  Ge28  1  0.86258500  0.25236400  0.25236400  1
  Ge  Ge29  1  0.25236400  0.86258500  0.63268700  1
  Ge  Ge30  1  0.25236400  0.63268700  0.86258500  1
  Ge  Ge31  1  0.63268700  0.25236400  0.25236400  1
  Ge  Ge32  1  0.25236400  0.25236400  0.86258500  1
  Ge  Ge33  1  0.86258500  0.63268700  0.25236400  1
  Ge  Ge34  1  0.63268700  0.86258500  0.25236400  1
  Ge  Ge35  1  0.25236400  0.25236400  0.63268700  1
  Ge  Ge36  1  0.25236400  0.86258500  0.25236400  1
  Ge  Ge37  1  0.63268700  0.25236400  0.86258500  1
  Ge  Ge38  1  0.86258500  0.25236400  0.63268700  1
  Ge  Ge39  1  0.25236400  0.63268700  0.25236400  1
