# generated using pymatgen
data_NbAl2Ni9
_symmetry_space_group_name_H-M   'P 1'
_cell_length_a   3.61933300
_cell_length_b   3.61933300
_cell_length_c   10.66038200
_cell_angle_alpha   90.00000000
_cell_angle_beta   90.00000000
_cell_angle_gamma   90.00000000
_symmetry_Int_Tables_number   1
_chemical_formula_structural   NbAl2Ni9
_chemical_formula_sum   'Nb1 Al2 Ni9'
_cell_volume   139.64643479
_cell_formula_units_Z   1
loop_
 _symmetry_equiv_pos_site_id
 _symmetry_equiv_pos_as_xyz
  1  'x, y, z'
loop_
 _atom_site_type_symbol
 _atom_site_label
 _atom_site_symmetry_multiplicity
 _atom_site_fract_x
 _atom_site_fract_y
 _atom_site_fract_z
 _atom_site_occupancy
  Nb  Nb0  1  0.00000000  0.00000000  0.00000000  1
  Al  Al1  1  0.00000000  0.00000000  0.34038600  1
  Al  Al2  1  0.00000000  0.00000000  0.65961400  1
  Ni  Ni3  1  0.50000000  0.50000000  0.00000000  1
  Ni  Ni4  1  0.50000000  0.50000000  0.33669900  1
  Ni  Ni5  1  0.50000000  0.50000000  0.66330100  1
  Ni  Ni6  1  0.50000000  0.00000000  0.17263500  1
  Ni  Ni7  1  0.50000000  0.00000000  0.50000000  1
  Ni  Ni8  1  0.50000000  0.00000000  0.82736500  1
  Ni  Ni9  1  0.00000000  0.50000000  0.17263500  1
  Ni  Ni10  1  0.00000000  0.50000000  0.50000000  1
  Ni  Ni11  1  0.00000000  0.50000000  0.82736500  1
