# generated using pymatgen
data_Ba(Cu2As)4
_symmetry_space_group_name_H-M   'P 1'
_cell_length_a   7.69707098
_cell_length_b   7.69707098
_cell_length_c   7.69707098
_cell_angle_alpha   93.78871861
_cell_angle_beta   93.78871861
_cell_angle_gamma   150.20918723
_symmetry_Int_Tables_number   1
_chemical_formula_structural   Ba(Cu2As)4
_chemical_formula_sum   'Ba1 Cu8 As4'
_cell_volume   218.94948379
_cell_formula_units_Z   1
loop_
 _symmetry_equiv_pos_site_id
 _symmetry_equiv_pos_as_xyz
  1  'x, y, z'
loop_
 _atom_site_type_symbol
 _atom_site_label
 _atom_site_symmetry_multiplicity
 _atom_site_fract_x
 _atom_site_fract_y
 _atom_site_fract_z
 _atom_site_occupancy
  Ba  Ba0  1  0.00000000  0.00000000  0.00000000  1
  Cu  Cu1  1  0.01788900  0.62595400  0.64384300  1
  Cu  Cu2  1  0.67177100  0.21443600  0.88620700  1
  Cu  Cu3  1  0.21443600  0.32822900  0.54266500  1
  Cu  Cu4  1  0.78556400  0.67177100  0.45733500  1
  Cu  Cu5  1  0.32822900  0.78556400  0.11379300  1
  Cu  Cu6  1  0.98211100  0.37404600  0.35615700  1
  Cu  Cu7  1  0.37404600  0.01788900  0.39193500  1
  Cu  Cu8  1  0.62595400  0.98211100  0.60806500  1
  As  As9  1  0.75674100  0.42901100  0.18575200  1
  As  As10  1  0.42901100  0.24325900  0.67227100  1
  As  As11  1  0.57098900  0.75674100  0.32772900  1
  As  As12  1  0.24325900  0.57098900  0.81424800  1
