# generated using pymatgen
data_Ti4CN3
_symmetry_space_group_name_H-M   'P 1'
_cell_length_a   10.04474829
_cell_length_b   10.04474829
_cell_length_c   10.04474850
_cell_angle_alpha   17.29737345
_cell_angle_beta   17.29737345
_cell_angle_gamma   17.29737538
_symmetry_Int_Tables_number   1
_chemical_formula_structural   Ti4CN3
_chemical_formula_sum   'Ti4 C1 N3'
_cell_volume   78.18331570
_cell_formula_units_Z   1
loop_
 _symmetry_equiv_pos_site_id
 _symmetry_equiv_pos_as_xyz
  1  'x, y, z'
loop_
 _atom_site_type_symbol
 _atom_site_label
 _atom_site_symmetry_multiplicity
 _atom_site_fract_x
 _atom_site_fract_y
 _atom_site_fract_z
 _atom_site_occupancy
  Ti  Ti0  1  0.62564900  0.62564900  0.62564900  1
  Ti  Ti1  1  0.37435100  0.37435100  0.37435100  1
  Ti  Ti2  1  0.87485100  0.87485100  0.87485100  1
  Ti  Ti3  1  0.12514900  0.12514900  0.12514900  1
  C  C4  1  0.50000000  0.50000000  0.50000000  1
  N  N5  1  0.74898300  0.74898300  0.74898300  1
  N  N6  1  0.00000000  0.00000000  0.00000000  1
  N  N7  1  0.25101700  0.25101700  0.25101700  1
