# generated using pymatgen
data_LaNiGe3
_symmetry_space_group_name_H-M   'P 1'
_cell_length_a   4.42846500
_cell_length_b   4.42846500
_cell_length_c   5.80432888
_cell_angle_alpha   112.42535134
_cell_angle_beta   112.42535134
_cell_angle_gamma   90.00000000
_symmetry_Int_Tables_number   1
_chemical_formula_structural   LaNiGe3
_chemical_formula_sum   'La1 Ni1 Ge3'
_cell_volume   95.84408183
_cell_formula_units_Z   1
loop_
 _symmetry_equiv_pos_site_id
 _symmetry_equiv_pos_as_xyz
  1  'x, y, z'
loop_
 _atom_site_type_symbol
 _atom_site_label
 _atom_site_symmetry_multiplicity
 _atom_site_fract_x
 _atom_site_fract_y
 _atom_site_fract_z
 _atom_site_occupancy
  La  La0  1  0.57138300  0.57138300  0.14276600  1
  Ni  Ni1  1  0.23392600  0.23392600  0.46785200  1
  Ge  Ge2  1  0.32980500  0.82980500  0.65961100  1
  Ge  Ge3  1  0.82980500  0.32980500  0.65961100  1
  Ge  Ge4  1  0.99288000  0.99288000  0.98576000  1
