# generated using pymatgen
data_DySi3Ni5
_symmetry_space_group_name_H-M   'P 1'
_cell_length_a   3.78678100
_cell_length_b   6.58604400
_cell_length_c   18.67981200
_cell_angle_alpha   90.00000000
_cell_angle_beta   90.00000000
_cell_angle_gamma   90.00000000
_symmetry_Int_Tables_number   1
_chemical_formula_structural   DySi3Ni5
_chemical_formula_sum   'Dy4 Si12 Ni20'
_cell_volume   465.87276069
_cell_formula_units_Z   4
loop_
 _symmetry_equiv_pos_site_id
 _symmetry_equiv_pos_as_xyz
  1  'x, y, z'
loop_
 _atom_site_type_symbol
 _atom_site_label
 _atom_site_symmetry_multiplicity
 _atom_site_fract_x
 _atom_site_fract_y
 _atom_site_fract_z
 _atom_site_occupancy
  Dy  Dy0  1  0.25000000  0.87624000  0.35589500  1
  Dy  Dy1  1  0.75000000  0.12376000  0.64410500  1
  Dy  Dy2  1  0.75000000  0.37624000  0.14410500  1
  Dy  Dy3  1  0.25000000  0.62376000  0.85589500  1
  Si  Si4  1  0.25000000  0.08134700  0.08563700  1
  Si  Si5  1  0.75000000  0.91865300  0.91436300  1
  Si  Si6  1  0.75000000  0.58134700  0.41436300  1
  Si  Si7  1  0.25000000  0.41865300  0.58563700  1
  Si  Si8  1  0.25000000  0.65526500  0.07449200  1
  Si  Si9  1  0.75000000  0.34473500  0.92550800  1
  Si  Si10  1  0.75000000  0.15526500  0.42550800  1
  Si  Si11  1  0.25000000  0.84473500  0.57449200  1
  Si  Si12  1  0.25000000  0.37634000  0.26258800  1
  Si  Si13  1  0.75000000  0.62366000  0.73741200  1
  Si  Si14  1  0.75000000  0.87634000  0.23741200  1
  Si  Si15  1  0.25000000  0.12366000  0.76258800  1
  Ni  Ni16  1  0.25000000  0.06823000  0.20613100  1
  Ni  Ni17  1  0.75000000  0.93177000  0.79386900  1
  Ni  Ni18  1  0.75000000  0.56823000  0.29386900  1
  Ni  Ni19  1  0.25000000  0.43177000  0.70613100  1
  Ni  Ni20  1  0.25000000  0.61482200  0.48495300  1
  Ni  Ni21  1  0.75000000  0.38517800  0.51504700  1
  Ni  Ni22  1  0.75000000  0.11482200  0.01504700  1
  Ni  Ni23  1  0.25000000  0.88517800  0.98495300  1
  Ni  Ni24  1  0.25000000  0.68395300  0.19956300  1
  Ni  Ni25  1  0.75000000  0.31604700  0.80043700  1
  Ni  Ni26  1  0.75000000  0.18395300  0.30043700  1
  Ni  Ni27  1  0.25000000  0.81604700  0.69956300  1
  Ni  Ni28  1  0.25000000  0.35672200  0.38470800  1
  Ni  Ni29  1  0.75000000  0.64327800  0.61529200  1
  Ni  Ni30  1  0.75000000  0.85672200  0.11529200  1
  Ni  Ni31  1  0.25000000  0.14327800  0.88470800  1
  Ni  Ni32  1  0.25000000  0.36747300  0.00531100  1
  Ni  Ni33  1  0.75000000  0.63252700  0.99468900  1
  Ni  Ni34  1  0.75000000  0.86747300  0.49468900  1
  Ni  Ni35  1  0.25000000  0.13252700  0.50531100  1
