# generated using pymatgen
data_Ba6Y2Ga4O15
_symmetry_space_group_name_H-M   'P 1'
_cell_length_a   6.04061900
_cell_length_b   8.07110900
_cell_length_c   18.65081100
_cell_angle_alpha   88.73160118
_cell_angle_beta   90.00000000
_cell_angle_gamma   90.00000000
_symmetry_Int_Tables_number   1
_chemical_formula_structural   Ba6Y2Ga4O15
_chemical_formula_sum   'Ba12 Y4 Ga8 O30'
_cell_volume   909.08805198
_cell_formula_units_Z   2
loop_
 _symmetry_equiv_pos_site_id
 _symmetry_equiv_pos_as_xyz
  1  'x, y, z'
loop_
 _atom_site_type_symbol
 _atom_site_label
 _atom_site_symmetry_multiplicity
 _atom_site_fract_x
 _atom_site_fract_y
 _atom_site_fract_z
 _atom_site_occupancy
  Ba  Ba0  1  0.75660500  0.49867500  0.07861600  1
  Ba  Ba1  1  0.24339500  0.50132500  0.92138400  1
  Ba  Ba2  1  0.75660500  0.50132500  0.42138400  1
  Ba  Ba3  1  0.24339500  0.49867500  0.57861600  1
  Ba  Ba4  1  0.74441900  0.97171900  0.08982200  1
  Ba  Ba5  1  0.25558100  0.02828100  0.91017800  1
  Ba  Ba6  1  0.74441900  0.02828100  0.41017800  1
  Ba  Ba7  1  0.25558100  0.97171900  0.58982200  1
  Ba  Ba8  1  0.72333200  0.00000000  0.75000000  1
  Ba  Ba9  1  0.27666800  0.00000000  0.25000000  1
  Ba  Ba10  1  0.66683300  0.50000000  0.75000000  1
  Ba  Ba11  1  0.33316700  0.50000000  0.25000000  1
  Y  Y12  1  0.74544600  0.75184400  0.90987700  1
  Y  Y13  1  0.25455400  0.24815600  0.09012300  1
  Y  Y14  1  0.74544600  0.24815600  0.59012300  1
  Y  Y15  1  0.25455400  0.75184400  0.40987700  1
  Ga  Ga16  1  0.75127800  0.75415700  0.55865200  1
  Ga  Ga17  1  0.24872200  0.24584300  0.44134800  1
  Ga  Ga18  1  0.75127800  0.24584300  0.94134800  1
  Ga  Ga19  1  0.24872200  0.75415700  0.05865200  1
  Ga  Ga20  1  0.77534000  0.77045800  0.26617800  1
  Ga  Ga21  1  0.22466000  0.22954200  0.73382200  1
  Ga  Ga22  1  0.77534000  0.22954200  0.23382200  1
  Ga  Ga23  1  0.22466000  0.77045800  0.76617800  1
  O  O24  1  0.20629200  0.00000000  0.75000000  1
  O  O25  1  0.79370800  0.00000000  0.25000000  1
  O  O26  1  0.50343600  0.76541300  0.00035500  1
  O  O27  1  0.49656400  0.23458700  0.99964500  1
  O  O28  1  0.50343600  0.23458700  0.49964500  1
  O  O29  1  0.49656400  0.76541300  0.50035500  1
  O  O30  1  0.76147800  0.95347900  0.60873500  1
  O  O31  1  0.23852200  0.04652100  0.39126500  1
  O  O32  1  0.76147800  0.04652100  0.89126500  1
  O  O33  1  0.23852200  0.95347900  0.10873500  1
  O  O34  1  0.00430500  0.76378600  0.99508500  1
  O  O35  1  0.99569500  0.23621400  0.00491500  1
  O  O36  1  0.00430500  0.23621400  0.50491500  1
  O  O37  1  0.99569500  0.76378600  0.49508500  1
  O  O38  1  0.32614300  0.68879500  0.68148300  1
  O  O39  1  0.67385700  0.31120500  0.31851700  1
  O  O40  1  0.32614300  0.31120500  0.81851700  1
  O  O41  1  0.67385700  0.68879500  0.18148300  1
  O  O42  1  0.45022500  0.74848400  0.83575200  1
  O  O43  1  0.54977500  0.25151600  0.16424800  1
  O  O44  1  0.45022500  0.25151600  0.66424800  1
  O  O45  1  0.54977500  0.74848400  0.33575200  1
  O  O46  1  0.95548300  0.72567600  0.80952000  1
  O  O47  1  0.04451700  0.27432400  0.19048000  1
  O  O48  1  0.95548300  0.27432400  0.69048000  1
  O  O49  1  0.04451700  0.72567600  0.30952000  1
  O  O50  1  0.75625400  0.53331400  0.59214000  1
  O  O51  1  0.24374600  0.46668600  0.40786000  1
  O  O52  1  0.75625400  0.46668600  0.90786000  1
  O  O53  1  0.24374600  0.53331400  0.09214000  1
