# generated using pymatgen
data_Mn2MoP12
_symmetry_space_group_name_H-M   'P 1'
_cell_length_a   8.49902426
_cell_length_b   8.49902426
_cell_length_c   10.58746165
_cell_angle_alpha   65.73476860
_cell_angle_beta   65.73476860
_cell_angle_gamma   39.44740955
_symmetry_Int_Tables_number   1
_chemical_formula_structural   Mn2MoP12
_chemical_formula_sum   'Mn4 Mo2 P24'
_cell_volume   437.15835645
_cell_formula_units_Z   2
loop_
 _symmetry_equiv_pos_site_id
 _symmetry_equiv_pos_as_xyz
  1  'x, y, z'
loop_
 _atom_site_type_symbol
 _atom_site_label
 _atom_site_symmetry_multiplicity
 _atom_site_fract_x
 _atom_site_fract_y
 _atom_site_fract_z
 _atom_site_occupancy
  Mn  Mn0  1  0.37222100  0.98869000  0.45438900  1
  Mn  Mn1  1  0.01131000  0.62777900  0.04561100  1
  Mn  Mn2  1  0.62777900  0.01131000  0.54561100  1
  Mn  Mn3  1  0.98869000  0.37222100  0.95438900  1
  Mo  Mo4  1  0.30490200  0.69509800  0.25000000  1
  Mo  Mo5  1  0.69509800  0.30490200  0.75000000  1
  P  P6  1  0.59680400  0.94888700  0.07553800  1
  P  P7  1  0.05111300  0.40319600  0.42446200  1
  P  P8  1  0.40319600  0.05111300  0.92446200  1
  P  P9  1  0.94888700  0.59680400  0.57553800  1
  P  P10  1  0.57863600  0.29921400  0.16613400  1
  P  P11  1  0.70078600  0.42136400  0.33386600  1
  P  P12  1  0.97549900  0.32896400  0.76001400  1
  P  P13  1  0.67103600  0.02450100  0.73998600  1
  P  P14  1  0.02450100  0.67103600  0.23998600  1
  P  P15  1  0.32896400  0.97549900  0.26001400  1
  P  P16  1  0.01047700  0.92271200  0.92601700  1
  P  P17  1  0.07728800  0.98952300  0.57398300  1
  P  P18  1  0.98952300  0.07728800  0.07398300  1
  P  P19  1  0.92271200  0.01047700  0.42601700  1
  P  P20  1  0.33222100  0.43520900  0.50299200  1
  P  P21  1  0.56479100  0.66777900  0.99700800  1
  P  P22  1  0.66777900  0.56479100  0.49700800  1
  P  P23  1  0.43520900  0.33222100  0.00299200  1
  P  P24  1  0.99706300  0.64724100  0.83527400  1
  P  P25  1  0.35275900  0.00293700  0.66472600  1
  P  P26  1  0.00293700  0.35275900  0.16472600  1
  P  P27  1  0.64724100  0.99706300  0.33527400  1
  P  P28  1  0.29921400  0.57863600  0.66613400  1
  P  P29  1  0.42136400  0.70078600  0.83386600  1
