# generated using pymatgen
data_Li2AgSn2
_symmetry_space_group_name_H-M   'P 1'
_cell_length_a   10.69701206
_cell_length_b   10.69701206
_cell_length_c   10.69701206
_cell_angle_alpha   155.08311236
_cell_angle_beta   155.08311236
_cell_angle_gamma   35.52719964
_symmetry_Int_Tables_number   1
_chemical_formula_structural   Li2AgSn2
_chemical_formula_sum   'Li4 Ag2 Sn4'
_cell_volume   216.99956442
_cell_formula_units_Z   2
loop_
 _symmetry_equiv_pos_site_id
 _symmetry_equiv_pos_as_xyz
  1  'x, y, z'
loop_
 _atom_site_type_symbol
 _atom_site_label
 _atom_site_symmetry_multiplicity
 _atom_site_fract_x
 _atom_site_fract_y
 _atom_site_fract_z
 _atom_site_occupancy
  Li  Li0  1  0.32578600  0.32578600  0.00000000  1
  Li  Li1  1  0.07578600  0.57578600  0.50000000  1
  Li  Li2  1  0.42421400  0.92421400  0.50000000  1
  Li  Li3  1  0.67421400  0.67421400  0.00000000  1
  Ag  Ag4  1  0.25000000  0.75000000  0.50000000  1
  Ag  Ag5  1  0.50000000  0.50000000  0.00000000  1
  Sn  Sn6  1  0.82824600  0.82824600  0.00000000  1
  Sn  Sn7  1  0.57824600  0.07824600  0.50000000  1
  Sn  Sn8  1  0.92175400  0.42175400  0.50000000  1
  Sn  Sn9  1  0.17175400  0.17175400  0.00000000  1
