# generated using pymatgen
data_Sm3SbO7
_symmetry_space_group_name_H-M   'P 1'
_cell_length_a   6.61916973
_cell_length_b   6.61916973
_cell_length_c   7.68782000
_cell_angle_alpha   90.00000000
_cell_angle_beta   90.00000000
_cell_angle_gamma   109.61589590
_symmetry_Int_Tables_number   1
_chemical_formula_structural   Sm3SbO7
_chemical_formula_sum   'Sm6 Sb2 O14'
_cell_volume   317.28146902
_cell_formula_units_Z   2
loop_
 _symmetry_equiv_pos_site_id
 _symmetry_equiv_pos_as_xyz
  1  'x, y, z'
loop_
 _atom_site_type_symbol
 _atom_site_label
 _atom_site_symmetry_multiplicity
 _atom_site_fract_x
 _atom_site_fract_y
 _atom_site_fract_z
 _atom_site_occupancy
  Sm  Sm0  1  0.50000000  0.50000000  0.50000000  1
  Sm  Sm1  1  0.50000000  0.50000000  0.00000000  1
  Sm  Sm2  1  0.53238500  0.99970100  0.75000000  1
  Sm  Sm3  1  0.99970100  0.53238500  0.25000000  1
  Sm  Sm4  1  0.46761500  0.00029900  0.25000000  1
  Sm  Sm5  1  0.00029900  0.46761500  0.75000000  1
  Sb  Sb6  1  0.00000000  0.00000000  0.50000000  1
  Sb  Sb7  1  0.00000000  0.00000000  0.00000000  1
  O  O8  1  0.68273100  0.92994600  0.47187400  1
  O  O9  1  0.92994600  0.68273100  0.52812600  1
  O  O10  1  0.68273100  0.92994600  0.02812600  1
  O  O11  1  0.92994600  0.68273100  0.97187400  1
  O  O12  1  0.31726900  0.07005400  0.52812600  1
  O  O13  1  0.07005400  0.31726900  0.47187400  1
  O  O14  1  0.31726900  0.07005400  0.97187400  1
  O  O15  1  0.07005400  0.31726900  0.02812600  1
  O  O16  1  0.93506500  0.06493500  0.75000000  1
  O  O17  1  0.06493500  0.93506500  0.25000000  1
  O  O18  1  0.37015200  0.62984800  0.75000000  1
  O  O19  1  0.62984800  0.37015200  0.25000000  1
  O  O20  1  0.63581100  0.36418900  0.75000000  1
  O  O21  1  0.36418900  0.63581100  0.25000000  1
