# generated using pymatgen
data_Ca3Au4
_symmetry_space_group_name_H-M   'P 1'
_cell_length_a   8.28896447
_cell_length_b   8.28896447
_cell_length_c   8.28896396
_cell_angle_alpha   114.41483419
_cell_angle_beta   114.41483419
_cell_angle_gamma   114.41483615
_symmetry_Int_Tables_number   1
_chemical_formula_structural   Ca3Au4
_chemical_formula_sum   'Ca6 Au8'
_cell_volume   335.09761956
_cell_formula_units_Z   2
loop_
 _symmetry_equiv_pos_site_id
 _symmetry_equiv_pos_as_xyz
  1  'x, y, z'
loop_
 _atom_site_type_symbol
 _atom_site_label
 _atom_site_symmetry_multiplicity
 _atom_site_fract_x
 _atom_site_fract_y
 _atom_site_fract_z
 _atom_site_occupancy
  Ca  Ca0  1  0.39994700  0.02590700  0.28068600  1
  Ca  Ca1  1  0.02590700  0.28068600  0.39994700  1
  Ca  Ca2  1  0.28068600  0.39994700  0.02590700  1
  Ca  Ca3  1  0.60005300  0.97409300  0.71931400  1
  Ca  Ca4  1  0.97409300  0.71931400  0.60005300  1
  Ca  Ca5  1  0.71931400  0.60005300  0.97409300  1
  Au  Au6  1  0.05614100  0.55507500  0.22205600  1
  Au  Au7  1  0.22205600  0.05614100  0.55507500  1
  Au  Au8  1  0.55507500  0.22205600  0.05614100  1
  Au  Au9  1  0.77794400  0.94385900  0.44492500  1
  Au  Au10  1  0.94385900  0.44492500  0.77794400  1
  Au  Au11  1  0.44492500  0.77794400  0.94385900  1
  Au  Au12  1  0.50000000  0.50000000  0.50000000  1
  Au  Au13  1  0.00000000  0.00000000  0.00000000  1
