# generated using pymatgen
data_KCaEr2CuS5
_symmetry_space_group_name_H-M   'P 1'
_cell_length_a   7.07648829
_cell_length_b   7.07648829
_cell_length_c   17.10831700
_cell_angle_alpha   90.00000000
_cell_angle_beta   90.00000000
_cell_angle_gamma   147.64408198
_symmetry_Int_Tables_number   1
_chemical_formula_structural   KCaEr2CuS5
_chemical_formula_sum   'K2 Ca2 Er4 Cu2 S10'
_cell_volume   458.50105510
_cell_formula_units_Z   2
loop_
 _symmetry_equiv_pos_site_id
 _symmetry_equiv_pos_as_xyz
  1  'x, y, z'
loop_
 _atom_site_type_symbol
 _atom_site_label
 _atom_site_symmetry_multiplicity
 _atom_site_fract_x
 _atom_site_fract_y
 _atom_site_fract_z
 _atom_site_occupancy
  K  K0  1  0.52399000  0.47601000  0.25000000  1
  K  K1  1  0.47601000  0.52399000  0.75000000  1
  Ca  Ca2  1  0.00000000  0.00000000  0.00000000  1
  Ca  Ca3  1  0.00000000  0.00000000  0.50000000  1
  Er  Er4  1  0.72940600  0.27059400  0.60308200  1
  Er  Er5  1  0.27059400  0.72940600  0.39691800  1
  Er  Er6  1  0.27059400  0.72940600  0.10308200  1
  Er  Er7  1  0.72940600  0.27059400  0.89691800  1
  Cu  Cu8  1  0.79641900  0.20358100  0.25000000  1
  Cu  Cu9  1  0.20358100  0.79641900  0.75000000  1
  S  S10  1  0.64404700  0.35595300  0.04675300  1
  S  S11  1  0.35595300  0.64404700  0.95324700  1
  S  S12  1  0.35595300  0.64404700  0.54675300  1
  S  S13  1  0.64404700  0.35595300  0.45324700  1
  S  S14  1  0.89555700  0.10444300  0.13872800  1
  S  S15  1  0.10444300  0.89555700  0.86127200  1
  S  S16  1  0.10444300  0.89555700  0.63872800  1
  S  S17  1  0.89555700  0.10444300  0.36127200  1
  S  S18  1  0.20148400  0.79851600  0.25000000  1
  S  S19  1  0.79851600  0.20148400  0.75000000  1
