# generated using pymatgen
data_KHo2Cl7
_symmetry_space_group_name_H-M   'P 1'
_cell_length_a   12.61280600
_cell_length_b   6.92151900
_cell_length_c   13.19924620
_cell_angle_alpha   89.20605716
_cell_angle_beta   90.00000000
_cell_angle_gamma   90.00000000
_symmetry_Int_Tables_number   1
_chemical_formula_structural   KHo2Cl7
_chemical_formula_sum   'K4 Ho8 Cl28'
_cell_volume   1152.18061527
_cell_formula_units_Z   4
loop_
 _symmetry_equiv_pos_site_id
 _symmetry_equiv_pos_as_xyz
  1  'x, y, z'
loop_
 _atom_site_type_symbol
 _atom_site_label
 _atom_site_symmetry_multiplicity
 _atom_site_fract_x
 _atom_site_fract_y
 _atom_site_fract_z
 _atom_site_occupancy
  K  K0  1  0.20151200  0.73083500  0.03792800  1
  K  K1  1  0.79848800  0.26916500  0.96207200  1
  K  K2  1  0.70151200  0.26916500  0.46207200  1
  K  K3  1  0.29848800  0.73083500  0.53792800  1
  Ho  Ho4  1  0.53715000  0.77942400  0.23762500  1
  Ho  Ho5  1  0.46285000  0.22057600  0.76237500  1
  Ho  Ho6  1  0.03715000  0.22057600  0.26237500  1
  Ho  Ho7  1  0.96285000  0.77942400  0.73762500  1
  Ho  Ho8  1  0.83905100  0.72521900  0.24886100  1
  Ho  Ho9  1  0.16094900  0.27478100  0.75113900  1
  Ho  Ho10  1  0.33905100  0.27478100  0.25113900  1
  Ho  Ho11  1  0.66094900  0.72521900  0.74886100  1
  Cl  Cl12  1  0.97285700  0.94327400  0.13370300  1
  Cl  Cl13  1  0.02714300  0.05672600  0.86629700  1
  Cl  Cl14  1  0.47285700  0.05672600  0.36629700  1
  Cl  Cl15  1  0.52714300  0.94327400  0.63370300  1
  Cl  Cl16  1  0.68502600  0.74170300  0.39263300  1
  Cl  Cl17  1  0.31497400  0.25829700  0.60736700  1
  Cl  Cl18  1  0.18502600  0.25829700  0.10736700  1
  Cl  Cl19  1  0.81497400  0.74170300  0.89263300  1
  Cl  Cl20  1  0.67735400  0.51631900  0.17278000  1
  Cl  Cl21  1  0.32264600  0.48368100  0.82722000  1
  Cl  Cl22  1  0.17735400  0.48368100  0.32722000  1
  Cl  Cl23  1  0.82264600  0.51631900  0.67278000  1
  Cl  Cl24  1  0.92591000  0.97340600  0.37963300  1
  Cl  Cl25  1  0.07409000  0.02659400  0.62036700  1
  Cl  Cl26  1  0.42591000  0.02659400  0.12036700  1
  Cl  Cl27  1  0.57409000  0.97340600  0.87963300  1
  Cl  Cl28  1  0.94104300  0.46300200  0.13053600  1
  Cl  Cl29  1  0.05895700  0.53699800  0.86946400  1
  Cl  Cl30  1  0.44104300  0.53699800  0.36946400  1
  Cl  Cl31  1  0.55895700  0.46300200  0.63053600  1
  Cl  Cl32  1  0.70296500  0.99663100  0.17594700  1
  Cl  Cl33  1  0.29703500  0.00336900  0.82405300  1
  Cl  Cl34  1  0.20296500  0.00336900  0.32405300  1
  Cl  Cl35  1  0.79703500  0.99663100  0.67594700  1
  Cl  Cl36  1  0.91330400  0.45497900  0.37836400  1
  Cl  Cl37  1  0.08669600  0.54502100  0.62163600  1
  Cl  Cl38  1  0.41330400  0.54502100  0.12163600  1
  Cl  Cl39  1  0.58669600  0.45497900  0.87836400  1
