# generated using pymatgen
data_TlPbF7
_symmetry_space_group_name_H-M   'P 1'
_cell_length_a   5.66301700
_cell_length_b   9.14619967
_cell_length_c   11.51312081
_cell_angle_alpha   107.68214376
_cell_angle_beta   90.00000000
_cell_angle_gamma   90.00000000
_symmetry_Int_Tables_number   1
_chemical_formula_structural   TlPbF7
_chemical_formula_sum   'Tl4 Pb4 F28'
_cell_volume   568.15048655
_cell_formula_units_Z   4
loop_
 _symmetry_equiv_pos_site_id
 _symmetry_equiv_pos_as_xyz
  1  'x, y, z'
loop_
 _atom_site_type_symbol
 _atom_site_label
 _atom_site_symmetry_multiplicity
 _atom_site_fract_x
 _atom_site_fract_y
 _atom_site_fract_z
 _atom_site_occupancy
  Tl  Tl0  1  0.74187700  0.91856000  0.73735700  1
  Tl  Tl1  1  0.25812300  0.08144000  0.26264300  1
  Tl  Tl2  1  0.24187700  0.58144000  0.76264300  1
  Tl  Tl3  1  0.75812300  0.41856000  0.23735700  1
  Pb  Pb4  1  0.24298300  0.23132900  0.95906300  1
  Pb  Pb5  1  0.75701700  0.76867100  0.04093700  1
  Pb  Pb6  1  0.74298300  0.26867100  0.54093700  1
  Pb  Pb7  1  0.25701700  0.73132900  0.45906300  1
  F  F8  1  0.04802100  0.88433200  0.59154400  1
  F  F9  1  0.95197900  0.11566800  0.40845600  1
  F  F10  1  0.54802100  0.61566800  0.90845600  1
  F  F11  1  0.45197900  0.38433200  0.09154400  1
  F  F12  1  0.54225100  0.12858100  0.85689000  1
  F  F13  1  0.45774900  0.87141900  0.14311000  1
  F  F14  1  0.04225100  0.37141900  0.64311000  1
  F  F15  1  0.95774900  0.62858100  0.35689000  1
  F  F16  1  0.04140600  0.07695000  0.81920800  1
  F  F17  1  0.95859400  0.92305000  0.18079200  1
  F  F18  1  0.54140600  0.42305000  0.68079200  1
  F  F19  1  0.45859400  0.57695000  0.31920800  1
  F  F20  1  0.22629900  0.38306100  0.85681800  1
  F  F21  1  0.77370100  0.61693900  0.14318200  1
  F  F22  1  0.72629900  0.11693900  0.64318200  1
  F  F23  1  0.27370100  0.88306100  0.35681800  1
  F  F24  1  0.07320800  0.67157600  0.95098400  1
  F  F25  1  0.92679200  0.32842400  0.04901600  1
  F  F26  1  0.57320800  0.82842400  0.54901600  1
  F  F27  1  0.42679200  0.17157600  0.45098400  1
  F  F28  1  0.26395400  0.56983300  0.55386900  1
  F  F29  1  0.73604600  0.43016700  0.44613100  1
  F  F30  1  0.76395400  0.93016700  0.94613100  1
  F  F31  1  0.23604600  0.06983300  0.05386900  1
  F  F32  1  0.40993700  0.80318300  0.76788100  1
  F  F33  1  0.59006300  0.19681700  0.23211900  1
  F  F34  1  0.90993700  0.69681700  0.73211900  1
  F  F35  1  0.09006300  0.30318300  0.26788100  1
