# generated using pymatgen
data_Li2Mn(SO4)2
_symmetry_space_group_name_H-M   'P 1'
_cell_length_a   8.43579000
_cell_length_b   9.03406406
_cell_length_c   9.48170319
_cell_angle_alpha   66.15142005
_cell_angle_beta   90.00002339
_cell_angle_gamma   89.99993445
_symmetry_Int_Tables_number   1
_chemical_formula_structural   Li2Mn(SO4)2
_chemical_formula_sum   'Li8 Mn4 S8 O32'
_cell_volume   660.89830364
_cell_formula_units_Z   4
loop_
 _symmetry_equiv_pos_site_id
 _symmetry_equiv_pos_as_xyz
  1  'x, y, z'
loop_
 _atom_site_type_symbol
 _atom_site_label
 _atom_site_symmetry_multiplicity
 _atom_site_fract_x
 _atom_site_fract_y
 _atom_site_fract_z
 _atom_site_occupancy
  Li  Li0  1  0.86671600  0.40625600  0.98946800  1
  Li  Li1  1  0.86671700  0.90625700  0.48946800  1
  Li  Li2  1  0.36671800  0.09374500  0.01053200  1
  Li  Li3  1  0.36671800  0.59374300  0.51053300  1
  Li  Li4  1  0.13328300  0.59374300  0.01053300  1
  Li  Li5  1  0.13328100  0.09374400  0.51053300  1
  Li  Li6  1  0.63328300  0.90625700  0.98946700  1
  Li  Li7  1  0.63328500  0.40625600  0.48946800  1
  Mn  Mn8  1  0.50000100  0.99999900  0.49999700  1
  Mn  Mn9  1  0.99999900  0.00000200  0.99999800  1
  Mn  Mn10  1  0.49999300  0.49999600  0.99999900  1
  Mn  Mn11  1  0.00000000  0.49999500  0.50000600  1
  S  S12  1  0.19652300  0.36721200  0.83701100  1
  S  S13  1  0.19651900  0.86720900  0.33700600  1
  S  S14  1  0.69652200  0.63278700  0.66299000  1
  S  S15  1  0.69652300  0.13279300  0.16299000  1
  S  S16  1  0.80347900  0.63278200  0.16299800  1
  S  S17  1  0.80347600  0.13279600  0.66299000  1
  S  S18  1  0.30347900  0.36721600  0.33700500  1
  S  S19  1  0.30348100  0.86720800  0.83700700  1
  O  O20  1  0.08551800  0.43881200  0.91251200  1
  O  O21  1  0.08551600  0.93880700  0.41251700  1
  O  O22  1  0.58551800  0.56119000  0.58748800  1
  O  O23  1  0.58551500  0.06119300  0.08748300  1
  O  O24  1  0.91448200  0.56119000  0.08748600  1
  O  O25  1  0.91448600  0.06119200  0.58748200  1
  O  O26  1  0.41448200  0.43881100  0.41251400  1
  O  O27  1  0.41448400  0.93880800  0.91251800  1
  O  O28  1  0.35944800  0.35249300  0.90429900  1
  O  O29  1  0.35944800  0.85248300  0.40430400  1
  O  O30  1  0.85944900  0.14751300  0.09569600  1
  O  O31  1  0.85944800  0.64750800  0.59570000  1
  O  O32  1  0.64055100  0.64750800  0.09569900  1
  O  O33  1  0.64055100  0.14751200  0.59569500  1
  O  O34  1  0.14055200  0.85248600  0.90430500  1
  O  O35  1  0.14055100  0.35249200  0.40430200  1
  O  O36  1  0.14749900  0.19954500  0.86256900  1
  O  O37  1  0.14750100  0.69955100  0.36256600  1
  O  O38  1  0.64750000  0.30045100  0.13743200  1
  O  O39  1  0.64750000  0.80045600  0.63743000  1
  O  O40  1  0.85249900  0.80045600  0.13743000  1
  O  O41  1  0.85250200  0.30045300  0.63743100  1
  O  O42  1  0.35250200  0.69954900  0.86256900  1
  O  O43  1  0.35249900  0.19954400  0.36257000  1
  O  O44  1  0.20045600  0.46894400  0.66776300  1
  O  O45  1  0.20045400  0.96894100  0.16776100  1
  O  O46  1  0.70045500  0.53105700  0.83223600  1
  O  O47  1  0.70045200  0.03105800  0.33224000  1
  O  O48  1  0.79954700  0.53105900  0.33223600  1
  O  O49  1  0.79954800  0.03105800  0.83224100  1
  O  O50  1  0.29954600  0.46894300  0.16776400  1
  O  O51  1  0.29954600  0.96894200  0.66776100  1
