# generated using pymatgen
data_Bi2H18C3(IN)9
_symmetry_space_group_name_H-M   'P 1'
_cell_length_a   9.13563023
_cell_length_b   9.13563023
_cell_length_c   21.71810600
_cell_angle_alpha   90.00000000
_cell_angle_beta   90.00000000
_cell_angle_gamma   107.47794769
_symmetry_Int_Tables_number   1
_chemical_formula_structural   Bi2H18C3(IN)9
_chemical_formula_sum   'Bi4 H36 C6 I18 N18'
_cell_volume   1728.90505583
_cell_formula_units_Z   2
loop_
 _symmetry_equiv_pos_site_id
 _symmetry_equiv_pos_as_xyz
  1  'x, y, z'
loop_
 _atom_site_type_symbol
 _atom_site_label
 _atom_site_symmetry_multiplicity
 _atom_site_fract_x
 _atom_site_fract_y
 _atom_site_fract_z
 _atom_site_occupancy
  Bi  Bi0  1  0.72656800  0.27343200  0.34962200  1
  Bi  Bi1  1  0.27343200  0.72656800  0.65037800  1
  Bi  Bi2  1  0.72656800  0.27343200  0.15037800  1
  Bi  Bi3  1  0.27343200  0.72656800  0.84962200  1
  H  H4  1  0.31413100  0.84806500  0.25000000  1
  H  H5  1  0.84806500  0.31413100  0.75000000  1
  H  H6  1  0.68586900  0.15193500  0.75000000  1
  H  H7  1  0.15193500  0.68586900  0.25000000  1
  H  H8  1  0.54727700  0.83036600  0.41031000  1
  H  H9  1  0.83036600  0.54727700  0.58969000  1
  H  H10  1  0.54727700  0.83036600  0.08969000  1
  H  H11  1  0.83036600  0.54727700  0.91031000  1
  H  H12  1  0.45272300  0.16963400  0.58969000  1
  H  H13  1  0.16963400  0.45272300  0.41031000  1
  H  H14  1  0.45272300  0.16963400  0.91031000  1
  H  H15  1  0.16963400  0.45272300  0.08969000  1
  H  H16  1  0.55810100  0.66108900  0.37817000  1
  H  H17  1  0.66108900  0.55810100  0.62183000  1
  H  H18  1  0.55810100  0.66108900  0.12183000  1
  H  H19  1  0.66108900  0.55810100  0.87817000  1
  H  H20  1  0.44189900  0.33891100  0.62183000  1
  H  H21  1  0.33891100  0.44189900  0.37817000  1
  H  H22  1  0.44189900  0.33891100  0.87817000  1
  H  H23  1  0.33891100  0.44189900  0.12183000  1
  H  H24  1  0.15267800  0.68616800  0.45028800  1
  H  H25  1  0.68616800  0.15267800  0.54971200  1
  H  H26  1  0.15267800  0.68616800  0.04971200  1
  H  H27  1  0.68616800  0.15267800  0.95028800  1
  H  H28  1  0.84732200  0.31383200  0.54971200  1
  H  H29  1  0.31383200  0.84732200  0.45028800  1
  H  H30  1  0.84732200  0.31383200  0.95028800  1
  H  H31  1  0.31383200  0.84732200  0.04971200  1
  H  H32  1  0.90548100  0.71575600  0.25000000  1
  H  H33  1  0.71575600  0.90548100  0.75000000  1
  H  H34  1  0.09451900  0.28424400  0.75000000  1
  H  H35  1  0.28424400  0.09451900  0.25000000  1
  H  H36  1  0.88220900  0.89712200  0.25000000  1
  H  H37  1  0.89712200  0.88220900  0.75000000  1
  H  H38  1  0.11779100  0.10287800  0.75000000  1
  H  H39  1  0.10287800  0.11779100  0.25000000  1
  C  C40  1  0.34493900  0.65506100  0.41062900  1
  C  C41  1  0.65506100  0.34493900  0.58937100  1
  C  C42  1  0.34493900  0.65506100  0.08937100  1
  C  C43  1  0.65506100  0.34493900  0.91062900  1
  C  C44  1  0.10693300  0.89306700  0.25000000  1
  C  C45  1  0.89306700  0.10693300  0.75000000  1
  I  I46  1  0.00764000  0.38137800  0.25000000  1
  I  I47  1  0.38137800  0.00764000  0.75000000  1
  I  I48  1  0.99236000  0.61862200  0.75000000  1
  I  I49  1  0.61862200  0.99236000  0.25000000  1
  I  I50  1  0.55545100  0.44454900  0.25000000  1
  I  I51  1  0.44454900  0.55545100  0.75000000  1
  I  I52  1  0.43217400  0.16068400  0.42052800  1
  I  I53  1  0.16068400  0.43217400  0.57947200  1
  I  I54  1  0.43217400  0.16068400  0.07947200  1
  I  I55  1  0.16068400  0.43217400  0.92052800  1
  I  I56  1  0.56782600  0.83931600  0.57947200  1
  I  I57  1  0.83931600  0.56782600  0.42052800  1
  I  I58  1  0.56782600  0.83931600  0.92052800  1
  I  I59  1  0.83931600  0.56782600  0.07947200  1
  I  I60  1  0.89795100  0.10204900  0.42149900  1
  I  I61  1  0.10204900  0.89795100  0.57850100  1
  I  I62  1  0.89795100  0.10204900  0.07850100  1
  I  I63  1  0.10204900  0.89795100  0.92149900  1
  N  N64  1  0.19771700  0.80228300  0.25000000  1
  N  N65  1  0.80228300  0.19771700  0.75000000  1
  N  N66  1  0.49144300  0.72333800  0.39476500  1
  N  N67  1  0.72333800  0.49144300  0.60523500  1
  N  N68  1  0.49144300  0.72333800  0.10523500  1
  N  N69  1  0.72333800  0.49144300  0.89476500  1
  N  N70  1  0.50855700  0.27666200  0.60523500  1
  N  N71  1  0.27666200  0.50855700  0.39476500  1
  N  N72  1  0.50855700  0.27666200  0.89476500  1
  N  N73  1  0.27666200  0.50855700  0.10523500  1
  N  N74  1  0.26596100  0.73403900  0.44051900  1
  N  N75  1  0.73403900  0.26596100  0.55948100  1
  N  N76  1  0.26596100  0.73403900  0.05948100  1
  N  N77  1  0.73403900  0.26596100  0.94051900  1
  N  N78  1  0.95443600  0.83118900  0.25000000  1
  N  N79  1  0.83118900  0.95443600  0.75000000  1
  N  N80  1  0.04556400  0.16881100  0.75000000  1
  N  N81  1  0.16881100  0.04556400  0.25000000  1
