# generated using pymatgen
data_Lu2(Al3Rh)3
_symmetry_space_group_name_H-M   'P 1'
_cell_length_a   7.52308629
_cell_length_b   7.52308629
_cell_length_c   9.41241200
_cell_angle_alpha   90.00000000
_cell_angle_beta   90.00000000
_cell_angle_gamma   119.56470415
_symmetry_Int_Tables_number   1
_chemical_formula_structural   Lu2(Al3Rh)3
_chemical_formula_sum   'Lu4 Al18 Rh6'
_cell_volume   463.35296143
_cell_formula_units_Z   2
loop_
 _symmetry_equiv_pos_site_id
 _symmetry_equiv_pos_as_xyz
  1  'x, y, z'
loop_
 _atom_site_type_symbol
 _atom_site_label
 _atom_site_symmetry_multiplicity
 _atom_site_fract_x
 _atom_site_fract_y
 _atom_site_fract_z
 _atom_site_occupancy
  Lu  Lu0  1  0.99551900  0.66940500  0.25000000  1
  Lu  Lu1  1  0.00448100  0.33059500  0.75000000  1
  Lu  Lu2  1  0.66940500  0.99551900  0.25000000  1
  Lu  Lu3  1  0.33059500  0.00448100  0.75000000  1
  Al  Al4  1  0.12506700  0.12506700  0.25000000  1
  Al  Al5  1  0.87493300  0.87493300  0.75000000  1
  Al  Al6  1  0.00042300  0.33457100  0.07437700  1
  Al  Al7  1  0.99957700  0.66542900  0.92562300  1
  Al  Al8  1  0.99957700  0.66542900  0.57437700  1
  Al  Al9  1  0.33457100  0.00042300  0.42562300  1
  Al  Al10  1  0.00042300  0.33457100  0.42562300  1
  Al  Al11  1  0.66542900  0.99957700  0.57437700  1
  Al  Al12  1  0.66542900  0.99957700  0.92562300  1
  Al  Al13  1  0.33457100  0.00042300  0.07437700  1
  Al  Al14  1  0.33299700  0.33299700  0.55493900  1
  Al  Al15  1  0.66700300  0.66700300  0.44506100  1
  Al  Al16  1  0.66700300  0.66700300  0.05493900  1
  Al  Al17  1  0.33299700  0.33299700  0.94506100  1
  Al  Al18  1  0.33755100  0.54854300  0.25000000  1
  Al  Al19  1  0.66244900  0.45145700  0.75000000  1
  Al  Al20  1  0.54854300  0.33755100  0.25000000  1
  Al  Al21  1  0.45145700  0.66244900  0.75000000  1
  Rh  Rh22  1  0.67232000  0.32768000  0.00000000  1
  Rh  Rh23  1  0.32768000  0.67232000  0.00000000  1
  Rh  Rh24  1  0.32768000  0.67232000  0.50000000  1
  Rh  Rh25  1  0.67232000  0.32768000  0.50000000  1
  Rh  Rh26  1  0.00000000  0.00000000  0.00000000  1
  Rh  Rh27  1  0.00000000  0.00000000  0.50000000  1
