# generated using pymatgen
data_Bi2Pd3Se2
_symmetry_space_group_name_H-M   'P 1'
_cell_length_a   7.35229261
_cell_length_b   7.35229261
_cell_length_c   8.54391979
_cell_angle_alpha   55.84531011
_cell_angle_beta   55.84531011
_cell_angle_gamma   71.33984828
_symmetry_Int_Tables_number   1
_chemical_formula_structural   Bi2Pd3Se2
_chemical_formula_sum   'Bi4 Pd6 Se4'
_cell_volume   316.26732681
_cell_formula_units_Z   2
loop_
 _symmetry_equiv_pos_site_id
 _symmetry_equiv_pos_as_xyz
  1  'x, y, z'
loop_
 _atom_site_type_symbol
 _atom_site_label
 _atom_site_symmetry_multiplicity
 _atom_site_fract_x
 _atom_site_fract_y
 _atom_site_fract_z
 _atom_site_occupancy
  Bi  Bi0  1  0.25060900  0.25060900  0.74111300  1
  Bi  Bi1  1  0.74939100  0.74939100  0.25888700  1
  Bi  Bi2  1  0.21499200  0.21499200  0.30335300  1
  Bi  Bi3  1  0.78500800  0.78500800  0.69664700  1
  Pd  Pd4  1  0.00000000  0.50000000  0.50000000  1
  Pd  Pd5  1  0.50000000  0.00000000  0.50000000  1
  Pd  Pd6  1  0.02485900  0.02485900  0.19851800  1
  Pd  Pd7  1  0.97514100  0.97514100  0.80148200  1
  Pd  Pd8  1  0.72292800  0.27707200  0.50000000  1
  Pd  Pd9  1  0.27707200  0.72292800  0.50000000  1
  Se  Se10  1  0.74272800  0.32216700  0.17866400  1
  Se  Se11  1  0.32216700  0.74272800  0.17866400  1
  Se  Se12  1  0.25727200  0.67783300  0.82133600  1
  Se  Se13  1  0.67783300  0.25727200  0.82133600  1
