# generated using pymatgen
data_Y(Cd10Ni)2
_symmetry_space_group_name_H-M   'P 1'
_cell_length_a   11.16081221
_cell_length_b   11.16081221
_cell_length_c   11.16081221
_cell_angle_alpha   60.00000000
_cell_angle_beta   60.00000000
_cell_angle_gamma   60.00000000
_symmetry_Int_Tables_number   1
_chemical_formula_structural   Y(Cd10Ni)2
_chemical_formula_sum   'Y2 Cd40 Ni4'
_cell_volume   983.04275117
_cell_formula_units_Z   2
loop_
 _symmetry_equiv_pos_site_id
 _symmetry_equiv_pos_as_xyz
  1  'x, y, z'
loop_
 _atom_site_type_symbol
 _atom_site_label
 _atom_site_symmetry_multiplicity
 _atom_site_fract_x
 _atom_site_fract_y
 _atom_site_fract_z
 _atom_site_occupancy
  Y  Y0  1  0.50000000  0.50000000  0.50000000  1
  Y  Y1  1  0.75000000  0.75000000  0.75000000  1
  Cd  Cd2  1  0.56896300  0.30107500  0.30107500  1
  Cd  Cd3  1  0.30107500  0.56896300  0.82888800  1
  Cd  Cd4  1  0.30107500  0.82888800  0.56896300  1
  Cd  Cd5  1  0.82888800  0.30107500  0.30107500  1
  Cd  Cd6  1  0.30107500  0.30107500  0.56896300  1
  Cd  Cd7  1  0.56896300  0.82888800  0.30107500  1
  Cd  Cd8  1  0.82888800  0.56896300  0.30107500  1
  Cd  Cd9  1  0.30107500  0.30107500  0.82888800  1
  Cd  Cd10  1  0.30107500  0.56896300  0.30107500  1
  Cd  Cd11  1  0.82888800  0.30107500  0.56896300  1
  Cd  Cd12  1  0.56896300  0.30107500  0.82888800  1
  Cd  Cd13  1  0.30107500  0.82888800  0.30107500  1
  Cd  Cd14  1  0.68103700  0.94892500  0.94892500  1
  Cd  Cd15  1  0.94892500  0.68103700  0.42111200  1
  Cd  Cd16  1  0.94892500  0.42111200  0.68103700  1
  Cd  Cd17  1  0.42111200  0.94892500  0.94892500  1
  Cd  Cd18  1  0.94892500  0.94892500  0.68103700  1
  Cd  Cd19  1  0.68103700  0.42111200  0.94892500  1
  Cd  Cd20  1  0.42111200  0.68103700  0.94892500  1
  Cd  Cd21  1  0.94892500  0.94892500  0.42111200  1
  Cd  Cd22  1  0.94892500  0.68103700  0.94892500  1
  Cd  Cd23  1  0.42111200  0.94892500  0.68103700  1
  Cd  Cd24  1  0.68103700  0.94892500  0.42111200  1
  Cd  Cd25  1  0.94892500  0.42111200  0.94892500  1
  Cd  Cd26  1  0.86317100  0.86317100  0.13682900  1
  Cd  Cd27  1  0.13682900  0.13682900  0.86317100  1
  Cd  Cd28  1  0.86317100  0.13682900  0.86317100  1
  Cd  Cd29  1  0.13682900  0.86317100  0.13682900  1
  Cd  Cd30  1  0.13682900  0.86317100  0.86317100  1
  Cd  Cd31  1  0.86317100  0.13682900  0.13682900  1
  Cd  Cd32  1  0.38682900  0.38682900  0.11317100  1
  Cd  Cd33  1  0.11317100  0.11317100  0.38682900  1
  Cd  Cd34  1  0.38682900  0.11317100  0.38682900  1
  Cd  Cd35  1  0.11317100  0.38682900  0.11317100  1
  Cd  Cd36  1  0.11317100  0.38682900  0.38682900  1
  Cd  Cd37  1  0.38682900  0.11317100  0.11317100  1
  Cd  Cd38  1  0.12500000  0.62500000  0.62500000  1
  Cd  Cd39  1  0.62500000  0.12500000  0.62500000  1
  Cd  Cd40  1  0.62500000  0.62500000  0.12500000  1
  Cd  Cd41  1  0.62500000  0.62500000  0.62500000  1
  Ni  Ni42  1  0.62500000  0.12500000  0.12500000  1
  Ni  Ni43  1  0.12500000  0.62500000  0.12500000  1
  Ni  Ni44  1  0.12500000  0.12500000  0.62500000  1
  Ni  Ni45  1  0.12500000  0.12500000  0.12500000  1
