# generated using pymatgen
data_NdGa3Pt
_symmetry_space_group_name_H-M   'P 1'
_cell_length_a   6.18725474
_cell_length_b   6.18725474
_cell_length_c   6.18725474
_cell_angle_alpha   140.17307316
_cell_angle_beta   140.17307316
_cell_angle_gamma   57.59060583
_symmetry_Int_Tables_number   1
_chemical_formula_structural   NdGa3Pt
_chemical_formula_sum   'Nd1 Ga3 Pt1'
_cell_volume   96.32082956
_cell_formula_units_Z   1
loop_
 _symmetry_equiv_pos_site_id
 _symmetry_equiv_pos_as_xyz
  1  'x, y, z'
loop_
 _atom_site_type_symbol
 _atom_site_label
 _atom_site_symmetry_multiplicity
 _atom_site_fract_x
 _atom_site_fract_y
 _atom_site_fract_z
 _atom_site_occupancy
  Nd  Nd0  1  0.00000000  0.00000000  0.00000000  1
  Ga  Ga1  1  0.61480800  0.61480800  0.00000000  1
  Ga  Ga2  1  0.38519200  0.38519200  0.00000000  1
  Ga  Ga3  1  0.75000000  0.25000000  0.50000000  1
  Pt  Pt4  1  0.25000000  0.75000000  0.50000000  1
