# generated using pymatgen
data_RbUH2SeO7F
_symmetry_space_group_name_H-M   'P 1'
_cell_length_a   8.60937400
_cell_length_b   13.68505800
_cell_length_c   14.02728000
_cell_angle_alpha   90.00000000
_cell_angle_beta   90.00000000
_cell_angle_gamma   90.00000000
_symmetry_Int_Tables_number   1
_chemical_formula_structural   RbUH2SeO7F
_chemical_formula_sum   'Rb8 U8 H16 Se8 O56 F8'
_cell_volume   1652.69107914
_cell_formula_units_Z   8
loop_
 _symmetry_equiv_pos_site_id
 _symmetry_equiv_pos_as_xyz
  1  'x, y, z'
loop_
 _atom_site_type_symbol
 _atom_site_label
 _atom_site_symmetry_multiplicity
 _atom_site_fract_x
 _atom_site_fract_y
 _atom_site_fract_z
 _atom_site_occupancy
  Rb  Rb0  1  0.32523300  0.18259900  0.75000000  1
  Rb  Rb1  1  0.82523300  0.31740100  0.75000000  1
  Rb  Rb2  1  0.67476700  0.81740100  0.25000000  1
  Rb  Rb3  1  0.17476700  0.68259900  0.25000000  1
  Rb  Rb4  1  0.40144500  0.37136400  0.25000000  1
  Rb  Rb5  1  0.90144500  0.12863600  0.25000000  1
  Rb  Rb6  1  0.59855500  0.62863600  0.75000000  1
  Rb  Rb7  1  0.09855500  0.87136400  0.75000000  1
  U  U8  1  0.60962900  0.19720400  0.48882600  1
  U  U9  1  0.10962900  0.30279600  0.01117400  1
  U  U10  1  0.39037100  0.80279600  0.98882600  1
  U  U11  1  0.89037100  0.69720400  0.51117400  1
  U  U12  1  0.39037100  0.80279600  0.51117400  1
  U  U13  1  0.89037100  0.69720400  0.98882600  1
  U  U14  1  0.60962900  0.19720400  0.01117400  1
  U  U15  1  0.10962900  0.30279600  0.48882600  1
  H  H16  1  0.48414700  0.96420700  0.69464300  1
  H  H17  1  0.98414700  0.53579300  0.80535700  1
  H  H18  1  0.51585300  0.03579300  0.19464300  1
  H  H19  1  0.01585300  0.46420700  0.30535700  1
  H  H20  1  0.51585300  0.03579300  0.30535700  1
  H  H21  1  0.01585300  0.46420700  0.19464300  1
  H  H22  1  0.48414700  0.96420700  0.80535700  1
  H  H23  1  0.98414700  0.53579300  0.69464300  1
  H  H24  1  0.45996800  0.40375800  0.80550000  1
  H  H25  1  0.95996800  0.09624200  0.69450000  1
  H  H26  1  0.54003200  0.59624200  0.30550000  1
  H  H27  1  0.04003200  0.90375800  0.19450000  1
  H  H28  1  0.54003200  0.59624200  0.19450000  1
  H  H29  1  0.04003200  0.90375800  0.30550000  1
  H  H30  1  0.45996800  0.40375800  0.69450000  1
  H  H31  1  0.95996800  0.09624200  0.80550000  1
  Se  Se32  1  0.73627100  0.44985100  0.47198900  1
  Se  Se33  1  0.23627100  0.05014900  0.02801100  1
  Se  Se34  1  0.26372900  0.55014900  0.97198900  1
  Se  Se35  1  0.76372900  0.94985100  0.52801100  1
  Se  Se36  1  0.26372900  0.55014900  0.52801100  1
  Se  Se37  1  0.76372900  0.94985100  0.97198900  1
  Se  Se38  1  0.73627100  0.44985100  0.02801100  1
  Se  Se39  1  0.23627100  0.05014900  0.47198900  1
  O  O40  1  0.63219900  0.23565800  0.36619600  1
  O  O41  1  0.13219900  0.26434200  0.13380400  1
  O  O42  1  0.36780100  0.76434200  0.86619600  1
  O  O43  1  0.86780100  0.73565800  0.63380400  1
  O  O44  1  0.36780100  0.76434200  0.63380400  1
  O  O45  1  0.86780100  0.73565800  0.86619600  1
  O  O46  1  0.63219900  0.23565800  0.13380400  1
  O  O47  1  0.13219900  0.26434200  0.36619600  1
  O  O48  1  0.59171800  0.16091700  0.61276700  1
  O  O49  1  0.09171800  0.33908300  0.88723300  1
  O  O50  1  0.40828200  0.83908300  0.11276700  1
  O  O51  1  0.90828200  0.66091700  0.38723300  1
  O  O52  1  0.40828200  0.83908300  0.38723300  1
  O  O53  1  0.90828200  0.66091700  0.11276700  1
  O  O54  1  0.59171800  0.16091700  0.88723300  1
  O  O55  1  0.09171800  0.33908300  0.61276700  1
  O  O56  1  0.40947500  0.08921300  0.42887700  1
  O  O57  1  0.90947500  0.41078700  0.07112300  1
  O  O58  1  0.59052500  0.91078700  0.92887700  1
  O  O59  1  0.09052500  0.58921300  0.57112300  1
  O  O60  1  0.59052500  0.91078700  0.57112300  1
  O  O61  1  0.09052500  0.58921300  0.92887700  1
  O  O62  1  0.40947500  0.08921300  0.07112300  1
  O  O63  1  0.90947500  0.41078700  0.42887700  1
  O  O64  1  0.72969200  0.04534300  0.45455900  1
  O  O65  1  0.22969200  0.45465700  0.04544100  1
  O  O66  1  0.27030800  0.95465700  0.95455900  1
  O  O67  1  0.77030800  0.54534300  0.54544100  1
  O  O68  1  0.27030800  0.95465700  0.54544100  1
  O  O69  1  0.77030800  0.54534300  0.95455900  1
  O  O70  1  0.72969200  0.04534300  0.04544100  1
  O  O71  1  0.22969200  0.45465700  0.45455900  1
  O  O72  1  0.66724500  0.36025800  0.54336100  1
  O  O73  1  0.16724500  0.13974200  0.95663900  1
  O  O74  1  0.33275500  0.63974200  0.04336100  1
  O  O75  1  0.83275500  0.86025800  0.45663900  1
  O  O76  1  0.33275500  0.63974200  0.45663900  1
  O  O77  1  0.83275500  0.86025800  0.04336100  1
  O  O78  1  0.66724500  0.36025800  0.95663900  1
  O  O79  1  0.16724500  0.13974200  0.54336100  1
  O  O80  1  0.61700300  0.47784400  0.38517000  1
  O  O81  1  0.11700300  0.02215600  0.11483000  1
  O  O82  1  0.38299700  0.52215600  0.88517000  1
  O  O83  1  0.88299700  0.97784400  0.61483000  1
  O  O84  1  0.38299700  0.52215600  0.61483000  1
  O  O85  1  0.88299700  0.97784400  0.88517000  1
  O  O86  1  0.61700300  0.47784400  0.11483000  1
  O  O87  1  0.11700300  0.02215600  0.38517000  1
  O  O88  1  0.41917100  0.97899600  0.75000000  1
  O  O89  1  0.91917100  0.52100400  0.75000000  1
  O  O90  1  0.58082900  0.02100400  0.25000000  1
  O  O91  1  0.08082900  0.47899600  0.25000000  1
  O  O92  1  0.50093500  0.36859900  0.75000000  1
  O  O93  1  0.00093500  0.13140100  0.75000000  1
  O  O94  1  0.49906500  0.63140100  0.25000000  1
  O  O95  1  0.99906500  0.86859900  0.25000000  1
  F  F96  1  0.37824700  0.28065900  0.50333300  1
  F  F97  1  0.87824700  0.21934100  0.99666700  1
  F  F98  1  0.62175300  0.71934100  0.00333300  1
  F  F99  1  0.12175300  0.78065900  0.49666700  1
  F  F100  1  0.62175300  0.71934100  0.49666700  1
  F  F101  1  0.12175300  0.78065900  0.00333300  1
  F  F102  1  0.37824700  0.28065900  0.99666700  1
  F  F103  1  0.87824700  0.21934100  0.50333300  1
