# generated using pymatgen
data_Pr2ZrS5
_symmetry_space_group_name_H-M   'P 1'
_cell_length_a   7.45322200
_cell_length_b   8.03929100
_cell_length_c   11.83752900
_cell_angle_alpha   90.00000000
_cell_angle_beta   90.00000000
_cell_angle_gamma   90.00000000
_symmetry_Int_Tables_number   1
_chemical_formula_structural   Pr2ZrS5
_chemical_formula_sum   'Pr8 Zr4 S20'
_cell_volume   709.28840835
_cell_formula_units_Z   4
loop_
 _symmetry_equiv_pos_site_id
 _symmetry_equiv_pos_as_xyz
  1  'x, y, z'
loop_
 _atom_site_type_symbol
 _atom_site_label
 _atom_site_symmetry_multiplicity
 _atom_site_fract_x
 _atom_site_fract_y
 _atom_site_fract_z
 _atom_site_occupancy
  Pr  Pr0  1  0.52763000  0.49856900  0.32287200  1
  Pr  Pr1  1  0.97237000  0.00143100  0.82287200  1
  Pr  Pr2  1  0.47237000  0.99856900  0.67712800  1
  Pr  Pr3  1  0.02763000  0.50143100  0.17712800  1
  Pr  Pr4  1  0.47237000  0.50143100  0.67712800  1
  Pr  Pr5  1  0.02763000  0.99856900  0.17712800  1
  Pr  Pr6  1  0.52763000  0.00143100  0.32287200  1
  Pr  Pr7  1  0.97237000  0.49856900  0.82287200  1
  Zr  Zr8  1  0.07650300  0.75000000  0.49276800  1
  Zr  Zr9  1  0.42349700  0.75000000  0.99276800  1
  Zr  Zr10  1  0.92349700  0.25000000  0.50723200  1
  Zr  Zr11  1  0.57650300  0.25000000  0.00723200  1
  S  S12  1  0.84066300  0.96482000  0.58850400  1
  S  S13  1  0.65933700  0.53518000  0.08850400  1
  S  S14  1  0.15933700  0.46482000  0.41149600  1
  S  S15  1  0.34066300  0.03518000  0.91149600  1
  S  S16  1  0.15933700  0.03518000  0.41149600  1
  S  S17  1  0.34066300  0.46482000  0.91149600  1
  S  S18  1  0.84066300  0.53518000  0.58850400  1
  S  S19  1  0.65933700  0.96482000  0.08850400  1
  S  S20  1  0.83711700  0.75000000  0.31919800  1
  S  S21  1  0.66288300  0.75000000  0.81919800  1
  S  S22  1  0.16288300  0.25000000  0.68080200  1
  S  S23  1  0.33711700  0.25000000  0.18080200  1
  S  S24  1  0.44212900  0.75000000  0.49538500  1
  S  S25  1  0.05787100  0.75000000  0.99538500  1
  S  S26  1  0.55787100  0.25000000  0.50461500  1
  S  S27  1  0.94212900  0.25000000  0.00461500  1
  S  S28  1  0.18460100  0.75000000  0.70518500  1
  S  S29  1  0.31539900  0.75000000  0.20518500  1
  S  S30  1  0.81539900  0.25000000  0.29481500  1
  S  S31  1  0.68460100  0.25000000  0.79481500  1
