# generated using pymatgen
data_K(Nb3Se4)2
_symmetry_space_group_name_H-M   'P 1'
_cell_length_a   10.19564648
_cell_length_b   10.19564648
_cell_length_c   3.52452600
_cell_angle_alpha   90.00000000
_cell_angle_beta   90.00000000
_cell_angle_gamma   120.00000312
_symmetry_Int_Tables_number   1
_chemical_formula_structural   K(Nb3Se4)2
_chemical_formula_sum   'K1 Nb6 Se8'
_cell_volume   317.29327969
_cell_formula_units_Z   1
loop_
 _symmetry_equiv_pos_site_id
 _symmetry_equiv_pos_as_xyz
  1  'x, y, z'
loop_
 _atom_site_type_symbol
 _atom_site_label
 _atom_site_symmetry_multiplicity
 _atom_site_fract_x
 _atom_site_fract_y
 _atom_site_fract_z
 _atom_site_occupancy
  K  K0  1  0.00000000  0.00000000  0.50000000  1
  Nb  Nb1  1  0.10618200  0.61809300  0.25019700  1
  Nb  Nb2  1  0.51191100  0.89381800  0.25019700  1
  Nb  Nb3  1  0.38190700  0.48808900  0.25019700  1
  Nb  Nb4  1  0.89381800  0.38190700  0.74980300  1
  Nb  Nb5  1  0.48808900  0.10618200  0.74980300  1
  Nb  Nb6  1  0.61809300  0.51191100  0.74980300  1
  Se  Se7  1  0.28186400  0.94022500  0.24877500  1
  Se  Se8  1  0.65836200  0.71813600  0.24877500  1
  Se  Se9  1  0.05977500  0.34163800  0.24877500  1
  Se  Se10  1  0.71813600  0.05977500  0.75122500  1
  Se  Se11  1  0.34163800  0.28186400  0.75122500  1
  Se  Se12  1  0.94022500  0.65836200  0.75122500  1
  Se  Se13  1  0.66666700  0.33333300  0.25000400  1
  Se  Se14  1  0.33333300  0.66666700  0.74999600  1
