# generated using pymatgen
data_Ba2Mn(BO2)6
_symmetry_space_group_name_H-M   'P 1'
_cell_length_a   7.19169066
_cell_length_b   12.33121618
_cell_length_c   12.45637470
_cell_angle_alpha   80.30761779
_cell_angle_beta   90.00000338
_cell_angle_gamma   73.04592345
_symmetry_Int_Tables_number   1
_chemical_formula_structural   Ba2Mn(BO2)6
_chemical_formula_sum   'Ba8 Mn4 B24 O48'
_cell_volume   1040.15439197
_cell_formula_units_Z   4
loop_
 _symmetry_equiv_pos_site_id
 _symmetry_equiv_pos_as_xyz
  1  'x, y, z'
loop_
 _atom_site_type_symbol
 _atom_site_label
 _atom_site_symmetry_multiplicity
 _atom_site_fract_x
 _atom_site_fract_y
 _atom_site_fract_z
 _atom_site_occupancy
  Ba  Ba0  1  0.90608400  0.18783200  0.30202800  1
  Ba  Ba1  1  0.65608400  0.68783200  0.55202800  1
  Ba  Ba2  1  0.40608400  0.18783200  0.80202800  1
  Ba  Ba3  1  0.15608400  0.68783200  0.05202800  1
  Ba  Ba4  1  0.34391600  0.31216800  0.44797200  1
  Ba  Ba5  1  0.09391600  0.81216800  0.69797200  1
  Ba  Ba6  1  0.84391600  0.31216800  0.94797200  1
  Ba  Ba7  1  0.59391600  0.81216800  0.19797200  1
  Mn  Mn8  1  0.50000000  0.00000000  0.50000000  1
  Mn  Mn9  1  0.25000000  0.50000000  0.75000000  1
  Mn  Mn10  1  0.00000000  0.00000000  0.00000000  1
  Mn  Mn11  1  0.75000000  0.50000000  0.25000000  1
  B  B12  1  0.38510500  0.61907500  0.37031900  1
  B  B13  1  0.13510500  0.11907500  0.62031900  1
  B  B14  1  0.88510500  0.61907500  0.87031900  1
  B  B15  1  0.63510500  0.11907500  0.12031900  1
  B  B16  1  0.13289400  0.61907500  0.50739300  1
  B  B17  1  0.88289400  0.11907500  0.75739300  1
  B  B18  1  0.63289400  0.61907500  0.00739300  1
  B  B19  1  0.38289400  0.11907500  0.25739300  1
  B  B20  1  0.05338800  0.61907500  0.31275000  1
  B  B21  1  0.80338800  0.11907500  0.56275000  1
  B  B22  1  0.55338800  0.61907500  0.81275000  1
  B  B23  1  0.30338800  0.11907500  0.06275000  1
  B  B24  1  0.19661200  0.88092500  0.43725000  1
  B  B25  1  0.94661200  0.38092500  0.68725000  1
  B  B26  1  0.69661200  0.88092500  0.93725000  1
  B  B27  1  0.44661200  0.38092500  0.18725000  1
  B  B28  1  0.86489500  0.88092500  0.37968100  1
  B  B29  1  0.61489500  0.38092500  0.62968100  1
  B  B30  1  0.36489500  0.88092500  0.87968100  1
  B  B31  1  0.11489500  0.38092500  0.12968100  1
  B  B32  1  0.11710600  0.88092500  0.24260700  1
  B  B33  1  0.86710600  0.38092500  0.49260700  1
  B  B34  1  0.61710600  0.88092500  0.74260700  1
  B  B35  1  0.36710600  0.38092500  0.99260700  1
  O  O36  1  0.00277000  0.88235700  0.45952600  1
  O  O37  1  0.75277000  0.38235700  0.70952600  1
  O  O38  1  0.50277000  0.88235700  0.95952600  1
  O  O39  1  0.25277000  0.38235700  0.20952600  1
  O  O40  1  0.32303200  0.61764300  0.47837800  1
  O  O41  1  0.07303200  0.11764300  0.72837800  1
  O  O42  1  0.82303200  0.61764300  0.97837800  1
  O  O43  1  0.57303200  0.11764300  0.22837800  1
  O  O44  1  0.00327500  0.61764300  0.42232700  1
  O  O45  1  0.75327500  0.11764300  0.67232700  1
  O  O46  1  0.50327500  0.61764300  0.92232700  1
  O  O47  1  0.25327500  0.11764300  0.17232700  1
  O  O48  1  0.24672500  0.88235700  0.32767300  1
  O  O49  1  0.99672500  0.38235700  0.57767300  1
  O  O50  1  0.74672500  0.88235700  0.82767300  1
  O  O51  1  0.49672500  0.38235700  0.07767300  1
  O  O52  1  0.24723000  0.61764300  0.29047400  1
  O  O53  1  0.99723000  0.11764300  0.54047400  1
  O  O54  1  0.74723000  0.61764300  0.79047400  1
  O  O55  1  0.49723000  0.11764300  0.04047400  1
  O  O56  1  0.92696800  0.88235700  0.27162200  1
  O  O57  1  0.67696800  0.38235700  0.52162200  1
  O  O58  1  0.42696800  0.88235700  0.77162200  1
  O  O59  1  0.17696800  0.38235700  0.02162200  1
  O  O60  1  0.32073600  0.87632800  0.51841500  1
  O  O61  1  0.07073600  0.37632800  0.76841500  1
  O  O62  1  0.82073600  0.87632800  0.01841500  1
  O  O63  1  0.57073600  0.37632800  0.26841500  1
  O  O64  1  0.17909000  0.87632800  0.14226000  1
  O  O65  1  0.92909000  0.37632800  0.39226000  1
  O  O66  1  0.67909000  0.87632800  0.64226000  1
  O  O67  1  0.42909000  0.37632800  0.89226000  1
  O  O68  1  0.68568100  0.87632800  0.40116100  1
  O  O69  1  0.43568100  0.37632800  0.65116100  1
  O  O70  1  0.18568100  0.87632800  0.90116100  1
  O  O71  1  0.93568100  0.37632800  0.15116100  1
  O  O72  1  0.92926400  0.62367200  0.23158500  1
  O  O73  1  0.67926400  0.12367200  0.48158500  1
  O  O74  1  0.42926400  0.62367200  0.73158500  1
  O  O75  1  0.17926400  0.12367200  0.98158500  1
  O  O76  1  0.07091000  0.62367200  0.60774000  1
  O  O77  1  0.82091000  0.12367200  0.85774000  1
  O  O78  1  0.57091000  0.62367200  0.10774000  1
  O  O79  1  0.32091000  0.12367200  0.35774000  1
  O  O80  1  0.56431900  0.62367200  0.34883900  1
  O  O81  1  0.31431900  0.12367200  0.59883900  1
  O  O82  1  0.06431900  0.62367200  0.84883900  1
  O  O83  1  0.81431900  0.12367200  0.09883900  1
