# generated using pymatgen
data_LaNdNi10
_symmetry_space_group_name_H-M   'P 1'
_cell_length_a   3.96133000
_cell_length_b   4.96287700
_cell_length_c   8.56795200
_cell_angle_alpha   90.00000000
_cell_angle_beta   90.00000000
_cell_angle_gamma   90.00000000
_symmetry_Int_Tables_number   1
_chemical_formula_structural   LaNdNi10
_chemical_formula_sum   'La1 Nd1 Ni10'
_cell_volume   168.44245385
_cell_formula_units_Z   1
loop_
 _symmetry_equiv_pos_site_id
 _symmetry_equiv_pos_as_xyz
  1  'x, y, z'
loop_
 _atom_site_type_symbol
 _atom_site_label
 _atom_site_symmetry_multiplicity
 _atom_site_fract_x
 _atom_site_fract_y
 _atom_site_fract_z
 _atom_site_occupancy
  La  La0  1  0.00000000  0.00000000  0.00000000  1
  Nd  Nd1  1  0.00000000  0.50000000  0.50000000  1
  Ni  Ni2  1  0.00000000  0.00000000  0.33357600  1
  Ni  Ni3  1  0.00000000  0.50000000  0.83276900  1
  Ni  Ni4  1  0.00000000  0.50000000  0.16723100  1
  Ni  Ni5  1  0.00000000  0.00000000  0.66642400  1
  Ni  Ni6  1  0.50000000  0.50000000  0.00000000  1
  Ni  Ni7  1  0.50000000  0.00000000  0.50000000  1
  Ni  Ni8  1  0.50000000  0.25153500  0.25235600  1
  Ni  Ni9  1  0.50000000  0.74846500  0.74764400  1
  Ni  Ni10  1  0.50000000  0.74846500  0.25235600  1
  Ni  Ni11  1  0.50000000  0.25153500  0.74764400  1
