# generated using pymatgen
data_NaCaAlF6
_symmetry_space_group_name_H-M   'P 1'
_cell_length_a   9.07121780
_cell_length_b   9.07121780
_cell_length_c   5.11669800
_cell_angle_alpha   90.00000000
_cell_angle_beta   90.00000000
_cell_angle_gamma   119.99999854
_symmetry_Int_Tables_number   1
_chemical_formula_structural   NaCaAlF6
_chemical_formula_sum   'Na3 Ca3 Al3 F18'
_cell_volume   364.62934024
_cell_formula_units_Z   3
loop_
 _symmetry_equiv_pos_site_id
 _symmetry_equiv_pos_as_xyz
  1  'x, y, z'
loop_
 _atom_site_type_symbol
 _atom_site_label
 _atom_site_symmetry_multiplicity
 _atom_site_fract_x
 _atom_site_fract_y
 _atom_site_fract_z
 _atom_site_occupancy
  Na  Na0  1  0.00000000  0.71195800  0.50000000  1
  Na  Na1  1  0.71195800  0.00000000  0.50000000  1
  Na  Na2  1  0.28804200  0.28804200  0.50000000  1
  Ca  Ca3  1  0.62954200  0.62954200  0.00000000  1
  Ca  Ca4  1  0.00000000  0.37045800  0.00000000  1
  Ca  Ca5  1  0.37045800  0.00000000  0.00000000  1
  Al  Al6  1  0.66666700  0.33333300  0.50240700  1
  Al  Al7  1  0.33333300  0.66666700  0.49759300  1
  Al  Al8  1  0.00000000  0.00000000  0.00000000  1
  F  F9  1  0.77720600  0.25368200  0.29494800  1
  F  F10  1  0.74631800  0.52352400  0.29494800  1
  F  F11  1  0.47647600  0.22279400  0.29494800  1
  F  F12  1  0.52352400  0.74631800  0.70505200  1
  F  F13  1  0.22279400  0.47647600  0.70505200  1
  F  F14  1  0.25368200  0.77720600  0.70505200  1
  F  F15  1  0.41168200  0.55522700  0.28895000  1
  F  F16  1  0.44477300  0.85645400  0.28895000  1
  F  F17  1  0.14354600  0.58831800  0.28895000  1
  F  F18  1  0.91513300  0.10850800  0.80004200  1
  F  F19  1  0.89149200  0.80662500  0.80004200  1
  F  F20  1  0.19337500  0.08486700  0.80004200  1
  F  F21  1  0.80662500  0.89149200  0.19995800  1
  F  F22  1  0.08486700  0.19337500  0.19995800  1
  F  F23  1  0.10850800  0.91513300  0.19995800  1
  F  F24  1  0.55522700  0.41168200  0.71105000  1
  F  F25  1  0.58831800  0.14354600  0.71105000  1
  F  F26  1  0.85645400  0.44477300  0.71105000  1
