# generated using pymatgen
data_RbGdS2O9
_symmetry_space_group_name_H-M   'P 1'
_cell_length_a   8.61091200
_cell_length_b   10.93135724
_cell_length_c   10.30113444
_cell_angle_alpha   120.93573229
_cell_angle_beta   90.00000000
_cell_angle_gamma   90.00000000
_symmetry_Int_Tables_number   1
_chemical_formula_structural   RbGdS2O9
_chemical_formula_sum   'Rb4 Gd4 S8 O36'
_cell_volume   831.69907865
_cell_formula_units_Z   4
loop_
 _symmetry_equiv_pos_site_id
 _symmetry_equiv_pos_as_xyz
  1  'x, y, z'
loop_
 _atom_site_type_symbol
 _atom_site_label
 _atom_site_symmetry_multiplicity
 _atom_site_fract_x
 _atom_site_fract_y
 _atom_site_fract_z
 _atom_site_occupancy
  Rb  Rb0  1  0.33107400  0.68168400  0.96080700  1
  Rb  Rb1  1  0.66892600  0.31831600  0.03919300  1
  Rb  Rb2  1  0.83107400  0.81831600  0.53919300  1
  Rb  Rb3  1  0.16892600  0.18168400  0.46080700  1
  Gd  Gd4  1  0.36515900  0.97344300  0.71936600  1
  Gd  Gd5  1  0.63484100  0.02655700  0.28063400  1
  Gd  Gd6  1  0.86515900  0.52655700  0.78063400  1
  Gd  Gd7  1  0.13484100  0.47344300  0.21936600  1
  S  S8  1  0.13279600  0.31482700  0.87333000  1
  S  S9  1  0.86720400  0.68517300  0.12667000  1
  S  S10  1  0.63279600  0.18517300  0.62667000  1
  S  S11  1  0.36720400  0.81482700  0.37333000  1
  S  S12  1  0.19314100  0.61525700  0.60044300  1
  S  S13  1  0.80685900  0.38474300  0.39955700  1
  S  S14  1  0.69314100  0.88474300  0.89955700  1
  S  S15  1  0.30685900  0.11525700  0.10044300  1
  O  O16  1  0.78870600  0.01757100  0.97779800  1
  O  O17  1  0.21129400  0.98242900  0.02220200  1
  O  O18  1  0.28870600  0.48242900  0.52220200  1
  O  O19  1  0.71129400  0.51757100  0.47779800  1
  O  O20  1  0.20574900  0.17656100  0.76478100  1
  O  O21  1  0.79425100  0.82343900  0.23521900  1
  O  O22  1  0.70574900  0.32343900  0.73521900  1
  O  O23  1  0.29425100  0.67656100  0.26478100  1
  O  O24  1  0.29776100  0.74260800  0.68351500  1
  O  O25  1  0.70223900  0.25739200  0.31648500  1
  O  O26  1  0.79776100  0.75739200  0.81648500  1
  O  O27  1  0.20223900  0.24260800  0.18351500  1
  O  O28  1  0.40151800  0.12906200  0.98826000  1
  O  O29  1  0.59848200  0.87093800  0.01174000  1
  O  O30  1  0.90151800  0.37093800  0.51174000  1
  O  O31  1  0.09848200  0.62906200  0.48826000  1
  O  O32  1  0.12311500  0.93387700  0.78169100  1
  O  O33  1  0.87688500  0.06612300  0.21830800  1
  O  O34  1  0.62311500  0.56612300  0.71830900  1
  O  O35  1  0.37688500  0.43387700  0.28169100  1
  O  O36  1  0.25201900  0.41866600  0.98061100  1
  O  O37  1  0.74798100  0.58133400  0.01938900  1
  O  O38  1  0.75201900  0.08133400  0.51938900  1
  O  O39  1  0.24798100  0.91866600  0.48061100  1
  O  O40  1  0.01491900  0.30226900  0.97204800  1
  O  O41  1  0.98508100  0.69773100  0.02795200  1
  O  O42  1  0.51491900  0.19773100  0.52795200  1
  O  O43  1  0.48508100  0.80226900  0.47204800  1
  O  O44  1  0.06095100  0.37260000  0.78397600  1
  O  O45  1  0.93904900  0.62740000  0.21602400  1
  O  O46  1  0.56095100  0.12740000  0.71602400  1
  O  O47  1  0.43904900  0.87260000  0.28397600  1
  O  O48  1  0.59543900  0.89152700  0.78497800  1
  O  O49  1  0.40456100  0.10847300  0.21502200  1
  O  O50  1  0.09543900  0.60847300  0.71502200  1
  O  O51  1  0.90456100  0.39152700  0.28497800  1
