# generated using pymatgen
data_Tm5Pb3
_symmetry_space_group_name_H-M   'P 1'
_cell_length_a   6.53869100
_cell_length_b   8.93452644
_cell_length_c   8.93795639
_cell_angle_alpha   119.98730773
_cell_angle_beta   90.00000000
_cell_angle_gamma   90.00000000
_symmetry_Int_Tables_number   1
_chemical_formula_structural   Tm5Pb3
_chemical_formula_sum   'Tm10 Pb6'
_cell_volume   452.25850873
_cell_formula_units_Z   2
loop_
 _symmetry_equiv_pos_site_id
 _symmetry_equiv_pos_as_xyz
  1  'x, y, z'
loop_
 _atom_site_type_symbol
 _atom_site_label
 _atom_site_symmetry_multiplicity
 _atom_site_fract_x
 _atom_site_fract_y
 _atom_site_fract_z
 _atom_site_occupancy
  Tm  Tm0  1  0.49999900  0.33335400  0.66676600  1
  Tm  Tm1  1  0.49999900  0.66658800  0.33323400  1
  Tm  Tm2  1  0.99999900  0.66664600  0.33323400  1
  Tm  Tm3  1  0.99999900  0.33341200  0.66676600  1
  Tm  Tm4  1  0.75000300  0.23881900  0.00000000  1
  Tm  Tm5  1  0.74999900  0.76112900  0.76120800  1
  Tm  Tm6  1  0.74999900  0.99992100  0.23879200  1
  Tm  Tm7  1  0.25000300  0.76118100  0.00000000  1
  Tm  Tm8  1  0.24999900  0.23887100  0.23879200  1
  Tm  Tm9  1  0.24999900  0.00007900  0.76120800  1
  Pb  Pb10  1  0.74999500  0.60556100  0.00000000  1
  Pb  Pb11  1  0.75000300  0.39439600  0.39430300  1
  Pb  Pb12  1  0.75000300  0.00009300  0.60569700  1
  Pb  Pb13  1  0.24999500  0.39443900  0.00000000  1
  Pb  Pb14  1  0.25000300  0.60560400  0.60569700  1
  Pb  Pb15  1  0.25000300  0.99990700  0.39430300  1
