# generated using pymatgen
data_Hf6Co23
_symmetry_space_group_name_H-M   'P 1'
_cell_length_a   8.02914800
_cell_length_b   8.02914800
_cell_length_c   8.02914800
_cell_angle_alpha   60.00000000
_cell_angle_beta   60.00000000
_cell_angle_gamma   60.00000000
_symmetry_Int_Tables_number   1
_chemical_formula_structural   Hf6Co23
_chemical_formula_sum   'Hf6 Co23'
_cell_volume   366.01037187
_cell_formula_units_Z   1
loop_
 _symmetry_equiv_pos_site_id
 _symmetry_equiv_pos_as_xyz
  1  'x, y, z'
loop_
 _atom_site_type_symbol
 _atom_site_label
 _atom_site_symmetry_multiplicity
 _atom_site_fract_x
 _atom_site_fract_y
 _atom_site_fract_z
 _atom_site_occupancy
  Hf  Hf0  1  0.71018300  0.71018300  0.28981700  1
  Hf  Hf1  1  0.28981700  0.71018300  0.28981700  1
  Hf  Hf2  1  0.71018300  0.28981700  0.28981700  1
  Hf  Hf3  1  0.28981700  0.28981700  0.71018300  1
  Hf  Hf4  1  0.71018300  0.28981700  0.71018300  1
  Hf  Hf5  1  0.28981700  0.71018300  0.71018300  1
  Co  Co6  1  0.00000000  0.00000000  0.00000000  1
  Co  Co7  1  0.00000000  0.00000000  0.50000000  1
  Co  Co8  1  0.50000000  0.00000000  0.50000000  1
  Co  Co9  1  0.00000000  0.50000000  0.50000000  1
  Co  Co10  1  0.50000000  0.50000000  0.00000000  1
  Co  Co11  1  0.00000000  0.50000000  0.00000000  1
  Co  Co12  1  0.50000000  0.00000000  0.00000000  1
  Co  Co13  1  0.87996200  0.87996200  0.36011300  1
  Co  Co14  1  0.87996200  0.36011300  0.87996200  1
  Co  Co15  1  0.36011300  0.87996200  0.87996200  1
  Co  Co16  1  0.87996200  0.87996200  0.87996200  1
  Co  Co17  1  0.12003800  0.12003800  0.63988700  1
  Co  Co18  1  0.12003800  0.63988700  0.12003800  1
  Co  Co19  1  0.63988700  0.12003800  0.12003800  1
  Co  Co20  1  0.12003800  0.12003800  0.12003800  1
  Co  Co21  1  0.67339300  0.67339300  0.97982000  1
  Co  Co22  1  0.67339300  0.97982000  0.67339300  1
  Co  Co23  1  0.97982000  0.67339300  0.67339300  1
  Co  Co24  1  0.67339300  0.67339300  0.67339300  1
  Co  Co25  1  0.32660700  0.32660700  0.02018000  1
  Co  Co26  1  0.32660700  0.02018000  0.32660700  1
  Co  Co27  1  0.02018000  0.32660700  0.32660700  1
  Co  Co28  1  0.32660700  0.32660700  0.32660700  1
