# generated using pymatgen
data_Pr(Re2Si)2
_symmetry_space_group_name_H-M   'P 1'
_cell_length_a   7.35482310
_cell_length_b   7.35482310
_cell_length_c   4.13286200
_cell_angle_alpha   90.00000000
_cell_angle_beta   90.00000000
_cell_angle_gamma   147.00265873
_symmetry_Int_Tables_number   1
_chemical_formula_structural   Pr(Re2Si)2
_chemical_formula_sum   'Pr1 Re4 Si2'
_cell_volume   121.75115713
_cell_formula_units_Z   1
loop_
 _symmetry_equiv_pos_site_id
 _symmetry_equiv_pos_as_xyz
  1  'x, y, z'
loop_
 _atom_site_type_symbol
 _atom_site_label
 _atom_site_symmetry_multiplicity
 _atom_site_fract_x
 _atom_site_fract_y
 _atom_site_fract_z
 _atom_site_occupancy
  Pr  Pr0  1  0.00000000  0.00000000  0.00000000  1
  Re  Re1  1  0.81033900  0.18966100  0.50000000  1
  Re  Re2  1  0.18966100  0.81033900  0.50000000  1
  Re  Re3  1  0.69610800  0.30389200  0.00000000  1
  Re  Re4  1  0.30389200  0.69610800  0.00000000  1
  Si  Si5  1  0.58927100  0.41072900  0.50000000  1
  Si  Si6  1  0.41072900  0.58927100  0.50000000  1
