# generated using pymatgen
data_Tl3Cr2(PS4)3
_symmetry_space_group_name_H-M   'P 1'
_cell_length_a   12.83092500
_cell_length_b   9.97003600
_cell_length_c   19.57496192
_cell_angle_alpha   65.75344745
_cell_angle_beta   90.00000000
_cell_angle_gamma   90.00000000
_symmetry_Int_Tables_number   1
_chemical_formula_structural   Tl3Cr2(PS4)3
_chemical_formula_sum   'Tl12 Cr8 P12 S48'
_cell_volume   2283.22598138
_cell_formula_units_Z   4
loop_
 _symmetry_equiv_pos_site_id
 _symmetry_equiv_pos_as_xyz
  1  'x, y, z'
loop_
 _atom_site_type_symbol
 _atom_site_label
 _atom_site_symmetry_multiplicity
 _atom_site_fract_x
 _atom_site_fract_y
 _atom_site_fract_z
 _atom_site_occupancy
  Tl  Tl0  1  0.92041800  0.80721700  0.63919800  1
  Tl  Tl1  1  0.07958200  0.19278300  0.36080200  1
  Tl  Tl2  1  0.42041800  0.19278300  0.86080200  1
  Tl  Tl3  1  0.57958200  0.80721700  0.13919800  1
  Tl  Tl4  1  0.92488100  0.78889700  0.95220600  1
  Tl  Tl5  1  0.07511900  0.21110300  0.04779400  1
  Tl  Tl6  1  0.42488100  0.21110300  0.54779400  1
  Tl  Tl7  1  0.57511900  0.78889700  0.45220600  1
  Tl  Tl8  1  0.12721800  0.30171800  0.70166000  1
  Tl  Tl9  1  0.87278200  0.69828200  0.29834000  1
  Tl  Tl10  1  0.62721800  0.69828200  0.79834000  1
  Tl  Tl11  1  0.37278200  0.30171800  0.20166000  1
  Cr  Cr12  1  0.27838800  0.70704100  0.89909600  1
  Cr  Cr13  1  0.72161200  0.29295900  0.10090400  1
  Cr  Cr14  1  0.77838800  0.29295900  0.60090400  1
  Cr  Cr15  1  0.22161200  0.70704100  0.39909600  1
  Cr  Cr16  1  0.26815600  0.71582500  0.71187300  1
  Cr  Cr17  1  0.73184400  0.28417500  0.28812700  1
  Cr  Cr18  1  0.76815600  0.28417500  0.78812700  1
  Cr  Cr19  1  0.23184400  0.71582500  0.21187300  1
  P  P20  1  0.24095400  0.72088100  0.55404500  1
  P  P21  1  0.75904600  0.27911900  0.44595500  1
  P  P22  1  0.74095400  0.27911900  0.94595500  1
  P  P23  1  0.25904600  0.72088100  0.05404500  1
  P  P24  1  0.36326200  0.96202200  0.75291200  1
  P  P25  1  0.63673800  0.03797800  0.24708800  1
  P  P26  1  0.86326200  0.03797800  0.74708800  1
  P  P27  1  0.13673800  0.96202200  0.25291200  1
  P  P28  1  0.18418200  0.45648600  0.85805600  1
  P  P29  1  0.81581800  0.54351400  0.14194400  1
  P  P30  1  0.68418200  0.54351400  0.64194400  1
  P  P31  1  0.31581800  0.45648600  0.35805600  1
  S  S32  1  0.13846000  0.60069700  0.52108000  1
  S  S33  1  0.86154000  0.39930300  0.47892000  1
  S  S34  1  0.63846000  0.39930300  0.97892000  1
  S  S35  1  0.36154000  0.60069700  0.02108000  1
  S  S36  1  0.21193300  0.87200900  0.77440600  1
  S  S37  1  0.78806700  0.12799100  0.22559400  1
  S  S38  1  0.71193300  0.12799100  0.72559400  1
  S  S39  1  0.28806700  0.87200900  0.27440600  1
  S  S40  1  0.67888100  0.76207600  0.60514800  1
  S  S41  1  0.32111900  0.23792400  0.39485200  1
  S  S42  1  0.17888100  0.23792400  0.89485200  1
  S  S43  1  0.82111900  0.76207600  0.10514800  1
  S  S44  1  0.42888300  0.86751400  0.85818100  1
  S  S45  1  0.57111700  0.13248600  0.14181900  1
  S  S46  1  0.92888300  0.13248600  0.64181900  1
  S  S47  1  0.07111700  0.86751400  0.35818100  1
  S  S48  1  0.42175200  0.87173200  0.68362700  1
  S  S49  1  0.57824800  0.12826800  0.31637300  1
  S  S50  1  0.92175200  0.12826800  0.81637300  1
  S  S51  1  0.07824800  0.87173200  0.18362700  1
  S  S52  1  0.13148500  0.54277100  0.93028300  1
  S  S53  1  0.86851500  0.45722900  0.06971700  1
  S  S54  1  0.63148500  0.45722900  0.56971700  1
  S  S55  1  0.36851500  0.54277100  0.43028300  1
  S  S56  1  0.33635600  0.54756200  0.83622600  1
  S  S57  1  0.66364400  0.45243800  0.16377400  1
  S  S58  1  0.83635600  0.45243800  0.66377400  1
  S  S59  1  0.16364400  0.54756200  0.33622600  1
  S  S60  1  0.33691100  0.59078400  0.63943500  1
  S  S61  1  0.66308900  0.40921600  0.36056500  1
  S  S62  1  0.83691100  0.40921600  0.86056500  1
  S  S63  1  0.16308900  0.59078400  0.13943500  1
  S  S64  1  0.86849400  0.81692600  0.79069100  1
  S  S65  1  0.13150600  0.18307400  0.20930900  1
  S  S66  1  0.36849400  0.18307400  0.70930900  1
  S  S67  1  0.63150600  0.81692600  0.29069100  1
  S  S68  1  0.17671300  0.85648000  0.59817700  1
  S  S69  1  0.82328700  0.14352000  0.40182300  1
  S  S70  1  0.67671300  0.14352000  0.90182300  1
  S  S71  1  0.32328700  0.85648000  0.09817700  1
  S  S72  1  0.18611000  0.84496700  0.95439600  1
  S  S73  1  0.81389000  0.15503300  0.04560400  1
  S  S74  1  0.68611000  0.15503300  0.54560400  1
  S  S75  1  0.31389000  0.84496700  0.45439600  1
  S  S76  1  0.11684500  0.56287000  0.75356700  1
  S  S77  1  0.88315500  0.43713000  0.24643300  1
  S  S78  1  0.61684500  0.43713000  0.74643300  1
  S  S79  1  0.38315500  0.56287000  0.25356700  1
