# generated using pymatgen
data_Sm11(Fe2C3)6
_symmetry_space_group_name_H-M   'P 1'
_cell_length_a   8.95424715
_cell_length_b   8.95424715
_cell_length_c   8.95424715
_cell_angle_alpha   109.47122063
_cell_angle_beta   109.47122063
_cell_angle_gamma   109.47122063
_symmetry_Int_Tables_number   1
_chemical_formula_structural   Sm11(Fe2C3)6
_chemical_formula_sum   'Sm11 Fe12 C18'
_cell_volume   552.66929988
_cell_formula_units_Z   1
loop_
 _symmetry_equiv_pos_site_id
 _symmetry_equiv_pos_as_xyz
  1  'x, y, z'
loop_
 _atom_site_type_symbol
 _atom_site_label
 _atom_site_symmetry_multiplicity
 _atom_site_fract_x
 _atom_site_fract_y
 _atom_site_fract_z
 _atom_site_occupancy
  Sm  Sm0  1  0.25000000  0.75000000  0.50000000  1
  Sm  Sm1  1  0.75000000  0.25000000  0.50000000  1
  Sm  Sm2  1  0.75000000  0.50000000  0.25000000  1
  Sm  Sm3  1  0.25000000  0.50000000  0.75000000  1
  Sm  Sm4  1  0.50000000  0.25000000  0.75000000  1
  Sm  Sm5  1  0.50000000  0.75000000  0.25000000  1
  Sm  Sm6  1  0.40708200  0.40708200  0.40708200  1
  Sm  Sm7  1  0.59291800  0.00000000  0.00000000  1
  Sm  Sm8  1  0.00000000  0.59291800  0.00000000  1
  Sm  Sm9  1  0.00000000  0.00000000  0.59291800  1
  Sm  Sm10  1  0.00000000  0.00000000  0.00000000  1
  Fe  Fe11  1  0.84037100  0.64182800  0.64182800  1
  Fe  Fe12  1  0.15962900  0.80145800  0.80145800  1
  Fe  Fe13  1  0.00000000  0.35817200  0.19854200  1
  Fe  Fe14  1  0.64182800  0.64182800  0.84037100  1
  Fe  Fe15  1  0.00000000  0.19854200  0.35817200  1
  Fe  Fe16  1  0.80145800  0.80145800  0.15962900  1
  Fe  Fe17  1  0.35817200  0.19854200  0.00000000  1
  Fe  Fe18  1  0.19854200  0.35817200  0.00000000  1
  Fe  Fe19  1  0.64182800  0.84037100  0.64182800  1
  Fe  Fe20  1  0.19854200  0.00000000  0.35817200  1
  Fe  Fe21  1  0.35817200  0.00000000  0.19854200  1
  Fe  Fe22  1  0.80145800  0.15962900  0.80145800  1
  C  C23  1  0.56913200  0.56913200  0.00000000  1
  C  C24  1  0.43086800  0.43086800  0.00000000  1
  C  C25  1  0.56913200  0.00000000  0.56913200  1
  C  C26  1  0.43086800  0.00000000  0.43086800  1
  C  C27  1  0.00000000  0.56913200  0.56913200  1
  C  C28  1  0.00000000  0.43086800  0.43086800  1
  C  C29  1  0.50073900  0.70578900  0.70578900  1
  C  C30  1  0.49926100  0.20505000  0.20505000  1
  C  C31  1  0.00000000  0.29421100  0.79495000  1
  C  C32  1  0.70578900  0.70578900  0.50073900  1
  C  C33  1  0.00000000  0.79495000  0.29421100  1
  C  C34  1  0.20505000  0.20505000  0.49926100  1
  C  C35  1  0.29421100  0.79495000  0.00000000  1
  C  C36  1  0.79495000  0.29421100  0.00000000  1
  C  C37  1  0.70578900  0.50073900  0.70578900  1
  C  C38  1  0.79495000  0.00000000  0.29421100  1
  C  C39  1  0.29421100  0.00000000  0.79495000  1
  C  C40  1  0.20505000  0.49926100  0.20505000  1
