# generated using pymatgen
data_CsSO4
_symmetry_space_group_name_H-M   'P 1'
_cell_length_a   5.99040400
_cell_length_b   5.55748700
_cell_length_c   7.43560174
_cell_angle_alpha   77.16282951
_cell_angle_beta   90.00000000
_cell_angle_gamma   90.00000000
_symmetry_Int_Tables_number   1
_chemical_formula_structural   CsSO4
_chemical_formula_sum   'Cs2 S2 O8'
_cell_volume   241.35578826
_cell_formula_units_Z   2
loop_
 _symmetry_equiv_pos_site_id
 _symmetry_equiv_pos_as_xyz
  1  'x, y, z'
loop_
 _atom_site_type_symbol
 _atom_site_label
 _atom_site_symmetry_multiplicity
 _atom_site_fract_x
 _atom_site_fract_y
 _atom_site_fract_z
 _atom_site_occupancy
  Cs  Cs0  1  0.75000000  0.46830400  0.22893800  1
  Cs  Cs1  1  0.25000000  0.53169600  0.77106200  1
  S  S2  1  0.75000000  0.04820000  0.73597700  1
  S  S3  1  0.25000000  0.95180000  0.26402300  1
  O  O4  1  0.75000000  0.77854300  0.80468200  1
  O  O5  1  0.25000000  0.22145700  0.19531800  1
  O  O6  1  0.75000000  0.18000100  0.89016100  1
  O  O7  1  0.25000000  0.81999900  0.10983900  1
  O  O8  1  0.95646500  0.13031800  0.62632900  1
  O  O9  1  0.04353500  0.86968200  0.37367100  1
  O  O10  1  0.45646500  0.86968200  0.37367100  1
  O  O11  1  0.54353500  0.13031800  0.62632900  1
