# generated using pymatgen
data_K2YCl5
_symmetry_space_group_name_H-M   'P 1'
_cell_length_a   8.05714200
_cell_length_b   8.55967200
_cell_length_c   13.05233000
_cell_angle_alpha   90.00000000
_cell_angle_beta   90.00000000
_cell_angle_gamma   90.00000000
_symmetry_Int_Tables_number   1
_chemical_formula_structural   K2YCl5
_chemical_formula_sum   'K8 Y4 Cl20'
_cell_volume   900.17342267
_cell_formula_units_Z   4
loop_
 _symmetry_equiv_pos_site_id
 _symmetry_equiv_pos_as_xyz
  1  'x, y, z'
loop_
 _atom_site_type_symbol
 _atom_site_label
 _atom_site_symmetry_multiplicity
 _atom_site_fract_x
 _atom_site_fract_y
 _atom_site_fract_z
 _atom_site_occupancy
  K  K0  1  0.53362100  0.50015100  0.82596700  1
  K  K1  1  0.46637900  0.49984900  0.17403300  1
  K  K2  1  0.03362100  0.49984900  0.67403300  1
  K  K3  1  0.46637900  0.00015100  0.17403300  1
  K  K4  1  0.96637900  0.50015100  0.32596700  1
  K  K5  1  0.53362100  0.99984900  0.82596700  1
  K  K6  1  0.96637900  0.99984900  0.32596700  1
  K  K7  1  0.03362100  0.00015100  0.67403300  1
  Y  Y8  1  0.57332000  0.75000000  0.50239300  1
  Y  Y9  1  0.42668000  0.25000000  0.49760700  1
  Y  Y10  1  0.07332000  0.25000000  0.99760700  1
  Y  Y11  1  0.92668000  0.75000000  0.00239300  1
  Cl  Cl12  1  0.83076800  0.75000000  0.80439400  1
  Cl  Cl13  1  0.16923200  0.25000000  0.19560600  1
  Cl  Cl14  1  0.33076800  0.25000000  0.69560600  1
  Cl  Cl15  1  0.66923200  0.75000000  0.30439400  1
  Cl  Cl16  1  0.36579500  0.75000000  0.66438900  1
  Cl  Cl17  1  0.63420500  0.25000000  0.33561100  1
  Cl  Cl18  1  0.86579500  0.25000000  0.83561100  1
  Cl  Cl19  1  0.13420500  0.75000000  0.16438900  1
  Cl  Cl20  1  0.91100600  0.75000000  0.51304200  1
  Cl  Cl21  1  0.08899400  0.25000000  0.48695800  1
  Cl  Cl22  1  0.41100600  0.25000000  0.98695800  1
  Cl  Cl23  1  0.58899400  0.75000000  0.01304200  1
  Cl  Cl24  1  0.65369900  0.04032500  0.58011700  1
  Cl  Cl25  1  0.34630100  0.95967500  0.41988300  1
  Cl  Cl26  1  0.15369900  0.95967500  0.91988300  1
  Cl  Cl27  1  0.34630100  0.54032500  0.41988300  1
  Cl  Cl28  1  0.84630100  0.04032500  0.08011700  1
  Cl  Cl29  1  0.65369900  0.45967500  0.58011700  1
  Cl  Cl30  1  0.84630100  0.45967500  0.08011700  1
  Cl  Cl31  1  0.15369900  0.54032500  0.91988300  1
