# generated using pymatgen
data_La2BiN
_symmetry_space_group_name_H-M   'P 1'
_cell_length_a   4.83795000
_cell_length_b   4.83795000
_cell_length_c   9.52184200
_cell_angle_alpha   90.00000000
_cell_angle_beta   90.00000000
_cell_angle_gamma   90.00000000
_symmetry_Int_Tables_number   1
_chemical_formula_structural   La2BiN
_chemical_formula_sum   'La4 Bi2 N2'
_cell_volume   222.86595054
_cell_formula_units_Z   2
loop_
 _symmetry_equiv_pos_site_id
 _symmetry_equiv_pos_as_xyz
  1  'x, y, z'
loop_
 _atom_site_type_symbol
 _atom_site_label
 _atom_site_symmetry_multiplicity
 _atom_site_fract_x
 _atom_site_fract_y
 _atom_site_fract_z
 _atom_site_occupancy
  La  La0  1  0.00000000  0.00000000  0.00000000  1
  La  La1  1  0.50000000  0.50000000  0.00000000  1
  La  La2  1  0.00000000  0.50000000  0.67498200  1
  La  La3  1  0.50000000  0.00000000  0.32501800  1
  Bi  Bi4  1  0.00000000  0.50000000  0.30196300  1
  Bi  Bi5  1  0.50000000  0.00000000  0.69803700  1
  N  N6  1  0.00000000  0.50000000  0.91245600  1
  N  N7  1  0.50000000  0.00000000  0.08754400  1
