# generated using pymatgen
data_Ba5P3O12F
_symmetry_space_group_name_H-M   'P 1'
_cell_length_a   10.31524816
_cell_length_b   10.31524816
_cell_length_c   7.83784400
_cell_angle_alpha   90.00000000
_cell_angle_beta   90.00000000
_cell_angle_gamma   120.00000103
_symmetry_Int_Tables_number   1
_chemical_formula_structural   Ba5P3O12F
_chemical_formula_sum   'Ba10 P6 O24 F2'
_cell_volume   722.24842516
_cell_formula_units_Z   2
loop_
 _symmetry_equiv_pos_site_id
 _symmetry_equiv_pos_as_xyz
  1  'x, y, z'
loop_
 _atom_site_type_symbol
 _atom_site_label
 _atom_site_symmetry_multiplicity
 _atom_site_fract_x
 _atom_site_fract_y
 _atom_site_fract_z
 _atom_site_occupancy
  Ba  Ba0  1  0.33333300  0.66666700  0.99889300  1
  Ba  Ba1  1  0.66666700  0.33333300  0.49889300  1
  Ba  Ba2  1  0.66666700  0.33333300  0.00114800  1
  Ba  Ba3  1  0.33333300  0.66666700  0.50114800  1
  Ba  Ba4  1  0.75964300  0.74130100  0.75001400  1
  Ba  Ba5  1  0.98165800  0.24035700  0.75001400  1
  Ba  Ba6  1  0.25869900  0.01834200  0.75001400  1
  Ba  Ba7  1  0.24035700  0.25869900  0.25001400  1
  Ba  Ba8  1  0.01834200  0.75964300  0.25001400  1
  Ba  Ba9  1  0.74130100  0.98165800  0.25001400  1
  P  P10  1  0.59821500  0.96768500  0.74988300  1
  P  P11  1  0.36947000  0.40178500  0.74988300  1
  P  P12  1  0.03231500  0.63053000  0.74988300  1
  P  P13  1  0.40178500  0.03231500  0.24988300  1
  P  P14  1  0.63053000  0.59821500  0.24988300  1
  P  P15  1  0.96768500  0.36947000  0.24988300  1
  O  O16  1  0.65933500  0.14018800  0.74999200  1
  O  O17  1  0.48085300  0.34066500  0.74999200  1
  O  O18  1  0.85981200  0.51914700  0.74999200  1
  O  O19  1  0.34066500  0.85981200  0.24999200  1
  O  O20  1  0.51914700  0.65933500  0.24999200  1
  O  O21  1  0.14018800  0.48085300  0.24999200  1
  O  O22  1  0.42328100  0.88230400  0.75013100  1
  O  O23  1  0.45902300  0.57671900  0.75013100  1
  O  O24  1  0.11769600  0.54097700  0.75013100  1
  O  O25  1  0.57671900  0.11769600  0.25013100  1
  O  O26  1  0.54097700  0.42328100  0.25013100  1
  O  O27  1  0.88230400  0.45902300  0.25013100  1
  O  O28  1  0.65354100  0.92105300  0.91131000  1
  O  O29  1  0.26751200  0.34645900  0.91131000  1
  O  O30  1  0.07894700  0.73248800  0.91131000  1
  O  O31  1  0.34645900  0.07894700  0.41131000  1
  O  O32  1  0.73248800  0.65354100  0.41131000  1
  O  O33  1  0.92105300  0.26751200  0.41131000  1
  O  O34  1  0.34703400  0.07921600  0.08846600  1
  O  O35  1  0.73218200  0.65296600  0.08846600  1
  O  O36  1  0.92078400  0.26781800  0.08846600  1
  O  O37  1  0.65296600  0.92078400  0.58846600  1
  O  O38  1  0.26781800  0.34703400  0.58846600  1
  O  O39  1  0.07921600  0.73218200  0.58846600  1
  F  F40  1  0.00000000  0.00000000  0.71938100  1
  F  F41  1  0.00000000  0.00000000  0.21938100  1
