# generated using pymatgen
data_RbOs2O9
_symmetry_space_group_name_H-M   'P 1'
_cell_length_a   5.89453600
_cell_length_b   10.67904500
_cell_length_c   13.53350000
_cell_angle_alpha   90.00000000
_cell_angle_beta   90.00000000
_cell_angle_gamma   90.00000000
_symmetry_Int_Tables_number   1
_chemical_formula_structural   RbOs2O9
_chemical_formula_sum   'Rb4 Os8 O36'
_cell_volume   851.90696368
_cell_formula_units_Z   4
loop_
 _symmetry_equiv_pos_site_id
 _symmetry_equiv_pos_as_xyz
  1  'x, y, z'
loop_
 _atom_site_type_symbol
 _atom_site_label
 _atom_site_symmetry_multiplicity
 _atom_site_fract_x
 _atom_site_fract_y
 _atom_site_fract_z
 _atom_site_occupancy
  Rb  Rb0  1  0.25312600  0.61710400  0.82955800  1
  Rb  Rb1  1  0.74687400  0.38289600  0.32955800  1
  Rb  Rb2  1  0.75312600  0.88289600  0.32955800  1
  Rb  Rb3  1  0.24687400  0.11710400  0.82955800  1
  Os  Os4  1  0.18954900  0.60111500  0.49487300  1
  Os  Os5  1  0.81045100  0.39888500  0.99487300  1
  Os  Os6  1  0.68954900  0.89888500  0.99487300  1
  Os  Os7  1  0.31045100  0.10111500  0.49487300  1
  Os  Os8  1  0.29030600  0.68635900  0.17938600  1
  Os  Os9  1  0.70969400  0.31364100  0.67938600  1
  Os  Os10  1  0.79030600  0.81364100  0.67938600  1
  Os  Os11  1  0.20969400  0.18635900  0.17938600  1
  O  O12  1  0.26486800  0.84875800  0.18987600  1
  O  O13  1  0.73513200  0.15124200  0.68987600  1
  O  O14  1  0.76486800  0.65124200  0.68987600  1
  O  O15  1  0.23513200  0.34875800  0.18987600  1
  O  O16  1  0.49325700  0.61820100  0.25529900  1
  O  O17  1  0.50674300  0.38179900  0.75529900  1
  O  O18  1  0.99325700  0.88179900  0.75529900  1
  O  O19  1  0.00674300  0.11820100  0.25529900  1
  O  O20  1  0.41475500  0.86552400  0.95581300  1
  O  O21  1  0.58524500  0.13447600  0.45581300  1
  O  O22  1  0.91475500  0.63447600  0.45581300  1
  O  O23  1  0.08524500  0.36552400  0.95581300  1
  O  O24  1  0.39193800  0.71125400  0.46140900  1
  O  O25  1  0.60806200  0.28874600  0.96140900  1
  O  O26  1  0.89193800  0.78874600  0.96140900  1
  O  O27  1  0.10806200  0.21125400  0.46140900  1
  O  O28  1  0.25794900  0.61820000  0.06357200  1
  O  O29  1  0.74205100  0.38180000  0.56357200  1
  O  O30  1  0.75794900  0.88180000  0.56357200  1
  O  O31  1  0.24205100  0.11820000  0.06357200  1
  O  O32  1  0.24294000  0.97669000  0.41622300  1
  O  O33  1  0.75706000  0.02331000  0.91622300  1
  O  O34  1  0.74294000  0.52331000  0.91622300  1
  O  O35  1  0.25706000  0.47669000  0.41622300  1
  O  O36  1  0.54236800  0.85988800  0.73945800  1
  O  O37  1  0.45763200  0.14011200  0.23945800  1
  O  O38  1  0.04236800  0.64011200  0.23945800  1
  O  O39  1  0.95763200  0.35988800  0.73945800  1
  O  O40  1  0.22675300  0.52872000  0.60969500  1
  O  O41  1  0.77324700  0.47128000  0.10969500  1
  O  O42  1  0.72675300  0.97128000  0.10969500  1
  O  O43  1  0.27324700  0.02872000  0.60969500  1
  O  O44  1  0.11389800  0.74257000  0.60923900  1
  O  O45  1  0.88610200  0.25743000  0.10923900  1
  O  O46  1  0.61389800  0.75743000  0.10923900  1
  O  O47  1  0.38610200  0.24257000  0.60923900  1
