# generated using pymatgen
data_RbTaV2O8
_symmetry_space_group_name_H-M   'P 1'
_cell_length_a   5.68633500
_cell_length_b   9.20923300
_cell_length_c   15.20270800
_cell_angle_alpha   90.00000000
_cell_angle_beta   90.00000000
_cell_angle_gamma   90.00000000
_symmetry_Int_Tables_number   1
_chemical_formula_structural   RbTaV2O8
_chemical_formula_sum   'Rb4 Ta4 V8 O32'
_cell_volume   796.11692500
_cell_formula_units_Z   4
loop_
 _symmetry_equiv_pos_site_id
 _symmetry_equiv_pos_as_xyz
  1  'x, y, z'
loop_
 _atom_site_type_symbol
 _atom_site_label
 _atom_site_symmetry_multiplicity
 _atom_site_fract_x
 _atom_site_fract_y
 _atom_site_fract_z
 _atom_site_occupancy
  Rb  Rb0  1  0.25000000  0.44754300  0.61379400  1
  Rb  Rb1  1  0.25000000  0.05245700  0.11379400  1
  Rb  Rb2  1  0.75000000  0.55245700  0.38620600  1
  Rb  Rb3  1  0.75000000  0.94754300  0.88620600  1
  Ta  Ta4  1  0.25000000  0.99596100  0.65878900  1
  Ta  Ta5  1  0.25000000  0.50403900  0.15878900  1
  Ta  Ta6  1  0.75000000  0.00403900  0.34121100  1
  Ta  Ta7  1  0.75000000  0.49596100  0.84121100  1
  V  V8  1  0.25000000  0.24735900  0.83792600  1
  V  V9  1  0.25000000  0.25264100  0.33792600  1
  V  V10  1  0.75000000  0.75264100  0.16207400  1
  V  V11  1  0.75000000  0.74735900  0.66207400  1
  V  V12  1  0.25000000  0.81936600  0.43835900  1
  V  V13  1  0.25000000  0.68063400  0.93835900  1
  V  V14  1  0.75000000  0.18063400  0.56164100  1
  V  V15  1  0.75000000  0.31936600  0.06164100  1
  O  O16  1  0.99728900  0.35080900  0.80939200  1
  O  O17  1  0.50271100  0.14919100  0.30939200  1
  O  O18  1  0.49728900  0.64919100  0.19060800  1
  O  O19  1  0.00271100  0.85080900  0.69060800  1
  O  O20  1  0.00271100  0.64919100  0.19060800  1
  O  O21  1  0.49728900  0.85080900  0.69060800  1
  O  O22  1  0.50271100  0.35080900  0.80939200  1
  O  O23  1  0.99728900  0.14919100  0.30939200  1
  O  O24  1  0.99612500  0.86132600  0.37448900  1
  O  O25  1  0.50387500  0.63867400  0.87448900  1
  O  O26  1  0.49612500  0.13867400  0.62551100  1
  O  O27  1  0.00387500  0.36132600  0.12551100  1
  O  O28  1  0.00387500  0.13867400  0.62551100  1
  O  O29  1  0.49612500  0.36132600  0.12551100  1
  O  O30  1  0.50387500  0.86132600  0.37448900  1
  O  O31  1  0.99612500  0.63867400  0.87448900  1
  O  O32  1  0.25000000  0.07720500  0.78038900  1
  O  O33  1  0.25000000  0.42279500  0.28038900  1
  O  O34  1  0.75000000  0.92279500  0.21961100  1
  O  O35  1  0.75000000  0.57720500  0.71961100  1
  O  O36  1  0.25000000  0.92102700  0.53666600  1
  O  O37  1  0.25000000  0.57897300  0.03666600  1
  O  O38  1  0.75000000  0.07897300  0.46333400  1
  O  O39  1  0.75000000  0.42102700  0.96333400  1
  O  O40  1  0.25000000  0.21370500  0.94393200  1
  O  O41  1  0.25000000  0.28629500  0.44393200  1
  O  O42  1  0.75000000  0.78629500  0.05606800  1
  O  O43  1  0.75000000  0.71370500  0.55606800  1
  O  O44  1  0.25000000  0.64346500  0.45958900  1
  O  O45  1  0.25000000  0.85653500  0.95958900  1
  O  O46  1  0.75000000  0.35653500  0.54041100  1
  O  O47  1  0.75000000  0.14346500  0.04041100  1
