# generated using pymatgen
data_Ho2SiO5
_symmetry_space_group_name_H-M   'P 1'
_cell_length_a   6.84756500
_cell_length_b   6.72373200
_cell_length_c   9.12353373
_cell_angle_alpha   74.76505627
_cell_angle_beta   90.00000000
_cell_angle_gamma   90.00000000
_symmetry_Int_Tables_number   1
_chemical_formula_structural   Ho2SiO5
_chemical_formula_sum   'Ho8 Si4 O20'
_cell_volume   405.29600829
_cell_formula_units_Z   4
loop_
 _symmetry_equiv_pos_site_id
 _symmetry_equiv_pos_as_xyz
  1  'x, y, z'
loop_
 _atom_site_type_symbol
 _atom_site_label
 _atom_site_symmetry_multiplicity
 _atom_site_fract_x
 _atom_site_fract_y
 _atom_site_fract_z
 _atom_site_occupancy
  Ho  Ho0  1  0.12375700  0.73138600  0.47063600  1
  Ho  Ho1  1  0.62375700  0.76861400  0.52936400  1
  Ho  Ho2  1  0.87624300  0.26861400  0.52936400  1
  Ho  Ho3  1  0.37624300  0.23138600  0.47063600  1
  Ho  Ho4  1  0.63928100  0.95119700  0.86984500  1
  Ho  Ho5  1  0.13928100  0.54880300  0.13015500  1
  Ho  Ho6  1  0.36071900  0.04880300  0.13015500  1
  Ho  Ho7  1  0.86071900  0.45119700  0.86984500  1
  Si  Si8  1  0.09064400  0.97821500  0.79920100  1
  Si  Si9  1  0.59064400  0.52178500  0.20079900  1
  Si  Si10  1  0.90935600  0.02178500  0.20079900  1
  Si  Si11  1  0.40935600  0.47821500  0.79920100  1
  O  O12  1  0.88062800  0.56292100  0.61245500  1
  O  O13  1  0.38062800  0.93707900  0.38754500  1
  O  O14  1  0.11937200  0.43707900  0.38754500  1
  O  O15  1  0.61937200  0.06292100  0.61245500  1
  O  O16  1  0.28634500  0.98372800  0.89632900  1
  O  O17  1  0.78634500  0.51627200  0.10367100  1
  O  O18  1  0.71365500  0.01627200  0.10367100  1
  O  O19  1  0.21365500  0.48372800  0.89632900  1
  O  O20  1  0.13750400  0.01313400  0.61463700  1
  O  O21  1  0.63750400  0.48686600  0.38536300  1
  O  O22  1  0.86249600  0.98686600  0.38536300  1
  O  O23  1  0.36249600  0.51313400  0.61463700  1
  O  O24  1  0.57003900  0.66845800  0.79070700  1
  O  O25  1  0.07003900  0.83154200  0.20929300  1
  O  O26  1  0.42996100  0.33154200  0.20929300  1
  O  O27  1  0.92996100  0.16845800  0.79070700  1
  O  O28  1  0.55362100  0.28193300  0.87073000  1
  O  O29  1  0.05362100  0.21806700  0.12927000  1
  O  O30  1  0.44637900  0.71806700  0.12927000  1
  O  O31  1  0.94637900  0.78193300  0.87073000  1
