# generated using pymatgen
data_LuGe2Os
_symmetry_space_group_name_H-M   'P 1'
_cell_length_a   8.35533500
_cell_length_b   9.63303000
_cell_length_c   10.55251900
_cell_angle_alpha   90.00000000
_cell_angle_beta   90.00000000
_cell_angle_gamma   90.00000000
_symmetry_Int_Tables_number   1
_chemical_formula_structural   LuGe2Os
_chemical_formula_sum   'Lu12 Ge24 Os12'
_cell_volume   849.34263038
_cell_formula_units_Z   12
loop_
 _symmetry_equiv_pos_site_id
 _symmetry_equiv_pos_as_xyz
  1  'x, y, z'
loop_
 _atom_site_type_symbol
 _atom_site_label
 _atom_site_symmetry_multiplicity
 _atom_site_fract_x
 _atom_site_fract_y
 _atom_site_fract_z
 _atom_site_occupancy
  Lu  Lu0  1  0.24559800  0.82256100  0.44965300  1
  Lu  Lu1  1  0.24559800  0.17743900  0.55034700  1
  Lu  Lu2  1  0.75440200  0.32256100  0.05034700  1
  Lu  Lu3  1  0.75440200  0.67743900  0.94965300  1
  Lu  Lu4  1  0.75440200  0.17743900  0.55034700  1
  Lu  Lu5  1  0.75440200  0.82256100  0.44965300  1
  Lu  Lu6  1  0.24559800  0.67743900  0.94965300  1
  Lu  Lu7  1  0.24559800  0.32256100  0.05034700  1
  Lu  Lu8  1  0.00000000  0.83549800  0.17710900  1
  Lu  Lu9  1  0.00000000  0.16450200  0.82289100  1
  Lu  Lu10  1  0.00000000  0.33549800  0.32289100  1
  Lu  Lu11  1  0.00000000  0.66450200  0.67710900  1
  Ge  Ge12  1  0.34747700  0.84276600  0.18003900  1
  Ge  Ge13  1  0.34747700  0.15723400  0.81996100  1
  Ge  Ge14  1  0.65252300  0.34276600  0.31996100  1
  Ge  Ge15  1  0.65252300  0.65723400  0.68003900  1
  Ge  Ge16  1  0.65252300  0.15723400  0.81996100  1
  Ge  Ge17  1  0.65252300  0.84276600  0.18003900  1
  Ge  Ge18  1  0.34747700  0.65723400  0.68003900  1
  Ge  Ge19  1  0.34747700  0.34276600  0.31996100  1
  Ge  Ge20  1  0.50000000  0.54760000  0.11694100  1
  Ge  Ge21  1  0.50000000  0.45240000  0.88305900  1
  Ge  Ge22  1  0.50000000  0.04760000  0.38305900  1
  Ge  Ge23  1  0.50000000  0.95240000  0.61694100  1
  Ge  Ge24  1  0.00000000  0.53599900  0.11785100  1
  Ge  Ge25  1  0.00000000  0.46400100  0.88214900  1
  Ge  Ge26  1  0.00000000  0.03599900  0.38214900  1
  Ge  Ge27  1  0.00000000  0.96400100  0.61785100  1
  Ge  Ge28  1  0.50000000  0.62754200  0.40469600  1
  Ge  Ge29  1  0.50000000  0.37245800  0.59530400  1
  Ge  Ge30  1  0.50000000  0.12754200  0.09530400  1
  Ge  Ge31  1  0.50000000  0.87245800  0.90469600  1
  Ge  Ge32  1  0.00000000  0.63089900  0.39992300  1
  Ge  Ge33  1  0.00000000  0.36910100  0.60007700  1
  Ge  Ge34  1  0.00000000  0.13089900  0.10007700  1
  Ge  Ge35  1  0.00000000  0.86910100  0.89992300  1
  Os  Os36  1  0.24986000  0.58950300  0.23641300  1
  Os  Os37  1  0.24986000  0.41049700  0.76358700  1
  Os  Os38  1  0.75014000  0.08950300  0.26358700  1
  Os  Os39  1  0.75014000  0.91049700  0.73641300  1
  Os  Os40  1  0.75014000  0.41049700  0.76358700  1
  Os  Os41  1  0.75014000  0.58950300  0.23641300  1
  Os  Os42  1  0.24986000  0.91049700  0.73641300  1
  Os  Os43  1  0.24986000  0.08950300  0.26358700  1
  Os  Os44  1  0.24831300  0.50000000  0.50000000  1
  Os  Os45  1  0.75168700  0.00000000  0.00000000  1
  Os  Os46  1  0.75168700  0.50000000  0.50000000  1
  Os  Os47  1  0.24831300  0.00000000  0.00000000  1
