# generated using pymatgen
data_Cs4PbCl6
_symmetry_space_group_name_H-M   'P 1'
_cell_length_a   9.60662321
_cell_length_b   9.60662321
_cell_length_c   9.60662314
_cell_angle_alpha   89.28584729
_cell_angle_beta   89.28584729
_cell_angle_gamma   89.28584231
_symmetry_Int_Tables_number   1
_chemical_formula_structural   Cs4PbCl6
_chemical_formula_sum   'Cs8 Pb2 Cl12'
_cell_volume   886.36354102
_cell_formula_units_Z   2
loop_
 _symmetry_equiv_pos_site_id
 _symmetry_equiv_pos_as_xyz
  1  'x, y, z'
loop_
 _atom_site_type_symbol
 _atom_site_label
 _atom_site_symmetry_multiplicity
 _atom_site_fract_x
 _atom_site_fract_y
 _atom_site_fract_z
 _atom_site_occupancy
  Cs  Cs0  1  0.25000000  0.25000000  0.25000000  1
  Cs  Cs1  1  0.75000000  0.75000000  0.75000000  1
  Cs  Cs2  1  0.87803200  0.62196800  0.25000000  1
  Cs  Cs3  1  0.25000000  0.87803200  0.62196800  1
  Cs  Cs4  1  0.62196800  0.25000000  0.87803200  1
  Cs  Cs5  1  0.75000000  0.12196800  0.37803200  1
  Cs  Cs6  1  0.37803200  0.75000000  0.12196800  1
  Cs  Cs7  1  0.12196800  0.37803200  0.75000000  1
  Pb  Pb8  1  0.50000000  0.50000000  0.50000000  1
  Pb  Pb9  1  0.00000000  0.00000000  0.00000000  1
  Cl  Cl10  1  0.21056700  0.55945100  0.42625800  1
  Cl  Cl11  1  0.42625800  0.21056700  0.55945100  1
  Cl  Cl12  1  0.55945100  0.42625800  0.21056700  1
  Cl  Cl13  1  0.92625800  0.05945100  0.71056700  1
  Cl  Cl14  1  0.71056700  0.92625800  0.05945100  1
  Cl  Cl15  1  0.05945100  0.71056700  0.92625800  1
  Cl  Cl16  1  0.78943300  0.44054900  0.57374200  1
  Cl  Cl17  1  0.57374200  0.78943300  0.44054900  1
  Cl  Cl18  1  0.44054900  0.57374200  0.78943300  1
  Cl  Cl19  1  0.07374200  0.94054900  0.28943300  1
  Cl  Cl20  1  0.28943300  0.07374200  0.94054900  1
  Cl  Cl21  1  0.94054900  0.28943300  0.07374200  1
