# generated using pymatgen
data_RbSm3F10
_symmetry_space_group_name_H-M   'P 1'
_cell_length_a   8.50045306
_cell_length_b   8.50045306
_cell_length_c   8.50045306
_cell_angle_alpha   60.00000000
_cell_angle_beta   60.00000000
_cell_angle_gamma   60.00000000
_symmetry_Int_Tables_number   1
_chemical_formula_structural   RbSm3F10
_chemical_formula_sum   'Rb2 Sm6 F20'
_cell_volume   434.32139371
_cell_formula_units_Z   2
loop_
 _symmetry_equiv_pos_site_id
 _symmetry_equiv_pos_as_xyz
  1  'x, y, z'
loop_
 _atom_site_type_symbol
 _atom_site_label
 _atom_site_symmetry_multiplicity
 _atom_site_fract_x
 _atom_site_fract_y
 _atom_site_fract_z
 _atom_site_occupancy
  Rb  Rb0  1  0.25000000  0.25000000  0.25000000  1
  Rb  Rb1  1  0.75000000  0.75000000  0.75000000  1
  Sm  Sm2  1  0.75988400  0.24011600  0.24011600  1
  Sm  Sm3  1  0.24011600  0.75988400  0.75988400  1
  Sm  Sm4  1  0.24011600  0.75988400  0.24011600  1
  Sm  Sm5  1  0.75988400  0.24011600  0.75988400  1
  Sm  Sm6  1  0.24011600  0.24011600  0.75988400  1
  Sm  Sm7  1  0.75988400  0.75988400  0.24011600  1
  F  F8  1  0.82976000  0.50000000  0.50000000  1
  F  F9  1  0.17024000  0.50000000  0.50000000  1
  F  F10  1  0.50000000  0.82976000  0.17024000  1
  F  F11  1  0.50000000  0.17024000  0.82976000  1
  F  F12  1  0.50000000  0.82976000  0.50000000  1
  F  F13  1  0.17024000  0.50000000  0.82976000  1
  F  F14  1  0.50000000  0.17024000  0.50000000  1
  F  F15  1  0.82976000  0.50000000  0.17024000  1
  F  F16  1  0.50000000  0.50000000  0.82976000  1
  F  F17  1  0.50000000  0.50000000  0.17024000  1
  F  F18  1  0.17024000  0.82976000  0.50000000  1
  F  F19  1  0.82976000  0.17024000  0.50000000  1
  F  F20  1  0.11069200  0.11069200  0.11069200  1
  F  F21  1  0.88930800  0.88930800  0.88930800  1
  F  F22  1  0.11069200  0.11069200  0.66792400  1
  F  F23  1  0.11069200  0.66792400  0.11069200  1
  F  F24  1  0.88930800  0.88930800  0.33207600  1
  F  F25  1  0.88930800  0.33207600  0.88930800  1
  F  F26  1  0.66792400  0.11069200  0.11069200  1
  F  F27  1  0.33207600  0.88930800  0.88930800  1
