# generated using pymatgen
data_K(CrS2)2
_symmetry_space_group_name_H-M   'P 1'
_cell_length_a   5.98618800
_cell_length_b   6.96562600
_cell_length_c   15.25518500
_cell_angle_alpha   90.00000000
_cell_angle_beta   90.00000000
_cell_angle_gamma   90.00000000
_symmetry_Int_Tables_number   1
_chemical_formula_structural   K(CrS2)2
_chemical_formula_sum   'K4 Cr8 S16'
_cell_volume   636.10379008
_cell_formula_units_Z   4
loop_
 _symmetry_equiv_pos_site_id
 _symmetry_equiv_pos_as_xyz
  1  'x, y, z'
loop_
 _atom_site_type_symbol
 _atom_site_label
 _atom_site_symmetry_multiplicity
 _atom_site_fract_x
 _atom_site_fract_y
 _atom_site_fract_z
 _atom_site_occupancy
  K  K0  1  0.33439700  0.00000000  0.00000000  1
  K  K1  1  0.66560300  0.50000000  0.50000000  1
  K  K2  1  0.03136800  0.00000000  0.50000000  1
  K  K3  1  0.96863200  0.50000000  0.00000000  1
  Cr  Cr4  1  0.00144500  0.00000000  0.24857200  1
  Cr  Cr5  1  0.00144500  0.00000000  0.75142800  1
  Cr  Cr6  1  0.99855500  0.50000000  0.25142800  1
  Cr  Cr7  1  0.99855500  0.50000000  0.74857200  1
  Cr  Cr8  1  0.50000000  0.25000000  0.25000000  1
  Cr  Cr9  1  0.50000000  0.75000000  0.75000000  1
  Cr  Cr10  1  0.50000000  0.75000000  0.25000000  1
  Cr  Cr11  1  0.50000000  0.25000000  0.75000000  1
  S  S12  1  0.83864600  0.24878300  0.33665400  1
  S  S13  1  0.83864600  0.75121700  0.66334600  1
  S  S14  1  0.16135400  0.74878300  0.16334600  1
  S  S15  1  0.16135400  0.25121700  0.83665400  1
  S  S16  1  0.16135400  0.25121700  0.16334600  1
  S  S17  1  0.16135400  0.74878300  0.83665400  1
  S  S18  1  0.83864600  0.75121700  0.33665400  1
  S  S19  1  0.83864600  0.24878300  0.66334600  1
  S  S20  1  0.66579400  0.00000000  0.16341600  1
  S  S21  1  0.66579400  0.00000000  0.83658400  1
  S  S22  1  0.33420600  0.50000000  0.33658400  1
  S  S23  1  0.33420600  0.50000000  0.66341600  1
  S  S24  1  0.34141900  0.00000000  0.33534900  1
  S  S25  1  0.34141900  0.00000000  0.66465100  1
  S  S26  1  0.65858100  0.50000000  0.16465100  1
  S  S27  1  0.65858100  0.50000000  0.83534900  1
