# generated using pymatgen
data_TlBr3
_symmetry_space_group_name_H-M   'P 1'
_cell_length_a   6.81623900
_cell_length_b   10.92477700
_cell_length_c   13.82735300
_cell_angle_alpha   90.00000000
_cell_angle_beta   90.00000000
_cell_angle_gamma   90.00000000
_symmetry_Int_Tables_number   1
_chemical_formula_structural   TlBr3
_chemical_formula_sum   'Tl4 Br12'
_cell_volume   1029.66616206
_cell_formula_units_Z   4
loop_
 _symmetry_equiv_pos_site_id
 _symmetry_equiv_pos_as_xyz
  1  'x, y, z'
loop_
 _atom_site_type_symbol
 _atom_site_label
 _atom_site_symmetry_multiplicity
 _atom_site_fract_x
 _atom_site_fract_y
 _atom_site_fract_z
 _atom_site_occupancy
  Tl  Tl0  1  0.66791200  0.25000000  0.74842400  1
  Tl  Tl1  1  0.83208800  0.25000000  0.24842400  1
  Tl  Tl2  1  0.33208800  0.75000000  0.25157600  1
  Tl  Tl3  1  0.16791200  0.75000000  0.75157600  1
  Br  Br4  1  0.83051500  0.25000000  0.58322700  1
  Br  Br5  1  0.66948500  0.25000000  0.08322700  1
  Br  Br6  1  0.16948500  0.75000000  0.41677300  1
  Br  Br7  1  0.33051500  0.75000000  0.91677300  1
  Br  Br8  1  0.57630200  0.44541700  0.83766500  1
  Br  Br9  1  0.92369800  0.05458300  0.33766500  1
  Br  Br10  1  0.42369800  0.94541700  0.16233500  1
  Br  Br11  1  0.07630200  0.55458300  0.66233500  1
  Br  Br12  1  0.42369800  0.55458300  0.16233500  1
  Br  Br13  1  0.07630200  0.94541700  0.66233500  1
  Br  Br14  1  0.57630200  0.05458300  0.83766500  1
  Br  Br15  1  0.92369800  0.44541700  0.33766500  1
