# generated using pymatgen
data_La(Cu2P)2
_symmetry_space_group_name_H-M   'P 1'
_cell_length_a   3.90380600
_cell_length_b   11.02134300
_cell_length_c   14.66882100
_cell_angle_alpha   90.00000000
_cell_angle_beta   90.00000000
_cell_angle_gamma   90.00000000
_symmetry_Int_Tables_number   1
_chemical_formula_structural   La(Cu2P)2
_chemical_formula_sum   'La6 Cu24 P12'
_cell_volume   631.12873625
_cell_formula_units_Z   6
loop_
 _symmetry_equiv_pos_site_id
 _symmetry_equiv_pos_as_xyz
  1  'x, y, z'
loop_
 _atom_site_type_symbol
 _atom_site_label
 _atom_site_symmetry_multiplicity
 _atom_site_fract_x
 _atom_site_fract_y
 _atom_site_fract_z
 _atom_site_occupancy
  La  La0  1  0.00000000  0.00000000  0.00000000  1
  La  La1  1  0.50000000  0.50000000  0.50000000  1
  La  La2  1  0.00000000  0.12197300  0.72708200  1
  La  La3  1  0.00000000  0.87802700  0.27291800  1
  La  La4  1  0.50000000  0.37802700  0.22708200  1
  La  La5  1  0.50000000  0.62197300  0.77291800  1
  Cu  Cu6  1  0.00000000  0.40191400  0.05261600  1
  Cu  Cu7  1  0.00000000  0.59808600  0.94738400  1
  Cu  Cu8  1  0.50000000  0.09808600  0.55261600  1
  Cu  Cu9  1  0.50000000  0.90191400  0.44738400  1
  Cu  Cu10  1  0.00000000  0.26395000  0.53602200  1
  Cu  Cu11  1  0.00000000  0.73605000  0.46397800  1
  Cu  Cu12  1  0.50000000  0.23605000  0.03602200  1
  Cu  Cu13  1  0.50000000  0.76395000  0.96397800  1
  Cu  Cu14  1  0.00000000  0.07017500  0.43728100  1
  Cu  Cu15  1  0.00000000  0.92982500  0.56271900  1
  Cu  Cu16  1  0.50000000  0.42982500  0.93728100  1
  Cu  Cu17  1  0.50000000  0.57017500  0.06271900  1
  Cu  Cu18  1  0.00000000  0.57658900  0.33152000  1
  Cu  Cu19  1  0.00000000  0.42341100  0.66848000  1
  Cu  Cu20  1  0.50000000  0.92341100  0.83152000  1
  Cu  Cu21  1  0.50000000  0.07658900  0.16848000  1
  Cu  Cu22  1  0.00000000  0.16961800  0.28473600  1
  Cu  Cu23  1  0.00000000  0.83038200  0.71526400  1
  Cu  Cu24  1  0.50000000  0.33038200  0.78473600  1
  Cu  Cu25  1  0.50000000  0.66961800  0.21526400  1
  Cu  Cu26  1  0.00000000  0.74234100  0.08719600  1
  Cu  Cu27  1  0.00000000  0.25765900  0.91280400  1
  Cu  Cu28  1  0.50000000  0.75765900  0.58719600  1
  Cu  Cu29  1  0.50000000  0.24234100  0.41280400  1
  P  P30  1  0.00000000  0.36425500  0.38572200  1
  P  P31  1  0.00000000  0.63574500  0.61427800  1
  P  P32  1  0.50000000  0.13574500  0.88572200  1
  P  P33  1  0.50000000  0.86425500  0.11427800  1
  P  P34  1  0.00000000  0.20827700  0.12858300  1
  P  P35  1  0.00000000  0.79172300  0.87141700  1
  P  P36  1  0.50000000  0.29172300  0.62858300  1
  P  P37  1  0.50000000  0.70827700  0.37141700  1
  P  P38  1  0.00000000  0.56132200  0.16540100  1
  P  P39  1  0.00000000  0.43867800  0.83459900  1
  P  P40  1  0.50000000  0.93867800  0.66540100  1
  P  P41  1  0.50000000  0.06132200  0.33459900  1
