# generated using pymatgen
data_Tb4CuPt3
_symmetry_space_group_name_H-M   'P 1'
_cell_length_a   4.55857900
_cell_length_b   5.57979900
_cell_length_c   7.02459780
_cell_angle_alpha   89.58665201
_cell_angle_beta   90.00000000
_cell_angle_gamma   90.00000000
_symmetry_Int_Tables_number   1
_chemical_formula_structural   Tb4CuPt3
_chemical_formula_sum   'Tb4 Cu1 Pt3'
_cell_volume   178.67270065
_cell_formula_units_Z   1
loop_
 _symmetry_equiv_pos_site_id
 _symmetry_equiv_pos_as_xyz
  1  'x, y, z'
loop_
 _atom_site_type_symbol
 _atom_site_label
 _atom_site_symmetry_multiplicity
 _atom_site_fract_x
 _atom_site_fract_y
 _atom_site_fract_z
 _atom_site_occupancy
  Tb  Tb0  1  0.00000000  0.64062200  0.31662000  1
  Tb  Tb1  1  0.00000000  0.85712900  0.81896800  1
  Tb  Tb2  1  0.50000000  0.36459200  0.68813800  1
  Tb  Tb3  1  0.50000000  0.13872800  0.17718500  1
  Cu  Cu4  1  0.00000000  0.13603500  0.46324900  1
  Pt  Pt5  1  0.00000000  0.34018500  0.95615600  1
  Pt  Pt6  1  0.50000000  0.86709200  0.53471900  1
  Pt  Pt7  1  0.50000000  0.65561800  0.04496500  1
