# generated using pymatgen
data_Y2Fe3Si5
_symmetry_space_group_name_H-M   'P 1'
_cell_length_a   10.35946300
_cell_length_b   10.35946300
_cell_length_c   5.48654600
_cell_angle_alpha   90.00000000
_cell_angle_beta   90.00000000
_cell_angle_gamma   90.00000000
_symmetry_Int_Tables_number   1
_chemical_formula_structural   Y2Fe3Si5
_chemical_formula_sum   'Y8 Fe12 Si20'
_cell_volume   588.80774232
_cell_formula_units_Z   4
loop_
 _symmetry_equiv_pos_site_id
 _symmetry_equiv_pos_as_xyz
  1  'x, y, z'
loop_
 _atom_site_type_symbol
 _atom_site_label
 _atom_site_symmetry_multiplicity
 _atom_site_fract_x
 _atom_site_fract_y
 _atom_site_fract_z
 _atom_site_occupancy
  Y  Y0  1  0.56981600  0.73635400  0.50000000  1
  Y  Y1  1  0.43018400  0.26364600  0.50000000  1
  Y  Y2  1  0.06981600  0.76364600  0.00000000  1
  Y  Y3  1  0.93018400  0.23635400  0.00000000  1
  Y  Y4  1  0.26364600  0.56981600  0.50000000  1
  Y  Y5  1  0.73635400  0.43018400  0.50000000  1
  Y  Y6  1  0.23635400  0.06981600  0.00000000  1
  Y  Y7  1  0.76364600  0.93018400  0.00000000  1
  Fe  Fe8  1  0.87715800  0.85452300  0.50000000  1
  Fe  Fe9  1  0.12284200  0.14547700  0.50000000  1
  Fe  Fe10  1  0.37715800  0.64547700  0.00000000  1
  Fe  Fe11  1  0.62284200  0.35452300  0.00000000  1
  Fe  Fe12  1  0.14547700  0.87715800  0.50000000  1
  Fe  Fe13  1  0.85452300  0.12284200  0.50000000  1
  Fe  Fe14  1  0.35452300  0.37715800  0.00000000  1
  Fe  Fe15  1  0.64547700  0.62284200  0.00000000  1
  Fe  Fe16  1  0.50000000  0.00000000  0.25000000  1
  Fe  Fe17  1  0.00000000  0.50000000  0.75000000  1
  Fe  Fe18  1  0.00000000  0.50000000  0.25000000  1
  Fe  Fe19  1  0.50000000  0.00000000  0.75000000  1
  Si  Si20  1  0.67702500  0.17702500  0.25000000  1
  Si  Si21  1  0.32297500  0.82297500  0.25000000  1
  Si  Si22  1  0.17702500  0.32297500  0.75000000  1
  Si  Si23  1  0.82297500  0.67702500  0.75000000  1
  Si  Si24  1  0.82297500  0.67702500  0.25000000  1
  Si  Si25  1  0.17702500  0.32297500  0.25000000  1
  Si  Si26  1  0.67702500  0.17702500  0.75000000  1
  Si  Si27  1  0.32297500  0.82297500  0.75000000  1
  Si  Si28  1  0.50000000  0.50000000  0.23017100  1
  Si  Si29  1  0.00000000  0.00000000  0.73017100  1
  Si  Si30  1  0.50000000  0.50000000  0.76982900  1
  Si  Si31  1  0.00000000  0.00000000  0.26982900  1
  Si  Si32  1  0.67984400  0.97834400  0.50000000  1
  Si  Si33  1  0.32015600  0.02165600  0.50000000  1
  Si  Si34  1  0.17984400  0.52165600  0.00000000  1
  Si  Si35  1  0.82015600  0.47834400  0.00000000  1
  Si  Si36  1  0.02165600  0.67984400  0.50000000  1
  Si  Si37  1  0.97834400  0.32015600  0.50000000  1
  Si  Si38  1  0.47834400  0.17984400  0.00000000  1
  Si  Si39  1  0.52165600  0.82015600  0.00000000  1
