# generated using pymatgen
data_Nd2ThS5
_symmetry_space_group_name_H-M   'P 1'
_cell_length_a   7.57852900
_cell_length_b   8.25849900
_cell_length_c   12.07085900
_cell_angle_alpha   90.00000000
_cell_angle_beta   90.00000000
_cell_angle_gamma   90.00000000
_symmetry_Int_Tables_number   1
_chemical_formula_structural   Nd2ThS5
_chemical_formula_sum   'Nd8 Th4 S20'
_cell_volume   755.48216168
_cell_formula_units_Z   4
loop_
 _symmetry_equiv_pos_site_id
 _symmetry_equiv_pos_as_xyz
  1  'x, y, z'
loop_
 _atom_site_type_symbol
 _atom_site_label
 _atom_site_symmetry_multiplicity
 _atom_site_fract_x
 _atom_site_fract_y
 _atom_site_fract_z
 _atom_site_occupancy
  Nd  Nd0  1  0.52054000  0.49989500  0.32199000  1
  Nd  Nd1  1  0.97946000  0.00010500  0.82199000  1
  Nd  Nd2  1  0.47946000  0.99989500  0.67801000  1
  Nd  Nd3  1  0.02054000  0.50010500  0.17801000  1
  Nd  Nd4  1  0.47946000  0.50010500  0.67801000  1
  Nd  Nd5  1  0.02054000  0.99989500  0.17801000  1
  Nd  Nd6  1  0.52054000  0.00010500  0.32199000  1
  Nd  Nd7  1  0.97946000  0.49989500  0.82199000  1
  Th  Th8  1  0.07510500  0.75000000  0.49021000  1
  Th  Th9  1  0.42489500  0.75000000  0.99021000  1
  Th  Th10  1  0.92489500  0.25000000  0.50979000  1
  Th  Th11  1  0.57510500  0.25000000  0.00979000  1
  S  S12  1  0.83602300  0.95720400  0.59910900  1
  S  S13  1  0.66397700  0.54279600  0.09910900  1
  S  S14  1  0.16397700  0.45720400  0.40089100  1
  S  S15  1  0.33602300  0.04279600  0.90089100  1
  S  S16  1  0.16397700  0.04279600  0.40089100  1
  S  S17  1  0.33602300  0.45720400  0.90089100  1
  S  S18  1  0.83602300  0.54279600  0.59910900  1
  S  S19  1  0.66397700  0.95720400  0.09910900  1
  S  S20  1  0.82730500  0.75000000  0.31249500  1
  S  S21  1  0.67269500  0.75000000  0.81249500  1
  S  S22  1  0.17269500  0.25000000  0.68750500  1
  S  S23  1  0.32730500  0.25000000  0.18750500  1
  S  S24  1  0.45910400  0.75000000  0.49909000  1
  S  S25  1  0.04089600  0.75000000  0.99909000  1
  S  S26  1  0.54089600  0.25000000  0.50091000  1
  S  S27  1  0.95910400  0.25000000  0.00091000  1
  S  S28  1  0.19865200  0.75000000  0.71647900  1
  S  S29  1  0.30134800  0.75000000  0.21647900  1
  S  S30  1  0.80134800  0.25000000  0.28352100  1
  S  S31  1  0.69865200  0.25000000  0.78352100  1
