# generated using pymatgen
data_Gd2(Ga3Ir)3
_symmetry_space_group_name_H-M   'P 1'
_cell_length_a   7.60477520
_cell_length_b   7.60477520
_cell_length_c   9.55598200
_cell_angle_alpha   90.00000000
_cell_angle_beta   90.00000000
_cell_angle_gamma   119.86107937
_symmetry_Int_Tables_number   1
_chemical_formula_structural   Gd2(Ga3Ir)3
_chemical_formula_sum   'Gd4 Ga18 Ir6'
_cell_volume   479.27520957
_cell_formula_units_Z   2
loop_
 _symmetry_equiv_pos_site_id
 _symmetry_equiv_pos_as_xyz
  1  'x, y, z'
loop_
 _atom_site_type_symbol
 _atom_site_label
 _atom_site_symmetry_multiplicity
 _atom_site_fract_x
 _atom_site_fract_y
 _atom_site_fract_z
 _atom_site_occupancy
  Gd  Gd0  1  0.99714700  0.66807100  0.25000000  1
  Gd  Gd1  1  0.00285300  0.33192900  0.75000000  1
  Gd  Gd2  1  0.66807100  0.99714700  0.25000000  1
  Gd  Gd3  1  0.33192900  0.00285300  0.75000000  1
  Ga  Ga4  1  0.12557600  0.12557600  0.25000000  1
  Ga  Ga5  1  0.87442400  0.87442400  0.75000000  1
  Ga  Ga6  1  0.00068000  0.33398700  0.07633400  1
  Ga  Ga7  1  0.99932000  0.66601300  0.92366600  1
  Ga  Ga8  1  0.99932000  0.66601300  0.57633400  1
  Ga  Ga9  1  0.33398700  0.00068000  0.42366600  1
  Ga  Ga10  1  0.00068000  0.33398700  0.42366600  1
  Ga  Ga11  1  0.66601300  0.99932000  0.57633400  1
  Ga  Ga12  1  0.66601300  0.99932000  0.92366600  1
  Ga  Ga13  1  0.33398700  0.00068000  0.07633400  1
  Ga  Ga14  1  0.33392000  0.33392000  0.56049900  1
  Ga  Ga15  1  0.66608000  0.66608000  0.43950100  1
  Ga  Ga16  1  0.66608000  0.66608000  0.06049900  1
  Ga  Ga17  1  0.33392000  0.33392000  0.93950100  1
  Ga  Ga18  1  0.33686400  0.54572000  0.25000000  1
  Ga  Ga19  1  0.66313600  0.45428000  0.75000000  1
  Ga  Ga20  1  0.54572000  0.33686400  0.25000000  1
  Ga  Ga21  1  0.45428000  0.66313600  0.75000000  1
  Ir  Ir22  1  0.67142000  0.32858000  0.00000000  1
  Ir  Ir23  1  0.32858000  0.67142000  0.00000000  1
  Ir  Ir24  1  0.32858000  0.67142000  0.50000000  1
  Ir  Ir25  1  0.67142000  0.32858000  0.50000000  1
  Ir  Ir26  1  0.00000000  0.00000000  0.00000000  1
  Ir  Ir27  1  0.00000000  0.00000000  0.50000000  1
