# generated using pymatgen
data_ErSiOs2C
_symmetry_space_group_name_H-M   'P 1'
_cell_length_a   5.89649241
_cell_length_b   5.89649241
_cell_length_c   7.11747400
_cell_angle_alpha   90.00000000
_cell_angle_beta   90.00000000
_cell_angle_gamma   142.05004748
_symmetry_Int_Tables_number   1
_chemical_formula_structural   ErSiOs2C
_chemical_formula_sum   'Er2 Si2 Os4 C2'
_cell_volume   152.18413083
_cell_formula_units_Z   2
loop_
 _symmetry_equiv_pos_site_id
 _symmetry_equiv_pos_as_xyz
  1  'x, y, z'
loop_
 _atom_site_type_symbol
 _atom_site_label
 _atom_site_symmetry_multiplicity
 _atom_site_fract_x
 _atom_site_fract_y
 _atom_site_fract_z
 _atom_site_occupancy
  Er  Er0  1  0.54642400  0.45357600  0.25000000  1
  Er  Er1  1  0.45357600  0.54642400  0.75000000  1
  Si  Si2  1  0.26833800  0.73166200  0.25000000  1
  Si  Si3  1  0.73166200  0.26833800  0.75000000  1
  Os  Os4  1  0.83538500  0.16461500  0.05788400  1
  Os  Os5  1  0.16461500  0.83538500  0.94211600  1
  Os  Os6  1  0.16461500  0.83538500  0.55788400  1
  Os  Os7  1  0.83538500  0.16461500  0.44211600  1
  C  C8  1  0.00000000  0.00000000  0.00000000  1
  C  C9  1  0.00000000  0.00000000  0.50000000  1
