# generated using pymatgen
data_BaLaB12
_symmetry_space_group_name_H-M   'P 1'
_cell_length_a   4.21059100
_cell_length_b   4.21059100
_cell_length_c   8.43449300
_cell_angle_alpha   90.00000000
_cell_angle_beta   90.00000000
_cell_angle_gamma   90.00000000
_symmetry_Int_Tables_number   1
_chemical_formula_structural   BaLaB12
_chemical_formula_sum   'Ba1 La1 B12'
_cell_volume   149.53577222
_cell_formula_units_Z   1
loop_
 _symmetry_equiv_pos_site_id
 _symmetry_equiv_pos_as_xyz
  1  'x, y, z'
loop_
 _atom_site_type_symbol
 _atom_site_label
 _atom_site_symmetry_multiplicity
 _atom_site_fract_x
 _atom_site_fract_y
 _atom_site_fract_z
 _atom_site_occupancy
  Ba  Ba0  1  0.00000000  0.00000000  0.00000000  1
  La  La1  1  0.00000000  0.00000000  0.50000000  1
  B  B2  1  0.20223400  0.50000000  0.25432200  1
  B  B3  1  0.20223400  0.50000000  0.74567800  1
  B  B4  1  0.50000000  0.50000000  0.40100000  1
  B  B5  1  0.50000000  0.50000000  0.89624100  1
  B  B6  1  0.50000000  0.20223400  0.25432200  1
  B  B7  1  0.50000000  0.20223400  0.74567800  1
  B  B8  1  0.50000000  0.50000000  0.10375900  1
  B  B9  1  0.50000000  0.50000000  0.59900000  1
  B  B10  1  0.50000000  0.79776600  0.25432200  1
  B  B11  1  0.50000000  0.79776600  0.74567800  1
  B  B12  1  0.79776600  0.50000000  0.25432200  1
  B  B13  1  0.79776600  0.50000000  0.74567800  1
