# generated using pymatgen
data_Na4Hf2(GeO4)3
_symmetry_space_group_name_H-M   'P 1'
_cell_length_a   9.33738092
_cell_length_b   9.33738092
_cell_length_c   9.33738062
_cell_angle_alpha   61.35818454
_cell_angle_beta   61.35818454
_cell_angle_gamma   61.35819003
_symmetry_Int_Tables_number   1
_chemical_formula_structural   Na4Hf2(GeO4)3
_chemical_formula_sum   'Na8 Hf4 Ge6 O24'
_cell_volume   593.22000015
_cell_formula_units_Z   2
loop_
 _symmetry_equiv_pos_site_id
 _symmetry_equiv_pos_as_xyz
  1  'x, y, z'
loop_
 _atom_site_type_symbol
 _atom_site_label
 _atom_site_symmetry_multiplicity
 _atom_site_fract_x
 _atom_site_fract_y
 _atom_site_fract_z
 _atom_site_occupancy
  Na  Na0  1  0.00000000  0.00000000  0.00000000  1
  Na  Na1  1  0.37084600  0.12915400  0.75000000  1
  Na  Na2  1  0.12915400  0.75000000  0.37084600  1
  Na  Na3  1  0.75000000  0.37084600  0.12915400  1
  Na  Na4  1  0.25000000  0.62915400  0.87084600  1
  Na  Na5  1  0.87084600  0.25000000  0.62915400  1
  Na  Na6  1  0.50000000  0.50000000  0.50000000  1
  Na  Na7  1  0.62915400  0.87084600  0.25000000  1
  Hf  Hf8  1  0.35614500  0.35614500  0.35614500  1
  Hf  Hf9  1  0.85614500  0.85614500  0.85614500  1
  Hf  Hf10  1  0.64385500  0.64385500  0.64385500  1
  Hf  Hf11  1  0.14385500  0.14385500  0.14385500  1
  Ge  Ge12  1  0.95731100  0.54268900  0.25000000  1
  Ge  Ge13  1  0.75000000  0.04268900  0.45731100  1
  Ge  Ge14  1  0.25000000  0.95731100  0.54268900  1
  Ge  Ge15  1  0.04268900  0.45731100  0.75000000  1
  Ge  Ge16  1  0.45731100  0.75000000  0.04268900  1
  Ge  Ge17  1  0.54268900  0.25000000  0.95731100  1
  O  O18  1  0.70659900  0.86313900  0.49025800  1
  O  O19  1  0.49025800  0.70659900  0.86313900  1
  O  O20  1  0.86313900  0.49025800  0.70659900  1
  O  O21  1  0.79340100  0.00974200  0.63686100  1
  O  O22  1  0.63686100  0.79340100  0.00974200  1
  O  O23  1  0.00974200  0.63686100  0.79340100  1
  O  O24  1  0.29340100  0.13686100  0.50974200  1
  O  O25  1  0.50974200  0.29340100  0.13686100  1
  O  O26  1  0.13686100  0.50974200  0.29340100  1
  O  O27  1  0.20659900  0.99025800  0.36313900  1
  O  O28  1  0.36313900  0.20659900  0.99025800  1
  O  O29  1  0.99025800  0.36313900  0.20659900  1
  O  O30  1  0.42407100  0.76184600  0.56121200  1
  O  O31  1  0.56121200  0.42407100  0.76184600  1
  O  O32  1  0.76184600  0.56121200  0.42407100  1
  O  O33  1  0.07592900  0.93878800  0.73815400  1
  O  O34  1  0.73815400  0.07592900  0.93878800  1
  O  O35  1  0.93878800  0.73815400  0.07592900  1
  O  O36  1  0.06121200  0.26184600  0.92407100  1
  O  O37  1  0.26184600  0.92407100  0.06121200  1
  O  O38  1  0.92407100  0.06121200  0.26184600  1
  O  O39  1  0.23815400  0.43878800  0.57592900  1
  O  O40  1  0.43878800  0.57592900  0.23815400  1
  O  O41  1  0.57592900  0.23815400  0.43878800  1
