# generated using pymatgen
data_Tl2SiSe3
_symmetry_space_group_name_H-M   'P 1'
_cell_length_a   7.08311700
_cell_length_b   7.17421870
_cell_length_c   8.91911860
_cell_angle_alpha   89.45585583
_cell_angle_beta   112.04990987
_cell_angle_gamma   112.91172777
_symmetry_Int_Tables_number   1
_chemical_formula_structural   Tl2SiSe3
_chemical_formula_sum   'Tl4 Si2 Se6'
_cell_volume   381.95040571
_cell_formula_units_Z   2
loop_
 _symmetry_equiv_pos_site_id
 _symmetry_equiv_pos_as_xyz
  1  'x, y, z'
loop_
 _atom_site_type_symbol
 _atom_site_label
 _atom_site_symmetry_multiplicity
 _atom_site_fract_x
 _atom_site_fract_y
 _atom_site_fract_z
 _atom_site_occupancy
  Tl  Tl0  1  0.72779500  0.32059600  0.09933000  1
  Tl  Tl1  1  0.27220500  0.67940400  0.90067000  1
  Tl  Tl2  1  0.86480000  0.04192500  0.66593500  1
  Tl  Tl3  1  0.13520000  0.95807500  0.33406500  1
  Si  Si4  1  0.43207900  0.54820100  0.32234100  1
  Si  Si5  1  0.56792100  0.45179900  0.67765900  1
  Se  Se6  1  0.75219000  0.69654300  0.90122900  1
  Se  Se7  1  0.24781000  0.30345700  0.09877100  1
  Se  Se8  1  0.51400500  0.87349700  0.27044500  1
  Se  Se9  1  0.48599500  0.12650300  0.72955500  1
  Se  Se10  1  0.23852400  0.47068600  0.49413100  1
  Se  Se11  1  0.76147600  0.52931400  0.50586900  1
