# generated using pymatgen
data_Ba4GeAs4
_symmetry_space_group_name_H-M   'P 1'
_cell_length_a   13.57006400
_cell_length_b   13.57006400
_cell_length_c   13.57006400
_cell_angle_alpha   90.00000000
_cell_angle_beta   90.00000000
_cell_angle_gamma   90.00000000
_symmetry_Int_Tables_number   1
_chemical_formula_structural   Ba4GeAs4
_chemical_formula_sum   'Ba32 Ge8 As32'
_cell_volume   2498.88164899
_cell_formula_units_Z   8
loop_
 _symmetry_equiv_pos_site_id
 _symmetry_equiv_pos_as_xyz
  1  'x, y, z'
loop_
 _atom_site_type_symbol
 _atom_site_label
 _atom_site_symmetry_multiplicity
 _atom_site_fract_x
 _atom_site_fract_y
 _atom_site_fract_z
 _atom_site_occupancy
  Ba  Ba0  1  0.14337400  0.14337400  0.14337400  1
  Ba  Ba1  1  0.35662600  0.64337400  0.35662600  1
  Ba  Ba2  1  0.64337400  0.35662600  0.35662600  1
  Ba  Ba3  1  0.35662600  0.35662600  0.64337400  1
  Ba  Ba4  1  0.14337400  0.85662600  0.85662600  1
  Ba  Ba5  1  0.85662600  0.85662600  0.14337400  1
  Ba  Ba6  1  0.85662600  0.14337400  0.85662600  1
  Ba  Ba7  1  0.64337400  0.64337400  0.64337400  1
  Ba  Ba8  1  0.90274300  0.86889400  0.64340300  1
  Ba  Ba9  1  0.90274300  0.13110600  0.35659700  1
  Ba  Ba10  1  0.86889400  0.64340300  0.90274300  1
  Ba  Ba11  1  0.13110600  0.64340300  0.09725700  1
  Ba  Ba12  1  0.64340300  0.90274300  0.86889400  1
  Ba  Ba13  1  0.35659700  0.09725700  0.86889400  1
  Ba  Ba14  1  0.59725700  0.85659700  0.36889400  1
  Ba  Ba15  1  0.59725700  0.14340300  0.63110600  1
  Ba  Ba16  1  0.40274300  0.85659700  0.63110600  1
  Ba  Ba17  1  0.14340300  0.63110600  0.59725700  1
  Ba  Ba18  1  0.63110600  0.40274300  0.85659700  1
  Ba  Ba19  1  0.63110600  0.59725700  0.14340300  1
  Ba  Ba20  1  0.85659700  0.36889400  0.59725700  1
  Ba  Ba21  1  0.36889400  0.59725700  0.85659700  1
  Ba  Ba22  1  0.85659700  0.63110600  0.40274300  1
  Ba  Ba23  1  0.14340300  0.36889400  0.40274300  1
  Ba  Ba24  1  0.36889400  0.40274300  0.14340300  1
  Ba  Ba25  1  0.35659700  0.90274300  0.13110600  1
  Ba  Ba26  1  0.64340300  0.09725700  0.13110600  1
  Ba  Ba27  1  0.86889400  0.35659700  0.09725700  1
  Ba  Ba28  1  0.13110600  0.35659700  0.90274300  1
  Ba  Ba29  1  0.09725700  0.13110600  0.64340300  1
  Ba  Ba30  1  0.09725700  0.86889400  0.35659700  1
  Ba  Ba31  1  0.40274300  0.14340300  0.36889400  1
  Ge  Ge32  1  0.00000000  0.00000000  0.00000000  1
  Ge  Ge33  1  0.75000000  0.00000000  0.50000000  1
  Ge  Ge34  1  0.50000000  0.75000000  0.00000000  1
  Ge  Ge35  1  0.50000000  0.25000000  0.00000000  1
  Ge  Ge36  1  0.00000000  0.50000000  0.25000000  1
  Ge  Ge37  1  0.00000000  0.50000000  0.75000000  1
  Ge  Ge38  1  0.25000000  0.00000000  0.50000000  1
  Ge  Ge39  1  0.50000000  0.50000000  0.50000000  1
  As  As40  1  0.60548600  0.85091700  0.11504000  1
  As  As41  1  0.64908300  0.10548600  0.38496000  1
  As  As42  1  0.89451400  0.61504000  0.64908300  1
  As  As43  1  0.10548600  0.61504000  0.35091700  1
  As  As44  1  0.61504000  0.64908300  0.89451400  1
  As  As45  1  0.38496000  0.35091700  0.89451400  1
  As  As46  1  0.85091700  0.88496000  0.39451400  1
  As  As47  1  0.85091700  0.11504000  0.60548600  1
  As  As48  1  0.14908300  0.88496000  0.60548600  1
  As  As49  1  0.39324200  0.39324200  0.39324200  1
  As  As50  1  0.60548600  0.14908300  0.88496000  1
  As  As51  1  0.64908300  0.89451400  0.61504000  1
  As  As52  1  0.88496000  0.39451400  0.85091700  1
  As  As53  1  0.39451400  0.85091700  0.88496000  1
  As  As54  1  0.88496000  0.60548600  0.14908300  1
  As  As55  1  0.11504000  0.39451400  0.14908300  1
  As  As56  1  0.39451400  0.14908300  0.11504000  1
  As  As57  1  0.38496000  0.64908300  0.10548600  1
  As  As58  1  0.61504000  0.35091700  0.10548600  1
  As  As59  1  0.89451400  0.38496000  0.35091700  1
  As  As60  1  0.10548600  0.38496000  0.64908300  1
  As  As61  1  0.35091700  0.10548600  0.61504000  1
  As  As62  1  0.35091700  0.89451400  0.38496000  1
  As  As63  1  0.14908300  0.11504000  0.39451400  1
  As  As64  1  0.10675800  0.89324200  0.10675800  1
  As  As65  1  0.10675800  0.10675800  0.89324200  1
  As  As66  1  0.89324200  0.10675800  0.10675800  1
  As  As67  1  0.60675800  0.60675800  0.39324200  1
  As  As68  1  0.39324200  0.60675800  0.60675800  1
  As  As69  1  0.60675800  0.39324200  0.60675800  1
  As  As70  1  0.89324200  0.89324200  0.89324200  1
  As  As71  1  0.11504000  0.60548600  0.85091700  1
