# generated using pymatgen
data_TmH3
_symmetry_space_group_name_H-M   'P 1'
_cell_length_a   6.19159786
_cell_length_b   6.19159786
_cell_length_c   6.47061500
_cell_angle_alpha   90.00000000
_cell_angle_beta   90.00000000
_cell_angle_gamma   119.99999854
_symmetry_Int_Tables_number   1
_chemical_formula_structural   TmH3
_chemical_formula_sum   'Tm6 H18'
_cell_volume   214.82344738
_cell_formula_units_Z   6
loop_
 _symmetry_equiv_pos_site_id
 _symmetry_equiv_pos_as_xyz
  1  'x, y, z'
loop_
 _atom_site_type_symbol
 _atom_site_label
 _atom_site_symmetry_multiplicity
 _atom_site_fract_x
 _atom_site_fract_y
 _atom_site_fract_z
 _atom_site_occupancy
  Tm  Tm0  1  0.66287500  0.00000000  0.75000000  1
  Tm  Tm1  1  0.33712500  0.33712500  0.75000000  1
  Tm  Tm2  1  0.00000000  0.66287500  0.75000000  1
  Tm  Tm3  1  0.66287500  0.66287500  0.25000000  1
  Tm  Tm4  1  0.00000000  0.33712500  0.25000000  1
  Tm  Tm5  1  0.33712500  0.00000000  0.25000000  1
  H  H6  1  0.32087700  0.96983800  0.90842000  1
  H  H7  1  0.64896100  0.67912300  0.90842000  1
  H  H8  1  0.03016200  0.35103900  0.90842000  1
  H  H9  1  0.32087700  0.35103900  0.40842000  1
  H  H10  1  0.03016200  0.67912300  0.40842000  1
  H  H11  1  0.64896100  0.96983800  0.40842000  1
  H  H12  1  0.67912300  0.03016200  0.09158000  1
  H  H13  1  0.35103900  0.32087700  0.09158000  1
  H  H14  1  0.96983800  0.64896100  0.09158000  1
  H  H15  1  0.67912300  0.64896100  0.59158000  1
  H  H16  1  0.96983800  0.32087700  0.59158000  1
  H  H17  1  0.35103900  0.03016200  0.59158000  1
  H  H18  1  0.00000000  0.00000000  0.75000000  1
  H  H19  1  0.00000000  0.00000000  0.25000000  1
  H  H20  1  0.66666700  0.33333300  0.81967700  1
  H  H21  1  0.66666700  0.33333300  0.31967700  1
  H  H22  1  0.33333300  0.66666700  0.18032300  1
  H  H23  1  0.33333300  0.66666700  0.68032300  1
