# generated using pymatgen
data_Yb6Mn4Al43
_symmetry_space_group_name_H-M   'P 1'
_cell_length_a   10.96452955
_cell_length_b   10.96452955
_cell_length_c   17.57057600
_cell_angle_alpha   90.00000000
_cell_angle_beta   90.00000000
_cell_angle_gamma   119.99999728
_symmetry_Int_Tables_number   1
_chemical_formula_structural   Yb6Mn4Al43
_chemical_formula_sum   'Yb12 Mn8 Al86'
_cell_volume   1829.34933571
_cell_formula_units_Z   2
loop_
 _symmetry_equiv_pos_site_id
 _symmetry_equiv_pos_as_xyz
  1  'x, y, z'
loop_
 _atom_site_type_symbol
 _atom_site_label
 _atom_site_symmetry_multiplicity
 _atom_site_fract_x
 _atom_site_fract_y
 _atom_site_fract_z
 _atom_site_occupancy
  Yb  Yb0  1  0.53326200  0.00000000  0.59395900  1
  Yb  Yb1  1  0.46673800  0.00000000  0.40604100  1
  Yb  Yb2  1  0.00000000  0.53326200  0.59395900  1
  Yb  Yb3  1  0.46673800  0.00000000  0.09395900  1
  Yb  Yb4  1  0.00000000  0.53326200  0.90604100  1
  Yb  Yb5  1  0.00000000  0.46673800  0.40604100  1
  Yb  Yb6  1  0.53326200  0.00000000  0.90604100  1
  Yb  Yb7  1  0.00000000  0.46673800  0.09395900  1
  Yb  Yb8  1  0.46673800  0.46673800  0.59395900  1
  Yb  Yb9  1  0.53326200  0.53326200  0.40604100  1
  Yb  Yb10  1  0.53326200  0.53326200  0.09395900  1
  Yb  Yb11  1  0.46673800  0.46673800  0.90604100  1
  Mn  Mn12  1  0.00000000  0.00000000  0.50000000  1
  Mn  Mn13  1  0.00000000  0.00000000  0.00000000  1
  Mn  Mn14  1  0.73105500  0.00000000  0.75000000  1
  Mn  Mn15  1  0.26894500  0.00000000  0.25000000  1
  Mn  Mn16  1  0.00000000  0.73105500  0.75000000  1
  Mn  Mn17  1  0.00000000  0.26894500  0.25000000  1
  Mn  Mn18  1  0.26894500  0.26894500  0.75000000  1
  Mn  Mn19  1  0.73105500  0.73105500  0.25000000  1
  Al  Al20  1  0.14586300  0.60021500  0.75000000  1
  Al  Al21  1  0.85413700  0.39978500  0.25000000  1
  Al  Al22  1  0.39978500  0.54564800  0.75000000  1
  Al  Al23  1  0.60021500  0.14586300  0.75000000  1
  Al  Al24  1  0.60021500  0.45435200  0.25000000  1
  Al  Al25  1  0.39978500  0.85413700  0.25000000  1
  Al  Al26  1  0.45435200  0.85413700  0.75000000  1
  Al  Al27  1  0.54564800  0.39978500  0.75000000  1
  Al  Al28  1  0.54564800  0.14586300  0.25000000  1
  Al  Al29  1  0.45435200  0.60021500  0.25000000  1
  Al  Al30  1  0.85413700  0.45435200  0.75000000  1
  Al  Al31  1  0.14586300  0.54564800  0.25000000  1
  Al  Al32  1  0.15447600  0.00000000  0.11590400  1
  Al  Al33  1  0.84552400  0.00000000  0.88409600  1
  Al  Al34  1  0.00000000  0.15447600  0.11590400  1
  Al  Al35  1  0.84552400  0.00000000  0.61590400  1
  Al  Al36  1  0.00000000  0.15447600  0.38409600  1
  Al  Al37  1  0.00000000  0.84552400  0.88409600  1
  Al  Al38  1  0.15447600  0.00000000  0.38409600  1
  Al  Al39  1  0.00000000  0.84552400  0.61590400  1
  Al  Al40  1  0.84552400  0.84552400  0.11590400  1
  Al  Al41  1  0.15447600  0.15447600  0.88409600  1
  Al  Al42  1  0.15447600  0.15447600  0.61590400  1
  Al  Al43  1  0.84552400  0.84552400  0.38409600  1
  Al  Al44  1  0.24686100  0.49372200  0.50000000  1
  Al  Al45  1  0.75313900  0.50627800  0.50000000  1
  Al  Al46  1  0.50627800  0.75313900  0.50000000  1
  Al  Al47  1  0.75313900  0.50627800  0.00000000  1
  Al  Al48  1  0.49372200  0.24686100  0.00000000  1
  Al  Al49  1  0.49372200  0.24686100  0.50000000  1
  Al  Al50  1  0.24686100  0.49372200  0.00000000  1
  Al  Al51  1  0.50627800  0.75313900  0.00000000  1
  Al  Al52  1  0.24686100  0.75313900  0.50000000  1
  Al  Al53  1  0.75313900  0.24686100  0.50000000  1
  Al  Al54  1  0.75313900  0.24686100  0.00000000  1
  Al  Al55  1  0.24686100  0.75313900  0.00000000  1
  Al  Al56  1  0.14422900  0.00000000  0.75000000  1
  Al  Al57  1  0.85577100  0.00000000  0.25000000  1
  Al  Al58  1  0.00000000  0.14422900  0.75000000  1
  Al  Al59  1  0.00000000  0.85577100  0.25000000  1
  Al  Al60  1  0.85577100  0.85577100  0.75000000  1
  Al  Al61  1  0.14422900  0.14422900  0.25000000  1
  Al  Al62  1  0.33333300  0.66666700  0.62721600  1
  Al  Al63  1  0.66666700  0.33333300  0.37278400  1
  Al  Al64  1  0.66666700  0.33333300  0.12721600  1
  Al  Al65  1  0.66666700  0.33333300  0.87278400  1
  Al  Al66  1  0.33333300  0.66666700  0.87278400  1
  Al  Al67  1  0.33333300  0.66666700  0.12721600  1
  Al  Al68  1  0.33333300  0.66666700  0.37278400  1
  Al  Al69  1  0.66666700  0.33333300  0.62721600  1
  Al  Al70  1  0.24853000  0.00000000  0.53208100  1
  Al  Al71  1  0.75147000  0.00000000  0.46791900  1
  Al  Al72  1  0.00000000  0.24853000  0.53208100  1
  Al  Al73  1  0.75147000  0.00000000  0.03208100  1
  Al  Al74  1  0.00000000  0.24853000  0.96791900  1
  Al  Al75  1  0.00000000  0.75147000  0.46791900  1
  Al  Al76  1  0.24853000  0.00000000  0.96791900  1
  Al  Al77  1  0.00000000  0.75147000  0.03208100  1
  Al  Al78  1  0.75147000  0.75147000  0.53208100  1
  Al  Al79  1  0.24853000  0.24853000  0.46791900  1
  Al  Al80  1  0.24853000  0.24853000  0.03208100  1
  Al  Al81  1  0.75147000  0.75147000  0.96791900  1
  Al  Al82  1  0.15668600  0.38892900  0.66618200  1
  Al  Al83  1  0.84331400  0.61107100  0.33381800  1
  Al  Al84  1  0.61107100  0.76775700  0.66618200  1
  Al  Al85  1  0.84331400  0.61107100  0.16618200  1
  Al  Al86  1  0.38892900  0.15668600  0.83381800  1
  Al  Al87  1  0.38892900  0.23224300  0.33381800  1
  Al  Al88  1  0.15668600  0.38892900  0.83381800  1
  Al  Al89  1  0.61107100  0.84331400  0.16618200  1
  Al  Al90  1  0.23224300  0.84331400  0.66618200  1
  Al  Al91  1  0.38892900  0.23224300  0.16618200  1
  Al  Al92  1  0.76775700  0.61107100  0.83381800  1
  Al  Al93  1  0.76775700  0.15668600  0.33381800  1
  Al  Al94  1  0.61107100  0.76775700  0.83381800  1
  Al  Al95  1  0.23224300  0.38892900  0.16618200  1
  Al  Al96  1  0.61107100  0.84331400  0.33381800  1
  Al  Al97  1  0.38892900  0.15668600  0.66618200  1
  Al  Al98  1  0.76775700  0.15668600  0.16618200  1
  Al  Al99  1  0.23224300  0.38892900  0.33381800  1
  Al  Al100  1  0.23224300  0.84331400  0.83381800  1
  Al  Al101  1  0.76775700  0.61107100  0.66618200  1
  Al  Al102  1  0.84331400  0.23224300  0.83381800  1
  Al  Al103  1  0.15668600  0.76775700  0.16618200  1
  Al  Al104  1  0.15668600  0.76775700  0.33381800  1
  Al  Al105  1  0.84331400  0.23224300  0.66618200  1
