# generated using pymatgen
data_NdMn2O5
_symmetry_space_group_name_H-M   'P 1'
_cell_length_a   5.82923500
_cell_length_b   7.59866700
_cell_length_c   8.73170700
_cell_angle_alpha   90.00000000
_cell_angle_beta   90.00000000
_cell_angle_gamma   90.00000000
_symmetry_Int_Tables_number   1
_chemical_formula_structural   NdMn2O5
_chemical_formula_sum   'Nd4 Mn8 O20'
_cell_volume   386.76585902
_cell_formula_units_Z   4
loop_
 _symmetry_equiv_pos_site_id
 _symmetry_equiv_pos_as_xyz
  1  'x, y, z'
loop_
 _atom_site_type_symbol
 _atom_site_label
 _atom_site_symmetry_multiplicity
 _atom_site_fract_x
 _atom_site_fract_y
 _atom_site_fract_z
 _atom_site_occupancy
  Nd  Nd0  1  0.00000000  0.35876200  0.67190400  1
  Nd  Nd1  1  0.00000000  0.64123800  0.32809600  1
  Nd  Nd2  1  0.00000000  0.85876200  0.82809600  1
  Nd  Nd3  1  0.00000000  0.14123800  0.17190400  1
  Mn  Mn4  1  0.50000000  0.09011000  0.85045400  1
  Mn  Mn5  1  0.50000000  0.90989000  0.14954600  1
  Mn  Mn6  1  0.50000000  0.59011000  0.64954600  1
  Mn  Mn7  1  0.50000000  0.40989000  0.35045400  1
  Mn  Mn8  1  0.25659100  0.50000000  0.00000000  1
  Mn  Mn9  1  0.74340900  0.00000000  0.50000000  1
  Mn  Mn10  1  0.74340900  0.50000000  0.00000000  1
  Mn  Mn11  1  0.25659100  0.00000000  0.50000000  1
  O  O12  1  0.24687800  0.90054800  0.29319100  1
  O  O13  1  0.24687800  0.09945200  0.70680900  1
  O  O14  1  0.75312200  0.40054800  0.20680900  1
  O  O15  1  0.75312200  0.59945200  0.79319100  1
  O  O16  1  0.75312200  0.09945200  0.70680900  1
  O  O17  1  0.75312200  0.90054800  0.29319100  1
  O  O18  1  0.24687800  0.59945200  0.79319100  1
  O  O19  1  0.24687800  0.40054800  0.20680900  1
  O  O20  1  0.50000000  0.34806400  0.93545400  1
  O  O21  1  0.50000000  0.65193600  0.06454600  1
  O  O22  1  0.50000000  0.84806400  0.56454600  1
  O  O23  1  0.50000000  0.15193600  0.43545400  1
  O  O24  1  0.27635700  0.00000000  0.00000000  1
  O  O25  1  0.72364300  0.50000000  0.50000000  1
  O  O26  1  0.72364300  0.00000000  0.00000000  1
  O  O27  1  0.27635700  0.50000000  0.50000000  1
  O  O28  1  0.00000000  0.15813800  0.44717400  1
  O  O29  1  0.00000000  0.84186200  0.55282600  1
  O  O30  1  0.00000000  0.65813800  0.05282600  1
  O  O31  1  0.00000000  0.34186200  0.94717400  1
