# generated using pymatgen
data_Cs3B3Se10
_symmetry_space_group_name_H-M   'P 1'
_cell_length_a   7.88005700
_cell_length_b   8.77252584
_cell_length_c   15.59561781
_cell_angle_alpha   105.79809590
_cell_angle_beta   88.91961073
_cell_angle_gamma   102.29980234
_symmetry_Int_Tables_number   1
_chemical_formula_structural   Cs3B3Se10
_chemical_formula_sum   'Cs6 B6 Se20'
_cell_volume   1012.68084053
_cell_formula_units_Z   2
loop_
 _symmetry_equiv_pos_site_id
 _symmetry_equiv_pos_as_xyz
  1  'x, y, z'
loop_
 _atom_site_type_symbol
 _atom_site_label
 _atom_site_symmetry_multiplicity
 _atom_site_fract_x
 _atom_site_fract_y
 _atom_site_fract_z
 _atom_site_occupancy
  Cs  Cs0  1  0.66364700  0.82856400  0.51566800  1
  Cs  Cs1  1  0.33635300  0.17143600  0.48433200  1
  Cs  Cs2  1  0.25570400  0.52200000  0.85767900  1
  Cs  Cs3  1  0.74429600  0.47800000  0.14232100  1
  Cs  Cs4  1  0.04080100  0.93733900  0.78370600  1
  Cs  Cs5  1  0.95919900  0.06266100  0.21629400  1
  B  B6  1  0.61227300  0.10247800  0.90665500  1
  B  B7  1  0.38772700  0.89752200  0.09334500  1
  B  B8  1  0.72932600  0.30488600  0.76310600  1
  B  B9  1  0.27067400  0.69511400  0.23689400  1
  B  B10  1  0.90339500  0.39899200  0.59252700  1
  B  B11  1  0.09660500  0.60100800  0.40747300  1
  Se  Se12  1  0.76434800  0.01581700  0.98012600  1
  Se  Se13  1  0.23565200  0.98418300  0.01987400  1
  Se  Se14  1  0.42009700  0.20444800  0.97446600  1
  Se  Se15  1  0.57990300  0.79555200  0.02553400  1
  Se  Se16  1  0.53826600  0.94196600  0.78266900  1
  Se  Se17  1  0.46173400  0.05803400  0.21733100  1
  Se  Se18  1  0.79378400  0.30200500  0.89058700  1
  Se  Se19  1  0.20621600  0.69799500  0.10941300  1
  Se  Se20  1  0.49079200  0.14890200  0.71867400  1
  Se  Se21  1  0.50920800  0.85109800  0.28132600  1
  Se  Se22  1  0.71091700  0.54033600  0.77858700  1
  Se  Se23  1  0.28908300  0.45966400  0.22141300  1
  Se  Se24  1  0.92253200  0.24803900  0.67201400  1
  Se  Se25  1  0.07746800  0.75196100  0.32798600  1
  Se  Se26  1  0.69556000  0.50954100  0.62189800  1
  Se  Se27  1  0.30444000  0.49045900  0.37810200  1
  Se  Se28  1  0.85695400  0.25173700  0.46390400  1
  Se  Se29  1  0.14304600  0.74826300  0.53609600  1
  Se  Se30  1  0.14435100  0.55224200  0.62080100  1
  Se  Se31  1  0.85564900  0.44775800  0.37919900  1
