# generated using pymatgen
data_CF4
_symmetry_space_group_name_H-M   'P 1'
_cell_length_a   4.90076448
_cell_length_b   4.90076448
_cell_length_c   8.70358294
_cell_angle_alpha   63.74094909
_cell_angle_beta   63.74094909
_cell_angle_gamma   54.27664959
_symmetry_Int_Tables_number   1
_chemical_formula_structural   CF4
_chemical_formula_sum   'C2 F8'
_cell_volume   147.24718691
_cell_formula_units_Z   2
loop_
 _symmetry_equiv_pos_site_id
 _symmetry_equiv_pos_as_xyz
  1  'x, y, z'
loop_
 _atom_site_type_symbol
 _atom_site_label
 _atom_site_symmetry_multiplicity
 _atom_site_fract_x
 _atom_site_fract_y
 _atom_site_fract_z
 _atom_site_occupancy
  C  C0  1  0.42608400  0.57391600  0.75000000  1
  C  C1  1  0.57391600  0.42608400  0.25000000  1
  F  F2  1  0.74064300  0.54164400  0.70858800  1
  F  F3  1  0.45835600  0.25935700  0.79141200  1
  F  F4  1  0.25935700  0.45835600  0.29141200  1
  F  F5  1  0.54164400  0.74064300  0.20858800  1
  F  F6  1  0.71426700  0.21903400  0.38929500  1
  F  F7  1  0.78096600  0.28573300  0.11070500  1
  F  F8  1  0.28573300  0.78096600  0.61070500  1
  F  F9  1  0.21903400  0.71426700  0.88929500  1
