# generated using pymatgen
data_Pd2PbO4
_symmetry_space_group_name_H-M   'P 1'
_cell_length_a   6.62239576
_cell_length_b   6.62239576
_cell_length_c   6.62239576
_cell_angle_alpha   126.63622150
_cell_angle_beta   126.63622150
_cell_angle_gamma   78.84495808
_symmetry_Int_Tables_number   1
_chemical_formula_structural   Pd2PbO4
_chemical_formula_sum   'Pd4 Pb2 O8'
_cell_volume   180.95000993
_cell_formula_units_Z   2
loop_
 _symmetry_equiv_pos_site_id
 _symmetry_equiv_pos_as_xyz
  1  'x, y, z'
loop_
 _atom_site_type_symbol
 _atom_site_label
 _atom_site_symmetry_multiplicity
 _atom_site_fract_x
 _atom_site_fract_y
 _atom_site_fract_z
 _atom_site_occupancy
  Pd  Pd0  1  0.37500000  0.12500000  0.75000000  1
  Pd  Pd1  1  0.37500000  0.62500000  0.25000000  1
  Pd  Pd2  1  0.37500000  0.62500000  0.75000000  1
  Pd  Pd3  1  0.87500000  0.62500000  0.25000000  1
  Pb  Pb4  1  0.00000000  0.00000000  0.00000000  1
  Pb  Pb5  1  0.75000000  0.25000000  0.50000000  1
  O  O6  1  0.75294200  0.61480100  0.46135900  1
  O  O7  1  0.15344200  0.29158300  0.53864100  1
  O  O8  1  0.59655800  0.95841700  0.96135900  1
  O  O9  1  0.99705800  0.63519900  0.03864100  1
  O  O10  1  0.70841700  0.24705800  0.86185900  1
  O  O11  1  0.38519900  0.84655800  0.13814100  1
  O  O12  1  0.36480100  0.40344200  0.36185900  1
  O  O13  1  0.04158300  0.00294200  0.63814100  1
