# generated using pymatgen
data_Ho2B6Ru
_symmetry_space_group_name_H-M   'P 1'
_cell_length_a   3.65325700
_cell_length_b   9.11937300
_cell_length_c   11.48736000
_cell_angle_alpha   90.00000000
_cell_angle_beta   90.00000000
_cell_angle_gamma   90.00000000
_symmetry_Int_Tables_number   1
_chemical_formula_structural   Ho2B6Ru
_chemical_formula_sum   'Ho8 B24 Ru4'
_cell_volume   382.70614553
_cell_formula_units_Z   4
loop_
 _symmetry_equiv_pos_site_id
 _symmetry_equiv_pos_as_xyz
  1  'x, y, z'
loop_
 _atom_site_type_symbol
 _atom_site_label
 _atom_site_symmetry_multiplicity
 _atom_site_fract_x
 _atom_site_fract_y
 _atom_site_fract_z
 _atom_site_occupancy
  Ho  Ho0  1  0.00000000  0.32223700  0.41422500  1
  Ho  Ho1  1  0.00000000  0.67776300  0.58577500  1
  Ho  Ho2  1  0.00000000  0.82223700  0.08577500  1
  Ho  Ho3  1  0.00000000  0.17776300  0.91422500  1
  Ho  Ho4  1  0.00000000  0.94428600  0.37258100  1
  Ho  Ho5  1  0.00000000  0.05571400  0.62741900  1
  Ho  Ho6  1  0.00000000  0.44428600  0.12741900  1
  Ho  Ho7  1  0.00000000  0.55571400  0.87258100  1
  B  B8  1  0.50000000  0.55421000  0.43306000  1
  B  B9  1  0.50000000  0.44579000  0.56694000  1
  B  B10  1  0.50000000  0.05421000  0.06694000  1
  B  B11  1  0.50000000  0.94579000  0.93306000  1
  B  B12  1  0.50000000  0.74844300  0.42008800  1
  B  B13  1  0.50000000  0.25155700  0.57991200  1
  B  B14  1  0.50000000  0.24844300  0.07991200  1
  B  B15  1  0.50000000  0.75155700  0.92008800  1
  B  B16  1  0.50000000  0.79144300  0.26648500  1
  B  B17  1  0.50000000  0.20855700  0.73351500  1
  B  B18  1  0.50000000  0.29144300  0.23351500  1
  B  B19  1  0.50000000  0.70855700  0.76648500  1
  B  B20  1  0.50000000  0.63235600  0.18496500  1
  B  B21  1  0.50000000  0.36764400  0.81503500  1
  B  B22  1  0.50000000  0.13235600  0.31503500  1
  B  B23  1  0.50000000  0.86764400  0.68496500  1
  B  B24  1  0.50000000  0.98415100  0.21285600  1
  B  B25  1  0.50000000  0.01584900  0.78714400  1
  B  B26  1  0.50000000  0.48415100  0.28714400  1
  B  B27  1  0.50000000  0.51584900  0.71285600  1
  B  B28  1  0.50000000  0.60979300  0.03012400  1
  B  B29  1  0.50000000  0.39020700  0.96987600  1
  B  B30  1  0.50000000  0.10979300  0.46987600  1
  B  B31  1  0.50000000  0.89020700  0.53012400  1
  Ru  Ru32  1  0.00000000  0.63846900  0.32103300  1
  Ru  Ru33  1  0.00000000  0.36153100  0.67896700  1
  Ru  Ru34  1  0.00000000  0.13846900  0.17896700  1
  Ru  Ru35  1  0.00000000  0.86153100  0.82103300  1
