# generated using pymatgen
data_SiH14(OF)6
_symmetry_space_group_name_H-M   'P 1'
_cell_length_a   5.77066357
_cell_length_b   6.21393717
_cell_length_c   14.02242500
_cell_angle_alpha   90.00000000
_cell_angle_beta   90.00000000
_cell_angle_gamma   109.86038327
_symmetry_Int_Tables_number   1
_chemical_formula_structural   SiH14(OF)6
_chemical_formula_sum   'Si2 H28 O12 F12'
_cell_volume   472.91738204
_cell_formula_units_Z   2
loop_
 _symmetry_equiv_pos_site_id
 _symmetry_equiv_pos_as_xyz
  1  'x, y, z'
loop_
 _atom_site_type_symbol
 _atom_site_label
 _atom_site_symmetry_multiplicity
 _atom_site_fract_x
 _atom_site_fract_y
 _atom_site_fract_z
 _atom_site_occupancy
  Si  Si0  1  0.00000000  0.00000000  0.00000000  1
  Si  Si1  1  0.00000000  0.50000000  0.50000000  1
  H  H2  1  0.88152700  0.99725400  0.28891100  1
  H  H3  1  0.11847300  0.00274600  0.71108900  1
  H  H4  1  0.11847300  0.50274600  0.78891100  1
  H  H5  1  0.88152700  0.49725400  0.21108900  1
  H  H6  1  0.43837700  0.57264500  0.84906400  1
  H  H7  1  0.56162300  0.42735500  0.15093600  1
  H  H8  1  0.56162300  0.92735500  0.34906400  1
  H  H9  1  0.43837700  0.07264500  0.65093600  1
  H  H10  1  0.72096200  0.99578900  0.55841700  1
  H  H11  1  0.27903800  0.00421100  0.44158300  1
  H  H12  1  0.27903800  0.50421100  0.05841700  1
  H  H13  1  0.72096200  0.49578900  0.94158300  1
  H  H14  1  0.80648500  0.87931100  0.68700100  1
  H  H15  1  0.19351500  0.12068900  0.31299900  1
  H  H16  1  0.19351500  0.62068900  0.18700100  1
  H  H17  1  0.80648500  0.37931100  0.81299900  1
  H  H18  1  0.31865700  0.76841100  0.86237900  1
  H  H19  1  0.68134300  0.23158900  0.13762100  1
  H  H20  1  0.68134300  0.73158900  0.36237900  1
  H  H21  1  0.31865700  0.26841100  0.63762100  1
  H  H22  1  0.50637500  0.76204400  0.58886200  1
  H  H23  1  0.49362500  0.23795600  0.41113800  1
  H  H24  1  0.49362500  0.73795600  0.08886200  1
  H  H25  1  0.50637500  0.26204400  0.91113800  1
  H  H26  1  0.89717400  0.92102500  0.79950300  1
  H  H27  1  0.10282600  0.07897500  0.20049700  1
  H  H28  1  0.10282600  0.57897500  0.29950300  1
  H  H29  1  0.89717400  0.42102500  0.70049700  1
  O  O30  1  0.94190100  0.87782900  0.73452400  1
  O  O31  1  0.05809900  0.12217100  0.26547600  1
  O  O32  1  0.05809900  0.62217100  0.23452400  1
  O  O33  1  0.94190100  0.37782900  0.76547600  1
  O  O34  1  0.61707900  0.91263800  0.61193700  1
  O  O35  1  0.38292100  0.08736200  0.38806300  1
  O  O36  1  0.38292100  0.58736200  0.11193700  1
  O  O37  1  0.61707900  0.41263800  0.88806300  1
  O  O38  1  0.33881000  0.65529500  0.81686300  1
  O  O39  1  0.66119000  0.34470500  0.18313700  1
  O  O40  1  0.66119000  0.84470500  0.31686300  1
  O  O41  1  0.33881000  0.15529500  0.68313700  1
  F  F42  1  0.24339400  0.99378600  0.92836900  1
  F  F43  1  0.75660600  0.00621400  0.07163100  1
  F  F44  1  0.75660600  0.50621400  0.42836900  1
  F  F45  1  0.24339400  0.49378600  0.57163100  1
  F  F46  1  0.81196700  0.95699800  0.90152900  1
  F  F47  1  0.18803300  0.04300200  0.09847100  1
  F  F48  1  0.18803300  0.54300200  0.40152900  1
  F  F49  1  0.81196700  0.45699800  0.59847100  1
  F  F50  1  0.91348400  0.21030600  0.48364500  1
  F  F51  1  0.08651600  0.78969400  0.51635500  1
  F  F52  1  0.08651600  0.28969400  0.98364500  1
  F  F53  1  0.91348400  0.71030600  0.01635500  1
