# generated using pymatgen
data_Pr2NiB10
_symmetry_space_group_name_H-M   'P 1'
_cell_length_a   4.20166600
_cell_length_b   5.64338300
_cell_length_c   11.25426100
_cell_angle_alpha   90.00000000
_cell_angle_beta   90.00000000
_cell_angle_gamma   90.00000000
_symmetry_Int_Tables_number   1
_chemical_formula_structural   Pr2NiB10
_chemical_formula_sum   'Pr4 Ni2 B20'
_cell_volume   266.85665303
_cell_formula_units_Z   2
loop_
 _symmetry_equiv_pos_site_id
 _symmetry_equiv_pos_as_xyz
  1  'x, y, z'
loop_
 _atom_site_type_symbol
 _atom_site_label
 _atom_site_symmetry_multiplicity
 _atom_site_fract_x
 _atom_site_fract_y
 _atom_site_fract_z
 _atom_site_occupancy
  Pr  Pr0  1  0.50000000  0.19376900  0.36368400  1
  Pr  Pr1  1  0.50000000  0.80623100  0.63631600  1
  Pr  Pr2  1  0.50000000  0.30623100  0.86368400  1
  Pr  Pr3  1  0.50000000  0.69376900  0.13631600  1
  Ni  Ni4  1  0.00000000  0.00000000  0.00000000  1
  Ni  Ni5  1  0.00000000  0.50000000  0.50000000  1
  B  B6  1  0.00000000  0.37479400  0.04151800  1
  B  B7  1  0.00000000  0.62520600  0.95848200  1
  B  B8  1  0.00000000  0.12520600  0.54151800  1
  B  B9  1  0.00000000  0.87479400  0.45848200  1
  B  B10  1  0.00000000  0.34603600  0.19705600  1
  B  B11  1  0.00000000  0.65396400  0.80294400  1
  B  B12  1  0.00000000  0.15396400  0.69705600  1
  B  B13  1  0.00000000  0.84603600  0.30294400  1
  B  B14  1  0.00000000  0.03719200  0.18807900  1
  B  B15  1  0.00000000  0.96280800  0.81192100  1
  B  B16  1  0.00000000  0.46280800  0.68807900  1
  B  B17  1  0.00000000  0.53719200  0.31192100  1
  B  B18  1  0.29979100  0.20310500  0.11364600  1
  B  B19  1  0.70020900  0.79689500  0.88635400  1
  B  B20  1  0.29979100  0.79689500  0.88635400  1
  B  B21  1  0.70020900  0.29689500  0.61364600  1
  B  B22  1  0.70020900  0.20310500  0.11364600  1
  B  B23  1  0.29979100  0.70310500  0.38635400  1
  B  B24  1  0.70020900  0.70310500  0.38635400  1
  B  B25  1  0.29979100  0.29689500  0.61364600  1
