# generated using pymatgen
data_Pr2(SO4)3
_symmetry_space_group_name_H-M   'P 1'
_cell_length_a   11.40172964
_cell_length_b   11.40172964
_cell_length_c   7.06186293
_cell_angle_alpha   73.55234335
_cell_angle_beta   73.55234335
_cell_angle_gamma   34.67348375
_symmetry_Int_Tables_number   1
_chemical_formula_structural   Pr2(SO4)3
_chemical_formula_sum   'Pr4 S6 O24'
_cell_volume   498.76739609
_cell_formula_units_Z   2
loop_
 _symmetry_equiv_pos_site_id
 _symmetry_equiv_pos_as_xyz
  1  'x, y, z'
loop_
 _atom_site_type_symbol
 _atom_site_label
 _atom_site_symmetry_multiplicity
 _atom_site_fract_x
 _atom_site_fract_y
 _atom_site_fract_z
 _atom_site_occupancy
  Pr  Pr0  1  0.72005900  0.01551900  0.63022400  1
  Pr  Pr1  1  0.27994100  0.98448100  0.36977600  1
  Pr  Pr2  1  0.98448100  0.27994100  0.86977600  1
  Pr  Pr3  1  0.01551900  0.72005900  0.13022400  1
  S  S4  1  0.49968400  0.86646100  0.82230600  1
  S  S5  1  0.50031600  0.13353900  0.17769400  1
  S  S6  1  0.13353900  0.50031600  0.67769400  1
  S  S7  1  0.86646100  0.49968400  0.32230600  1
  S  S8  1  0.83552500  0.16447500  0.75000000  1
  S  S9  1  0.16447500  0.83552500  0.25000000  1
  O  O10  1  0.34219000  0.96145100  0.69977100  1
  O  O11  1  0.65781000  0.03854900  0.30022900  1
  O  O12  1  0.03854900  0.65781000  0.80022900  1
  O  O13  1  0.96145100  0.34219000  0.19977100  1
  O  O14  1  0.62674900  0.01846100  0.99669500  1
  O  O15  1  0.37325100  0.98153900  0.00330500  1
  O  O16  1  0.98153900  0.37325100  0.50330500  1
  O  O17  1  0.01846100  0.62674900  0.49669500  1
  O  O18  1  0.35499300  0.35042100  0.62390600  1
  O  O19  1  0.64500700  0.64957900  0.37609400  1
  O  O20  1  0.64957900  0.64500700  0.87609400  1
  O  O21  1  0.35042100  0.35499300  0.12390600  1
  O  O22  1  0.60467400  0.89590600  0.71011800  1
  O  O23  1  0.39532600  0.10409400  0.28988200  1
  O  O24  1  0.10409400  0.39532600  0.78988200  1
  O  O25  1  0.89590600  0.60467400  0.21011800  1
  O  O26  1  0.90823100  0.98001900  0.85623000  1
  O  O27  1  0.09176900  0.01998100  0.14377000  1
  O  O28  1  0.01998100  0.09176900  0.64377000  1
  O  O29  1  0.98001900  0.90823100  0.35623000  1
  O  O30  1  0.69251100  0.26008900  0.61111500  1
  O  O31  1  0.30748900  0.73991100  0.38888500  1
  O  O32  1  0.73991100  0.30748900  0.88888500  1
  O  O33  1  0.26008900  0.69251100  0.11111500  1
