# generated using pymatgen
data_Ho4MgCo
_symmetry_space_group_name_H-M   'P 1'
_cell_length_a   9.54629227
_cell_length_b   9.54629227
_cell_length_c   9.54629227
_cell_angle_alpha   60.00000000
_cell_angle_beta   60.00000000
_cell_angle_gamma   60.00000000
_symmetry_Int_Tables_number   1
_chemical_formula_structural   Ho4MgCo
_chemical_formula_sum   'Ho16 Mg4 Co4'
_cell_volume   615.16154949
_cell_formula_units_Z   4
loop_
 _symmetry_equiv_pos_site_id
 _symmetry_equiv_pos_as_xyz
  1  'x, y, z'
loop_
 _atom_site_type_symbol
 _atom_site_label
 _atom_site_symmetry_multiplicity
 _atom_site_fract_x
 _atom_site_fract_y
 _atom_site_fract_z
 _atom_site_occupancy
  Ho  Ho0  1  0.34502400  0.34502400  0.34502400  1
  Ho  Ho1  1  0.34502400  0.34502400  0.96492900  1
  Ho  Ho2  1  0.34502400  0.96492900  0.34502400  1
  Ho  Ho3  1  0.96492900  0.34502400  0.34502400  1
  Ho  Ho4  1  0.81398700  0.18601300  0.18601300  1
  Ho  Ho5  1  0.18601300  0.81398700  0.81398700  1
  Ho  Ho6  1  0.18601300  0.81398700  0.18601300  1
  Ho  Ho7  1  0.81398700  0.18601300  0.81398700  1
  Ho  Ho8  1  0.18601300  0.18601300  0.81398700  1
  Ho  Ho9  1  0.81398700  0.81398700  0.18601300  1
  Ho  Ho10  1  0.93679500  0.56320500  0.56320500  1
  Ho  Ho11  1  0.56320500  0.93679500  0.93679500  1
  Ho  Ho12  1  0.56320500  0.93679500  0.56320500  1
  Ho  Ho13  1  0.93679500  0.56320500  0.93679500  1
  Ho  Ho14  1  0.56320500  0.56320500  0.93679500  1
  Ho  Ho15  1  0.93679500  0.93679500  0.56320500  1
  Mg  Mg16  1  0.57903800  0.57903800  0.57903800  1
  Mg  Mg17  1  0.57903800  0.57903800  0.26288500  1
  Mg  Mg18  1  0.57903800  0.26288500  0.57903800  1
  Mg  Mg19  1  0.26288500  0.57903800  0.57903800  1
  Co  Co20  1  0.14102800  0.14102800  0.14102800  1
  Co  Co21  1  0.14102800  0.14102800  0.57691600  1
  Co  Co22  1  0.14102800  0.57691600  0.14102800  1
  Co  Co23  1  0.57691600  0.14102800  0.14102800  1
