# generated using pymatgen
data_Al2CuIr
_symmetry_space_group_name_H-M   'P 1'
_cell_length_a   4.80231061
_cell_length_b   4.80231061
_cell_length_c   5.24786900
_cell_angle_alpha   90.00000000
_cell_angle_beta   90.00000000
_cell_angle_gamma   115.77168990
_symmetry_Int_Tables_number   1
_chemical_formula_structural   Al2CuIr
_chemical_formula_sum   'Al4 Cu2 Ir2'
_cell_volume   108.98919695
_cell_formula_units_Z   2
loop_
 _symmetry_equiv_pos_site_id
 _symmetry_equiv_pos_as_xyz
  1  'x, y, z'
loop_
 _atom_site_type_symbol
 _atom_site_label
 _atom_site_symmetry_multiplicity
 _atom_site_fract_x
 _atom_site_fract_y
 _atom_site_fract_z
 _atom_site_occupancy
  Al  Al0  1  0.25000000  0.25000000  0.50000000  1
  Al  Al1  1  0.75000000  0.75000000  0.50000000  1
  Al  Al2  1  0.75000000  0.25000000  0.17017300  1
  Al  Al3  1  0.25000000  0.75000000  0.82982700  1
  Cu  Cu4  1  0.25000000  0.25000000  0.00000000  1
  Cu  Cu5  1  0.75000000  0.75000000  0.00000000  1
  Ir  Ir6  1  0.25000000  0.75000000  0.32077800  1
  Ir  Ir7  1  0.75000000  0.25000000  0.67922200  1
