# generated using pymatgen
data_Pm2(WO4)3
_symmetry_space_group_name_H-M   'P 1'
_cell_length_a   7.05607909
_cell_length_b   7.05607909
_cell_length_c   11.67235500
_cell_angle_alpha   79.12044956
_cell_angle_beta   79.12044956
_cell_angle_gamma   111.87604091
_symmetry_Int_Tables_number   1
_chemical_formula_structural   Pm2(WO4)3
_chemical_formula_sum   'Pm4 W6 O24'
_cell_volume   507.75435571
_cell_formula_units_Z   2
loop_
 _symmetry_equiv_pos_site_id
 _symmetry_equiv_pos_as_xyz
  1  'x, y, z'
loop_
 _atom_site_type_symbol
 _atom_site_label
 _atom_site_symmetry_multiplicity
 _atom_site_fract_x
 _atom_site_fract_y
 _atom_site_fract_z
 _atom_site_occupancy
  Pm  Pm0  1  0.19421500  0.44811800  0.59367800  1
  Pm  Pm1  1  0.80578500  0.55188200  0.40632200  1
  Pm  Pm2  1  0.55188200  0.80578500  0.90632200  1
  Pm  Pm3  1  0.44811800  0.19421500  0.09367800  1
  W  W4  1  0.00974200  0.29909400  0.95072400  1
  W  W5  1  0.99025800  0.70090600  0.04927600  1
  W  W6  1  0.70090600  0.99025800  0.54927600  1
  W  W7  1  0.29909400  0.00974200  0.45072400  1
  W  W8  1  0.61744200  0.38255800  0.75000000  1
  W  W9  1  0.38255800  0.61744200  0.25000000  1
  O  O10  1  0.54998600  0.46801400  0.60955800  1
  O  O11  1  0.45001400  0.53198600  0.39044200  1
  O  O12  1  0.53198600  0.45001400  0.89044200  1
  O  O13  1  0.46801400  0.54998600  0.10955800  1
  O  O14  1  0.51389600  0.09783500  0.78177600  1
  O  O15  1  0.48610400  0.90216500  0.21822400  1
  O  O16  1  0.90216500  0.48610400  0.71822400  1
  O  O17  1  0.09783500  0.51389600  0.28177600  1
  O  O18  1  0.72570000  0.12565500  0.96159800  1
  O  O19  1  0.27430000  0.87434500  0.03840200  1
  O  O20  1  0.87434500  0.27430000  0.53840200  1
  O  O21  1  0.12565500  0.72570000  0.46159800  1
  O  O22  1  0.40018900  0.82591600  0.57511700  1
  O  O23  1  0.59981100  0.17408400  0.42488300  1
  O  O24  1  0.17408400  0.59981100  0.92488300  1
  O  O25  1  0.82591600  0.40018900  0.07511700  1
  O  O26  1  0.15073000  0.29641600  0.80291400  1
  O  O27  1  0.84927000  0.70358400  0.19708600  1
  O  O28  1  0.70358400  0.84927000  0.69708600  1
  O  O29  1  0.29641600  0.15073000  0.30291400  1
  O  O30  1  0.89232200  0.82505700  0.94201400  1
  O  O31  1  0.10767800  0.17494300  0.05798600  1
  O  O32  1  0.17494300  0.10767800  0.55798600  1
  O  O33  1  0.82505700  0.89232200  0.44201400  1
