# generated using pymatgen
data_Er21(In2Rh5)2
_symmetry_space_group_name_H-M   'P 1'
_cell_length_a   14.91314816
_cell_length_b   14.91314816
_cell_length_c   14.91314816
_cell_angle_alpha   134.14245627
_cell_angle_beta   134.14245627
_cell_angle_gamma   66.86558903
_symmetry_Int_Tables_number   1
_chemical_formula_structural   Er21(In2Rh5)2
_chemical_formula_sum   'Er42 In8 Rh20'
_cell_volume   1680.42482527
_cell_formula_units_Z   2
loop_
 _symmetry_equiv_pos_site_id
 _symmetry_equiv_pos_as_xyz
  1  'x, y, z'
loop_
 _atom_site_type_symbol
 _atom_site_label
 _atom_site_symmetry_multiplicity
 _atom_site_fract_x
 _atom_site_fract_y
 _atom_site_fract_z
 _atom_site_occupancy
  Er  Er0  1  0.26932800  0.39467800  0.28132200  1
  Er  Er1  1  0.73067200  0.60532200  0.71867800  1
  Er  Er2  1  0.11335600  0.98800600  0.71867800  1
  Er  Er3  1  0.39467800  0.11335600  0.12535000  1
  Er  Er4  1  0.38664400  0.10532200  0.87465000  1
  Er  Er5  1  0.88664400  0.01199400  0.28132200  1
  Er  Er6  1  0.60532200  0.88664400  0.87465000  1
  Er  Er7  1  0.61335600  0.89467800  0.12535000  1
  Er  Er8  1  0.98800600  0.26932800  0.87465000  1
  Er  Er9  1  0.23067200  0.51199400  0.12535000  1
  Er  Er10  1  0.01199400  0.73067200  0.12535000  1
  Er  Er11  1  0.76932800  0.48800600  0.87465000  1
  Er  Er12  1  0.51199400  0.38664400  0.28132200  1
  Er  Er13  1  0.48800600  0.61335600  0.71867800  1
  Er  Er14  1  0.10532200  0.23067200  0.71867800  1
  Er  Er15  1  0.89467800  0.76932800  0.28132200  1
  Er  Er16  1  0.60223500  0.10223500  0.50000000  1
  Er  Er17  1  0.39776500  0.89776500  0.50000000  1
  Er  Er18  1  0.10223500  0.60223500  0.50000000  1
  Er  Er19  1  0.89776500  0.39776500  0.50000000  1
  Er  Er20  1  0.65052100  0.15052100  0.80104300  1
  Er  Er21  1  0.34947900  0.84947900  0.19895700  1
  Er  Er22  1  0.15052100  0.34947900  0.50000000  1
  Er  Er23  1  0.84947900  0.65052100  0.50000000  1
  Er  Er24  1  0.27091000  0.14561600  0.27669800  1
  Er  Er25  1  0.72909000  0.85438400  0.72330200  1
  Er  Er26  1  0.86891800  0.99421200  0.72330200  1
  Er  Er27  1  0.14561600  0.86891800  0.87470600  1
  Er  Er28  1  0.63108200  0.35438400  0.12529400  1
  Er  Er29  1  0.13108200  0.00578800  0.27669800  1
  Er  Er30  1  0.85438400  0.13108200  0.12529400  1
  Er  Er31  1  0.36891800  0.64561600  0.87470600  1
  Er  Er32  1  0.99421200  0.27091000  0.12529400  1
  Er  Er33  1  0.22909000  0.50578800  0.87470600  1
  Er  Er34  1  0.00578800  0.72909000  0.87470600  1
  Er  Er35  1  0.77091000  0.49421200  0.12529400  1
  Er  Er36  1  0.50578800  0.63108200  0.27669800  1
  Er  Er37  1  0.49421200  0.36891800  0.72330200  1
  Er  Er38  1  0.35438400  0.22909000  0.72330200  1
  Er  Er39  1  0.64561600  0.77091000  0.27669800  1
  Er  Er40  1  0.75000000  0.25000000  0.50000000  1
  Er  Er41  1  0.25000000  0.75000000  0.50000000  1
  In  In42  1  0.34130400  0.84130400  0.81258600  1
  In  In43  1  0.65869600  0.15869600  0.18741400  1
  In  In44  1  0.02871800  0.52871800  0.18741400  1
  In  In45  1  0.84130400  0.02871800  0.50000000  1
  In  In46  1  0.47128200  0.65869600  0.50000000  1
  In  In47  1  0.97128200  0.47128200  0.81258600  1
  In  In48  1  0.15869600  0.97128200  0.50000000  1
  In  In49  1  0.52871800  0.34130400  0.50000000  1
  Rh  Rh50  1  0.79215900  0.29215900  0.86993100  1
  Rh  Rh51  1  0.20784100  0.70784100  0.13006900  1
  Rh  Rh52  1  0.42222800  0.92222800  0.13006900  1
  Rh  Rh53  1  0.29215900  0.42222800  0.50000000  1
  Rh  Rh54  1  0.07777200  0.20784100  0.50000000  1
  Rh  Rh55  1  0.57777200  0.07777200  0.86993100  1
  Rh  Rh56  1  0.70784100  0.57777200  0.50000000  1
  Rh  Rh57  1  0.92222800  0.79215900  0.50000000  1
  Rh  Rh58  1  0.09741500  0.59741500  0.69483000  1
  Rh  Rh59  1  0.90258500  0.40258500  0.30517000  1
  Rh  Rh60  1  0.59741500  0.90258500  0.50000000  1
  Rh  Rh61  1  0.40258500  0.09741500  0.50000000  1
  Rh  Rh62  1  0.00000000  0.00000000  0.00000000  1
  Rh  Rh63  1  0.50000000  0.50000000  0.00000000  1
  Rh  Rh64  1  0.13137500  0.13137500  0.00000000  1
  Rh  Rh65  1  0.86862500  0.86862500  0.00000000  1
  Rh  Rh66  1  0.36862500  0.36862500  0.00000000  1
  Rh  Rh67  1  0.63137500  0.63137500  0.00000000  1
  Rh  Rh68  1  0.25000000  0.25000000  0.00000000  1
  Rh  Rh69  1  0.75000000  0.75000000  0.00000000  1
