# generated using pymatgen
data_Ag8SnS6
_symmetry_space_group_name_H-M   'P 1'
_cell_length_a   7.70814600
_cell_length_b   10.88417700
_cell_length_c   15.48728700
_cell_angle_alpha   90.00000000
_cell_angle_beta   90.00000000
_cell_angle_gamma   90.00000000
_symmetry_Int_Tables_number   1
_chemical_formula_structural   Ag8SnS6
_chemical_formula_sum   'Ag32 Sn4 S24'
_cell_volume   1299.33421345
_cell_formula_units_Z   4
loop_
 _symmetry_equiv_pos_site_id
 _symmetry_equiv_pos_as_xyz
  1  'x, y, z'
loop_
 _atom_site_type_symbol
 _atom_site_label
 _atom_site_symmetry_multiplicity
 _atom_site_fract_x
 _atom_site_fract_y
 _atom_site_fract_z
 _atom_site_occupancy
  Ag  Ag0  1  0.51986100  0.11254200  0.47951300  1
  Ag  Ag1  1  0.98013900  0.11254200  0.97951300  1
  Ag  Ag2  1  0.48013900  0.61254200  0.52048700  1
  Ag  Ag3  1  0.36194600  0.91389800  0.76033800  1
  Ag  Ag4  1  0.13805400  0.91389800  0.26033800  1
  Ag  Ag5  1  0.86194600  0.41389800  0.73966200  1
  Ag  Ag6  1  0.01986100  0.61254200  0.02048700  1
  Ag  Ag7  1  0.63805400  0.41389800  0.23966200  1
  Ag  Ag8  1  0.27155800  0.37318400  0.12885600  1
  Ag  Ag9  1  0.72844200  0.87318400  0.87114400  1
  Ag  Ag10  1  0.22844200  0.37318400  0.62885600  1
  Ag  Ag11  1  0.77155800  0.87318400  0.37114400  1
  Ag  Ag12  1  0.87653100  0.19000200  0.22663600  1
  Ag  Ag13  1  0.12346900  0.69000200  0.77336400  1
  Ag  Ag14  1  0.62346900  0.19000200  0.72663600  1
  Ag  Ag15  1  0.37653100  0.69000200  0.27336400  1
  Ag  Ag16  1  0.60378700  0.19345500  0.09041000  1
  Ag  Ag17  1  0.39621300  0.69345500  0.90959000  1
  Ag  Ag18  1  0.23488200  0.83248900  0.06083200  1
  Ag  Ag19  1  0.10378700  0.69345500  0.40959000  1
  Ag  Ag20  1  0.00963600  0.59861200  0.22745200  1
  Ag  Ag21  1  0.89621300  0.19345500  0.59041000  1
  Ag  Ag22  1  0.49036400  0.59861200  0.72745200  1
  Ag  Ag23  1  0.50963600  0.09861200  0.27254800  1
  Ag  Ag24  1  0.56635300  0.51800000  0.06488000  1
  Ag  Ag25  1  0.43364700  0.01800000  0.93512000  1
  Ag  Ag26  1  0.93364700  0.51800000  0.56488000  1
  Ag  Ag27  1  0.06635300  0.01800000  0.43512000  1
  Ag  Ag28  1  0.73488200  0.33248900  0.43916800  1
  Ag  Ag29  1  0.26511800  0.83248900  0.56083200  1
  Ag  Ag30  1  0.76511800  0.33248900  0.93916800  1
  Ag  Ag31  1  0.99036400  0.09861200  0.77254800  1
  Sn  Sn32  1  0.73461000  0.84865700  0.12496600  1
  Sn  Sn33  1  0.26539000  0.34865700  0.87503400  1
  Sn  Sn34  1  0.76539000  0.84865700  0.62496600  1
  Sn  Sn35  1  0.23461000  0.34865700  0.37503400  1
  S  S36  1  0.76838900  0.10561200  0.37512400  1
  S  S37  1  0.23161100  0.60561200  0.62487600  1
  S  S38  1  0.73161100  0.10561200  0.87512400  1
  S  S39  1  0.26838900  0.60561200  0.12487600  1
  S  S40  1  0.80914300  0.36478000  0.11173200  1
  S  S41  1  0.19085700  0.86478000  0.88826800  1
  S  S42  1  0.69085700  0.36478000  0.61173200  1
  S  S43  1  0.30914300  0.86478000  0.38826800  1
  S  S44  1  0.72452700  0.71927800  0.25097700  1
  S  S45  1  0.27547300  0.21927800  0.74902300  1
  S  S46  1  0.77547300  0.71927800  0.75097700  1
  S  S47  1  0.22452700  0.21927800  0.24902300  1
  S  S48  1  0.98980800  0.97946200  0.12675300  1
  S  S49  1  0.01019200  0.47946200  0.87324700  1
  S  S50  1  0.51019200  0.97946200  0.62675300  1
  S  S51  1  0.48980800  0.47946200  0.37324700  1
  S  S52  1  0.76821800  0.71784900  0.49901600  1
  S  S53  1  0.23178200  0.21784900  0.50098400  1
  S  S54  1  0.73178200  0.71784900  0.99901600  1
  S  S55  1  0.26821800  0.21784900  0.00098400  1
  S  S56  1  0.98372400  0.48208000  0.37930500  1
  S  S57  1  0.01627600  0.98208000  0.62069500  1
  S  S58  1  0.51627600  0.48208000  0.87930500  1
  S  S59  1  0.48372400  0.98208000  0.12069500  1
