# generated using pymatgen
data_Th(NiP)2
_symmetry_space_group_name_H-M   'P 1'
_cell_length_a   3.93850900
_cell_length_b   8.23695900
_cell_length_c   9.80272600
_cell_angle_alpha   90.00000000
_cell_angle_beta   90.00000000
_cell_angle_gamma   90.00000000
_symmetry_Int_Tables_number   1
_chemical_formula_structural   Th(NiP)2
_chemical_formula_sum   'Th4 Ni8 P8'
_cell_volume   318.01353920
_cell_formula_units_Z   4
loop_
 _symmetry_equiv_pos_site_id
 _symmetry_equiv_pos_as_xyz
  1  'x, y, z'
loop_
 _atom_site_type_symbol
 _atom_site_label
 _atom_site_symmetry_multiplicity
 _atom_site_fract_x
 _atom_site_fract_y
 _atom_site_fract_z
 _atom_site_occupancy
  Th  Th0  1  0.25000000  0.25990000  0.66958300  1
  Th  Th1  1  0.75000000  0.74010000  0.33041700  1
  Th  Th2  1  0.25000000  0.75990000  0.83041700  1
  Th  Th3  1  0.75000000  0.24010000  0.16958300  1
  Ni  Ni4  1  0.75000000  0.08261400  0.45151100  1
  Ni  Ni5  1  0.25000000  0.91738600  0.54848900  1
  Ni  Ni6  1  0.75000000  0.58261400  0.04848900  1
  Ni  Ni7  1  0.25000000  0.41738600  0.95151100  1
  Ni  Ni8  1  0.25000000  0.95231900  0.12360200  1
  Ni  Ni9  1  0.75000000  0.04768100  0.87639800  1
  Ni  Ni10  1  0.25000000  0.45231900  0.37639800  1
  Ni  Ni11  1  0.75000000  0.54768100  0.62360200  1
  P  P12  1  0.25000000  0.14333300  0.95087800  1
  P  P13  1  0.75000000  0.85666700  0.04912200  1
  P  P14  1  0.25000000  0.64333300  0.54912200  1
  P  P15  1  0.75000000  0.35666700  0.45087800  1
  P  P16  1  0.25000000  0.53092100  0.16106500  1
  P  P17  1  0.75000000  0.46907900  0.83893500  1
  P  P18  1  0.25000000  0.03092100  0.33893500  1
  P  P19  1  0.75000000  0.96907900  0.66106500  1
