# generated using pymatgen
data_HfSn2
_symmetry_space_group_name_H-M   'P 1'
_cell_length_a   5.54980825
_cell_length_b   5.54980825
_cell_length_c   7.67969800
_cell_angle_alpha   90.00000000
_cell_angle_beta   90.00000000
_cell_angle_gamma   120.00000295
_symmetry_Int_Tables_number   1
_chemical_formula_structural   HfSn2
_chemical_formula_sum   'Hf3 Sn6'
_cell_volume   204.84752294
_cell_formula_units_Z   3
loop_
 _symmetry_equiv_pos_site_id
 _symmetry_equiv_pos_as_xyz
  1  'x, y, z'
loop_
 _atom_site_type_symbol
 _atom_site_label
 _atom_site_symmetry_multiplicity
 _atom_site_fract_x
 _atom_site_fract_y
 _atom_site_fract_z
 _atom_site_occupancy
  Hf  Hf0  1  0.50000000  0.50000000  0.33333300  1
  Hf  Hf1  1  0.50000000  0.00000000  0.00000000  1
  Hf  Hf2  1  0.00000000  0.50000000  0.66666700  1
  Sn  Sn3  1  0.16755900  0.83244100  0.33333300  1
  Sn  Sn4  1  0.16755900  0.33511700  0.00000000  1
  Sn  Sn5  1  0.66488300  0.83244100  0.66666700  1
  Sn  Sn6  1  0.83244100  0.16755900  0.33333300  1
  Sn  Sn7  1  0.83244100  0.66488300  0.00000000  1
  Sn  Sn8  1  0.33511700  0.16755900  0.66666700  1
