# generated using pymatgen
data_Ca(CuO2)2
_symmetry_space_group_name_H-M   'P 1'
_cell_length_a   6.27789233
_cell_length_b   6.27789233
_cell_length_c   6.27789233
_cell_angle_alpha   124.72018478
_cell_angle_beta   124.72018478
_cell_angle_gamma   82.00201679
_symmetry_Int_Tables_number   1
_chemical_formula_structural   Ca(CuO2)2
_chemical_formula_sum   'Ca2 Cu4 O8'
_cell_volume   160.74897897
_cell_formula_units_Z   2
loop_
 _symmetry_equiv_pos_site_id
 _symmetry_equiv_pos_as_xyz
  1  'x, y, z'
loop_
 _atom_site_type_symbol
 _atom_site_label
 _atom_site_symmetry_multiplicity
 _atom_site_fract_x
 _atom_site_fract_y
 _atom_site_fract_z
 _atom_site_occupancy
  Ca  Ca0  1  0.75000000  0.25000000  0.50000000  1
  Ca  Ca1  1  0.00000000  0.00000000  0.00000000  1
  Cu  Cu2  1  0.87500000  0.62500000  0.25000000  1
  Cu  Cu3  1  0.37500000  0.62500000  0.75000000  1
  Cu  Cu4  1  0.37500000  0.12500000  0.75000000  1
  Cu  Cu5  1  0.37500000  0.62500000  0.25000000  1
  O  O6  1  0.02549100  0.94464900  0.37020000  1
  O  O7  1  0.05535100  0.42555100  0.08084200  1
  O  O8  1  0.34470900  0.97450900  0.91915800  1
  O  O9  1  0.17555100  0.59470900  0.87020000  1
  O  O10  1  0.40529100  0.27549100  0.58084200  1
  O  O11  1  0.69464900  0.82444900  0.41915800  1
  O  O12  1  0.57444900  0.65529100  0.62980000  1
  O  O13  1  0.72450900  0.30535100  0.12980000  1
