# generated using pymatgen
data_YbH3CN3
_symmetry_space_group_name_H-M   'P 1'
_cell_length_a   5.21032851
_cell_length_b   5.21032851
_cell_length_c   6.55975600
_cell_angle_alpha   90.00000000
_cell_angle_beta   90.00000000
_cell_angle_gamma   120.00000649
_symmetry_Int_Tables_number   1
_chemical_formula_structural   YbH3CN3
_chemical_formula_sum   'Yb2 H6 C2 N6'
_cell_volume   154.22277082
_cell_formula_units_Z   2
loop_
 _symmetry_equiv_pos_site_id
 _symmetry_equiv_pos_as_xyz
  1  'x, y, z'
loop_
 _atom_site_type_symbol
 _atom_site_label
 _atom_site_symmetry_multiplicity
 _atom_site_fract_x
 _atom_site_fract_y
 _atom_site_fract_z
 _atom_site_occupancy
  Yb  Yb0  1  0.00000000  0.00000000  0.50000000  1
  Yb  Yb1  1  0.00000000  0.00000000  0.00000000  1
  H  H2  1  0.09139200  0.56307500  0.75000000  1
  H  H3  1  0.43692500  0.52831800  0.75000000  1
  H  H4  1  0.47168200  0.90860800  0.75000000  1
  H  H5  1  0.90860800  0.43692500  0.25000000  1
  H  H6  1  0.56307500  0.47168200  0.25000000  1
  H  H7  1  0.52831800  0.09139200  0.25000000  1
  C  C8  1  0.66666700  0.33333300  0.75000000  1
  C  C9  1  0.33333300  0.66666700  0.25000000  1
  N  N10  1  0.91885000  0.60367800  0.75000000  1
  N  N11  1  0.39632200  0.31517300  0.75000000  1
  N  N12  1  0.68482700  0.08115000  0.75000000  1
  N  N13  1  0.08115000  0.39632200  0.25000000  1
  N  N14  1  0.60367800  0.68482700  0.25000000  1
  N  N15  1  0.31517300  0.91885000  0.25000000  1
