# generated using pymatgen
data_TmCu5Sn
_symmetry_space_group_name_H-M   'P 1'
_cell_length_a   4.99152200
_cell_length_b   8.20596900
_cell_length_c   10.58474400
_cell_angle_alpha   90.00000000
_cell_angle_beta   90.00000000
_cell_angle_gamma   90.00000000
_symmetry_Int_Tables_number   1
_chemical_formula_structural   TmCu5Sn
_chemical_formula_sum   'Tm4 Cu20 Sn4'
_cell_volume   433.55402287
_cell_formula_units_Z   4
loop_
 _symmetry_equiv_pos_site_id
 _symmetry_equiv_pos_as_xyz
  1  'x, y, z'
loop_
 _atom_site_type_symbol
 _atom_site_label
 _atom_site_symmetry_multiplicity
 _atom_site_fract_x
 _atom_site_fract_y
 _atom_site_fract_z
 _atom_site_occupancy
  Tm  Tm0  1  0.25000000  0.75197500  0.06345700  1
  Tm  Tm1  1  0.75000000  0.24802500  0.93654300  1
  Tm  Tm2  1  0.75000000  0.74802500  0.56345700  1
  Tm  Tm3  1  0.25000000  0.25197500  0.43654300  1
  Cu  Cu4  1  0.25000000  0.81363000  0.74520700  1
  Cu  Cu5  1  0.75000000  0.18637000  0.25479300  1
  Cu  Cu6  1  0.75000000  0.68637000  0.24520700  1
  Cu  Cu7  1  0.25000000  0.31363000  0.75479300  1
  Cu  Cu8  1  0.50163500  0.56522600  0.81312300  1
  Cu  Cu9  1  0.49836500  0.43477400  0.18687700  1
  Cu  Cu10  1  0.49836500  0.93477400  0.31312300  1
  Cu  Cu11  1  0.00163500  0.43477400  0.18687700  1
  Cu  Cu12  1  0.50163500  0.06522600  0.68687700  1
  Cu  Cu13  1  0.99836500  0.56522600  0.81312300  1
  Cu  Cu14  1  0.99836500  0.06522600  0.68687700  1
  Cu  Cu15  1  0.00163500  0.93477400  0.31312300  1
  Cu  Cu16  1  0.25000000  0.91230800  0.51763700  1
  Cu  Cu17  1  0.75000000  0.08769200  0.48236300  1
  Cu  Cu18  1  0.75000000  0.58769200  0.01763700  1
  Cu  Cu19  1  0.25000000  0.41230800  0.98236300  1
  Cu  Cu20  1  0.25000000  0.55836600  0.60191500  1
  Cu  Cu21  1  0.75000000  0.44163400  0.39808500  1
  Cu  Cu22  1  0.75000000  0.94163400  0.10191500  1
  Cu  Cu23  1  0.25000000  0.05836600  0.89808500  1
  Sn  Sn24  1  0.25000000  0.64008200  0.36132400  1
  Sn  Sn25  1  0.75000000  0.35991800  0.63867500  1
  Sn  Sn26  1  0.75000000  0.85991800  0.86132500  1
  Sn  Sn27  1  0.25000000  0.14008200  0.13867600  1
