# generated using pymatgen
data_Nd2GeO5
_symmetry_space_group_name_H-M   'P 1'
_cell_length_a   7.34015100
_cell_length_b   7.04660800
_cell_length_c   9.55252871
_cell_angle_alpha   73.61223468
_cell_angle_beta   90.00000000
_cell_angle_gamma   90.00000000
_symmetry_Int_Tables_number   1
_chemical_formula_structural   Nd2GeO5
_chemical_formula_sum   'Nd8 Ge4 O20'
_cell_volume   474.01437559
_cell_formula_units_Z   4
loop_
 _symmetry_equiv_pos_site_id
 _symmetry_equiv_pos_as_xyz
  1  'x, y, z'
loop_
 _atom_site_type_symbol
 _atom_site_label
 _atom_site_symmetry_multiplicity
 _atom_site_fract_x
 _atom_site_fract_y
 _atom_site_fract_z
 _atom_site_occupancy
  Nd  Nd0  1  0.63751800  0.06326900  0.12621200  1
  Nd  Nd1  1  0.13751800  0.43673100  0.87378800  1
  Nd  Nd2  1  0.36248200  0.93673100  0.87378800  1
  Nd  Nd3  1  0.86248200  0.56326900  0.12621200  1
  Nd  Nd4  1  0.12719600  0.26772900  0.52405600  1
  Nd  Nd5  1  0.62719600  0.23227100  0.47594400  1
  Nd  Nd6  1  0.87280400  0.73227100  0.47594400  1
  Nd  Nd7  1  0.37280400  0.76772900  0.52405600  1
  Ge  Ge8  1  0.08919400  0.03092100  0.19950000  1
  Ge  Ge9  1  0.58919400  0.46907900  0.80050000  1
  Ge  Ge10  1  0.91080600  0.96907900  0.80050000  1
  Ge  Ge11  1  0.41080600  0.53092100  0.19950000  1
  O  O12  1  0.91788900  0.84172300  0.21241400  1
  O  O13  1  0.41788900  0.65827700  0.78758600  1
  O  O14  1  0.08211100  0.15827700  0.78758600  1
  O  O15  1  0.58211100  0.34172300  0.21241400  1
  O  O16  1  0.94803300  0.23445200  0.11418700  1
  O  O17  1  0.44803300  0.26554800  0.88581300  1
  O  O18  1  0.05196700  0.76554800  0.88581300  1
  O  O19  1  0.55196700  0.73445200  0.11418700  1
  O  O20  1  0.13304100  0.99261700  0.39022900  1
  O  O21  1  0.63304100  0.50738300  0.60977100  1
  O  O22  1  0.86695900  0.00738300  0.60977100  1
  O  O23  1  0.36695900  0.49261700  0.39022900  1
  O  O24  1  0.28699700  0.01200200  0.10534700  1
  O  O25  1  0.78699700  0.48799800  0.89465300  1
  O  O26  1  0.71300300  0.98799800  0.89465300  1
  O  O27  1  0.21300300  0.51200200  0.10534700  1
  O  O28  1  0.88203300  0.44087500  0.38748700  1
  O  O29  1  0.38203300  0.05912500  0.61251300  1
  O  O30  1  0.11796700  0.55912500  0.61251300  1
  O  O31  1  0.61796700  0.94087500  0.38748700  1
