# generated using pymatgen
data_PrThN2
_symmetry_space_group_name_H-M   'P 1'
_cell_length_a   3.67703100
_cell_length_b   3.67703100
_cell_length_c   5.17329300
_cell_angle_alpha   90.00000000
_cell_angle_beta   90.00000000
_cell_angle_gamma   90.00000000
_symmetry_Int_Tables_number   1
_chemical_formula_structural   PrThN2
_chemical_formula_sum   'Pr1 Th1 N2'
_cell_volume   69.94580275
_cell_formula_units_Z   1
loop_
 _symmetry_equiv_pos_site_id
 _symmetry_equiv_pos_as_xyz
  1  'x, y, z'
loop_
 _atom_site_type_symbol
 _atom_site_label
 _atom_site_symmetry_multiplicity
 _atom_site_fract_x
 _atom_site_fract_y
 _atom_site_fract_z
 _atom_site_occupancy
  Pr  Pr0  1  0.00000000  0.00000000  0.50000000  1
  Th  Th1  1  0.50000000  0.50000000  0.00000000  1
  N  N2  1  0.00000000  0.00000000  0.00000000  1
  N  N3  1  0.50000000  0.50000000  0.50000000  1
