# generated using pymatgen
data_Ca(AlS2)2
_symmetry_space_group_name_H-M   'P 1'
_cell_length_a   14.32597878
_cell_length_b   11.85515436
_cell_length_c   11.75970548
_cell_angle_alpha   74.69425687
_cell_angle_beta   52.95634769
_cell_angle_gamma   52.34939545
_symmetry_Int_Tables_number   1
_chemical_formula_structural   Ca(AlS2)2
_chemical_formula_sum   'Ca8 Al16 S32'
_cell_volume   1244.94827690
_cell_formula_units_Z   8
loop_
 _symmetry_equiv_pos_site_id
 _symmetry_equiv_pos_as_xyz
  1  'x, y, z'
loop_
 _atom_site_type_symbol
 _atom_site_label
 _atom_site_symmetry_multiplicity
 _atom_site_fract_x
 _atom_site_fract_y
 _atom_site_fract_z
 _atom_site_occupancy
  Ca  Ca0  1  0.99819800  0.99819800  0.50180200  1
  Ca  Ca1  1  0.50180200  0.50180200  0.99819800  1
  Ca  Ca2  1  0.25180200  0.25180200  0.74819800  1
  Ca  Ca3  1  0.74819800  0.74819800  0.25180200  1
  Ca  Ca4  1  0.75000000  0.75000000  0.75000000  1
  Ca  Ca5  1  0.50000000  0.50000000  0.50000000  1
  Ca  Ca6  1  0.25000000  0.25000000  0.25000000  1
  Ca  Ca7  1  0.00000000  0.00000000  0.00000000  1
  Al  Al8  1  0.73524200  0.01363700  0.99112800  1
  Al  Al9  1  0.25999300  0.99112800  0.01363700  1
  Al  Al10  1  0.99112800  0.25999300  0.73524200  1
  Al  Al11  1  0.01363700  0.73524200  0.25999300  1
  Al  Al12  1  0.51475800  0.23636300  0.25887200  1
  Al  Al13  1  0.99000700  0.25887200  0.23636300  1
  Al  Al14  1  0.25887200  0.99000700  0.51475800  1
  Al  Al15  1  0.23636300  0.51475800  0.99000700  1
  Al  Al16  1  0.59440100  0.15589200  0.76276100  1
  Al  Al17  1  0.48694700  0.76276100  0.15589200  1
  Al  Al18  1  0.76276100  0.48694700  0.59440100  1
  Al  Al19  1  0.15589200  0.59440100  0.48694700  1
  Al  Al20  1  0.65560000  0.09410800  0.48723900  1
  Al  Al21  1  0.76305300  0.48723900  0.09410800  1
  Al  Al22  1  0.48723900  0.76305300  0.65559900  1
  Al  Al23  1  0.09410800  0.65559900  0.76305300  1
  S  S24  1  0.31177400  0.44006000  0.27981700  1
  S  S25  1  0.96834800  0.27981700  0.44006000  1
  S  S26  1  0.27981700  0.96834800  0.31177400  1
  S  S27  1  0.44006000  0.31177400  0.96834800  1
  S  S28  1  0.93822600  0.80994000  0.97018300  1
  S  S29  1  0.28165200  0.97018300  0.80994000  1
  S  S30  1  0.97018300  0.28165200  0.93822600  1
  S  S31  1  0.80994000  0.93822600  0.28165200  1
  S  S32  1  0.04241100  0.03957700  0.20805600  1
  S  S33  1  0.70995600  0.20805600  0.03957700  1
  S  S34  1  0.20805600  0.70995600  0.04241100  1
  S  S35  1  0.03957700  0.04241100  0.70995600  1
  S  S36  1  0.20758900  0.21042300  0.04194400  1
  S  S37  1  0.54004400  0.04194400  0.21042300  1
  S  S38  1  0.04194400  0.54004400  0.20758900  1
  S  S39  1  0.21042300  0.20758900  0.54004400  1
  S  S40  1  0.54129300  0.53950800  0.20843200  1
  S  S41  1  0.71076700  0.20843200  0.53950800  1
  S  S42  1  0.20843200  0.71076700  0.54129300  1
  S  S43  1  0.53950800  0.54129300  0.71076700  1
  S  S44  1  0.70870700  0.71049200  0.04156800  1
  S  S45  1  0.53923300  0.04156800  0.71049200  1
  S  S46  1  0.04156800  0.53923300  0.70870700  1
  S  S47  1  0.71049200  0.70870700  0.53923300  1
  S  S48  1  0.97192500  0.77604400  0.46734000  1
  S  S49  1  0.78469100  0.46734000  0.77604400  1
  S  S50  1  0.46734000  0.78469100  0.97192500  1
  S  S51  1  0.77604400  0.97192500  0.78469100  1
  S  S52  1  0.27807500  0.47395600  0.78266000  1
  S  S53  1  0.46530900  0.78266000  0.47395600  1
  S  S54  1  0.78266000  0.46530900  0.27807500  1
  S  S55  1  0.47395600  0.27807500  0.46530900  1
