# generated using pymatgen
data_Ho4C7
_symmetry_space_group_name_H-M   'P 1'
_cell_length_a   12.53687400
_cell_length_b   3.68842100
_cell_length_c   13.75672770
_cell_angle_alpha   81.27766371
_cell_angle_beta   90.00000000
_cell_angle_gamma   90.00000000
_symmetry_Int_Tables_number   1
_chemical_formula_structural   Ho4C7
_chemical_formula_sum   'Ho16 C28'
_cell_volume   628.77162492
_cell_formula_units_Z   4
loop_
 _symmetry_equiv_pos_site_id
 _symmetry_equiv_pos_as_xyz
  1  'x, y, z'
loop_
 _atom_site_type_symbol
 _atom_site_label
 _atom_site_symmetry_multiplicity
 _atom_site_fract_x
 _atom_site_fract_y
 _atom_site_fract_z
 _atom_site_occupancy
  Ho  Ho0  1  0.01552600  0.69941400  0.10739200  1
  Ho  Ho1  1  0.51552600  0.30058600  0.39260800  1
  Ho  Ho2  1  0.98447400  0.30058600  0.89260800  1
  Ho  Ho3  1  0.48447400  0.69941400  0.60739200  1
  Ho  Ho4  1  0.03974400  0.87665100  0.38219500  1
  Ho  Ho5  1  0.53974400  0.12334900  0.11780500  1
  Ho  Ho6  1  0.96025600  0.12334900  0.61780500  1
  Ho  Ho7  1  0.46025600  0.87665100  0.88219500  1
  Ho  Ho8  1  0.80509300  0.13306800  0.21040400  1
  Ho  Ho9  1  0.30509300  0.86693200  0.28959600  1
  Ho  Ho10  1  0.19490700  0.86693200  0.78959600  1
  Ho  Ho11  1  0.69490700  0.13306800  0.71040400  1
  Ho  Ho12  1  0.76274400  0.73646200  0.99340800  1
  Ho  Ho13  1  0.26274400  0.26353800  0.50659200  1
  Ho  Ho14  1  0.23725600  0.26353800  0.00659200  1
  Ho  Ho15  1  0.73725600  0.73646200  0.49340800  1
  C  C16  1  0.11668200  0.79274900  0.94972500  1
  C  C17  1  0.61668200  0.20725100  0.55027500  1
  C  C18  1  0.88331800  0.20725100  0.05027500  1
  C  C19  1  0.38331800  0.79274900  0.44972500  1
  C  C20  1  0.64073500  0.83478600  0.32567800  1
  C  C21  1  0.14073500  0.16521400  0.17432200  1
  C  C22  1  0.35926500  0.16521400  0.67432200  1
  C  C23  1  0.85926500  0.83478600  0.82567800  1
  C  C24  1  0.88999600  0.24413500  0.45241000  1
  C  C25  1  0.38999600  0.75586500  0.04759000  1
  C  C26  1  0.11000400  0.75586500  0.54759000  1
  C  C27  1  0.61000400  0.24413500  0.95241000  1
  C  C28  1  0.91728400  0.59065900  0.27065200  1
  C  C29  1  0.41728400  0.40934100  0.22934800  1
  C  C30  1  0.08271600  0.40934100  0.72934800  1
  C  C31  1  0.58271600  0.59065900  0.77065200  1
  C  C32  1  0.67155000  0.62471400  0.15207500  1
  C  C33  1  0.17155000  0.37528600  0.34792500  1
  C  C34  1  0.32845000  0.37528600  0.84792500  1
  C  C35  1  0.82845000  0.62471400  0.65207500  1
  C  C36  1  0.89611600  0.41445000  0.36043500  1
  C  C37  1  0.39611600  0.58555000  0.13956500  1
  C  C38  1  0.10388400  0.58555000  0.63956500  1
  C  C39  1  0.60388400  0.41445000  0.86043500  1
  C  C40  1  0.65153500  0.69721600  0.24364500  1
  C  C41  1  0.15153500  0.30278400  0.25635500  1
  C  C42  1  0.34846500  0.30278400  0.75635500  1
  C  C43  1  0.84846500  0.69721600  0.74364500  1
