# generated using pymatgen
data_Ba3NaGd3(Si3O10)2
_symmetry_space_group_name_H-M   'P 1'
_cell_length_a   12.38538462
_cell_length_b   12.38538462
_cell_length_c   14.90206300
_cell_angle_alpha   90.00000000
_cell_angle_beta   90.00000000
_cell_angle_gamma   153.81756038
_symmetry_Int_Tables_number   1
_chemical_formula_structural   Ba3NaGd3(Si3O10)2
_chemical_formula_sum   'Ba6 Na2 Gd6 Si12 O40'
_cell_volume   1008.62852250
_cell_formula_units_Z   2
loop_
 _symmetry_equiv_pos_site_id
 _symmetry_equiv_pos_as_xyz
  1  'x, y, z'
loop_
 _atom_site_type_symbol
 _atom_site_label
 _atom_site_symmetry_multiplicity
 _atom_site_fract_x
 _atom_site_fract_y
 _atom_site_fract_z
 _atom_site_occupancy
  Ba  Ba0  1  0.01081200  0.84884300  0.25000000  1
  Ba  Ba1  1  0.84884300  0.01081200  0.75000000  1
  Ba  Ba2  1  0.68791000  0.17380700  0.88652300  1
  Ba  Ba3  1  0.17380700  0.68791000  0.11347700  1
  Ba  Ba4  1  0.68791000  0.17380700  0.61347700  1
  Ba  Ba5  1  0.17380700  0.68791000  0.38652300  1
  Na  Na6  1  0.46919900  0.24622300  0.75000000  1
  Na  Na7  1  0.24622300  0.46919900  0.25000000  1
  Gd  Gd8  1  0.61388100  0.39333500  0.03016600  1
  Gd  Gd9  1  0.39333500  0.61388100  0.96983400  1
  Gd  Gd10  1  0.61388100  0.39333500  0.46983400  1
  Gd  Gd11  1  0.39333500  0.61388100  0.53016600  1
  Gd  Gd12  1  0.00157900  0.00157900  0.00000000  1
  Gd  Gd13  1  0.00157900  0.00157900  0.50000000  1
  Si  Si14  1  0.64005900  0.28159700  0.25000000  1
  Si  Si15  1  0.28159700  0.64005900  0.75000000  1
  Si  Si16  1  0.11427100  0.81237900  0.94285800  1
  Si  Si17  1  0.81237900  0.11427100  0.05714200  1
  Si  Si18  1  0.11427100  0.81237900  0.55714200  1
  Si  Si19  1  0.81237900  0.11427100  0.44285800  1
  Si  Si20  1  0.44086300  0.44170800  0.86080400  1
  Si  Si21  1  0.44170800  0.44086300  0.13919600  1
  Si  Si22  1  0.44086300  0.44170800  0.63919600  1
  Si  Si23  1  0.44170800  0.44086300  0.36080400  1
  Si  Si24  1  0.09558700  0.71488100  0.75000000  1
  Si  Si25  1  0.71488100  0.09558700  0.25000000  1
  O  O26  1  0.96344900  0.78697700  0.96576100  1
  O  O27  1  0.78697700  0.96344900  0.03423900  1
  O  O28  1  0.96344900  0.78697700  0.53423900  1
  O  O29  1  0.78697700  0.96344900  0.46576100  1
  O  O30  1  0.91957200  0.54188900  0.96915300  1
  O  O31  1  0.54188900  0.91957200  0.03084700  1
  O  O32  1  0.91957200  0.54188900  0.53084700  1
  O  O33  1  0.54188900  0.91957200  0.46915300  1
  O  O34  1  0.45780500  0.43383800  0.75000000  1
  O  O35  1  0.43383800  0.45780500  0.25000000  1
  O  O36  1  0.19298800  0.87670500  0.83488700  1
  O  O37  1  0.87670500  0.19298800  0.16511300  1
  O  O38  1  0.19298800  0.87670500  0.66511300  1
  O  O39  1  0.87670500  0.19298800  0.33488700  1
  O  O40  1  0.78562300  0.29022300  0.25000000  1
  O  O41  1  0.29022300  0.78562300  0.75000000  1
  O  O42  1  0.66960400  0.72321000  0.89271700  1
  O  O43  1  0.72321000  0.66960400  0.10728300  1
  O  O44  1  0.66960400  0.72321000  0.60728300  1
  O  O45  1  0.72321000  0.66960400  0.39271700  1
  O  O46  1  0.37012800  0.02623100  0.99800200  1
  O  O47  1  0.02623100  0.37012800  0.00199800  1
  O  O48  1  0.37012800  0.02623100  0.50199800  1
  O  O49  1  0.02623100  0.37012800  0.49800200  1
  O  O50  1  0.75286700  0.44483800  0.16173100  1
  O  O51  1  0.44483800  0.75286700  0.83826900  1
  O  O52  1  0.75286700  0.44483800  0.33826900  1
  O  O53  1  0.44483800  0.75286700  0.66173100  1
  O  O54  1  0.28684800  0.19066600  0.11479000  1
  O  O55  1  0.19066600  0.28684800  0.88521000  1
  O  O56  1  0.28684800  0.19066600  0.38521000  1
  O  O57  1  0.19066600  0.28684800  0.61479000  1
  O  O58  1  0.34887900  0.99618100  0.25000000  1
  O  O59  1  0.99618100  0.34887900  0.75000000  1
  O  O60  1  0.41456000  0.30323100  0.91279900  1
  O  O61  1  0.30323100  0.41456000  0.08720100  1
  O  O62  1  0.41456000  0.30323100  0.58720100  1
  O  O63  1  0.30323100  0.41456000  0.41279900  1
  O  O64  1  0.81157700  0.42987500  0.75000000  1
  O  O65  1  0.42987500  0.81157700  0.25000000  1
