# generated using pymatgen
data_Dy3Cu3Sb4
_symmetry_space_group_name_H-M   'P 1'
_cell_length_a   8.29895863
_cell_length_b   8.29895863
_cell_length_c   8.29895863
_cell_angle_alpha   109.47122063
_cell_angle_beta   109.47122063
_cell_angle_gamma   109.47122063
_symmetry_Int_Tables_number   1
_chemical_formula_structural   Dy3Cu3Sb4
_chemical_formula_sum   'Dy6 Cu6 Sb8'
_cell_volume   439.99618249
_cell_formula_units_Z   2
loop_
 _symmetry_equiv_pos_site_id
 _symmetry_equiv_pos_as_xyz
  1  'x, y, z'
loop_
 _atom_site_type_symbol
 _atom_site_label
 _atom_site_symmetry_multiplicity
 _atom_site_fract_x
 _atom_site_fract_y
 _atom_site_fract_z
 _atom_site_occupancy
  Dy  Dy0  1  0.87500000  0.25000000  0.12500000  1
  Dy  Dy1  1  0.62500000  0.75000000  0.37500000  1
  Dy  Dy2  1  0.25000000  0.12500000  0.87500000  1
  Dy  Dy3  1  0.75000000  0.37500000  0.62500000  1
  Dy  Dy4  1  0.12500000  0.87500000  0.25000000  1
  Dy  Dy5  1  0.37500000  0.62500000  0.75000000  1
  Cu  Cu6  1  0.37500000  0.25000000  0.62500000  1
  Cu  Cu7  1  0.12500000  0.75000000  0.87500000  1
  Cu  Cu8  1  0.25000000  0.62500000  0.37500000  1
  Cu  Cu9  1  0.75000000  0.87500000  0.12500000  1
  Cu  Cu10  1  0.62500000  0.37500000  0.25000000  1
  Cu  Cu11  1  0.87500000  0.12500000  0.75000000  1
  Sb  Sb12  1  0.65983500  0.50000000  0.00000000  1
  Sb  Sb13  1  0.50000000  0.00000000  0.65983500  1
  Sb  Sb14  1  0.00000000  0.65983500  0.50000000  1
  Sb  Sb15  1  0.84016500  0.84016500  0.84016500  1
  Sb  Sb16  1  0.50000000  0.00000000  0.15983500  1
  Sb  Sb17  1  0.15983500  0.50000000  0.00000000  1
  Sb  Sb18  1  0.00000000  0.15983500  0.50000000  1
  Sb  Sb19  1  0.34016500  0.34016500  0.34016500  1
