# generated using pymatgen
data_HgAsPd5
_symmetry_space_group_name_H-M   'P 1'
_cell_length_a   4.05978200
_cell_length_b   4.05978200
_cell_length_c   7.16660300
_cell_angle_alpha   90.00000000
_cell_angle_beta   90.00000000
_cell_angle_gamma   90.00000000
_symmetry_Int_Tables_number   1
_chemical_formula_structural   HgAsPd5
_chemical_formula_sum   'Hg1 As1 Pd5'
_cell_volume   118.11873152
_cell_formula_units_Z   1
loop_
 _symmetry_equiv_pos_site_id
 _symmetry_equiv_pos_as_xyz
  1  'x, y, z'
loop_
 _atom_site_type_symbol
 _atom_site_label
 _atom_site_symmetry_multiplicity
 _atom_site_fract_x
 _atom_site_fract_y
 _atom_site_fract_z
 _atom_site_occupancy
  Hg  Hg0  1  0.50000000  0.50000000  0.00000000  1
  As  As1  1  0.00000000  0.00000000  0.50000000  1
  Pd  Pd2  1  0.00000000  0.00000000  0.00000000  1
  Pd  Pd3  1  0.50000000  0.00000000  0.70730300  1
  Pd  Pd4  1  0.00000000  0.50000000  0.70730300  1
  Pd  Pd5  1  0.50000000  0.00000000  0.29269700  1
  Pd  Pd6  1  0.00000000  0.50000000  0.29269700  1
