# generated using pymatgen
data_BaPr2O4
_symmetry_space_group_name_H-M   'P 1'
_cell_length_a   3.66544600
_cell_length_b   10.79125600
_cell_length_c   12.68673400
_cell_angle_alpha   90.00000000
_cell_angle_beta   90.00000000
_cell_angle_gamma   90.00000000
_symmetry_Int_Tables_number   1
_chemical_formula_structural   BaPr2O4
_chemical_formula_sum   'Ba4 Pr8 O16'
_cell_volume   501.82079645
_cell_formula_units_Z   4
loop_
 _symmetry_equiv_pos_site_id
 _symmetry_equiv_pos_as_xyz
  1  'x, y, z'
loop_
 _atom_site_type_symbol
 _atom_site_label
 _atom_site_symmetry_multiplicity
 _atom_site_fract_x
 _atom_site_fract_y
 _atom_site_fract_z
 _atom_site_occupancy
  Ba  Ba0  1  0.75000000  0.74875000  0.85331200  1
  Ba  Ba1  1  0.25000000  0.25125000  0.14668800  1
  Ba  Ba2  1  0.75000000  0.24875000  0.64668800  1
  Ba  Ba3  1  0.25000000  0.75125000  0.35331200  1
  Pr  Pr4  1  0.25000000  0.41981800  0.38870300  1
  Pr  Pr5  1  0.75000000  0.58018200  0.61129700  1
  Pr  Pr6  1  0.25000000  0.91981800  0.11129700  1
  Pr  Pr7  1  0.75000000  0.08018200  0.88870300  1
  Pr  Pr8  1  0.75000000  0.07536200  0.38714800  1
  Pr  Pr9  1  0.25000000  0.92463800  0.61285200  1
  Pr  Pr10  1  0.75000000  0.57536200  0.11285200  1
  Pr  Pr11  1  0.25000000  0.42463800  0.88714800  1
  O  O12  1  0.25000000  0.42896400  0.57669100  1
  O  O13  1  0.75000000  0.57103600  0.42330900  1
  O  O14  1  0.25000000  0.92896400  0.92330900  1
  O  O15  1  0.75000000  0.07103600  0.07669100  1
  O  O16  1  0.25000000  0.51411500  0.21715100  1
  O  O17  1  0.75000000  0.48588500  0.78284900  1
  O  O18  1  0.25000000  0.01411500  0.28284900  1
  O  O19  1  0.75000000  0.98588500  0.71715100  1
  O  O20  1  0.25000000  0.12311600  0.51863800  1
  O  O21  1  0.75000000  0.87688400  0.48136200  1
  O  O22  1  0.25000000  0.62311600  0.98136200  1
  O  O23  1  0.75000000  0.37688400  0.01863800  1
  O  O24  1  0.75000000  0.28801400  0.32848200  1
  O  O25  1  0.25000000  0.71198600  0.67151800  1
  O  O26  1  0.75000000  0.78801400  0.17151800  1
  O  O27  1  0.25000000  0.21198600  0.82848200  1
