# generated using pymatgen
data_Ca3MnCoO6
_symmetry_space_group_name_H-M   'P 1'
_cell_length_a   6.40108250
_cell_length_b   6.40764539
_cell_length_c   6.41171007
_cell_angle_alpha   91.99677790
_cell_angle_beta   91.97386558
_cell_angle_gamma   91.95699818
_symmetry_Int_Tables_number   1
_chemical_formula_structural   Ca3MnCoO6
_chemical_formula_sum   'Ca6 Mn2 Co2 O12'
_cell_volume   262.50165337
_cell_formula_units_Z   2
loop_
 _symmetry_equiv_pos_site_id
 _symmetry_equiv_pos_as_xyz
  1  'x, y, z'
loop_
 _atom_site_type_symbol
 _atom_site_label
 _atom_site_symmetry_multiplicity
 _atom_site_fract_x
 _atom_site_fract_y
 _atom_site_fract_z
 _atom_site_occupancy
  Ca  Ca0  1  0.75197300  0.39011300  0.11005800  1
  Ca  Ca1  1  0.25076800  0.61016500  0.88983100  1
  Ca  Ca2  1  0.38897400  0.11107500  0.74985500  1
  Ca  Ca3  1  0.11110900  0.74818300  0.38858700  1
  Ca  Ca4  1  0.61128200  0.88837500  0.24781700  1
  Ca  Ca5  1  0.88963300  0.25141200  0.61057000  1
  Mn  Mn6  1  0.49901600  0.49941500  0.50163800  1
  Mn  Mn7  1  0.99860400  0.00116800  0.00050300  1
  Co  Co8  1  0.25519300  0.24633500  0.24849300  1
  Co  Co9  1  0.75331300  0.75196100  0.74474700  1
  O  O10  1  0.58233300  0.45363400  0.78741600  1
  O  O11  1  0.95535800  0.08470600  0.28693000  1
  O  O12  1  0.78696100  0.58220800  0.45482500  1
  O  O13  1  0.04334500  0.91593100  0.71273900  1
  O  O14  1  0.91516200  0.71418800  0.04569600  1
  O  O15  1  0.45613300  0.78688600  0.58530800  1
  O  O16  1  0.08119600  0.28715600  0.95332400  1
  O  O17  1  0.41446800  0.54456500  0.21440000  1
  O  O18  1  0.54405100  0.21204800  0.41777400  1
  O  O19  1  0.28659100  0.95581700  0.08344900  1
  O  O20  1  0.21284100  0.41835000  0.54690200  1
  O  O21  1  0.71169800  0.04631000  0.91913800  1
