# generated using pymatgen
data_Ba2NaUO6
_symmetry_space_group_name_H-M   'P 1'
_cell_length_a   6.11176300
_cell_length_b   6.21414800
_cell_length_c   8.71594700
_cell_angle_alpha   90.00000000
_cell_angle_beta   90.00000000
_cell_angle_gamma   90.00000000
_symmetry_Int_Tables_number   1
_chemical_formula_structural   Ba2NaUO6
_chemical_formula_sum   'Ba4 Na2 U2 O12'
_cell_volume   331.02643595
_cell_formula_units_Z   2
loop_
 _symmetry_equiv_pos_site_id
 _symmetry_equiv_pos_as_xyz
  1  'x, y, z'
loop_
 _atom_site_type_symbol
 _atom_site_label
 _atom_site_symmetry_multiplicity
 _atom_site_fract_x
 _atom_site_fract_y
 _atom_site_fract_z
 _atom_site_occupancy
  Ba  Ba0  1  0.00000000  0.48935400  0.25778100  1
  Ba  Ba1  1  0.00000000  0.51064600  0.74221900  1
  Ba  Ba2  1  0.50000000  0.98935400  0.24221900  1
  Ba  Ba3  1  0.50000000  0.01064600  0.75778100  1
  Na  Na4  1  0.00000000  0.00000000  0.00000000  1
  Na  Na5  1  0.50000000  0.50000000  0.50000000  1
  U  U6  1  0.00000000  0.00000000  0.50000000  1
  U  U7  1  0.50000000  0.50000000  0.00000000  1
  O  O8  1  0.50000000  0.52796300  0.23514300  1
  O  O9  1  0.50000000  0.47203700  0.76485700  1
  O  O10  1  0.00000000  0.02796300  0.26485700  1
  O  O11  1  0.00000000  0.97203700  0.73514300  1
  O  O12  1  0.23613400  0.23705000  0.51094800  1
  O  O13  1  0.23613400  0.76295000  0.48905200  1
  O  O14  1  0.73613400  0.73705000  0.98905200  1
  O  O15  1  0.73613400  0.26295000  0.01094800  1
  O  O16  1  0.26386600  0.26295000  0.01094800  1
  O  O17  1  0.26386600  0.73705000  0.98905200  1
  O  O18  1  0.76386600  0.76295000  0.48905200  1
  O  O19  1  0.76386600  0.23705000  0.51094800  1
