# generated using pymatgen
data_Dy11Cd45
_symmetry_space_group_name_H-M   'P 1'
_cell_length_a   15.39810010
_cell_length_b   15.39810010
_cell_length_c   15.39810010
_cell_angle_alpha   60.00000000
_cell_angle_beta   60.00000000
_cell_angle_gamma   60.00000000
_symmetry_Int_Tables_number   1
_chemical_formula_structural   Dy11Cd45
_chemical_formula_sum   'Dy22 Cd90'
_cell_volume   2581.58493523
_cell_formula_units_Z   2
loop_
 _symmetry_equiv_pos_site_id
 _symmetry_equiv_pos_as_xyz
  1  'x, y, z'
loop_
 _atom_site_type_symbol
 _atom_site_label
 _atom_site_symmetry_multiplicity
 _atom_site_fract_x
 _atom_site_fract_y
 _atom_site_fract_z
 _atom_site_occupancy
  Dy  Dy0  1  0.00000000  0.00000000  0.00000000  1
  Dy  Dy1  1  0.01367400  0.33358500  0.63906700  1
  Dy  Dy2  1  0.01367400  0.01367400  0.63906700  1
  Dy  Dy3  1  0.33358500  0.01367400  0.63906700  1
  Dy  Dy4  1  0.01367400  0.63906700  0.33358500  1
  Dy  Dy5  1  0.33358500  0.63906700  0.01367400  1
  Dy  Dy6  1  0.01367400  0.63906700  0.01367400  1
  Dy  Dy7  1  0.63906700  0.01367400  0.01367400  1
  Dy  Dy8  1  0.63906700  0.33358500  0.01367400  1
  Dy  Dy9  1  0.63906700  0.01367400  0.33358500  1
  Dy  Dy10  1  0.33358500  0.01367400  0.01367400  1
  Dy  Dy11  1  0.01367400  0.01367400  0.33358500  1
  Dy  Dy12  1  0.01367400  0.33358500  0.01367400  1
  Dy  Dy13  1  0.25000000  0.25000000  0.25000000  1
  Dy  Dy14  1  0.40637000  0.40637000  0.78089100  1
  Dy  Dy15  1  0.40637000  0.78089100  0.40637000  1
  Dy  Dy16  1  0.78089100  0.40637000  0.40637000  1
  Dy  Dy17  1  0.40637000  0.40637000  0.40637000  1
  Dy  Dy18  1  0.66207000  0.66207000  0.01379100  1
  Dy  Dy19  1  0.66207000  0.01379100  0.66207000  1
  Dy  Dy20  1  0.01379100  0.66207000  0.66207000  1
  Dy  Dy21  1  0.66207000  0.66207000  0.66207000  1
  Cd  Cd22  1  0.08334400  0.08334400  0.74996800  1
  Cd  Cd23  1  0.08334400  0.74996800  0.08334400  1
  Cd  Cd24  1  0.74996800  0.08334400  0.08334400  1
  Cd  Cd25  1  0.08334400  0.08334400  0.08334400  1
  Cd  Cd26  1  0.91333100  0.91333100  0.26000800  1
  Cd  Cd27  1  0.91333100  0.26000800  0.91333100  1
  Cd  Cd28  1  0.26000800  0.91333100  0.91333100  1
  Cd  Cd29  1  0.91333100  0.91333100  0.91333100  1
  Cd  Cd30  1  0.15628600  0.15628600  0.84371400  1
  Cd  Cd31  1  0.84371400  0.15628600  0.84371400  1
  Cd  Cd32  1  0.15628600  0.84371400  0.84371400  1
  Cd  Cd33  1  0.84371400  0.84371400  0.15628600  1
  Cd  Cd34  1  0.15628600  0.84371400  0.15628600  1
  Cd  Cd35  1  0.84371400  0.15628600  0.15628600  1
  Cd  Cd36  1  0.39072000  0.20084700  0.01771300  1
  Cd  Cd37  1  0.39072000  0.39072000  0.01771300  1
  Cd  Cd38  1  0.20084700  0.39072000  0.01771300  1
  Cd  Cd39  1  0.39072000  0.01771300  0.20084700  1
  Cd  Cd40  1  0.20084700  0.01771300  0.39072000  1
  Cd  Cd41  1  0.39072000  0.01771300  0.39072000  1
  Cd  Cd42  1  0.01771300  0.39072000  0.39072000  1
  Cd  Cd43  1  0.01771300  0.20084700  0.39072000  1
  Cd  Cd44  1  0.01771300  0.39072000  0.20084700  1
  Cd  Cd45  1  0.20084700  0.39072000  0.39072000  1
  Cd  Cd46  1  0.39072000  0.39072000  0.20084700  1
  Cd  Cd47  1  0.39072000  0.20084700  0.39072000  1
  Cd  Cd48  1  0.16335500  0.16335500  0.50993500  1
  Cd  Cd49  1  0.16335500  0.50993500  0.16335500  1
  Cd  Cd50  1  0.50993500  0.16335500  0.16335500  1
  Cd  Cd51  1  0.16335500  0.16335500  0.16335500  1
  Cd  Cd52  1  0.26321000  0.61148100  0.86209800  1
  Cd  Cd53  1  0.26321000  0.26321000  0.86209800  1
  Cd  Cd54  1  0.61148100  0.26321000  0.86209800  1
  Cd  Cd55  1  0.26321000  0.86209800  0.61148100  1
  Cd  Cd56  1  0.61148100  0.86209800  0.26321000  1
  Cd  Cd57  1  0.26321000  0.86209800  0.26321000  1
  Cd  Cd58  1  0.86209800  0.26321000  0.26321000  1
  Cd  Cd59  1  0.86209800  0.61148100  0.26321000  1
  Cd  Cd60  1  0.86209800  0.26321000  0.61148100  1
  Cd  Cd61  1  0.61148100  0.26321000  0.26321000  1
  Cd  Cd62  1  0.26321000  0.26321000  0.61148100  1
  Cd  Cd63  1  0.26321000  0.61148100  0.26321000  1
  Cd  Cd64  1  0.50000000  0.50000000  0.50000000  1
  Cd  Cd65  1  0.64054300  0.45013600  0.26877700  1
  Cd  Cd66  1  0.64054300  0.64054300  0.26877700  1
  Cd  Cd67  1  0.45013600  0.64054300  0.26877700  1
  Cd  Cd68  1  0.64054300  0.26877700  0.45013600  1
  Cd  Cd69  1  0.45013600  0.26877700  0.64054300  1
  Cd  Cd70  1  0.64054300  0.26877700  0.64054300  1
  Cd  Cd71  1  0.26877700  0.64054300  0.64054300  1
  Cd  Cd72  1  0.26877700  0.45013600  0.64054300  1
  Cd  Cd73  1  0.26877700  0.64054300  0.45013600  1
  Cd  Cd74  1  0.45013600  0.64054300  0.64054300  1
  Cd  Cd75  1  0.64054300  0.64054300  0.45013600  1
  Cd  Cd76  1  0.64054300  0.45013600  0.64054300  1
  Cd  Cd77  1  0.51250200  0.83359800  0.14139700  1
  Cd  Cd78  1  0.51250200  0.51250200  0.14139700  1
  Cd  Cd79  1  0.83359800  0.51250200  0.14139700  1
  Cd  Cd80  1  0.51250200  0.14139700  0.83359800  1
  Cd  Cd81  1  0.83359800  0.14139700  0.51250200  1
  Cd  Cd82  1  0.51250200  0.14139700  0.51250200  1
  Cd  Cd83  1  0.14139700  0.51250200  0.51250200  1
  Cd  Cd84  1  0.14139700  0.83359800  0.51250200  1
  Cd  Cd85  1  0.14139700  0.51250200  0.83359800  1
  Cd  Cd86  1  0.83359800  0.51250200  0.51250200  1
  Cd  Cd87  1  0.51250200  0.51250200  0.83359800  1
  Cd  Cd88  1  0.51250200  0.83359800  0.51250200  1
  Cd  Cd89  1  0.75000000  0.75000000  0.75000000  1
  Cd  Cd90  1  0.83006100  0.83006100  0.50981700  1
  Cd  Cd91  1  0.83006100  0.50981700  0.83006100  1
  Cd  Cd92  1  0.50981700  0.83006100  0.83006100  1
  Cd  Cd93  1  0.83006100  0.83006100  0.83006100  1
  Cd  Cd94  1  0.91144500  0.91144500  0.58855500  1
  Cd  Cd95  1  0.58855500  0.91144500  0.58855500  1
  Cd  Cd96  1  0.91144500  0.58855500  0.58855500  1
  Cd  Cd97  1  0.58855500  0.58855500  0.91144500  1
  Cd  Cd98  1  0.91144500  0.58855500  0.91144500  1
  Cd  Cd99  1  0.58855500  0.91144500  0.91144500  1
  Cd  Cd100  1  0.76399400  0.06747100  0.40454100  1
  Cd  Cd101  1  0.76399400  0.76399400  0.40454100  1
  Cd  Cd102  1  0.06747100  0.76399400  0.40454100  1
  Cd  Cd103  1  0.76399400  0.40454100  0.06747100  1
  Cd  Cd104  1  0.06747100  0.40454100  0.76399400  1
  Cd  Cd105  1  0.76399400  0.40454100  0.76399400  1
  Cd  Cd106  1  0.40454100  0.76399400  0.76399400  1
  Cd  Cd107  1  0.40454100  0.06747100  0.76399400  1
  Cd  Cd108  1  0.40454100  0.76399400  0.06747100  1
  Cd  Cd109  1  0.06747100  0.76399400  0.76399400  1
  Cd  Cd110  1  0.76399400  0.76399400  0.06747100  1
  Cd  Cd111  1  0.76399400  0.06747100  0.76399400  1
