# generated using pymatgen
data_BaU2Te5
_symmetry_space_group_name_H-M   'P 1'
_cell_length_a   9.58883436
_cell_length_b   9.58883436
_cell_length_c   9.58883436
_cell_angle_alpha   128.65752747
_cell_angle_beta   128.65752747
_cell_angle_gamma   75.56225413
_symmetry_Int_Tables_number   1
_chemical_formula_structural   BaU2Te5
_chemical_formula_sum   'Ba2 U4 Te10'
_cell_volume   523.08339806
_cell_formula_units_Z   2
loop_
 _symmetry_equiv_pos_site_id
 _symmetry_equiv_pos_as_xyz
  1  'x, y, z'
loop_
 _atom_site_type_symbol
 _atom_site_label
 _atom_site_symmetry_multiplicity
 _atom_site_fract_x
 _atom_site_fract_y
 _atom_site_fract_z
 _atom_site_occupancy
  Ba  Ba0  1  0.75000000  0.75000000  0.00000000  1
  Ba  Ba1  1  0.25000000  0.25000000  0.00000000  1
  U  U2  1  0.65094200  0.15094200  0.80188400  1
  U  U3  1  0.34905800  0.84905800  0.19811600  1
  U  U4  1  0.15094200  0.34905800  0.50000000  1
  U  U5  1  0.84905800  0.65094200  0.50000000  1
  Te  Te6  1  0.01625800  0.51625800  0.79938600  1
  Te  Te7  1  0.71687200  0.21687200  0.20061400  1
  Te  Te8  1  0.51625800  0.71687200  0.50000000  1
  Te  Te9  1  0.21687200  0.01625800  0.50000000  1
  Te  Te10  1  0.98374200  0.48374200  0.20061400  1
  Te  Te11  1  0.28312800  0.78312800  0.79938600  1
  Te  Te12  1  0.48374200  0.28312800  0.50000000  1
  Te  Te13  1  0.78312800  0.98374200  0.50000000  1
  Te  Te14  1  0.00000000  0.00000000  0.00000000  1
  Te  Te15  1  0.50000000  0.50000000  0.00000000  1
