# generated using pymatgen
data_NdNi(BO2)5
_symmetry_space_group_name_H-M   'P 1'
_cell_length_a   7.65157800
_cell_length_b   8.71285141
_cell_length_c   9.56929329
_cell_angle_alpha   93.24596835
_cell_angle_beta   90.00000000
_cell_angle_gamma   90.00000000
_symmetry_Int_Tables_number   1
_chemical_formula_structural   NdNi(BO2)5
_chemical_formula_sum   'Nd4 Ni4 B20 O40'
_cell_volume   636.93316899
_cell_formula_units_Z   4
loop_
 _symmetry_equiv_pos_site_id
 _symmetry_equiv_pos_as_xyz
  1  'x, y, z'
loop_
 _atom_site_type_symbol
 _atom_site_label
 _atom_site_symmetry_multiplicity
 _atom_site_fract_x
 _atom_site_fract_y
 _atom_site_fract_z
 _atom_site_occupancy
  Nd  Nd0  1  0.68114300  0.31890300  0.26388900  1
  Nd  Nd1  1  0.18114400  0.18109800  0.23611100  1
  Nd  Nd2  1  0.31885700  0.68109700  0.73611000  1
  Nd  Nd3  1  0.81885700  0.81890300  0.76388900  1
  Ni  Ni4  1  0.91067300  0.89730600  0.37279300  1
  Ni  Ni5  1  0.41067400  0.60269400  0.12720800  1
  Ni  Ni6  1  0.08932600  0.10269400  0.62720700  1
  Ni  Ni7  1  0.58932700  0.39730500  0.87279200  1
  B  B8  1  0.81356200  0.56932500  0.08750200  1
  B  B9  1  0.31356200  0.93067500  0.41249800  1
  B  B10  1  0.18643900  0.43067600  0.91249700  1
  B  B11  1  0.68643800  0.06932500  0.58750200  1
  B  B12  1  0.09946900  0.65800800  0.50104000  1
  B  B13  1  0.59946800  0.84199200  0.99895900  1
  B  B14  1  0.90053200  0.34199200  0.49896000  1
  B  B15  1  0.40053200  0.15800800  0.00104100  1
  B  B16  1  0.03426300  0.77975000  0.05541700  1
  B  B17  1  0.53426300  0.72025000  0.44458400  1
  B  B18  1  0.96573700  0.22025000  0.94458300  1
  B  B19  1  0.46573700  0.27975000  0.55541600  1
  B  B20  1  0.82470000  0.01622200  0.10684600  1
  B  B21  1  0.32469900  0.48377700  0.39315400  1
  B  B22  1  0.17530100  0.98377800  0.89315500  1
  B  B23  1  0.67530000  0.51622200  0.60684600  1
  B  B24  1  0.07775800  0.58827100  0.24108900  1
  B  B25  1  0.57775700  0.91172800  0.25891100  1
  B  B26  1  0.92224200  0.41172900  0.75891100  1
  B  B27  1  0.42224300  0.08827100  0.74109000  1
  O  O28  1  0.94943100  0.26195600  0.38088100  1
  O  O29  1  0.44943000  0.23804300  0.11912000  1
  O  O30  1  0.05056900  0.73804300  0.61911900  1
  O  O31  1  0.55057000  0.76195700  0.88088000  1
  O  O32  1  0.15260600  0.00244000  0.43076200  1
  O  O33  1  0.65260500  0.49756000  0.06923800  1
  O  O34  1  0.84739400  0.99755900  0.56923800  1
  O  O35  1  0.34739500  0.50244000  0.93076200  1
  O  O36  1  0.87692300  0.68437000  0.00975600  1
  O  O37  1  0.37692400  0.81563000  0.49024400  1
  O  O38  1  0.12307700  0.31563000  0.99024500  1
  O  O39  1  0.62307600  0.18437100  0.50975600  1
  O  O40  1  0.72552100  0.95614400  0.98558900  1
  O  O41  1  0.22552100  0.54385600  0.51441200  1
  O  O42  1  0.27447900  0.04385600  0.01441100  1
  O  O43  1  0.77447800  0.45614400  0.48558800  1
  O  O44  1  0.89221200  0.17205900  0.08087200  1
  O  O45  1  0.39221200  0.32794100  0.41912800  1
  O  O46  1  0.10778800  0.82794100  0.91912700  1
  O  O47  1  0.60778800  0.67205900  0.58087300  1
  O  O48  1  0.97277100  0.91436300  0.14836800  1
  O  O49  1  0.47277000  0.58563700  0.35163300  1
  O  O50  1  0.02722900  0.08563600  0.85163200  1
  O  O51  1  0.52723000  0.41436400  0.64836700  1
  O  O52  1  0.15281600  0.68497300  0.13511600  1
  O  O53  1  0.65281500  0.81502600  0.36488400  1
  O  O54  1  0.84718500  0.31502700  0.86488300  1
  O  O55  1  0.34718500  0.18497400  0.63511600  1
  O  O56  1  0.91133300  0.51593200  0.19605800  1
  O  O57  1  0.41133400  0.98406800  0.30394300  1
  O  O58  1  0.08866700  0.48406900  0.80394200  1
  O  O59  1  0.58866600  0.01593200  0.69605700  1
  O  O60  1  0.03589000  0.68793100  0.37086800  1
  O  O61  1  0.53589000  0.81206800  0.12913200  1
  O  O62  1  0.96411000  0.31206900  0.62913100  1
  O  O63  1  0.46411100  0.18793100  0.87086800  1
  O  O64  1  0.20964300  0.46839400  0.26802300  1
  O  O65  1  0.70964300  0.03160600  0.23197800  1
  O  O66  1  0.79035700  0.53160600  0.73197700  1
  O  O67  1  0.29035700  0.96839400  0.76802300  1
