# generated using pymatgen
data_FeB2
_symmetry_space_group_name_H-M   'P 1'
_cell_length_a   3.74180400
_cell_length_b   4.80804800
_cell_length_c   4.82040300
_cell_angle_alpha   90.00000000
_cell_angle_beta   90.00000000
_cell_angle_gamma   90.00000000
_symmetry_Int_Tables_number   1
_chemical_formula_structural   FeB2
_chemical_formula_sum   'Fe4 B8'
_cell_volume   86.72277729
_cell_formula_units_Z   4
loop_
 _symmetry_equiv_pos_site_id
 _symmetry_equiv_pos_as_xyz
  1  'x, y, z'
loop_
 _atom_site_type_symbol
 _atom_site_label
 _atom_site_symmetry_multiplicity
 _atom_site_fract_x
 _atom_site_fract_y
 _atom_site_fract_z
 _atom_site_occupancy
  Fe  Fe0  1  0.12404800  0.75000000  0.01956700  1
  Fe  Fe1  1  0.37595200  0.75000000  0.51956700  1
  Fe  Fe2  1  0.87595200  0.25000000  0.98043300  1
  Fe  Fe3  1  0.62404800  0.25000000  0.48043300  1
  B  B4  1  0.39339800  0.43071600  0.83909200  1
  B  B5  1  0.10660200  0.06928400  0.33909200  1
  B  B6  1  0.60660200  0.93071600  0.16090800  1
  B  B7  1  0.89339800  0.56928400  0.66090800  1
  B  B8  1  0.60660200  0.56928400  0.16090800  1
  B  B9  1  0.89339800  0.93071600  0.66090800  1
  B  B10  1  0.39339800  0.06928400  0.83909200  1
  B  B11  1  0.10660200  0.43071600  0.33909200  1
