# generated using pymatgen
data_BaLu2Si3O10
_symmetry_space_group_name_H-M   'P 1'
_cell_length_a   5.39913800
_cell_length_b   12.20605900
_cell_length_c   6.81328273
_cell_angle_alpha   90.00000000
_cell_angle_beta   106.29379127
_cell_angle_gamma   90.00000000
_symmetry_Int_Tables_number   1
_chemical_formula_structural   BaLu2Si3O10
_chemical_formula_sum   'Ba2 Lu4 Si6 O20'
_cell_volume   430.97611622
_cell_formula_units_Z   2
loop_
 _symmetry_equiv_pos_site_id
 _symmetry_equiv_pos_as_xyz
  1  'x, y, z'
loop_
 _atom_site_type_symbol
 _atom_site_label
 _atom_site_symmetry_multiplicity
 _atom_site_fract_x
 _atom_site_fract_y
 _atom_site_fract_z
 _atom_site_occupancy
  Ba  Ba0  1  0.76167500  0.75000000  0.01741500  1
  Ba  Ba1  1  0.23832500  0.25000000  0.98258500  1
  Lu  Lu2  1  0.15672400  0.90004800  0.68013300  1
  Lu  Lu3  1  0.84327600  0.40004800  0.31986700  1
  Lu  Lu4  1  0.84327600  0.09995200  0.31986700  1
  Lu  Lu5  1  0.15672400  0.59995200  0.68013300  1
  Si  Si6  1  0.58038900  0.75000000  0.48581600  1
  Si  Si7  1  0.41961100  0.25000000  0.51418400  1
  Si  Si8  1  0.30330900  0.94017200  0.21017400  1
  Si  Si9  1  0.69669100  0.44017200  0.78982600  1
  Si  Si10  1  0.69669100  0.05982800  0.78982600  1
  Si  Si11  1  0.30330900  0.55982800  0.21017400  1
  O  O12  1  0.36400400  0.75000000  0.61146900  1
  O  O13  1  0.63599600  0.25000000  0.38853100  1
  O  O14  1  0.87772000  0.75000000  0.62947900  1
  O  O15  1  0.12228000  0.25000000  0.37052100  1
  O  O16  1  0.54587800  0.85665900  0.33227400  1
  O  O17  1  0.45412200  0.35665900  0.66772600  1
  O  O18  1  0.45412200  0.14334100  0.66772600  1
  O  O19  1  0.54587800  0.64334100  0.33227400  1
  O  O20  1  0.44466400  0.05537300  0.19514700  1
  O  O21  1  0.55533600  0.55537300  0.80485300  1
  O  O22  1  0.55533600  0.94462700  0.80485300  1
  O  O23  1  0.44466400  0.44462700  0.19514700  1
  O  O24  1  0.15999500  0.87969600  0.99541600  1
  O  O25  1  0.84000500  0.37969600  0.00458400  1
  O  O26  1  0.84000500  0.12030400  0.00458400  1
  O  O27  1  0.15999500  0.62030400  0.99541600  1
  O  O28  1  0.09899600  0.95143500  0.35149900  1
  O  O29  1  0.90100400  0.45143500  0.64850100  1
  O  O30  1  0.90100400  0.04856500  0.64850100  1
  O  O31  1  0.09899600  0.54856500  0.35149900  1
