# generated using pymatgen
data_Sr2LiReO6
_symmetry_space_group_name_H-M   'P 1'
_cell_length_a   5.65854668
_cell_length_b   5.65854668
_cell_length_c   5.65854668
_cell_angle_alpha   120.47968845
_cell_angle_beta   120.47968845
_cell_angle_gamma   89.17114404
_symmetry_Int_Tables_number   1
_chemical_formula_structural   Sr2LiReO6
_chemical_formula_sum   'Sr2 Li1 Re1 O6'
_cell_volume   127.17159723
_cell_formula_units_Z   1
loop_
 _symmetry_equiv_pos_site_id
 _symmetry_equiv_pos_as_xyz
  1  'x, y, z'
loop_
 _atom_site_type_symbol
 _atom_site_label
 _atom_site_symmetry_multiplicity
 _atom_site_fract_x
 _atom_site_fract_y
 _atom_site_fract_z
 _atom_site_occupancy
  Sr  Sr0  1  0.25000000  0.75000000  0.50000000  1
  Sr  Sr1  1  0.75000000  0.25000000  0.50000000  1
  Li  Li2  1  0.50000000  0.50000000  0.00000000  1
  Re  Re3  1  0.00000000  0.00000000  0.00000000  1
  O  O4  1  0.72475200  0.80300200  0.52775400  1
  O  O5  1  0.27524800  0.19699800  0.47224600  1
  O  O6  1  0.80300200  0.27524800  0.07825000  1
  O  O7  1  0.19699800  0.72475200  0.92175000  1
  O  O8  1  0.23747400  0.23747400  0.00000000  1
  O  O9  1  0.76252600  0.76252600  0.00000000  1
