# generated using pymatgen
data_SmGa2Ni3
_symmetry_space_group_name_H-M   'P 1'
_cell_length_a   8.81164215
_cell_length_b   8.81164215
_cell_length_c   4.10834600
_cell_angle_alpha   90.00000000
_cell_angle_beta   90.00000000
_cell_angle_gamma   120.00000116
_symmetry_Int_Tables_number   1
_chemical_formula_structural   SmGa2Ni3
_chemical_formula_sum   'Sm3 Ga6 Ni9'
_cell_volume   276.25576048
_cell_formula_units_Z   3
loop_
 _symmetry_equiv_pos_site_id
 _symmetry_equiv_pos_as_xyz
  1  'x, y, z'
loop_
 _atom_site_type_symbol
 _atom_site_label
 _atom_site_symmetry_multiplicity
 _atom_site_fract_x
 _atom_site_fract_y
 _atom_site_fract_z
 _atom_site_occupancy
  Sm  Sm0  1  0.66666700  0.33333300  0.50000000  1
  Sm  Sm1  1  0.33333300  0.66666700  0.50000000  1
  Sm  Sm2  1  0.00000000  0.00000000  0.00000000  1
  Ga  Ga3  1  0.27188300  0.27188300  0.50000000  1
  Ga  Ga4  1  0.72811700  0.00000000  0.50000000  1
  Ga  Ga5  1  0.00000000  0.72811700  0.50000000  1
  Ga  Ga6  1  0.51766500  0.51766500  0.00000000  1
  Ga  Ga7  1  0.48233500  0.00000000  0.00000000  1
  Ga  Ga8  1  0.00000000  0.48233500  0.00000000  1
  Ni  Ni9  1  0.80407400  0.17451400  0.00000000  1
  Ni  Ni10  1  0.82548600  0.62955900  0.00000000  1
  Ni  Ni11  1  0.37044100  0.19592600  0.00000000  1
  Ni  Ni12  1  0.17451400  0.80407400  0.00000000  1
  Ni  Ni13  1  0.62955900  0.82548600  0.00000000  1
  Ni  Ni14  1  0.19592600  0.37044100  0.00000000  1
  Ni  Ni15  1  0.70575400  0.70575400  0.50000000  1
  Ni  Ni16  1  0.29424600  0.00000000  0.50000000  1
  Ni  Ni17  1  0.00000000  0.29424600  0.50000000  1
