# generated using pymatgen
data_Rb2MgSi5O12
_symmetry_space_group_name_H-M   'P 1'
_cell_length_a   13.64715300
_cell_length_b   13.72487300
_cell_length_c   13.92872200
_cell_angle_alpha   90.00000000
_cell_angle_beta   90.00000000
_cell_angle_gamma   90.00000000
_symmetry_Int_Tables_number   1
_chemical_formula_structural   Rb2MgSi5O12
_chemical_formula_sum   'Rb16 Mg8 Si40 O96'
_cell_volume   2608.92542704
_cell_formula_units_Z   8
loop_
 _symmetry_equiv_pos_site_id
 _symmetry_equiv_pos_as_xyz
  1  'x, y, z'
loop_
 _atom_site_type_symbol
 _atom_site_label
 _atom_site_symmetry_multiplicity
 _atom_site_fract_x
 _atom_site_fract_y
 _atom_site_fract_z
 _atom_site_occupancy
  Rb  Rb0  1  0.34673200  0.63852900  0.14432500  1
  Rb  Rb1  1  0.65326800  0.13852900  0.35567500  1
  Rb  Rb2  1  0.15326800  0.36147100  0.64432500  1
  Rb  Rb3  1  0.84673200  0.86147100  0.85567500  1
  Rb  Rb4  1  0.65326800  0.36147100  0.85567500  1
  Rb  Rb5  1  0.34673200  0.86147100  0.64432500  1
  Rb  Rb6  1  0.84673200  0.63852900  0.35567500  1
  Rb  Rb7  1  0.15326800  0.13852900  0.14432500  1
  Rb  Rb8  1  0.10794900  0.89639300  0.40976600  1
  Rb  Rb9  1  0.89205100  0.39639300  0.09023400  1
  Rb  Rb10  1  0.39205100  0.10360700  0.90976600  1
  Rb  Rb11  1  0.60794900  0.60360700  0.59023400  1
  Rb  Rb12  1  0.89205100  0.10360700  0.59023400  1
  Rb  Rb13  1  0.10794900  0.60360700  0.90976600  1
  Rb  Rb14  1  0.60794900  0.89639300  0.09023400  1
  Rb  Rb15  1  0.39205100  0.39639300  0.40976600  1
  Mg  Mg16  1  0.56025300  0.87405200  0.83428500  1
  Mg  Mg17  1  0.43974700  0.37405200  0.66571500  1
  Mg  Mg18  1  0.93974700  0.12594800  0.33428500  1
  Mg  Mg19  1  0.06025300  0.62594800  0.16571500  1
  Mg  Mg20  1  0.43974700  0.12594800  0.16571500  1
  Mg  Mg21  1  0.56025300  0.62594800  0.33428500  1
  Mg  Mg22  1  0.06025300  0.87405200  0.66571500  1
  Mg  Mg23  1  0.93974700  0.37405200  0.83428500  1
  Si  Si24  1  0.89288800  0.62208400  0.66288100  1
  Si  Si25  1  0.10711200  0.12208400  0.83711900  1
  Si  Si26  1  0.60711200  0.37791600  0.16288100  1
  Si  Si27  1  0.39288800  0.87791600  0.33711900  1
  Si  Si28  1  0.10711200  0.37791600  0.33711900  1
  Si  Si29  1  0.89288800  0.87791600  0.16288100  1
  Si  Si30  1  0.39288800  0.62208400  0.83711900  1
  Si  Si31  1  0.60711200  0.12208400  0.66288100  1
  Si  Si32  1  0.87374900  0.09653500  0.11340600  1
  Si  Si33  1  0.12625100  0.59653500  0.38659400  1
  Si  Si34  1  0.62625100  0.90346500  0.61340600  1
  Si  Si35  1  0.37374900  0.40346500  0.88659400  1
  Si  Si36  1  0.12625100  0.90346500  0.88659400  1
  Si  Si37  1  0.87374900  0.40346500  0.61340600  1
  Si  Si38  1  0.37374900  0.09653500  0.38659400  1
  Si  Si39  1  0.62625100  0.59653500  0.11340600  1
  Si  Si40  1  0.39614400  0.15150600  0.59959500  1
  Si  Si41  1  0.60385600  0.65150600  0.90040500  1
  Si  Si42  1  0.10385600  0.84849400  0.09959500  1
  Si  Si43  1  0.89614400  0.34849400  0.40040500  1
  Si  Si44  1  0.60385600  0.84849400  0.40040500  1
  Si  Si45  1  0.39614400  0.34849400  0.09959500  1
  Si  Si46  1  0.89614400  0.15150600  0.90040500  1
  Si  Si47  1  0.10385600  0.65150600  0.59959500  1
  Si  Si48  1  0.68511000  0.41189500  0.36795300  1
  Si  Si49  1  0.31489000  0.91189500  0.13204700  1
  Si  Si50  1  0.81489000  0.58810500  0.86795300  1
  Si  Si51  1  0.18511000  0.08810500  0.63204700  1
  Si  Si52  1  0.31489000  0.58810500  0.63204700  1
  Si  Si53  1  0.68511000  0.08810500  0.86795300  1
  Si  Si54  1  0.18511000  0.41189500  0.13204700  1
  Si  Si55  1  0.81489000  0.91189500  0.36795300  1
  Si  Si56  1  0.15724500  0.32444700  0.92747900  1
  Si  Si57  1  0.84275500  0.82444700  0.57252100  1
  Si  Si58  1  0.34275500  0.67555300  0.42747900  1
  Si  Si59  1  0.65724500  0.17555300  0.07252100  1
  Si  Si60  1  0.84275500  0.67555300  0.07252100  1
  Si  Si61  1  0.15724500  0.17555300  0.42747900  1
  Si  Si62  1  0.65724500  0.32444700  0.57252100  1
  Si  Si63  1  0.34275500  0.82444700  0.92747900  1
  O  O64  1  0.34511700  0.97884800  0.37756700  1
  O  O65  1  0.65488300  0.47884800  0.12243300  1
  O  O66  1  0.15488300  0.02115200  0.87756700  1
  O  O67  1  0.84511700  0.52115200  0.62243300  1
  O  O68  1  0.65488300  0.02115200  0.62243300  1
  O  O69  1  0.34511700  0.52115200  0.87756700  1
  O  O70  1  0.84511700  0.97884800  0.12243300  1
  O  O71  1  0.15488300  0.47884800  0.37756700  1
  O  O72  1  0.07400600  0.61195800  0.49187000  1
  O  O73  1  0.92599400  0.11195800  0.00813000  1
  O  O74  1  0.42599400  0.38804200  0.99187000  1
  O  O75  1  0.57400600  0.88804200  0.50813000  1
  O  O76  1  0.92599400  0.38804200  0.50813000  1
  O  O77  1  0.07400600  0.88804200  0.99187000  1
  O  O78  1  0.57400600  0.61195800  0.00813000  1
  O  O79  1  0.42599400  0.11195800  0.49187000  1
  O  O80  1  0.01205900  0.88169800  0.17097900  1
  O  O81  1  0.98794100  0.38169800  0.32902100  1
  O  O82  1  0.48794100  0.11830200  0.67097900  1
  O  O83  1  0.51205900  0.61830200  0.82902100  1
  O  O84  1  0.98794100  0.11830200  0.82902100  1
  O  O85  1  0.01205900  0.61830200  0.67097900  1
  O  O86  1  0.51205900  0.88169800  0.32902100  1
  O  O87  1  0.48794100  0.38169800  0.17097900  1
  O  O88  1  0.87399800  0.23463700  0.39798300  1
  O  O89  1  0.12600200  0.73463700  0.10201700  1
  O  O90  1  0.62600200  0.76536300  0.89798300  1
  O  O91  1  0.37399800  0.26536300  0.60201700  1
  O  O92  1  0.12600200  0.76536300  0.60201700  1
  O  O93  1  0.87399800  0.26536300  0.89798300  1
  O  O94  1  0.37399800  0.23463700  0.10201700  1
  O  O95  1  0.62600200  0.73463700  0.39798300  1
  O  O96  1  0.14902000  0.14720100  0.72994500  1
  O  O97  1  0.85098000  0.64720100  0.77005500  1
  O  O98  1  0.35098000  0.85279900  0.22994500  1
  O  O99  1  0.64902000  0.35279900  0.27005500  1
  O  O100  1  0.85098000  0.85279900  0.27005500  1
  O  O101  1  0.14902000  0.35279900  0.22994500  1
  O  O102  1  0.64902000  0.14720100  0.77005500  1
  O  O103  1  0.35098000  0.64720100  0.72994500  1
  O  O104  1  0.73260900  0.84715600  0.61423400  1
  O  O105  1  0.26739100  0.34715600  0.88576600  1
  O  O106  1  0.76739100  0.15284400  0.11423400  1
  O  O107  1  0.23260900  0.65284400  0.38576600  1
  O  O108  1  0.26739100  0.15284400  0.38576600  1
  O  O109  1  0.73260900  0.65284400  0.11423400  1
  O  O110  1  0.23260900  0.84715600  0.88576600  1
  O  O111  1  0.76739100  0.34715600  0.61423400  1
  O  O112  1  0.86253500  0.48353800  0.88222300  1
  O  O113  1  0.13746500  0.98353800  0.61777700  1
  O  O114  1  0.63746500  0.51646200  0.38222300  1
  O  O115  1  0.36253500  0.01646200  0.11777700  1
  O  O116  1  0.13746500  0.51646200  0.11777700  1
  O  O117  1  0.86253500  0.01646200  0.38222300  1
  O  O118  1  0.36253500  0.48353800  0.61777700  1
  O  O119  1  0.63746500  0.98353800  0.88222300  1
  O  O120  1  0.65639900  0.16537200  0.95427600  1
  O  O121  1  0.34360100  0.66537200  0.54572400  1
  O  O122  1  0.84360100  0.83462800  0.45427600  1
  O  O123  1  0.15639900  0.33462800  0.04572400  1
  O  O124  1  0.34360100  0.83462800  0.04572400  1
  O  O125  1  0.65639900  0.33462800  0.45427600  1
  O  O126  1  0.15639900  0.16537200  0.54572400  1
  O  O127  1  0.84360100  0.66537200  0.95427600  1
  O  O128  1  0.57587600  0.38979800  0.62332200  1
  O  O129  1  0.42412400  0.88979800  0.87667800  1
  O  O130  1  0.92412400  0.61020200  0.12332200  1
  O  O131  1  0.07587600  0.11020200  0.37667800  1
  O  O132  1  0.42412400  0.61020200  0.37667800  1
  O  O133  1  0.57587600  0.11020200  0.12332200  1
  O  O134  1  0.07587600  0.38979800  0.87667800  1
  O  O135  1  0.92412400  0.88979800  0.62332200  1
  O  O136  1  0.35689600  0.70545500  0.91262700  1
  O  O137  1  0.64310400  0.20545500  0.58737300  1
  O  O138  1  0.14310400  0.29454500  0.41262700  1
  O  O139  1  0.85689600  0.79454500  0.08737300  1
  O  O140  1  0.64310400  0.29454500  0.08737300  1
  O  O141  1  0.35689600  0.79454500  0.41262700  1
  O  O142  1  0.85689600  0.70545500  0.58737300  1
  O  O143  1  0.14310400  0.20545500  0.91262700  1
  O  O144  1  0.55523100  0.63404700  0.19578800  1
  O  O145  1  0.44476900  0.13404700  0.30421200  1
  O  O146  1  0.94476900  0.36595300  0.69578800  1
  O  O147  1  0.05523100  0.86595300  0.80421200  1
  O  O148  1  0.44476900  0.36595300  0.80421200  1
  O  O149  1  0.55523100  0.86595300  0.69578800  1
  O  O150  1  0.05523100  0.63404700  0.30421200  1
  O  O151  1  0.94476900  0.13404700  0.19578800  1
  O  O152  1  0.30573300  0.41877400  0.13912300  1
  O  O153  1  0.69426700  0.91877400  0.36087700  1
  O  O154  1  0.19426700  0.58122600  0.63912300  1
  O  O155  1  0.80573300  0.08122600  0.86087700  1
  O  O156  1  0.69426700  0.58122600  0.86087700  1
  O  O157  1  0.30573300  0.08122600  0.63912300  1
  O  O158  1  0.80573300  0.41877400  0.36087700  1
  O  O159  1  0.19426700  0.91877400  0.13912300  1
