# generated using pymatgen
data_RbUCrO6
_symmetry_space_group_name_H-M   'P 1'
_cell_length_a   8.41750300
_cell_length_b   7.22130100
_cell_length_c   10.60060623
_cell_angle_alpha   75.12751301
_cell_angle_beta   90.00000000
_cell_angle_gamma   90.00000000
_symmetry_Int_Tables_number   1
_chemical_formula_structural   RbUCrO6
_chemical_formula_sum   'Rb4 U4 Cr4 O24'
_cell_volume   622.77480936
_cell_formula_units_Z   4
loop_
 _symmetry_equiv_pos_site_id
 _symmetry_equiv_pos_as_xyz
  1  'x, y, z'
loop_
 _atom_site_type_symbol
 _atom_site_label
 _atom_site_symmetry_multiplicity
 _atom_site_fract_x
 _atom_site_fract_y
 _atom_site_fract_z
 _atom_site_occupancy
  Rb  Rb0  1  0.24122600  0.03331600  0.63820000  1
  Rb  Rb1  1  0.74122600  0.96668400  0.86180000  1
  Rb  Rb2  1  0.25877400  0.03331600  0.13820000  1
  Rb  Rb3  1  0.75877400  0.96668400  0.36180000  1
  U  U4  1  0.51950500  0.51098000  0.67697300  1
  U  U5  1  0.01950500  0.48902000  0.82302700  1
  U  U6  1  0.48049500  0.48902000  0.32302700  1
  U  U7  1  0.98049500  0.51098000  0.17697300  1
  Cr  Cr8  1  0.85735600  0.38995000  0.55598000  1
  Cr  Cr9  1  0.35735600  0.61005000  0.94402000  1
  Cr  Cr10  1  0.14264400  0.61005000  0.44402000  1
  Cr  Cr11  1  0.64264400  0.38995000  0.05598000  1
  O  O12  1  0.86856000  0.16284100  0.56834000  1
  O  O13  1  0.36856000  0.83715900  0.93166000  1
  O  O14  1  0.13144000  0.83715900  0.43166000  1
  O  O15  1  0.63144000  0.16284100  0.06834000  1
  O  O16  1  0.78984200  0.42797000  0.71321500  1
  O  O17  1  0.28984200  0.57203000  0.78678500  1
  O  O18  1  0.21015800  0.57203000  0.28678500  1
  O  O19  1  0.71015800  0.42797000  0.21321500  1
  O  O20  1  0.55872400  0.77044200  0.62374500  1
  O  O21  1  0.05872400  0.22955800  0.87625500  1
  O  O22  1  0.44127600  0.22955800  0.37625500  1
  O  O23  1  0.94127600  0.77044200  0.12374500  1
  O  O24  1  0.01905200  0.25198400  0.23459600  1
  O  O25  1  0.51905200  0.74801600  0.26540400  1
  O  O26  1  0.98094800  0.74801600  0.76540400  1
  O  O27  1  0.48094800  0.25198400  0.73459600  1
  O  O28  1  0.43947500  0.46465500  0.10515500  1
  O  O29  1  0.93947500  0.53534500  0.39484500  1
  O  O30  1  0.65732700  0.47133500  0.49300400  1
  O  O31  1  0.06052500  0.46465500  0.60515500  1
  O  O32  1  0.84267300  0.47133500  0.99300400  1
  O  O33  1  0.34267300  0.52866500  0.50699600  1
  O  O34  1  0.15732700  0.52866500  0.00699600  1
  O  O35  1  0.56052500  0.53534500  0.89484500  1
