# generated using pymatgen
data_Na2Ho2B2TeO10
_symmetry_space_group_name_H-M   'P 1'
_cell_length_a   10.01171400
_cell_length_b   6.34935700
_cell_length_c   6.77806096
_cell_angle_alpha   75.93207505
_cell_angle_beta   90.00000000
_cell_angle_gamma   90.00000000
_symmetry_Int_Tables_number   1
_chemical_formula_structural   Na2Ho2B2TeO10
_chemical_formula_sum   'Na4 Ho4 B4 Te2 O20'
_cell_volume   417.94494458
_cell_formula_units_Z   2
loop_
 _symmetry_equiv_pos_site_id
 _symmetry_equiv_pos_as_xyz
  1  'x, y, z'
loop_
 _atom_site_type_symbol
 _atom_site_label
 _atom_site_symmetry_multiplicity
 _atom_site_fract_x
 _atom_site_fract_y
 _atom_site_fract_z
 _atom_site_occupancy
  Na  Na0  1  0.61111300  0.41531900  0.16643400  1
  Na  Na1  1  0.11111300  0.58468100  0.33356600  1
  Na  Na2  1  0.38888700  0.58468100  0.83356600  1
  Na  Na3  1  0.88888700  0.41531900  0.66643400  1
  Ho  Ho4  1  0.83403700  0.87246800  0.02308500  1
  Ho  Ho5  1  0.33403700  0.12753200  0.47691500  1
  Ho  Ho6  1  0.16596300  0.12753200  0.97691500  1
  Ho  Ho7  1  0.66596300  0.87246800  0.52308500  1
  B  B8  1  0.40009300  0.66395200  0.37266000  1
  B  B9  1  0.90009300  0.33604800  0.12734000  1
  B  B10  1  0.59990700  0.33604800  0.62734000  1
  B  B11  1  0.09990700  0.66395200  0.87266000  1
  Te  Te12  1  0.50000000  0.00000000  0.00000000  1
  Te  Te13  1  0.00000000  0.00000000  0.50000000  1
  O  O14  1  0.82737400  0.51871300  0.05599200  1
  O  O15  1  0.32737400  0.48128700  0.44400800  1
  O  O16  1  0.17262600  0.48128700  0.94400800  1
  O  O17  1  0.67262600  0.51871300  0.55599200  1
  O  O18  1  0.65123500  0.00414900  0.17772700  1
  O  O19  1  0.15123500  0.99585100  0.32227300  1
  O  O20  1  0.34876500  0.99585100  0.82227300  1
  O  O21  1  0.84876500  0.00414900  0.67772700  1
  O  O22  1  0.43830100  0.70891200  0.16403200  1
  O  O23  1  0.93830100  0.29108800  0.33596800  1
  O  O24  1  0.56169900  0.29108800  0.83596800  1
  O  O25  1  0.06169900  0.70891200  0.66403200  1
  O  O26  1  0.93861300  0.19843900  0.00887400  1
  O  O27  1  0.43861300  0.80156100  0.49112600  1
  O  O28  1  0.06138700  0.80156100  0.99112600  1
  O  O29  1  0.56138700  0.19843900  0.50887400  1
  O  O30  1  0.38369100  0.16170200  0.13637800  1
  O  O31  1  0.88369100  0.83829800  0.36362200  1
  O  O32  1  0.61630900  0.83829800  0.86362200  1
  O  O33  1  0.11630900  0.16170200  0.63637800  1
