# generated using pymatgen
data_Tl2SnF6
_symmetry_space_group_name_H-M   'P 1'
_cell_length_a   6.18261282
_cell_length_b   6.18261282
_cell_length_c   4.96526000
_cell_angle_alpha   90.00000000
_cell_angle_beta   90.00000000
_cell_angle_gamma   120.00000877
_symmetry_Int_Tables_number   1
_chemical_formula_structural   Tl2SnF6
_chemical_formula_sum   'Tl2 Sn1 F6'
_cell_volume   164.36777950
_cell_formula_units_Z   1
loop_
 _symmetry_equiv_pos_site_id
 _symmetry_equiv_pos_as_xyz
  1  'x, y, z'
loop_
 _atom_site_type_symbol
 _atom_site_label
 _atom_site_symmetry_multiplicity
 _atom_site_fract_x
 _atom_site_fract_y
 _atom_site_fract_z
 _atom_site_occupancy
  Tl  Tl0  1  0.66666700  0.33333300  0.31166200  1
  Tl  Tl1  1  0.33333300  0.66666700  0.68833800  1
  Sn  Sn2  1  0.00000000  0.00000000  0.00000000  1
  F  F3  1  0.84355100  0.15644900  0.77583200  1
  F  F4  1  0.84355100  0.68710200  0.77583200  1
  F  F5  1  0.31289800  0.15644900  0.77583200  1
  F  F6  1  0.15644900  0.84355100  0.22416800  1
  F  F7  1  0.15644900  0.31289800  0.22416800  1
  F  F8  1  0.68710200  0.84355100  0.22416800  1
