# generated using pymatgen
data_TaNiP
_symmetry_space_group_name_H-M   'P 1'
_cell_length_a   3.59038600
_cell_length_b   6.10979400
_cell_length_c   7.11547600
_cell_angle_alpha   90.00000000
_cell_angle_beta   90.00000000
_cell_angle_gamma   90.00000000
_symmetry_Int_Tables_number   1
_chemical_formula_structural   TaNiP
_chemical_formula_sum   'Ta4 Ni4 P4'
_cell_volume   156.08877333
_cell_formula_units_Z   4
loop_
 _symmetry_equiv_pos_site_id
 _symmetry_equiv_pos_as_xyz
  1  'x, y, z'
loop_
 _atom_site_type_symbol
 _atom_site_label
 _atom_site_symmetry_multiplicity
 _atom_site_fract_x
 _atom_site_fract_y
 _atom_site_fract_z
 _atom_site_occupancy
  Ta  Ta0  1  0.25000000  0.02355300  0.83285800  1
  Ta  Ta1  1  0.25000000  0.52355300  0.66714200  1
  Ta  Ta2  1  0.75000000  0.97644700  0.16714200  1
  Ta  Ta3  1  0.75000000  0.47644700  0.33285800  1
  Ni  Ni4  1  0.25000000  0.14707000  0.43280800  1
  Ni  Ni5  1  0.25000000  0.64707000  0.06719200  1
  Ni  Ni6  1  0.75000000  0.85293000  0.56719200  1
  Ni  Ni7  1  0.75000000  0.35293000  0.93280800  1
  P  P8  1  0.25000000  0.27899400  0.12500900  1
  P  P9  1  0.25000000  0.77899400  0.37499100  1
  P  P10  1  0.75000000  0.72100600  0.87499100  1
  P  P11  1  0.75000000  0.22100600  0.62500900  1
