# generated using pymatgen
data_Sb3Cl9OF4
_symmetry_space_group_name_H-M   'P 1'
_cell_length_a   7.21814500
_cell_length_b   10.16149582
_cell_length_c   13.76195555
_cell_angle_alpha   91.02805263
_cell_angle_beta   93.06929989
_cell_angle_gamma   105.41554370
_symmetry_Int_Tables_number   1
_chemical_formula_structural   Sb3Cl9OF4
_chemical_formula_sum   'Sb6 Cl18 O2 F8'
_cell_volume   971.14656743
_cell_formula_units_Z   2
loop_
 _symmetry_equiv_pos_site_id
 _symmetry_equiv_pos_as_xyz
  1  'x, y, z'
loop_
 _atom_site_type_symbol
 _atom_site_label
 _atom_site_symmetry_multiplicity
 _atom_site_fract_x
 _atom_site_fract_y
 _atom_site_fract_z
 _atom_site_occupancy
  Sb  Sb0  1  0.19925000  0.94277600  0.71356300  1
  Sb  Sb1  1  0.80075000  0.05722400  0.28643700  1
  Sb  Sb2  1  0.18804900  0.26696600  0.89365700  1
  Sb  Sb3  1  0.81195100  0.73303400  0.10634300  1
  Sb  Sb4  1  0.40025200  0.35870000  0.69217500  1
  Sb  Sb5  1  0.59974800  0.64130000  0.30782500  1
  Cl  Cl6  1  0.49655700  0.59136800  0.73038500  1
  Cl  Cl7  1  0.50344300  0.40863200  0.26961500  1
  Cl  Cl8  1  0.29557500  0.85283100  0.57410000  1
  Cl  Cl9  1  0.70442500  0.14716900  0.42590000  1
  Cl  Cl10  1  0.06603000  0.74450300  0.79491700  1
  Cl  Cl11  1  0.93397000  0.25549700  0.20508300  1
  Cl  Cl12  1  0.32219800  0.17762200  0.02565000  1
  Cl  Cl13  1  0.67780200  0.82237800  0.97435000  1
  Cl  Cl14  1  0.25941700  0.36382500  0.53704600  1
  Cl  Cl15  1  0.74058300  0.63617500  0.46295400  1
  Cl  Cl16  1  0.70395600  0.34169700  0.65598200  1
  Cl  Cl17  1  0.29604400  0.65830300  0.34401800  1
  Cl  Cl18  1  0.86165700  0.19017200  0.91594500  1
  Cl  Cl19  1  0.13834300  0.80982800  0.08405500  1
  Cl  Cl20  1  0.90790200  0.96761500  0.64557600  1
  Cl  Cl21  1  0.09209800  0.03238500  0.35442400  1
  Cl  Cl22  1  0.24213600  0.48586300  0.96163000  1
  Cl  Cl23  1  0.75786400  0.51413700  0.03837000  1
  O  O24  1  0.15515300  0.31547100  0.75703000  1
  O  O25  1  0.84484700  0.68452900  0.24297000  1
  F  F26  1  0.32670900  0.13842200  0.66632100  1
  F  F27  1  0.67329100  0.86157800  0.33367900  1
  F  F28  1  0.15814300  0.06213200  0.83107300  1
  F  F29  1  0.84185700  0.93786800  0.16892700  1
  F  F30  1  0.44582300  0.96583400  0.77972900  1
  F  F31  1  0.55417700  0.03416600  0.22027100  1
  F  F32  1  0.47139400  0.30679600  0.83799400  1
  F  F33  1  0.52860600  0.69320400  0.16200600  1
