# generated using pymatgen
data_TaNiP2
_symmetry_space_group_name_H-M   'P 1'
_cell_length_a   3.34778300
_cell_length_b   5.41713700
_cell_length_c   12.15044900
_cell_angle_alpha   90.00000000
_cell_angle_beta   90.00000000
_cell_angle_gamma   90.00000000
_symmetry_Int_Tables_number   1
_chemical_formula_structural   TaNiP2
_chemical_formula_sum   'Ta4 Ni4 P8'
_cell_volume   220.35324256
_cell_formula_units_Z   4
loop_
 _symmetry_equiv_pos_site_id
 _symmetry_equiv_pos_as_xyz
  1  'x, y, z'
loop_
 _atom_site_type_symbol
 _atom_site_label
 _atom_site_symmetry_multiplicity
 _atom_site_fract_x
 _atom_site_fract_y
 _atom_site_fract_z
 _atom_site_occupancy
  Ta  Ta0  1  0.25000000  0.01529600  0.82954700  1
  Ta  Ta1  1  0.25000000  0.51529600  0.67045300  1
  Ta  Ta2  1  0.75000000  0.98470400  0.17045300  1
  Ta  Ta3  1  0.75000000  0.48470400  0.32954700  1
  Ni  Ni4  1  0.25000000  0.02172800  0.58521000  1
  Ni  Ni5  1  0.25000000  0.52172800  0.91479000  1
  Ni  Ni6  1  0.75000000  0.97827200  0.41479000  1
  Ni  Ni7  1  0.75000000  0.47827200  0.08521000  1
  P  P8  1  0.25000000  0.13841000  0.30953200  1
  P  P9  1  0.25000000  0.63841000  0.19046800  1
  P  P10  1  0.75000000  0.86159000  0.69046800  1
  P  P11  1  0.75000000  0.36159000  0.80953200  1
  P  P12  1  0.25000000  0.18998600  0.03562600  1
  P  P13  1  0.25000000  0.68998600  0.46437400  1
  P  P14  1  0.75000000  0.81001400  0.96437400  1
  P  P15  1  0.75000000  0.31001400  0.53562600  1
