# generated using pymatgen
data_SrNi5P3
_symmetry_space_group_name_H-M   'P 1'
_cell_length_a   6.14518750
_cell_length_b   6.14518750
_cell_length_c   11.61235100
_cell_angle_alpha   90.00000000
_cell_angle_beta   90.00000000
_cell_angle_gamma   145.85208627
_symmetry_Int_Tables_number   1
_chemical_formula_structural   SrNi5P3
_chemical_formula_sum   'Sr2 Ni10 P6'
_cell_volume   246.15556815
_cell_formula_units_Z   2
loop_
 _symmetry_equiv_pos_site_id
 _symmetry_equiv_pos_as_xyz
  1  'x, y, z'
loop_
 _atom_site_type_symbol
 _atom_site_label
 _atom_site_symmetry_multiplicity
 _atom_site_fract_x
 _atom_site_fract_y
 _atom_site_fract_z
 _atom_site_occupancy
  Sr  Sr0  1  0.16175200  0.83824800  0.25000000  1
  Sr  Sr1  1  0.83824800  0.16175200  0.75000000  1
  Ni  Ni2  1  0.44972100  0.55027900  0.35493000  1
  Ni  Ni3  1  0.44972100  0.55027900  0.14507000  1
  Ni  Ni4  1  0.80207700  0.19792300  0.06811000  1
  Ni  Ni5  1  0.19792300  0.80207700  0.93189000  1
  Ni  Ni6  1  0.19792300  0.80207700  0.56811000  1
  Ni  Ni7  1  0.80207700  0.19792300  0.43189000  1
  Ni  Ni8  1  0.00000000  0.00000000  0.50000000  1
  Ni  Ni9  1  0.00000000  0.00000000  0.00000000  1
  Ni  Ni10  1  0.55027900  0.44972100  0.85493000  1
  Ni  Ni11  1  0.55027900  0.44972100  0.64507000  1
  P  P12  1  0.88457400  0.11542600  0.25000000  1
  P  P13  1  0.11542600  0.88457400  0.75000000  1
  P  P14  1  0.38143600  0.61856400  0.96285500  1
  P  P15  1  0.61856400  0.38143600  0.03714500  1
  P  P16  1  0.61856400  0.38143600  0.46285500  1
  P  P17  1  0.38143600  0.61856400  0.53714500  1
