# generated using pymatgen
data_TiPb2Se2ClO7F
_symmetry_space_group_name_H-M   'P 1'
_cell_length_a   5.45695200
_cell_length_b   8.47679678
_cell_length_c   10.95060546
_cell_angle_alpha   111.60531804
_cell_angle_beta   90.00000000
_cell_angle_gamma   90.00000000
_symmetry_Int_Tables_number   1
_chemical_formula_structural   TiPb2Se2ClO7F
_chemical_formula_sum   'Ti2 Pb4 Se4 Cl2 O14 F2'
_cell_volume   470.95849379
_cell_formula_units_Z   2
loop_
 _symmetry_equiv_pos_site_id
 _symmetry_equiv_pos_as_xyz
  1  'x, y, z'
loop_
 _atom_site_type_symbol
 _atom_site_label
 _atom_site_symmetry_multiplicity
 _atom_site_fract_x
 _atom_site_fract_y
 _atom_site_fract_z
 _atom_site_occupancy
  Ti  Ti0  1  0.02081600  0.65087200  0.04280300  1
  Ti  Ti1  1  0.52081600  0.34912800  0.95719700  1
  Pb  Pb2  1  0.56323400  0.83283500  0.81000000  1
  Pb  Pb3  1  0.06323400  0.16716500  0.19000000  1
  Pb  Pb4  1  0.51954500  0.29191000  0.50371900  1
  Pb  Pb5  1  0.01954500  0.70809000  0.49628100  1
  Se  Se6  1  0.02326700  0.12628400  0.80904100  1
  Se  Se7  1  0.52326700  0.87371600  0.19095900  1
  Se  Se8  1  0.01509800  0.50893600  0.72159200  1
  Se  Se9  1  0.51509800  0.49106400  0.27840800  1
  Cl  Cl10  1  0.49860900  0.87468600  0.54968800  1
  Cl  Cl11  1  0.99860900  0.12531400  0.45031200  1
  O  O12  1  0.79681800  0.16766200  0.93124300  1
  O  O13  1  0.29681800  0.83233800  0.06875700  1
  O  O14  1  0.28928700  0.12172500  0.89568500  1
  O  O15  1  0.78928700  0.87827500  0.10431500  1
  O  O16  1  0.96907300  0.91231800  0.73324900  1
  O  O17  1  0.46907300  0.08768200  0.26675100  1
  O  O18  1  0.78892300  0.55937600  0.62983900  1
  O  O19  1  0.28892300  0.44062400  0.37016100  1
  O  O20  1  0.26683500  0.57932100  0.66254300  1
  O  O21  1  0.76683500  0.42067900  0.33745700  1
  O  O22  1  0.95317500  0.67626600  0.87087300  1
  O  O23  1  0.45317500  0.32373400  0.12912700  1
  O  O24  1  0.22429200  0.47317200  0.96808300  1
  O  O25  1  0.72429200  0.52682800  0.03191700  1
  F  F26  1  0.06817900  0.67843100  0.22244300  1
  F  F27  1  0.56817900  0.32156900  0.77755700  1
