# generated using pymatgen
data_FePH2O5
_symmetry_space_group_name_H-M   'P 1'
_cell_length_a   5.18373854
_cell_length_b   5.18373854
_cell_length_c   7.54893245
_cell_angle_alpha   105.35649753
_cell_angle_beta   105.35649753
_cell_angle_gamma   98.58419788
_symmetry_Int_Tables_number   1
_chemical_formula_structural   FePH2O5
_chemical_formula_sum   'Fe2 P2 H4 O10'
_cell_volume   183.29701781
_cell_formula_units_Z   2
loop_
 _symmetry_equiv_pos_site_id
 _symmetry_equiv_pos_as_xyz
  1  'x, y, z'
loop_
 _atom_site_type_symbol
 _atom_site_label
 _atom_site_symmetry_multiplicity
 _atom_site_fract_x
 _atom_site_fract_y
 _atom_site_fract_z
 _atom_site_occupancy
  Fe  Fe0  1  0.00000000  0.50000000  0.50000000  1
  Fe  Fe1  1  0.50000000  0.00000000  0.00000000  1
  P  P2  1  0.08183000  0.91817000  0.25000000  1
  P  P3  1  0.91817000  0.08183000  0.75000000  1
  H  H4  1  0.63502400  0.55190500  0.20411800  1
  H  H5  1  0.44809500  0.36497600  0.29588200  1
  H  H6  1  0.36497600  0.44809500  0.79588200  1
  H  H7  1  0.55190500  0.63502400  0.70411800  1
  O  O8  1  0.76277800  0.82659000  0.15104100  1
  O  O9  1  0.17341000  0.23722200  0.34895900  1
  O  O10  1  0.23722200  0.17341000  0.84895900  1
  O  O11  1  0.82659000  0.76277800  0.65104100  1
  O  O12  1  0.15815900  0.77060100  0.40114800  1
  O  O13  1  0.22939900  0.84184100  0.09885200  1
  O  O14  1  0.84184100  0.22939900  0.59885200  1
  O  O15  1  0.77060100  0.15815900  0.90114800  1
  O  O16  1  0.61578500  0.38421500  0.25000000  1
  O  O17  1  0.38421500  0.61578500  0.75000000  1
