# generated using pymatgen
data_KGaF4
_symmetry_space_group_name_H-M   'P 1'
_cell_length_a   7.62322300
_cell_length_b   7.80638700
_cell_length_c   12.40156000
_cell_angle_alpha   90.00000000
_cell_angle_beta   90.00000000
_cell_angle_gamma   90.00000000
_symmetry_Int_Tables_number   1
_chemical_formula_structural   KGaF4
_chemical_formula_sum   'K8 Ga8 F32'
_cell_volume   738.01471401
_cell_formula_units_Z   8
loop_
 _symmetry_equiv_pos_site_id
 _symmetry_equiv_pos_as_xyz
  1  'x, y, z'
loop_
 _atom_site_type_symbol
 _atom_site_label
 _atom_site_symmetry_multiplicity
 _atom_site_fract_x
 _atom_site_fract_y
 _atom_site_fract_z
 _atom_site_occupancy
  K  K0  1  0.25000000  0.37440300  0.47255800  1
  K  K1  1  0.75000000  0.62559700  0.52744200  1
  K  K2  1  0.75000000  0.87440300  0.02744200  1
  K  K3  1  0.25000000  0.12559700  0.97255800  1
  K  K4  1  0.75000000  0.37532700  0.01536400  1
  K  K5  1  0.25000000  0.62467300  0.98463600  1
  K  K6  1  0.25000000  0.87532700  0.48463600  1
  K  K7  1  0.75000000  0.12467300  0.51536400  1
  Ga  Ga8  1  0.50070100  0.62498900  0.25156400  1
  Ga  Ga9  1  0.00070100  0.37501100  0.74843600  1
  Ga  Ga10  1  0.49929900  0.12498900  0.24843600  1
  Ga  Ga11  1  0.99929900  0.87501100  0.75156400  1
  Ga  Ga12  1  0.49929900  0.37501100  0.74843600  1
  Ga  Ga13  1  0.99929900  0.62498900  0.25156400  1
  Ga  Ga14  1  0.50070100  0.87501100  0.75156400  1
  Ga  Ga15  1  0.00070100  0.12498900  0.24843600  1
  F  F16  1  0.54640200  0.61554000  0.10472400  1
  F  F17  1  0.04640200  0.38446000  0.89527600  1
  F  F18  1  0.45359800  0.11554000  0.39527600  1
  F  F19  1  0.95359800  0.88446000  0.60472400  1
  F  F20  1  0.45359800  0.38446000  0.89527600  1
  F  F21  1  0.95359800  0.61554000  0.10472400  1
  F  F22  1  0.54640200  0.88446000  0.60472400  1
  F  F23  1  0.04640200  0.11554000  0.39527600  1
  F  F24  1  0.45573900  0.63406200  0.39858000  1
  F  F25  1  0.95573900  0.36593800  0.60142000  1
  F  F26  1  0.54426100  0.13406200  0.10142000  1
  F  F27  1  0.04426100  0.86593800  0.89858000  1
  F  F28  1  0.54426100  0.36593800  0.60142000  1
  F  F29  1  0.04426100  0.63406200  0.39858000  1
  F  F30  1  0.45573900  0.86593800  0.89858000  1
  F  F31  1  0.95573900  0.13406200  0.10142000  1
  F  F32  1  0.03975800  0.12498800  0.75421600  1
  F  F33  1  0.53975800  0.87501200  0.24578400  1
  F  F34  1  0.96024200  0.62498800  0.74578400  1
  F  F35  1  0.46024200  0.37501200  0.25421600  1
  F  F36  1  0.96024200  0.87501200  0.24578400  1
  F  F37  1  0.46024200  0.12498800  0.75421600  1
  F  F38  1  0.03975800  0.37501200  0.25421600  1
  F  F39  1  0.53975800  0.62498800  0.74578400  1
  F  F40  1  0.75000000  0.16045700  0.28300200  1
  F  F41  1  0.25000000  0.83954300  0.71699700  1
  F  F42  1  0.25000000  0.66045700  0.21699800  1
  F  F43  1  0.75000000  0.33954300  0.78300300  1
  F  F44  1  0.25000000  0.08938000  0.21254000  1
  F  F45  1  0.75000000  0.91062000  0.78746000  1
  F  F46  1  0.75000000  0.58938000  0.28746000  1
  F  F47  1  0.25000000  0.41062000  0.71254000  1
