# generated using pymatgen
data_Rb8Nd(AsS4)4
_symmetry_space_group_name_H-M   'P 1'
_cell_length_a   11.90737262
_cell_length_b   11.90737262
_cell_length_c   11.90737262
_cell_angle_alpha   134.09338741
_cell_angle_beta   128.47208557
_cell_angle_gamma   71.46020817
_symmetry_Int_Tables_number   1
_chemical_formula_structural   Rb8Nd(AsS4)4
_chemical_formula_sum   'Rb8 Nd1 As4 S16'
_cell_volume   929.27027698
_cell_formula_units_Z   1
loop_
 _symmetry_equiv_pos_site_id
 _symmetry_equiv_pos_as_xyz
  1  'x, y, z'
loop_
 _atom_site_type_symbol
 _atom_site_label
 _atom_site_symmetry_multiplicity
 _atom_site_fract_x
 _atom_site_fract_y
 _atom_site_fract_z
 _atom_site_occupancy
  Rb  Rb0  1  0.25329000  0.75329000  0.50000000  1
  Rb  Rb1  1  0.74671000  0.24671000  0.50000000  1
  Rb  Rb2  1  0.21270900  0.21270900  0.00000000  1
  Rb  Rb3  1  0.78729100  0.78729100  0.00000000  1
  Rb  Rb4  1  0.84193900  0.71339100  0.39528500  1
  Rb  Rb5  1  0.68189300  0.28660900  0.12854700  1
  Rb  Rb6  1  0.15806100  0.55334600  0.87145300  1
  Rb  Rb7  1  0.31810700  0.44665400  0.60471500  1
  Nd  Nd8  1  0.50000000  0.00000000  0.50000000  1
  As  As9  1  0.14391300  0.08107300  0.47149000  1
  As  As10  1  0.39041700  0.91892700  0.06284000  1
  As  As11  1  0.85608700  0.32757700  0.93716000  1
  As  As12  1  0.60958300  0.67242300  0.52851000  1
  S  S13  1  0.36649500  0.22323700  0.71932200  1
  S  S14  1  0.49608500  0.77676300  0.14325800  1
  S  S15  1  0.63350500  0.35282700  0.85674200  1
  S  S16  1  0.50391500  0.64717300  0.28067800  1
  S  S17  1  0.17007700  0.78561900  0.79364600  1
  S  S18  1  0.00802700  0.21438100  0.38445700  1
  S  S19  1  0.82992300  0.62357000  0.61554300  1
  S  S20  1  0.99197300  0.37643000  0.20635400  1
  S  S21  1  0.03086000  0.02250900  0.52000500  1
  S  S22  1  0.49749600  0.97749100  0.00835100  1
  S  S23  1  0.96914000  0.48914500  0.99164900  1
  S  S24  1  0.50250400  0.51085500  0.47999500  1
  S  S25  1  0.60433000  0.92265700  0.73858900  1
  S  S26  1  0.81593300  0.07734300  0.68167400  1
  S  S27  1  0.39567000  0.13425900  0.31832600  1
  S  S28  1  0.18406800  0.86574100  0.26141100  1
