# generated using pymatgen
data_LaTb3(Mo2O7)2
_symmetry_space_group_name_H-M   'P 1'
_cell_length_a   7.39684662
_cell_length_b   7.39684662
_cell_length_c   7.39684669
_cell_angle_alpha   60.90686544
_cell_angle_beta   60.90686544
_cell_angle_gamma   60.90686114
_symmetry_Int_Tables_number   1
_chemical_formula_structural   LaTb3(Mo2O7)2
_chemical_formula_sum   'La1 Tb3 Mo4 O14'
_cell_volume   292.01976728
_cell_formula_units_Z   1
loop_
 _symmetry_equiv_pos_site_id
 _symmetry_equiv_pos_as_xyz
  1  'x, y, z'
loop_
 _atom_site_type_symbol
 _atom_site_label
 _atom_site_symmetry_multiplicity
 _atom_site_fract_x
 _atom_site_fract_y
 _atom_site_fract_z
 _atom_site_occupancy
  La  La0  1  0.50000000  0.50000000  0.50000000  1
  Tb  Tb1  1  0.00000000  0.50000000  0.50000000  1
  Tb  Tb2  1  0.50000000  0.50000000  0.00000000  1
  Tb  Tb3  1  0.50000000  0.00000000  0.50000000  1
  Mo  Mo4  1  0.00000000  0.00000000  0.00000000  1
  Mo  Mo5  1  0.50000000  0.00000000  0.00000000  1
  Mo  Mo6  1  0.00000000  0.00000000  0.50000000  1
  Mo  Mo7  1  0.00000000  0.50000000  0.00000000  1
  O  O8  1  0.91627000  0.33222900  0.33222900  1
  O  O9  1  0.34722200  0.90881100  0.90881100  1
  O  O10  1  0.33222900  0.33222900  0.91627000  1
  O  O11  1  0.90881100  0.90881100  0.34722200  1
  O  O12  1  0.90881100  0.34722200  0.90881100  1
  O  O13  1  0.33222900  0.91627000  0.33222900  1
  O  O14  1  0.08373000  0.66777100  0.66777100  1
  O  O15  1  0.65277800  0.09118900  0.09118900  1
  O  O16  1  0.66777100  0.66777100  0.08373000  1
  O  O17  1  0.09118900  0.09118900  0.65277800  1
  O  O18  1  0.09118900  0.65277800  0.09118900  1
  O  O19  1  0.66777100  0.08373000  0.66777100  1
  O  O20  1  0.37060100  0.37060100  0.37060100  1
  O  O21  1  0.62939900  0.62939900  0.62939900  1
