# generated using pymatgen
data_Cs2PAuS4
_symmetry_space_group_name_H-M   'P 1'
_cell_length_a   7.15408800
_cell_length_b   7.29065100
_cell_length_c   20.45837400
_cell_angle_alpha   90.00000000
_cell_angle_beta   90.00000000
_cell_angle_gamma   90.00000000
_symmetry_Int_Tables_number   1
_chemical_formula_structural   Cs2PAuS4
_chemical_formula_sum   'Cs8 P4 Au4 S16'
_cell_volume   1067.06702885
_cell_formula_units_Z   4
loop_
 _symmetry_equiv_pos_site_id
 _symmetry_equiv_pos_as_xyz
  1  'x, y, z'
loop_
 _atom_site_type_symbol
 _atom_site_label
 _atom_site_symmetry_multiplicity
 _atom_site_fract_x
 _atom_site_fract_y
 _atom_site_fract_z
 _atom_site_occupancy
  Cs  Cs0  1  0.79082200  0.25000000  0.51552800  1
  Cs  Cs1  1  0.20917800  0.75000000  0.48447200  1
  Cs  Cs2  1  0.79082200  0.75000000  0.98447200  1
  Cs  Cs3  1  0.20917800  0.25000000  0.01552800  1
  Cs  Cs4  1  0.40619700  0.25000000  0.33411700  1
  Cs  Cs5  1  0.59380300  0.75000000  0.66588300  1
  Cs  Cs6  1  0.40619700  0.75000000  0.16588300  1
  Cs  Cs7  1  0.59380300  0.25000000  0.83411700  1
  P  P8  1  0.27650200  0.25000000  0.61373900  1
  P  P9  1  0.72349800  0.75000000  0.38626100  1
  P  P10  1  0.27650200  0.75000000  0.88626100  1
  P  P11  1  0.72349800  0.25000000  0.11373900  1
  Au  Au12  1  0.12126400  0.00000000  0.75000000  1
  Au  Au13  1  0.87873600  0.50000000  0.25000000  1
  Au  Au14  1  0.87873600  0.00000000  0.25000000  1
  Au  Au15  1  0.12126400  0.50000000  0.75000000  1
  S  S16  1  0.52576800  0.25000000  0.66035600  1
  S  S17  1  0.47423200  0.75000000  0.33964400  1
  S  S18  1  0.52576800  0.75000000  0.83964400  1
  S  S19  1  0.47423200  0.25000000  0.16035600  1
  S  S20  1  0.12134800  0.01269300  0.63664200  1
  S  S21  1  0.87865200  0.51269300  0.36335800  1
  S  S22  1  0.12134800  0.98730700  0.86335800  1
  S  S23  1  0.87865200  0.48730700  0.13664200  1
  S  S24  1  0.87865200  0.98730700  0.36335800  1
  S  S25  1  0.12134800  0.48730700  0.63664200  1
  S  S26  1  0.87865200  0.01269300  0.13664200  1
  S  S27  1  0.12134800  0.51269300  0.86335800  1
  S  S28  1  0.29020600  0.25000000  0.51442200  1
  S  S29  1  0.70979400  0.75000000  0.48557800  1
  S  S30  1  0.29020600  0.75000000  0.98557800  1
  S  S31  1  0.70979400  0.25000000  0.01442200  1
