# generated using pymatgen
data_BaTiCu4P4O17
_symmetry_space_group_name_H-M   'P 1'
_cell_length_a   9.71367200
_cell_length_b   9.71367200
_cell_length_c   7.24858100
_cell_angle_alpha   90.00000000
_cell_angle_beta   90.00000000
_cell_angle_gamma   90.00000000
_symmetry_Int_Tables_number   1
_chemical_formula_structural   BaTiCu4P4O17
_chemical_formula_sum   'Ba2 Ti2 Cu8 P8 O34'
_cell_volume   683.94293165
_cell_formula_units_Z   2
loop_
 _symmetry_equiv_pos_site_id
 _symmetry_equiv_pos_as_xyz
  1  'x, y, z'
loop_
 _atom_site_type_symbol
 _atom_site_label
 _atom_site_symmetry_multiplicity
 _atom_site_fract_x
 _atom_site_fract_y
 _atom_site_fract_z
 _atom_site_occupancy
  Ba  Ba0  1  0.50000000  0.50000000  0.00000000  1
  Ba  Ba1  1  0.00000000  0.00000000  0.00000000  1
  Ti  Ti2  1  0.00000000  0.50000000  0.97529500  1
  Ti  Ti3  1  0.50000000  0.00000000  0.02470500  1
  Cu  Cu4  1  0.76762800  0.51202400  0.40458400  1
  Cu  Cu5  1  0.23237200  0.48797600  0.40458400  1
  Cu  Cu6  1  0.73237200  0.01202400  0.59541600  1
  Cu  Cu7  1  0.26762800  0.98797600  0.59541600  1
  Cu  Cu8  1  0.51202400  0.76762800  0.59541600  1
  Cu  Cu9  1  0.48797600  0.23237200  0.59541600  1
  Cu  Cu10  1  0.01202400  0.73237200  0.40458400  1
  Cu  Cu11  1  0.98797600  0.26762800  0.40458400  1
  P  P12  1  0.78076700  0.30715100  0.73761500  1
  P  P13  1  0.21923300  0.69284900  0.73761500  1
  P  P14  1  0.71923300  0.80715100  0.26238500  1
  P  P15  1  0.28076700  0.19284900  0.26238500  1
  P  P16  1  0.30715100  0.78076700  0.26238500  1
  P  P17  1  0.69284900  0.21923300  0.26238500  1
  P  P18  1  0.80715100  0.71923300  0.73761500  1
  P  P19  1  0.19284900  0.28076700  0.73761500  1
  O  O20  1  0.84899600  0.36438600  0.55470100  1
  O  O21  1  0.15100400  0.63561400  0.55470100  1
  O  O22  1  0.65100400  0.86438600  0.44529900  1
  O  O23  1  0.34899600  0.13561400  0.44529900  1
  O  O24  1  0.36438600  0.84899600  0.44529900  1
  O  O25  1  0.63561400  0.15100400  0.44529900  1
  O  O26  1  0.86438600  0.65100400  0.55470100  1
  O  O27  1  0.13561400  0.34899600  0.55470100  1
  O  O28  1  0.62453700  0.33771000  0.73183700  1
  O  O29  1  0.37546300  0.66229000  0.73183700  1
  O  O30  1  0.87546300  0.83771000  0.26816300  1
  O  O31  1  0.12453700  0.16229000  0.26816300  1
  O  O32  1  0.33771000  0.62453700  0.26816300  1
  O  O33  1  0.66229000  0.37546300  0.26816300  1
  O  O34  1  0.83771000  0.87546300  0.73183700  1
  O  O35  1  0.16229000  0.12453700  0.73183700  1
  O  O36  1  0.83853700  0.38682700  0.90403000  1
  O  O37  1  0.16146300  0.61317300  0.90403000  1
  O  O38  1  0.66146300  0.88682700  0.09597000  1
  O  O39  1  0.33853700  0.11317300  0.09597000  1
  O  O40  1  0.38682700  0.83853700  0.09597000  1
  O  O41  1  0.61317300  0.16146300  0.09597000  1
  O  O42  1  0.88682700  0.66146300  0.90403000  1
  O  O43  1  0.11317300  0.33853700  0.90403000  1
  O  O44  1  0.00000000  0.50000000  0.21029300  1
  O  O45  1  0.50000000  0.00000000  0.78970700  1
  O  O46  1  0.81800900  0.15297300  0.75197200  1
  O  O47  1  0.18199100  0.84702700  0.75197200  1
  O  O48  1  0.68199100  0.65297300  0.24802800  1
  O  O49  1  0.31800900  0.34702700  0.24802800  1
  O  O50  1  0.15297300  0.81800900  0.24802800  1
  O  O51  1  0.84702700  0.18199100  0.24802800  1
  O  O52  1  0.65297300  0.68199100  0.75197200  1
  O  O53  1  0.34702700  0.31800900  0.75197200  1
