# generated using pymatgen
data_Ba5(IO6)2
_symmetry_space_group_name_H-M   'P 1'
_cell_length_a   5.98143600
_cell_length_b   10.77975500
_cell_length_c   20.11668300
_cell_angle_alpha   90.00000000
_cell_angle_beta   90.00000000
_cell_angle_gamma   90.00000000
_symmetry_Int_Tables_number   1
_chemical_formula_structural   Ba5(IO6)2
_chemical_formula_sum   'Ba20 I8 O48'
_cell_volume   1297.09182742
_cell_formula_units_Z   4
loop_
 _symmetry_equiv_pos_site_id
 _symmetry_equiv_pos_as_xyz
  1  'x, y, z'
loop_
 _atom_site_type_symbol
 _atom_site_label
 _atom_site_symmetry_multiplicity
 _atom_site_fract_x
 _atom_site_fract_y
 _atom_site_fract_z
 _atom_site_occupancy
  Ba  Ba0  1  0.25000000  0.41237300  0.54791700  1
  Ba  Ba1  1  0.25000000  0.08762700  0.04791700  1
  Ba  Ba2  1  0.75000000  0.58762700  0.45208300  1
  Ba  Ba3  1  0.75000000  0.91237300  0.95208300  1
  Ba  Ba4  1  0.25000000  0.11758900  0.64176800  1
  Ba  Ba5  1  0.25000000  0.38241100  0.14176800  1
  Ba  Ba6  1  0.75000000  0.88241100  0.35823200  1
  Ba  Ba7  1  0.75000000  0.61758900  0.85823200  1
  Ba  Ba8  1  0.25000000  0.76193600  0.69793500  1
  Ba  Ba9  1  0.25000000  0.73806400  0.19793500  1
  Ba  Ba10  1  0.75000000  0.23806400  0.30206500  1
  Ba  Ba11  1  0.75000000  0.26193600  0.80206500  1
  Ba  Ba12  1  0.25000000  0.02161600  0.84186400  1
  Ba  Ba13  1  0.25000000  0.47838400  0.34186400  1
  Ba  Ba14  1  0.75000000  0.97838400  0.15813600  1
  Ba  Ba15  1  0.75000000  0.52161600  0.65813600  1
  Ba  Ba16  1  0.25000000  0.40643400  0.92939000  1
  Ba  Ba17  1  0.25000000  0.09356600  0.42939000  1
  Ba  Ba18  1  0.75000000  0.59356600  0.07061000  1
  Ba  Ba19  1  0.75000000  0.90643400  0.57061000  1
  I  I20  1  0.25000000  0.75063900  0.51134200  1
  I  I21  1  0.25000000  0.74936100  0.01134200  1
  I  I22  1  0.75000000  0.24936100  0.48865800  1
  I  I23  1  0.75000000  0.25063900  0.98865800  1
  I  I24  1  0.25000000  0.39696300  0.74018300  1
  I  I25  1  0.25000000  0.10303700  0.24018300  1
  I  I26  1  0.75000000  0.60303700  0.25981700  1
  I  I27  1  0.75000000  0.89696300  0.75981700  1
  O  O28  1  0.52149000  0.16968700  0.53958900  1
  O  O29  1  0.97851000  0.33031300  0.03958900  1
  O  O30  1  0.02149000  0.83031300  0.46041100  1
  O  O31  1  0.47851000  0.66968700  0.96041100  1
  O  O32  1  0.47851000  0.83031300  0.46041100  1
  O  O33  1  0.02149000  0.66968700  0.96041100  1
  O  O34  1  0.97851000  0.16968700  0.53958900  1
  O  O35  1  0.52149000  0.33031300  0.03958900  1
  O  O36  1  0.02277400  0.31596700  0.68968100  1
  O  O37  1  0.47722600  0.18403300  0.18968100  1
  O  O38  1  0.52277400  0.68403300  0.31031900  1
  O  O39  1  0.97722600  0.81596700  0.81031900  1
  O  O40  1  0.97722600  0.68403300  0.31031900  1
  O  O41  1  0.52277400  0.81596700  0.81031900  1
  O  O42  1  0.47722600  0.31596700  0.68968100  1
  O  O43  1  0.02277400  0.18403300  0.18968100  1
  O  O44  1  0.02287500  0.47840200  0.79026100  1
  O  O45  1  0.47712500  0.02159800  0.29026100  1
  O  O46  1  0.52287500  0.52159800  0.20973900  1
  O  O47  1  0.97712500  0.97840200  0.70973900  1
  O  O48  1  0.97712500  0.52159800  0.20973900  1
  O  O49  1  0.52287500  0.97840200  0.70973900  1
  O  O50  1  0.47712500  0.47840200  0.79026100  1
  O  O51  1  0.02287500  0.02159800  0.29026100  1
  O  O52  1  0.51799500  0.17261000  0.93747500  1
  O  O53  1  0.98200500  0.32739000  0.43747500  1
  O  O54  1  0.01799500  0.82739000  0.06252500  1
  O  O55  1  0.48200500  0.67261000  0.56252500  1
  O  O56  1  0.48200500  0.82739000  0.06252500  1
  O  O57  1  0.01799500  0.67261000  0.56252500  1
  O  O58  1  0.98200500  0.17261000  0.93747500  1
  O  O59  1  0.51799500  0.32739000  0.43747500  1
  O  O60  1  0.25000000  0.88888300  0.57231700  1
  O  O61  1  0.25000000  0.61111700  0.07231700  1
  O  O62  1  0.75000000  0.11111700  0.42768300  1
  O  O63  1  0.75000000  0.38888300  0.92768300  1
  O  O64  1  0.25000000  0.26343900  0.80361200  1
  O  O65  1  0.25000000  0.23656100  0.30361200  1
  O  O66  1  0.75000000  0.73656100  0.19638800  1
  O  O67  1  0.75000000  0.76343900  0.69638800  1
  O  O68  1  0.25000000  0.89572900  0.95532100  1
  O  O69  1  0.25000000  0.60427100  0.45532100  1
  O  O70  1  0.75000000  0.10427100  0.04467900  1
  O  O71  1  0.75000000  0.39572900  0.54467900  1
  O  O72  1  0.25000000  0.97541800  0.17479900  1
  O  O73  1  0.25000000  0.52458200  0.67479900  1
  O  O74  1  0.75000000  0.02458200  0.82520100  1
  O  O75  1  0.75000000  0.47541800  0.32520100  1
