# generated using pymatgen
data_SiMo3
_symmetry_space_group_name_H-M   'P 1'
_cell_length_a   4.91941000
_cell_length_b   4.91941000
_cell_length_c   4.91941000
_cell_angle_alpha   90.00000000
_cell_angle_beta   90.00000000
_cell_angle_gamma   90.00000000
_symmetry_Int_Tables_number   1
_chemical_formula_structural   SiMo3
_chemical_formula_sum   'Si2 Mo6'
_cell_volume   119.05264781
_cell_formula_units_Z   2
loop_
 _symmetry_equiv_pos_site_id
 _symmetry_equiv_pos_as_xyz
  1  'x, y, z'
loop_
 _atom_site_type_symbol
 _atom_site_label
 _atom_site_symmetry_multiplicity
 _atom_site_fract_x
 _atom_site_fract_y
 _atom_site_fract_z
 _atom_site_occupancy
  Si  Si0  1  0.50000000  0.50000000  0.50000000  1
  Si  Si1  1  0.00000000  0.00000000  0.00000000  1
  Mo  Mo2  1  0.00000000  0.50000000  0.25000000  1
  Mo  Mo3  1  0.00000000  0.50000000  0.75000000  1
  Mo  Mo4  1  0.50000000  0.75000000  0.00000000  1
  Mo  Mo5  1  0.50000000  0.25000000  0.00000000  1
  Mo  Mo6  1  0.75000000  0.00000000  0.50000000  1
  Mo  Mo7  1  0.25000000  0.00000000  0.50000000  1
