# generated using pymatgen
data_Cs(MoSe)3
_symmetry_space_group_name_H-M   'P 1'
_cell_length_a   10.10048696
_cell_length_b   10.10048696
_cell_length_c   4.53725000
_cell_angle_alpha   90.00000000
_cell_angle_beta   90.00000000
_cell_angle_gamma   119.99999320
_symmetry_Int_Tables_number   1
_chemical_formula_structural   Cs(MoSe)3
_chemical_formula_sum   'Cs2 Mo6 Se6'
_cell_volume   400.87409780
_cell_formula_units_Z   2
loop_
 _symmetry_equiv_pos_site_id
 _symmetry_equiv_pos_as_xyz
  1  'x, y, z'
loop_
 _atom_site_type_symbol
 _atom_site_label
 _atom_site_symmetry_multiplicity
 _atom_site_fract_x
 _atom_site_fract_y
 _atom_site_fract_z
 _atom_site_occupancy
  Cs  Cs0  1  0.33333300  0.66666700  0.25000000  1
  Cs  Cs1  1  0.66666700  0.33333300  0.75000000  1
  Mo  Mo2  1  0.13889200  0.16283300  0.25000000  1
  Mo  Mo3  1  0.86110800  0.83716700  0.75000000  1
  Mo  Mo4  1  0.83716700  0.97605900  0.25000000  1
  Mo  Mo5  1  0.02394100  0.86110800  0.25000000  1
  Mo  Mo6  1  0.97605900  0.13889200  0.75000000  1
  Mo  Mo7  1  0.16283300  0.02394100  0.75000000  1
  Se  Se8  1  0.95156200  0.27431400  0.25000000  1
  Se  Se9  1  0.04843800  0.72568600  0.75000000  1
  Se  Se10  1  0.72568600  0.67724800  0.25000000  1
  Se  Se11  1  0.32275200  0.04843800  0.25000000  1
  Se  Se12  1  0.67724800  0.95156200  0.75000000  1
  Se  Se13  1  0.27431400  0.32275200  0.75000000  1
