# generated using pymatgen
data_Ho2(Ga3Co)3
_symmetry_space_group_name_H-M   'P 1'
_cell_length_a   7.35415962
_cell_length_b   7.35415962
_cell_length_c   9.42056000
_cell_angle_alpha   90.00000000
_cell_angle_beta   90.00000000
_cell_angle_gamma   119.73426872
_symmetry_Int_Tables_number   1
_chemical_formula_structural   Ho2(Ga3Co)3
_chemical_formula_sum   'Ho4 Ga18 Co6'
_cell_volume   442.41530474
_cell_formula_units_Z   2
loop_
 _symmetry_equiv_pos_site_id
 _symmetry_equiv_pos_as_xyz
  1  'x, y, z'
loop_
 _atom_site_type_symbol
 _atom_site_label
 _atom_site_symmetry_multiplicity
 _atom_site_fract_x
 _atom_site_fract_y
 _atom_site_fract_z
 _atom_site_occupancy
  Ho  Ho0  1  0.33139900  0.00289400  0.75000000  1
  Ho  Ho1  1  0.00289400  0.33139900  0.75000000  1
  Ho  Ho2  1  0.66860100  0.99710600  0.25000000  1
  Ho  Ho3  1  0.99710600  0.66860100  0.25000000  1
  Ga  Ga4  1  0.66569100  0.00012300  0.92810600  1
  Ga  Ga5  1  0.33430900  0.99987700  0.42810600  1
  Ga  Ga6  1  0.99987700  0.33430900  0.42810500  1
  Ga  Ga7  1  0.33430900  0.99987700  0.07189400  1
  Ga  Ga8  1  0.00012300  0.66569100  0.92810600  1
  Ga  Ga9  1  0.99987700  0.33430900  0.07189400  1
  Ga  Ga10  1  0.33343900  0.33343900  0.55827900  1
  Ga  Ga11  1  0.33343900  0.33343900  0.94172100  1
  Ga  Ga12  1  0.66656100  0.66656100  0.05827900  1
  Ga  Ga13  1  0.66656100  0.66656100  0.44172100  1
  Ga  Ga14  1  0.87896600  0.87896600  0.75000000  1
  Ga  Ga15  1  0.12103400  0.12103400  0.25000000  1
  Ga  Ga16  1  0.33640800  0.55050100  0.25000000  1
  Ga  Ga17  1  0.55050100  0.33640800  0.25000000  1
  Ga  Ga18  1  0.66359200  0.44949900  0.75000000  1
  Ga  Ga19  1  0.44949900  0.66359200  0.75000000  1
  Ga  Ga20  1  0.66569100  0.00012300  0.57189500  1
  Ga  Ga21  1  0.00012300  0.66569100  0.57189400  1
  Co  Co22  1  0.32921500  0.67078500  0.00000000  1
  Co  Co23  1  0.67078500  0.32921500  0.50000000  1
  Co  Co24  1  0.67078500  0.32921500  0.00000000  1
  Co  Co25  1  0.32921500  0.67078500  0.50000000  1
  Co  Co26  1  0.00000000  0.00000000  0.00000000  1
  Co  Co27  1  0.00000000  0.00000000  0.50000000  1
