# generated using pymatgen
data_Sc2Nb3Si4
_symmetry_space_group_name_H-M   'P 1'
_cell_length_a   6.72379800
_cell_length_b   6.90368100
_cell_length_c   13.19516300
_cell_angle_alpha   90.00000000
_cell_angle_beta   90.00000000
_cell_angle_gamma   90.00000000
_symmetry_Int_Tables_number   1
_chemical_formula_structural   Sc2Nb3Si4
_chemical_formula_sum   'Sc8 Nb12 Si16'
_cell_volume   612.50569731
_cell_formula_units_Z   4
loop_
 _symmetry_equiv_pos_site_id
 _symmetry_equiv_pos_as_xyz
  1  'x, y, z'
loop_
 _atom_site_type_symbol
 _atom_site_label
 _atom_site_symmetry_multiplicity
 _atom_site_fract_x
 _atom_site_fract_y
 _atom_site_fract_z
 _atom_site_occupancy
  Sc  Sc0  1  0.49873200  0.67497400  0.59510600  1
  Sc  Sc1  1  0.99873200  0.82502600  0.90489400  1
  Sc  Sc2  1  0.50126800  0.32502600  0.09510600  1
  Sc  Sc3  1  0.00126800  0.17497400  0.40489400  1
  Sc  Sc4  1  0.50126800  0.32502600  0.40489400  1
  Sc  Sc5  1  0.00126800  0.17497400  0.09510600  1
  Sc  Sc6  1  0.49873200  0.67497400  0.90489400  1
  Sc  Sc7  1  0.99873200  0.82502600  0.59510600  1
  Nb  Nb8  1  0.66048700  0.17500900  0.62515600  1
  Nb  Nb9  1  0.16048700  0.32499100  0.87484400  1
  Nb  Nb10  1  0.33951300  0.82499100  0.12515600  1
  Nb  Nb11  1  0.83951300  0.67500900  0.37484400  1
  Nb  Nb12  1  0.33951300  0.82499100  0.37484400  1
  Nb  Nb13  1  0.83951300  0.67500900  0.12515600  1
  Nb  Nb14  1  0.66048700  0.17500900  0.87484400  1
  Nb  Nb15  1  0.16048700  0.32499100  0.62515600  1
  Nb  Nb16  1  0.83542800  0.49418700  0.75000000  1
  Nb  Nb17  1  0.33542800  0.00581300  0.75000000  1
  Nb  Nb18  1  0.16457200  0.50581300  0.25000000  1
  Nb  Nb19  1  0.66457200  0.99418700  0.25000000  1
  Si  Si20  1  0.67019500  0.96677800  0.46113400  1
  Si  Si21  1  0.17019500  0.53322200  0.03886600  1
  Si  Si22  1  0.32980500  0.03322200  0.96113400  1
  Si  Si23  1  0.82980500  0.46677800  0.53886600  1
  Si  Si24  1  0.32980500  0.03322200  0.53886600  1
  Si  Si25  1  0.82980500  0.46677800  0.96113400  1
  Si  Si26  1  0.67019500  0.96677800  0.03886600  1
  Si  Si27  1  0.17019500  0.53322200  0.46113400  1
  Si  Si28  1  0.45685700  0.38660200  0.75000000  1
  Si  Si29  1  0.95685700  0.11339800  0.75000000  1
  Si  Si30  1  0.54314300  0.61339800  0.25000000  1
  Si  Si31  1  0.04314300  0.88660200  0.25000000  1
  Si  Si32  1  0.70238000  0.86155100  0.75000000  1
  Si  Si33  1  0.20238000  0.63844900  0.75000000  1
  Si  Si34  1  0.29762000  0.13844900  0.25000000  1
  Si  Si35  1  0.79762000  0.36155100  0.25000000  1
