# generated using pymatgen
data_Cs5Mo8P(H3O16)2
_symmetry_space_group_name_H-M   'P 1'
_cell_length_a   9.15440300
_cell_length_b   12.66724507
_cell_length_c   16.74592800
_cell_angle_alpha   90.00000000
_cell_angle_beta   90.00000000
_cell_angle_gamma   111.18260823
_symmetry_Int_Tables_number   1
_chemical_formula_structural   Cs5Mo8P(H3O16)2
_chemical_formula_sum   'Cs10 Mo16 P2 H12 O64'
_cell_volume   1810.66997708
_cell_formula_units_Z   2
loop_
 _symmetry_equiv_pos_site_id
 _symmetry_equiv_pos_as_xyz
  1  'x, y, z'
loop_
 _atom_site_type_symbol
 _atom_site_label
 _atom_site_symmetry_multiplicity
 _atom_site_fract_x
 _atom_site_fract_y
 _atom_site_fract_z
 _atom_site_occupancy
  Cs  Cs0  1  0.12021500  0.24042900  0.25000000  1
  Cs  Cs1  1  0.87978500  0.75957100  0.75000000  1
  Cs  Cs2  1  0.11695900  0.23391800  0.96191100  1
  Cs  Cs3  1  0.88304100  0.76608200  0.03808900  1
  Cs  Cs4  1  0.11695900  0.23391800  0.53808900  1
  Cs  Cs5  1  0.88304100  0.76608200  0.46191100  1
  Cs  Cs6  1  0.36096200  0.72192300  0.02726100  1
  Cs  Cs7  1  0.63903800  0.27807700  0.97273900  1
  Cs  Cs8  1  0.36096200  0.72192300  0.47273900  1
  Cs  Cs9  1  0.63903800  0.27807700  0.52726100  1
  Mo  Mo10  1  0.91480100  0.47561400  0.14871400  1
  Mo  Mo11  1  0.43918600  0.52438600  0.85128600  1
  Mo  Mo12  1  0.91480100  0.47561400  0.35128600  1
  Mo  Mo13  1  0.43918600  0.52438600  0.64871400  1
  Mo  Mo14  1  0.08519900  0.52438600  0.85128600  1
  Mo  Mo15  1  0.56081400  0.47561400  0.14871400  1
  Mo  Mo16  1  0.08519900  0.52438600  0.64871400  1
  Mo  Mo17  1  0.56081400  0.47561400  0.35128600  1
  Mo  Mo18  1  0.70295500  0.03492800  0.15321200  1
  Mo  Mo19  1  0.66802700  0.96507200  0.84678800  1
  Mo  Mo20  1  0.70295500  0.03492800  0.34678800  1
  Mo  Mo21  1  0.66802700  0.96507200  0.65321200  1
  Mo  Mo22  1  0.29704500  0.96507200  0.84678800  1
  Mo  Mo23  1  0.33197300  0.03492800  0.15321200  1
  Mo  Mo24  1  0.29704500  0.96507200  0.65321200  1
  Mo  Mo25  1  0.33197300  0.03492800  0.34678800  1
  P  P26  1  0.62760500  0.25521000  0.25000000  1
  P  P27  1  0.37239500  0.74479000  0.75000000  1
  H  H28  1  0.81187700  0.62375300  0.25000000  1
  H  H29  1  0.18812300  0.37624700  0.75000000  1
  H  H30  1  0.44383400  0.88766800  0.25000000  1
  H  H31  1  0.55616600  0.11233200  0.75000000  1
  H  H32  1  0.99157600  0.15154700  0.75000000  1
  H  H33  1  0.84002900  0.84845300  0.25000000  1
  H  H34  1  0.00842400  0.84845300  0.25000000  1
  H  H35  1  0.15997100  0.15154700  0.75000000  1
  H  H36  1  0.26101300  0.69401300  0.25000000  1
  H  H37  1  0.56700000  0.30598700  0.75000000  1
  H  H38  1  0.73898700  0.30598700  0.75000000  1
  H  H39  1  0.43300000  0.69401300  0.25000000  1
  O  O40  1  0.76999400  0.53998800  0.25000000  1
  O  O41  1  0.23000600  0.46001200  0.75000000  1
  O  O42  1  0.66665700  0.33331500  0.17473100  1
  O  O43  1  0.33334300  0.66668500  0.82526900  1
  O  O44  1  0.66665700  0.33331500  0.32526900  1
  O  O45  1  0.33334300  0.66668500  0.67473100  1
  O  O46  1  0.96753900  0.42364900  0.25000000  1
  O  O47  1  0.54389100  0.57635100  0.75000000  1
  O  O48  1  0.03246100  0.57635100  0.75000000  1
  O  O49  1  0.45610900  0.42364900  0.25000000  1
  O  O50  1  0.75354400  0.50708800  0.08785500  1
  O  O51  1  0.24645600  0.49291200  0.91214500  1
  O  O52  1  0.75354400  0.50708800  0.41214500  1
  O  O53  1  0.24645600  0.49291200  0.58785500  1
  O  O54  1  0.97153100  0.39165400  0.08256500  1
  O  O55  1  0.57987700  0.60834600  0.91743500  1
  O  O56  1  0.97153100  0.39165400  0.41743500  1
  O  O57  1  0.57987700  0.60834600  0.58256500  1
  O  O58  1  0.02846900  0.60834600  0.91743500  1
  O  O59  1  0.42012300  0.39165400  0.08256500  1
  O  O60  1  0.02846900  0.60834600  0.58256500  1
  O  O61  1  0.42012300  0.39165400  0.41743500  1
  O  O62  1  0.06012300  0.61015800  0.14333000  1
  O  O63  1  0.44996500  0.38984200  0.85667000  1
  O  O64  1  0.06012300  0.61015800  0.35667000  1
  O  O65  1  0.44996500  0.38984200  0.64333000  1
  O  O66  1  0.93987700  0.38984200  0.85667000  1
  O  O67  1  0.55003500  0.61015800  0.14333000  1
  O  O68  1  0.93987700  0.38984200  0.64333000  1
  O  O69  1  0.55003500  0.61015800  0.35667000  1
  O  O70  1  0.48620800  0.97241600  0.25000000  1
  O  O71  1  0.51379200  0.02758400  0.75000000  1
  O  O72  1  0.72687500  0.17801800  0.25000000  1
  O  O73  1  0.54885700  0.82198200  0.75000000  1
  O  O74  1  0.27312500  0.82198200  0.75000000  1
  O  O75  1  0.45114300  0.17801800  0.25000000  1
  O  O76  1  0.79640400  0.00021200  0.25000000  1
  O  O77  1  0.79619200  0.99978800  0.75000000  1
  O  O78  1  0.20359600  0.99978800  0.75000000  1
  O  O79  1  0.20380800  0.00021200  0.25000000  1
  O  O80  1  0.54304900  0.08609800  0.11043800  1
  O  O81  1  0.45695100  0.91390200  0.88956200  1
  O  O82  1  0.54304900  0.08609800  0.38956200  1
  O  O83  1  0.45695100  0.91390200  0.61043800  1
  O  O84  1  0.86824900  0.12291900  0.10256100  1
  O  O85  1  0.74533000  0.87708100  0.89743900  1
  O  O86  1  0.86824900  0.12291900  0.39743900  1
  O  O87  1  0.74533000  0.87708100  0.60256100  1
  O  O88  1  0.13175100  0.87708100  0.89743900  1
  O  O89  1  0.25467000  0.12291900  0.10256100  1
  O  O90  1  0.13175100  0.87708100  0.60256100  1
  O  O91  1  0.25467000  0.12291900  0.39743900  1
  O  O92  1  0.65305200  0.90317400  0.10745600  1
  O  O93  1  0.74987700  0.09682600  0.89254400  1
  O  O94  1  0.65305200  0.90317400  0.39254400  1
  O  O95  1  0.74987700  0.09682600  0.60745600  1
  O  O96  1  0.34694800  0.09682600  0.89254400  1
  O  O97  1  0.25012300  0.90317400  0.10745600  1
  O  O98  1  0.34694800  0.09682600  0.60745600  1
  O  O99  1  0.25012300  0.90317400  0.39254400  1
  O  O100  1  0.10151000  0.20302100  0.75000000  1
  O  O101  1  0.89849000  0.79697900  0.25000000  1
  O  O102  1  0.37120000  0.74239900  0.25000000  1
  O  O103  1  0.62880000  0.25760100  0.75000000  1
