# generated using pymatgen
data_RbLuBeF6
_symmetry_space_group_name_H-M   'P 1'
_cell_length_a   5.78021200
_cell_length_b   6.50037293
_cell_length_c   7.09199985
_cell_angle_alpha   113.72323476
_cell_angle_beta   90.00000000
_cell_angle_gamma   90.00000000
_symmetry_Int_Tables_number   1
_chemical_formula_structural   RbLuBeF6
_chemical_formula_sum   'Rb2 Lu2 Be2 F12'
_cell_volume   243.95452541
_cell_formula_units_Z   2
loop_
 _symmetry_equiv_pos_site_id
 _symmetry_equiv_pos_as_xyz
  1  'x, y, z'
loop_
 _atom_site_type_symbol
 _atom_site_label
 _atom_site_symmetry_multiplicity
 _atom_site_fract_x
 _atom_site_fract_y
 _atom_site_fract_z
 _atom_site_occupancy
  Rb  Rb0  1  0.75000000  0.07620200  0.20830200  1
  Rb  Rb1  1  0.25000000  0.92379800  0.79169800  1
  Lu  Lu2  1  0.75000000  0.39234200  0.82175900  1
  Lu  Lu3  1  0.25000000  0.60765800  0.17824100  1
  Be  Be4  1  0.75000000  0.76453200  0.53544500  1
  Be  Be5  1  0.25000000  0.23546800  0.46455500  1
  F  F6  1  0.96946900  0.75925000  0.40120100  1
  F  F7  1  0.03053100  0.24075000  0.59879900  1
  F  F8  1  0.46946900  0.24075000  0.59879900  1
  F  F9  1  0.53053100  0.75925000  0.40120100  1
  F  F10  1  0.75000000  0.56586100  0.60129600  1
  F  F11  1  0.25000000  0.43413900  0.39870400  1
  F  F12  1  0.99945700  0.67037900  0.96751400  1
  F  F13  1  0.00054300  0.32962100  0.03248600  1
  F  F14  1  0.49945700  0.32962100  0.03248600  1
  F  F15  1  0.50054300  0.67037900  0.96751400  1
  F  F16  1  0.75000000  0.99524400  0.73329600  1
  F  F17  1  0.25000000  0.00475600  0.26670400  1
