# generated using pymatgen
data_EuAl2O4
_symmetry_space_group_name_H-M   'P 1'
_cell_length_a   8.89045100
_cell_length_b   5.20729300
_cell_length_c   8.49530790
_cell_angle_alpha   86.62846996
_cell_angle_beta   90.00000000
_cell_angle_gamma   90.00000000
_symmetry_Int_Tables_number   1
_chemical_formula_structural   EuAl2O4
_chemical_formula_sum   'Eu4 Al8 O16'
_cell_volume   392.61111633
_cell_formula_units_Z   4
loop_
 _symmetry_equiv_pos_site_id
 _symmetry_equiv_pos_as_xyz
  1  'x, y, z'
loop_
 _atom_site_type_symbol
 _atom_site_label
 _atom_site_symmetry_multiplicity
 _atom_site_fract_x
 _atom_site_fract_y
 _atom_site_fract_z
 _atom_site_occupancy
  Eu  Eu0  1  0.49917300  0.25378000  0.51259600  1
  Eu  Eu1  1  0.99917300  0.74622000  0.48740400  1
  Eu  Eu2  1  0.49117000  0.19828600  0.97383600  1
  Eu  Eu3  1  0.99117000  0.80171400  0.02616400  1
  Al  Al4  1  0.33009400  0.70824000  0.81051500  1
  Al  Al5  1  0.83009400  0.29176000  0.18948500  1
  Al  Al6  1  0.33729700  0.72652400  0.20135000  1
  Al  Al7  1  0.83729700  0.27347600  0.79865000  1
  Al  Al8  1  0.16823400  0.22108100  0.29142300  1
  Al  Al9  1  0.66823400  0.77891900  0.70857700  1
  Al  Al10  1  0.66938600  0.80285000  0.32017800  1
  Al  Al11  1  0.16938600  0.19715000  0.67982200  1
  O  O12  1  0.67043000  0.43745900  0.73263900  1
  O  O13  1  0.17043000  0.56254100  0.26736100  1
  O  O14  1  0.81691600  0.59547100  0.26951000  1
  O  O15  1  0.31691600  0.40452900  0.73049000  1
  O  O16  1  0.99057300  0.34462200  0.67120100  1
  O  O17  1  0.49057300  0.65537800  0.32879900  1
  O  O18  1  0.48326400  0.89767000  0.73547300  1
  O  O19  1  0.98326400  0.10233000  0.26452700  1
  O  O20  1  0.79467000  0.93906900  0.83000600  1
  O  O21  1  0.29467000  0.06093100  0.16999400  1
  O  O22  1  0.16420200  0.89853800  0.79402300  1
  O  O23  1  0.66420200  0.10146200  0.20597700  1
  O  O24  1  0.71817600  0.88697200  0.51357600  1
  O  O25  1  0.21817600  0.11302800  0.48642400  1
  O  O26  1  0.38381700  0.63682400  0.00946800  1
  O  O27  1  0.88381700  0.36317600  0.99053200  1
