# generated using pymatgen
data_K9Li3Nd3(BO3)7
_symmetry_space_group_name_H-M   'P 1'
_cell_length_a   10.20875100
_cell_length_b   11.58421400
_cell_length_c   12.49377349
_cell_angle_alpha   58.10466084
_cell_angle_beta   90.00000000
_cell_angle_gamma   90.00000000
_symmetry_Int_Tables_number   1
_chemical_formula_structural   K9Li3Nd3(BO3)7
_chemical_formula_sum   'K18 Li6 Nd6 B14 O42'
_cell_volume   1254.43454818
_cell_formula_units_Z   2
loop_
 _symmetry_equiv_pos_site_id
 _symmetry_equiv_pos_as_xyz
  1  'x, y, z'
loop_
 _atom_site_type_symbol
 _atom_site_label
 _atom_site_symmetry_multiplicity
 _atom_site_fract_x
 _atom_site_fract_y
 _atom_site_fract_z
 _atom_site_occupancy
  K  K0  1  0.92837300  0.67045200  0.91248200  1
  K  K1  1  0.07162700  0.32954800  0.08751800  1
  K  K2  1  0.92837300  0.32954800  0.58751800  1
  K  K3  1  0.07162700  0.67045200  0.41248200  1
  K  K4  1  0.53946600  0.89036600  0.44375100  1
  K  K5  1  0.46053400  0.10963400  0.55624900  1
  K  K6  1  0.53946600  0.10963400  0.05624900  1
  K  K7  1  0.46053400  0.89036600  0.94375100  1
  K  K8  1  0.38973300  0.59093900  0.55289000  1
  K  K9  1  0.61026700  0.40906100  0.44711000  1
  K  K10  1  0.38973300  0.40906100  0.94711000  1
  K  K11  1  0.61026700  0.59093900  0.05289000  1
  K  K12  1  0.90264700  0.16492900  0.94499000  1
  K  K13  1  0.09735300  0.83507100  0.05501000  1
  K  K14  1  0.90264700  0.83507100  0.55501000  1
  K  K15  1  0.09735300  0.16492900  0.44499000  1
  K  K16  1  0.07889600  0.50000000  0.75000000  1
  K  K17  1  0.92110400  0.50000000  0.25000000  1
  Li  Li18  1  0.06758200  0.00000000  0.25000000  1
  Li  Li19  1  0.93241800  0.00000000  0.75000000  1
  Li  Li20  1  0.29018100  0.08802000  0.28436300  1
  Li  Li21  1  0.70981900  0.91198000  0.71563700  1
  Li  Li22  1  0.29018100  0.91198000  0.21563700  1
  Li  Li23  1  0.70981900  0.08802000  0.78436300  1
  Nd  Nd24  1  0.68611200  0.50000000  0.75000000  1
  Nd  Nd25  1  0.31388800  0.50000000  0.25000000  1
  Nd  Nd26  1  0.29660700  0.78646300  0.74491300  1
  Nd  Nd27  1  0.70339300  0.21353700  0.25508700  1
  Nd  Nd28  1  0.29660700  0.21353700  0.75508700  1
  Nd  Nd29  1  0.70339300  0.78646300  0.24491300  1
  B  B30  1  0.21815400  0.59700400  0.00243700  1
  B  B31  1  0.78184600  0.40299600  0.99756300  1
  B  B32  1  0.21815400  0.40299600  0.49756300  1
  B  B33  1  0.78184600  0.59700400  0.50243700  1
  B  B34  1  0.57788100  0.73444400  0.74554400  1
  B  B35  1  0.42211900  0.26555600  0.25445600  1
  B  B36  1  0.57788100  0.26555600  0.75445600  1
  B  B37  1  0.42211900  0.73444400  0.24554400  1
  B  B38  1  0.22812100  0.86630000  0.49495000  1
  B  B39  1  0.77187900  0.13370000  0.50505000  1
  B  B40  1  0.22812100  0.13370000  0.00505000  1
  B  B41  1  0.77187900  0.86630000  0.99495000  1
  B  B42  1  0.15197200  0.00000000  0.75000000  1
  B  B43  1  0.84802800  0.00000000  0.25000000  1
  O  O44  1  0.34649000  0.63764600  0.00610100  1
  O  O45  1  0.65351000  0.36235400  0.99389900  1
  O  O46  1  0.34649000  0.36235400  0.49389900  1
  O  O47  1  0.65351000  0.63764600  0.50610100  1
  O  O48  1  0.28829900  0.00000000  0.75000000  1
  O  O49  1  0.71170100  0.00000000  0.25000000  1
  O  O50  1  0.08569800  0.10412900  0.75111500  1
  O  O51  1  0.91430200  0.89587100  0.24888500  1
  O  O52  1  0.08569800  0.89587100  0.74888500  1
  O  O53  1  0.91430200  0.10412900  0.25111500  1
  O  O54  1  0.19718200  0.90875700  0.37280700  1
  O  O55  1  0.80281800  0.09124300  0.62719300  1
  O  O56  1  0.19718200  0.09124300  0.12719300  1
  O  O57  1  0.80281800  0.90875700  0.87280700  1
  O  O58  1  0.71287800  0.71724800  0.74460200  1
  O  O59  1  0.28712200  0.28275200  0.25539800  1
  O  O60  1  0.71287800  0.28275200  0.75539800  1
  O  O61  1  0.28712200  0.71724800  0.24460200  1
  O  O62  1  0.49237900  0.64356200  0.73918900  1
  O  O63  1  0.50762100  0.35643800  0.26081100  1
  O  O64  1  0.49237900  0.35643800  0.76081100  1
  O  O65  1  0.50762100  0.64356200  0.23918900  1
  O  O66  1  0.18107700  0.58500000  0.90172000  1
  O  O67  1  0.81892300  0.41500000  0.09828000  1
  O  O68  1  0.18107700  0.41500000  0.59828000  1
  O  O69  1  0.81892300  0.58500000  0.40172000  1
  O  O70  1  0.52708200  0.84176200  0.75161200  1
  O  O71  1  0.47291800  0.15823800  0.24838800  1
  O  O72  1  0.52708200  0.15823800  0.74838800  1
  O  O73  1  0.47291800  0.84176200  0.25161200  1
  O  O74  1  0.86607200  0.56941800  0.60057100  1
  O  O75  1  0.13392800  0.43058200  0.39942900  1
  O  O76  1  0.86607200  0.43058200  0.89942900  1
  O  O77  1  0.13392800  0.56941800  0.10057100  1
  O  O78  1  0.30178500  0.95154200  0.52008200  1
  O  O79  1  0.69821500  0.04845800  0.47991800  1
  O  O80  1  0.30178500  0.04845800  0.97991800  1
  O  O81  1  0.69821500  0.95154200  0.02008200  1
  O  O82  1  0.19174500  0.73924900  0.59715600  1
  O  O83  1  0.80825500  0.26075100  0.40284400  1
  O  O84  1  0.19174500  0.26075100  0.90284400  1
  O  O85  1  0.80825500  0.73924900  0.09715600  1
