# generated using pymatgen
data_YbSi
_symmetry_space_group_name_H-M   'P 1'
_cell_length_a   5.77418250
_cell_length_b   5.77418250
_cell_length_c   3.88197600
_cell_angle_alpha   90.00000000
_cell_angle_beta   90.00000000
_cell_angle_gamma   133.69367949
_symmetry_Int_Tables_number   1
_chemical_formula_structural   YbSi
_chemical_formula_sum   'Yb2 Si2'
_cell_volume   93.58326614
_cell_formula_units_Z   2
loop_
 _symmetry_equiv_pos_site_id
 _symmetry_equiv_pos_as_xyz
  1  'x, y, z'
loop_
 _atom_site_type_symbol
 _atom_site_label
 _atom_site_symmetry_multiplicity
 _atom_site_fract_x
 _atom_site_fract_y
 _atom_site_fract_z
 _atom_site_occupancy
  Yb  Yb0  1  0.13826000  0.86174000  0.25000000  1
  Yb  Yb1  1  0.86174000  0.13826000  0.75000000  1
  Si  Si2  1  0.43065100  0.56934900  0.25000000  1
  Si  Si3  1  0.56934900  0.43065100  0.75000000  1
