# generated using pymatgen
data_Li2PdF6
_symmetry_space_group_name_H-M   'P 1'
_cell_length_a   4.74466100
_cell_length_b   4.74466100
_cell_length_c   9.25582200
_cell_angle_alpha   90.00000000
_cell_angle_beta   90.00000000
_cell_angle_gamma   90.00000000
_symmetry_Int_Tables_number   1
_chemical_formula_structural   Li2PdF6
_chemical_formula_sum   'Li4 Pd2 F12'
_cell_volume   208.36528779
_cell_formula_units_Z   2
loop_
 _symmetry_equiv_pos_site_id
 _symmetry_equiv_pos_as_xyz
  1  'x, y, z'
loop_
 _atom_site_type_symbol
 _atom_site_label
 _atom_site_symmetry_multiplicity
 _atom_site_fract_x
 _atom_site_fract_y
 _atom_site_fract_z
 _atom_site_occupancy
  Li  Li0  1  0.00000000  0.00000000  0.33595800  1
  Li  Li1  1  0.50000000  0.50000000  0.83595800  1
  Li  Li2  1  0.00000000  0.00000000  0.66404200  1
  Li  Li3  1  0.50000000  0.50000000  0.16404200  1
  Pd  Pd4  1  0.50000000  0.50000000  0.50000000  1
  Pd  Pd5  1  0.00000000  0.00000000  0.00000000  1
  F  F6  1  0.30863300  0.69136700  0.65889900  1
  F  F7  1  0.19136700  0.19136700  0.84110100  1
  F  F8  1  0.70893600  0.29106400  0.00000000  1
  F  F9  1  0.79106400  0.79106400  0.50000000  1
  F  F10  1  0.29106400  0.70893600  0.00000000  1
  F  F11  1  0.20893600  0.20893600  0.50000000  1
  F  F12  1  0.19136700  0.19136700  0.15889900  1
  F  F13  1  0.30863300  0.69136700  0.34110100  1
  F  F14  1  0.80863300  0.80863300  0.84110100  1
  F  F15  1  0.69136700  0.30863300  0.65889900  1
  F  F16  1  0.80863300  0.80863300  0.15889900  1
  F  F17  1  0.69136700  0.30863300  0.34110100  1
