# generated using pymatgen
data_KNaCaMg5Si8(O11F)2
_symmetry_space_group_name_H-M   'P 1'
_cell_length_a   5.31987700
_cell_length_b   10.10378806
_cell_length_c   10.39431821
_cell_angle_alpha   60.92946531
_cell_angle_beta   82.94308159
_cell_angle_gamma   75.35928350
_symmetry_Int_Tables_number   1
_chemical_formula_structural   KNaCaMg5Si8(O11F)2
_chemical_formula_sum   'K1 Na1 Ca1 Mg5 Si8 O22 F2'
_cell_volume   472.46391618
_cell_formula_units_Z   1
loop_
 _symmetry_equiv_pos_site_id
 _symmetry_equiv_pos_as_xyz
  1  'x, y, z'
loop_
 _atom_site_type_symbol
 _atom_site_label
 _atom_site_symmetry_multiplicity
 _atom_site_fract_x
 _atom_site_fract_y
 _atom_site_fract_z
 _atom_site_occupancy
  K  K0  1  0.97494600  0.51387500  0.99847100  1
  Na  Na1  1  0.50000000  0.72338900  0.55287900  1
  Ca  Ca2  1  0.50000000  0.27640400  0.44664600  1
  Mg  Mg3  1  0.49982700  0.90935400  0.18192300  1
  Mg  Mg4  1  0.49972700  0.08913100  0.82261200  1
  Mg  Mg5  1  0.00012300  0.81841600  0.36325900  1
  Mg  Mg6  1  0.00005500  0.17755700  0.64509800  1
  Mg  Mg7  1  0.99984100  0.00013800  0.00055100  1
  Si  Si8  1  0.80466400  0.54486300  0.34352000  1
  Si  Si9  1  0.19535600  0.11221500  0.34292500  1
  Si  Si10  1  0.19633400  0.45753300  0.65671800  1
  Si  Si11  1  0.80371000  0.88627500  0.65622400  1
  Si  Si12  1  0.29907800  0.64086400  0.16930800  1
  Si  Si13  1  0.70102200  0.19021100  0.16905500  1
  Si  Si14  1  0.70005100  0.36078600  0.82976700  1
  Si  Si15  1  0.30004400  0.80979300  0.82958000  1
  O  O16  1  0.72864400  0.71372200  0.33531100  1
  O  O17  1  0.27111100  0.95109700  0.33539400  1
  O  O18  1  0.27544100  0.28795000  0.65902800  1
  O  O19  1  0.72438600  0.05305900  0.65912200  1
  O  O20  1  0.59083400  0.53925700  0.23725600  1
  O  O21  1  0.40991700  0.22332100  0.23768200  1
  O  O22  1  0.40714700  0.45631900  0.76589200  1
  O  O23  1  0.59363900  0.77756700  0.76630900  1
  O  O24  1  0.21895400  0.80518400  0.16990600  1
  O  O25  1  0.78102500  0.02504500  0.16984800  1
  O  O26  1  0.78157200  0.19521400  0.82908400  1
  O  O27  1  0.21848300  0.97581400  0.82901200  1
  O  O28  1  0.09694400  0.52466500  0.26101200  1
  O  O29  1  0.90260800  0.21440300  0.26131500  1
  O  O30  1  0.90807200  0.47135500  0.74153500  1
  O  O31  1  0.09152200  0.78719400  0.74180700  1
  O  O32  1  0.79694800  0.38740400  0.49393100  1
  O  O33  1  0.20287200  0.11849000  0.49395700  1
  O  O34  1  0.20074000  0.60797300  0.50232300  1
  O  O35  1  0.79900800  0.88947700  0.50234600  1
  O  O36  1  0.30516300  0.66609500  0.00006700  1
  O  O37  1  0.69647200  0.33391800  0.00008000  1
  F  F38  1  0.71355600  0.90031000  0.99961200  1
  F  F39  1  0.28716400  0.09936000  0.99963600  1
