# generated using pymatgen
data_Yb2Be2SiO7
_symmetry_space_group_name_H-M   'P 1'
_cell_length_a   7.29173700
_cell_length_b   7.29173700
_cell_length_c   4.93855100
_cell_angle_alpha   90.00000000
_cell_angle_beta   90.00000000
_cell_angle_gamma   90.00000000
_symmetry_Int_Tables_number   1
_chemical_formula_structural   Yb2Be2SiO7
_chemical_formula_sum   'Yb4 Be4 Si2 O14'
_cell_volume   262.57993418
_cell_formula_units_Z   2
loop_
 _symmetry_equiv_pos_site_id
 _symmetry_equiv_pos_as_xyz
  1  'x, y, z'
loop_
 _atom_site_type_symbol
 _atom_site_label
 _atom_site_symmetry_multiplicity
 _atom_site_fract_x
 _atom_site_fract_y
 _atom_site_fract_z
 _atom_site_occupancy
  Yb  Yb0  1  0.16517700  0.33482300  0.50787800  1
  Yb  Yb1  1  0.83482300  0.66517700  0.50787800  1
  Yb  Yb2  1  0.66517700  0.16517700  0.49212200  1
  Yb  Yb3  1  0.33482300  0.83482300  0.49212200  1
  Be  Be4  1  0.63666200  0.86333800  0.94657100  1
  Be  Be5  1  0.36333800  0.13666200  0.94657100  1
  Be  Be6  1  0.13666200  0.63666200  0.05342900  1
  Be  Be7  1  0.86333800  0.36333800  0.05342900  1
  Si  Si8  1  0.00000000  0.00000000  0.00000000  1
  Si  Si9  1  0.50000000  0.50000000  0.00000000  1
  O  O10  1  0.00000000  0.50000000  0.19366800  1
  O  O11  1  0.50000000  0.00000000  0.80633200  1
  O  O12  1  0.62404600  0.87595400  0.27218300  1
  O  O13  1  0.37595400  0.12404600  0.27218300  1
  O  O14  1  0.12404600  0.62404600  0.72781700  1
  O  O15  1  0.87595400  0.37595400  0.72781700  1
  O  O16  1  0.07921200  0.83513900  0.19421300  1
  O  O17  1  0.92078800  0.16486100  0.19421300  1
  O  O18  1  0.16486100  0.07921200  0.80578700  1
  O  O19  1  0.42078800  0.33513900  0.80578700  1
  O  O20  1  0.83513900  0.92078800  0.80578700  1
  O  O21  1  0.57921200  0.66486100  0.80578700  1
  O  O22  1  0.33513900  0.57921200  0.19421300  1
  O  O23  1  0.66486100  0.42078800  0.19421300  1
