# generated using pymatgen
data_NdGa4Ni
_symmetry_space_group_name_H-M   'P 1'
_cell_length_a   4.21410500
_cell_length_b   6.54185600
_cell_length_c   8.06761244
_cell_angle_alpha   90.00000000
_cell_angle_beta   105.13975212
_cell_angle_gamma   90.00000000
_symmetry_Int_Tables_number   1
_chemical_formula_structural   NdGa4Ni
_chemical_formula_sum   'Nd2 Ga8 Ni2'
_cell_volume   214.68905940
_cell_formula_units_Z   2
loop_
 _symmetry_equiv_pos_site_id
 _symmetry_equiv_pos_as_xyz
  1  'x, y, z'
loop_
 _atom_site_type_symbol
 _atom_site_label
 _atom_site_symmetry_multiplicity
 _atom_site_fract_x
 _atom_site_fract_y
 _atom_site_fract_z
 _atom_site_occupancy
  Nd  Nd0  1  0.88333700  0.75000000  0.76667300  1
  Nd  Nd1  1  0.11666300  0.25000000  0.23332700  1
  Ga  Ga2  1  0.50000000  0.50000000  0.00000000  1
  Ga  Ga3  1  0.50000000  0.00000000  0.00000000  1
  Ga  Ga4  1  0.07340100  0.75000000  0.14680300  1
  Ga  Ga5  1  0.92659900  0.25000000  0.85319700  1
  Ga  Ga6  1  0.68720600  0.55240200  0.37441300  1
  Ga  Ga7  1  0.31279400  0.44759800  0.62558700  1
  Ga  Ga8  1  0.68720600  0.94759800  0.37441300  1
  Ga  Ga9  1  0.31279400  0.05240200  0.62558700  1
  Ni  Ni10  1  0.22343100  0.75000000  0.44686200  1
  Ni  Ni11  1  0.77656900  0.25000000  0.55313800  1
