# generated using pymatgen
data_Ba3V4(PO4)6
_symmetry_space_group_name_H-M   'P 1'
_cell_length_a   10.08244100
_cell_length_b   10.05073800
_cell_length_c   10.07723152
_cell_angle_alpha   89.82967992
_cell_angle_beta   90.00000000
_cell_angle_gamma   90.00000000
_symmetry_Int_Tables_number   1
_chemical_formula_structural   Ba3V4(PO4)6
_chemical_formula_sum   'Ba6 V8 P12 O48'
_cell_volume   1021.18154865
_cell_formula_units_Z   2
loop_
 _symmetry_equiv_pos_site_id
 _symmetry_equiv_pos_as_xyz
  1  'x, y, z'
loop_
 _atom_site_type_symbol
 _atom_site_label
 _atom_site_symmetry_multiplicity
 _atom_site_fract_x
 _atom_site_fract_y
 _atom_site_fract_z
 _atom_site_occupancy
  Ba  Ba0  1  0.80076100  0.70350000  0.94843500  1
  Ba  Ba1  1  0.30076100  0.29650000  0.05156500  1
  Ba  Ba2  1  0.42439700  0.57341600  0.66549600  1
  Ba  Ba3  1  0.92439700  0.42658400  0.33450400  1
  Ba  Ba4  1  0.56439100  0.93566500  0.19634900  1
  Ba  Ba5  1  0.06439100  0.06433500  0.80365100  1
  V  V6  1  0.91461900  0.08553500  0.16509100  1
  V  V7  1  0.41461900  0.91446500  0.83490900  1
  V  V8  1  0.08673300  0.41286800  0.66465200  1
  V  V9  1  0.58673300  0.58713200  0.33534800  1
  V  V10  1  0.64949300  0.35041100  0.89291800  1
  V  V11  1  0.14949300  0.64958900  0.10708200  1
  V  V12  1  0.35446100  0.14542000  0.40255400  1
  V  V13  1  0.85446100  0.85458000  0.59744600  1
  P  P14  1  0.22795100  0.96115900  0.12143500  1
  P  P15  1  0.04042900  0.12640400  0.47764200  1
  P  P16  1  0.87248200  0.77119900  0.28861300  1
  P  P17  1  0.72795100  0.03884100  0.87856500  1
  P  P18  1  0.54042900  0.87359600  0.52235800  1
  P  P19  1  0.37248200  0.22880100  0.71138700  1
  P  P20  1  0.77192700  0.53944400  0.62500400  1
  P  P21  1  0.96301900  0.37346700  0.97862600  1
  P  P22  1  0.12545800  0.72723700  0.78978000  1
  P  P23  1  0.27192700  0.46055600  0.37499600  1
  P  P24  1  0.46301900  0.62653300  0.02137400  1
  P  P25  1  0.62545800  0.27276300  0.21022000  1
  O  O26  1  0.08241200  0.99881600  0.09363500  1
  O  O27  1  0.99614700  0.15490200  0.33312300  1
  O  O28  1  0.84465200  0.91731200  0.24964100  1
  O  O29  1  0.58241200  0.00118400  0.90636500  1
  O  O30  1  0.49614700  0.84509800  0.66687700  1
  O  O31  1  0.34465200  0.08268800  0.75035900  1
  O  O32  1  0.91658100  0.49719700  0.59885200  1
  O  O33  1  0.00006000  0.34452500  0.83375900  1
  O  O34  1  0.15316600  0.58281500  0.74649400  1
  O  O35  1  0.41658100  0.50280300  0.40114800  1
  O  O36  1  0.50006000  0.65547500  0.16624100  1
  O  O37  1  0.65316600  0.41718500  0.25350600  1
  O  O38  1  0.29676700  0.05474800  0.22225700  1
  O  O39  1  0.95621300  0.02076200  0.55057800  1
  O  O40  1  0.97007200  0.70060400  0.19297500  1
  O  O41  1  0.79676700  0.94525200  0.77774300  1
  O  O42  1  0.45621300  0.97923800  0.44942200  1
  O  O43  1  0.47007200  0.29939600  0.80702500  1
  O  O44  1  0.69943400  0.45662000  0.73182500  1
  O  O45  1  0.05726500  0.47456800  0.04594100  1
  O  O46  1  0.01708400  0.79874400  0.70935100  1
  O  O47  1  0.19943400  0.54338000  0.26817500  1
  O  O48  1  0.55726500  0.52543200  0.95405900  1
  O  O49  1  0.51708400  0.20125600  0.29064900  1
  O  O50  1  0.24421100  0.81434900  0.16267400  1
  O  O51  1  0.18675600  0.08316400  0.48608900  1
  O  O52  1  0.91601900  0.75463500  0.43324400  1
  O  O53  1  0.74421100  0.18565100  0.83732600  1
  O  O54  1  0.68675600  0.91683600  0.51391100  1
  O  O55  1  0.41601900  0.24536500  0.56675600  1
  O  O56  1  0.76676800  0.68593400  0.67547400  1
  O  O57  1  0.81890600  0.42651400  0.98938000  1
  O  O58  1  0.07512500  0.73011400  0.93686300  1
  O  O59  1  0.26676800  0.31406600  0.32452600  1
  O  O60  1  0.31890600  0.57348600  0.01062000  1
  O  O61  1  0.57512500  0.26988600  0.06313700  1
  O  O62  1  0.30562600  0.99017000  0.98973400  1
  O  O63  1  0.01832500  0.25847300  0.55524300  1
  O  O64  1  0.73820100  0.69665200  0.25941000  1
  O  O65  1  0.80562600  0.00983000  0.01026600  1
  O  O66  1  0.51832500  0.74152700  0.44475700  1
  O  O67  1  0.23820100  0.30334800  0.74059000  1
  O  O68  1  0.69604500  0.52211100  0.49340900  1
  O  O69  1  0.98675800  0.24158800  0.05661800  1
  O  O70  1  0.25566800  0.80535500  0.77425600  1
  O  O71  1  0.19604500  0.47788900  0.50659100  1
  O  O72  1  0.48675800  0.75841200  0.94338200  1
  O  O73  1  0.75566800  0.19464500  0.22574400  1
