# generated using pymatgen
data_ErVO3
_symmetry_space_group_name_H-M   'P 1'
_cell_length_a   5.29323100
_cell_length_b   5.71851800
_cell_length_c   7.61188000
_cell_angle_alpha   90.00000000
_cell_angle_beta   90.00000000
_cell_angle_gamma   90.00000000
_symmetry_Int_Tables_number   1
_chemical_formula_structural   ErVO3
_chemical_formula_sum   'Er4 V4 O12'
_cell_volume   230.40732022
_cell_formula_units_Z   4
loop_
 _symmetry_equiv_pos_site_id
 _symmetry_equiv_pos_as_xyz
  1  'x, y, z'
loop_
 _atom_site_type_symbol
 _atom_site_label
 _atom_site_symmetry_multiplicity
 _atom_site_fract_x
 _atom_site_fract_y
 _atom_site_fract_z
 _atom_site_occupancy
  Er  Er0  1  0.47876100  0.42832000  0.75000000  1
  Er  Er1  1  0.97876100  0.07168000  0.25000000  1
  Er  Er2  1  0.02123900  0.92832000  0.75000000  1
  Er  Er3  1  0.52123900  0.57168000  0.25000000  1
  V  V4  1  0.00000000  0.50000000  0.50000000  1
  V  V5  1  0.50000000  0.00000000  0.50000000  1
  V  V6  1  0.50000000  0.00000000  0.00000000  1
  V  V7  1  0.00000000  0.50000000  0.00000000  1
  O  O8  1  0.69257200  0.31282500  0.43839300  1
  O  O9  1  0.19257200  0.18717500  0.56160700  1
  O  O10  1  0.80742800  0.81282500  0.06160700  1
  O  O11  1  0.30742800  0.68717500  0.93839300  1
  O  O12  1  0.30742800  0.68717500  0.56160700  1
  O  O13  1  0.80742800  0.81282500  0.43839300  1
  O  O14  1  0.19257200  0.18717500  0.93839300  1
  O  O15  1  0.69257200  0.31282500  0.06160700  1
  O  O16  1  0.12372600  0.44977100  0.25000000  1
  O  O17  1  0.62372600  0.05022900  0.75000000  1
  O  O18  1  0.37627400  0.94977100  0.25000000  1
  O  O19  1  0.87627400  0.55022900  0.75000000  1
