# generated using pymatgen
data_Gd2Cu(SeO3)4
_symmetry_space_group_name_H-M   'P 1'
_cell_length_a   7.00755600
_cell_length_b   8.15707500
_cell_length_c   10.89918727
_cell_angle_alpha   70.31418391
_cell_angle_beta   90.00000000
_cell_angle_gamma   90.00000000
_symmetry_Int_Tables_number   1
_chemical_formula_structural   Gd2Cu(SeO3)4
_chemical_formula_sum   'Gd4 Cu2 Se8 O24'
_cell_volume   586.59771135
_cell_formula_units_Z   2
loop_
 _symmetry_equiv_pos_site_id
 _symmetry_equiv_pos_as_xyz
  1  'x, y, z'
loop_
 _atom_site_type_symbol
 _atom_site_label
 _atom_site_symmetry_multiplicity
 _atom_site_fract_x
 _atom_site_fract_y
 _atom_site_fract_z
 _atom_site_occupancy
  Gd  Gd0  1  0.65662000  0.76003500  0.58718400  1
  Gd  Gd1  1  0.15662000  0.73996500  0.41281600  1
  Gd  Gd2  1  0.34338000  0.23996500  0.41281600  1
  Gd  Gd3  1  0.84338000  0.26003500  0.58718400  1
  Cu  Cu4  1  0.50000000  0.50000000  0.00000000  1
  Cu  Cu5  1  0.00000000  0.00000000  0.00000000  1
  Se  Se6  1  0.82680300  0.13638200  0.31858100  1
  Se  Se7  1  0.32680300  0.36361800  0.68141900  1
  Se  Se8  1  0.67229200  0.87903000  0.86424700  1
  Se  Se9  1  0.17229200  0.62097000  0.13575300  1
  Se  Se10  1  0.32770800  0.12097000  0.13575300  1
  Se  Se11  1  0.82770800  0.37903000  0.86424700  1
  Se  Se12  1  0.67319700  0.63638200  0.31858100  1
  Se  Se13  1  0.17319700  0.86361800  0.68141900  1
  O  O14  1  0.34482700  0.91435300  0.55652100  1
  O  O15  1  0.84482700  0.58564700  0.44347900  1
  O  O16  1  0.65517300  0.08564700  0.44347900  1
  O  O17  1  0.15517300  0.41435300  0.55652100  1
  O  O18  1  0.11093800  0.07225100  0.66348000  1
  O  O19  1  0.61093800  0.42774900  0.33652000  1
  O  O20  1  0.88906200  0.92774900  0.33652000  1
  O  O21  1  0.38906200  0.57225100  0.66348000  1
  O  O22  1  0.50244300  0.71438400  0.40155200  1
  O  O23  1  0.00244300  0.78561600  0.59844800  1
  O  O24  1  0.77909100  0.46996200  0.69998900  1
  O  O25  1  0.27909100  0.03003800  0.30001100  1
  O  O26  1  0.22090900  0.53003800  0.30001100  1
  O  O27  1  0.72090900  0.96996200  0.69998900  1
  O  O28  1  0.88616000  0.17788200  0.84808800  1
  O  O29  1  0.38616000  0.32211800  0.15191200  1
  O  O30  1  0.11384000  0.82211800  0.15191200  1
  O  O31  1  0.61384000  0.67788200  0.84808800  1
  O  O32  1  0.89188000  0.82190300  0.94024700  1
  O  O33  1  0.39188000  0.67809700  0.05975300  1
  O  O34  1  0.10812000  0.17809700  0.05975300  1
  O  O35  1  0.60812000  0.32190300  0.94024700  1
  O  O36  1  0.49755700  0.28561600  0.59844800  1
  O  O37  1  0.99755700  0.21438400  0.40155200  1
