# generated using pymatgen
data_Nd3Co29(Si2B5)2
_symmetry_space_group_name_H-M   'P 1'
_cell_length_a   11.17708200
_cell_length_b   11.17708200
_cell_length_c   7.85118900
_cell_angle_alpha   90.00000000
_cell_angle_beta   90.00000000
_cell_angle_gamma   90.00000000
_symmetry_Int_Tables_number   1
_chemical_formula_structural   Nd3Co29(Si2B5)2
_chemical_formula_sum   'Nd6 Co58 Si8 B20'
_cell_volume   980.82676037
_cell_formula_units_Z   2
loop_
 _symmetry_equiv_pos_site_id
 _symmetry_equiv_pos_as_xyz
  1  'x, y, z'
loop_
 _atom_site_type_symbol
 _atom_site_label
 _atom_site_symmetry_multiplicity
 _atom_site_fract_x
 _atom_site_fract_y
 _atom_site_fract_z
 _atom_site_occupancy
  Nd  Nd0  1  0.25000000  0.75000000  0.00000000  1
  Nd  Nd1  1  0.25000000  0.25000000  0.00000000  1
  Nd  Nd2  1  0.75000000  0.75000000  0.00000000  1
  Nd  Nd3  1  0.75000000  0.25000000  0.00000000  1
  Nd  Nd4  1  0.00000000  0.00000000  0.50000000  1
  Nd  Nd5  1  0.50000000  0.50000000  0.50000000  1
  Co  Co6  1  0.33821800  0.67501400  0.33721400  1
  Co  Co7  1  0.27456100  0.00000000  0.52532800  1
  Co  Co8  1  0.50000000  0.77456100  0.52532800  1
  Co  Co9  1  0.50000000  0.22543900  0.52532800  1
  Co  Co10  1  0.83635100  0.50000000  0.97154900  1
  Co  Co11  1  0.00000000  0.66364900  0.97154900  1
  Co  Co12  1  0.00000000  0.33635100  0.97154900  1
  Co  Co13  1  0.16364900  0.50000000  0.97154900  1
  Co  Co14  1  0.66364900  0.00000000  0.02845100  1
  Co  Co15  1  0.33635100  0.00000000  0.02845100  1
  Co  Co16  1  0.50000000  0.83635100  0.02845100  1
  Co  Co17  1  0.50000000  0.16364900  0.02845100  1
  Co  Co18  1  0.88622500  0.38622500  0.25245300  1
  Co  Co19  1  0.88622500  0.61377500  0.25245300  1
  Co  Co20  1  0.11377500  0.38622500  0.25245300  1
  Co  Co21  1  0.11377500  0.61377500  0.25245300  1
  Co  Co22  1  0.61377500  0.88622500  0.74754700  1
  Co  Co23  1  0.38622500  0.11377500  0.74754700  1
  Co  Co24  1  0.38622500  0.88622500  0.74754700  1
  Co  Co25  1  0.61377500  0.11377500  0.74754700  1
  Co  Co26  1  0.89053400  0.39053400  0.69822900  1
  Co  Co27  1  0.89053400  0.60946600  0.69822900  1
  Co  Co28  1  0.10946600  0.39053400  0.69822900  1
  Co  Co29  1  0.10946600  0.60946600  0.69822900  1
  Co  Co30  1  0.60946600  0.89053400  0.30177100  1
  Co  Co31  1  0.39053400  0.10946600  0.30177100  1
  Co  Co32  1  0.39053400  0.89053400  0.30177100  1
  Co  Co33  1  0.60946600  0.10946600  0.30177100  1
  Co  Co34  1  0.33821800  0.32498600  0.33721400  1
  Co  Co35  1  0.82498600  0.16178200  0.33721400  1
  Co  Co36  1  0.17501400  0.83821800  0.33721400  1
  Co  Co37  1  0.66178200  0.67501400  0.33721400  1
  Co  Co38  1  0.16178200  0.82498600  0.66278600  1
  Co  Co39  1  0.83821800  0.17501400  0.66278600  1
  Co  Co40  1  0.32498600  0.33821800  0.66278600  1
  Co  Co41  1  0.61024100  0.50000000  0.88890900  1
  Co  Co42  1  0.16178200  0.17501400  0.66278600  1
  Co  Co43  1  0.67501400  0.33821800  0.66278600  1
  Co  Co44  1  0.32498600  0.66178200  0.66278600  1
  Co  Co45  1  0.83821800  0.82498600  0.66278600  1
  Co  Co46  1  0.72543900  0.00000000  0.52532800  1
  Co  Co47  1  0.00000000  0.88975900  0.88890900  1
  Co  Co48  1  0.17501400  0.16178200  0.33721400  1
  Co  Co49  1  0.82498600  0.83821800  0.33721400  1
  Co  Co50  1  0.00000000  0.11024100  0.88890900  1
  Co  Co51  1  0.38975900  0.50000000  0.88890900  1
  Co  Co52  1  0.50000000  0.00000000  0.53122200  1
  Co  Co53  1  0.00000000  0.50000000  0.46877800  1
  Co  Co54  1  0.11024100  0.00000000  0.11109100  1
  Co  Co55  1  0.22543900  0.50000000  0.47467200  1
  Co  Co56  1  0.00000000  0.27456100  0.47467200  1
  Co  Co57  1  0.00000000  0.72543900  0.47467200  1
  Co  Co58  1  0.77456100  0.50000000  0.47467200  1
  Co  Co59  1  0.50000000  0.61024100  0.11109100  1
  Co  Co60  1  0.50000000  0.38975900  0.11109100  1
  Co  Co61  1  0.88975900  0.00000000  0.11109100  1
  Co  Co62  1  0.67501400  0.66178200  0.66278600  1
  Co  Co63  1  0.66178200  0.32498600  0.33721400  1
  Si  Si64  1  0.50000000  0.68148700  0.82421500  1
  Si  Si65  1  0.31851300  0.50000000  0.17578500  1
  Si  Si66  1  0.00000000  0.18148700  0.17578500  1
  Si  Si67  1  0.00000000  0.81851300  0.17578500  1
  Si  Si68  1  0.68148700  0.50000000  0.17578500  1
  Si  Si69  1  0.18148700  0.00000000  0.82421500  1
  Si  Si70  1  0.81851300  0.00000000  0.82421500  1
  Si  Si71  1  0.50000000  0.31851300  0.82421500  1
  B  B72  1  0.68617900  0.18617900  0.51766800  1
  B  B73  1  0.31382100  0.81382100  0.51766800  1
  B  B74  1  0.31382100  0.18617900  0.51766800  1
  B  B75  1  0.68617900  0.81382100  0.51766800  1
  B  B76  1  0.18617900  0.68617900  0.48233200  1
  B  B77  1  0.18617900  0.31382100  0.48233200  1
  B  B78  1  0.50000000  0.25587000  0.26192800  1
  B  B79  1  0.50000000  0.74413000  0.26192800  1
  B  B80  1  0.24413000  0.00000000  0.26192800  1
  B  B81  1  0.75587000  0.00000000  0.26192800  1
  B  B82  1  0.25587000  0.50000000  0.73807200  1
  B  B83  1  0.00000000  0.24413000  0.73807200  1
  B  B84  1  0.00000000  0.75587000  0.73807200  1
  B  B85  1  0.74413000  0.50000000  0.73807200  1
  B  B86  1  0.50000000  0.00000000  0.14854700  1
  B  B87  1  0.00000000  0.50000000  0.85145300  1
  B  B88  1  0.50000000  0.00000000  0.89311600  1
  B  B89  1  0.00000000  0.50000000  0.10688400  1
  B  B90  1  0.81382100  0.68617900  0.48233200  1
  B  B91  1  0.81382100  0.31382100  0.48233200  1
