# generated using pymatgen
data_KLi3SiO4
_symmetry_space_group_name_H-M   'P 1'
_cell_length_a   5.81156197
_cell_length_b   7.43554305
_cell_length_c   9.82806280
_cell_angle_alpha   84.01776499
_cell_angle_beta   76.52798706
_cell_angle_gamma   80.18840516
_symmetry_Int_Tables_number   1
_chemical_formula_structural   KLi3SiO4
_chemical_formula_sum   'K4 Li12 Si4 O16'
_cell_volume   406.04118132
_cell_formula_units_Z   4
loop_
 _symmetry_equiv_pos_site_id
 _symmetry_equiv_pos_as_xyz
  1  'x, y, z'
loop_
 _atom_site_type_symbol
 _atom_site_label
 _atom_site_symmetry_multiplicity
 _atom_site_fract_x
 _atom_site_fract_y
 _atom_site_fract_z
 _atom_site_occupancy
  K  K0  1  0.00508900  0.38309300  0.88379100  1
  K  K1  1  0.99491100  0.61690700  0.11620900  1
  K  K2  1  0.04183400  0.14054900  0.62898100  1
  K  K3  1  0.95816600  0.85945100  0.37101900  1
  Li  Li4  1  0.79279200  0.06140700  0.10331200  1
  Li  Li5  1  0.20720800  0.93859300  0.89668800  1
  Li  Li6  1  0.48251500  0.32766100  0.61122200  1
  Li  Li7  1  0.51748500  0.67233900  0.38877800  1
  Li  Li8  1  0.20024000  0.16988300  0.14516200  1
  Li  Li9  1  0.79976000  0.83011700  0.85483800  1
  Li  Li10  1  0.53497700  0.42574600  0.12872900  1
  Li  Li11  1  0.46502300  0.57425400  0.87127100  1
  Li  Li12  1  0.43217300  0.05020200  0.37355000  1
  Li  Li13  1  0.56782700  0.94979800  0.62645000  1
  Li  Li14  1  0.18708800  0.45064400  0.39547500  1
  Li  Li15  1  0.81291200  0.54935600  0.60452500  1
  Si  Si16  1  0.83872200  0.29199600  0.35137700  1
  Si  Si17  1  0.16127800  0.70800400  0.64862300  1
  Si  Si18  1  0.44002700  0.78667600  0.13687900  1
  Si  Si19  1  0.55997300  0.21332400  0.86312100  1
  O  O20  1  0.64955200  0.16827400  0.45756100  1
  O  O21  1  0.35044800  0.83172600  0.54243900  1
  O  O22  1  0.20550200  0.92257900  0.09622000  1
  O  O23  1  0.79449800  0.07742100  0.90378000  1
  O  O24  1  0.34580600  0.61671200  0.25141200  1
  O  O25  1  0.65419400  0.38328800  0.74858800  1
  O  O26  1  0.12578900  0.20743300  0.35034900  1
  O  O27  1  0.87421100  0.79256700  0.64965100  1
  O  O28  1  0.19644100  0.49948600  0.59179600  1
  O  O29  1  0.80355900  0.50051400  0.40820400  1
  O  O30  1  0.39200400  0.31770100  0.00233500  1
  O  O31  1  0.60799600  0.68229900  0.99766500  1
  O  O32  1  0.81720900  0.28836900  0.18597100  1
  O  O33  1  0.18279100  0.71163100  0.81402900  1
  O  O34  1  0.40634400  0.10844800  0.78218900  1
  O  O35  1  0.59365600  0.89155200  0.21781100  1
