# generated using pymatgen
data_Er12(MnC3)5
_symmetry_space_group_name_H-M   'P 1'
_cell_length_a   4.97639700
_cell_length_b   10.37733052
_cell_length_c   10.37733052
_cell_angle_alpha   120.00000329
_cell_angle_beta   90.00000000
_cell_angle_gamma   90.00000000
_symmetry_Int_Tables_number   1
_chemical_formula_structural   Er12(MnC3)5
_chemical_formula_sum   'Er12 Mn5 C15'
_cell_volume   464.10573517
_cell_formula_units_Z   1
loop_
 _symmetry_equiv_pos_site_id
 _symmetry_equiv_pos_as_xyz
  1  'x, y, z'
loop_
 _atom_site_type_symbol
 _atom_site_label
 _atom_site_symmetry_multiplicity
 _atom_site_fract_x
 _atom_site_fract_y
 _atom_site_fract_z
 _atom_site_occupancy
  Er  Er0  1  0.50000000  0.20690600  0.20690600  1
  Er  Er1  1  0.50000000  0.00000000  0.79309400  1
  Er  Er2  1  0.50000000  0.79309400  0.00000000  1
  Er  Er3  1  0.00000000  0.73019000  0.18525200  1
  Er  Er4  1  0.00000000  0.45506200  0.26981000  1
  Er  Er5  1  0.00000000  0.54493800  0.81474800  1
  Er  Er6  1  0.00000000  0.81474800  0.54493800  1
  Er  Er7  1  0.00000000  0.18525200  0.73019000  1
  Er  Er8  1  0.00000000  0.26981000  0.45506200  1
  Er  Er9  1  0.50000000  0.57180900  0.57180900  1
  Er  Er10  1  0.50000000  0.00000000  0.42819100  1
  Er  Er11  1  0.50000000  0.42819100  0.00000000  1
  Mn  Mn12  1  0.00000000  0.84719400  0.84719400  1
  Mn  Mn13  1  0.00000000  0.00000000  0.15280600  1
  Mn  Mn14  1  0.00000000  0.15280600  0.00000000  1
  Mn  Mn15  1  0.50000000  0.66666700  0.33333300  1
  Mn  Mn16  1  0.50000000  0.33333300  0.66666700  1
  C  C17  1  0.00000000  0.67549800  0.67549800  1
  C  C18  1  0.00000000  0.00000000  0.32450200  1
  C  C19  1  0.00000000  0.32450200  0.00000000  1
  C  C20  1  0.00000000  0.20297400  0.20297400  1
  C  C21  1  0.00000000  0.00000000  0.79702600  1
  C  C22  1  0.00000000  0.79702600  0.00000000  1
  C  C23  1  0.00000000  0.54478100  0.54478100  1
  C  C24  1  0.00000000  0.00000000  0.45521900  1
  C  C25  1  0.00000000  0.45521900  0.00000000  1
  C  C26  1  0.50000000  0.71564300  0.19141700  1
  C  C27  1  0.50000000  0.47577400  0.28435700  1
  C  C28  1  0.50000000  0.52422600  0.80858300  1
  C  C29  1  0.50000000  0.80858300  0.52422600  1
  C  C30  1  0.50000000  0.19141700  0.71564300  1
  C  C31  1  0.50000000  0.28435700  0.47577400  1
