# generated using pymatgen
data_YGe2Pd
_symmetry_space_group_name_H-M   'P 1'
_cell_length_a   4.34684300
_cell_length_b   8.83024400
_cell_length_c   9.55070768
_cell_angle_alpha   117.53447097
_cell_angle_beta   103.15384291
_cell_angle_gamma   90.00000000
_symmetry_Int_Tables_number   1
_chemical_formula_structural   YGe2Pd
_chemical_formula_sum   'Y4 Ge8 Pd4'
_cell_volume   314.18154904
_cell_formula_units_Z   4
loop_
 _symmetry_equiv_pos_site_id
 _symmetry_equiv_pos_as_xyz
  1  'x, y, z'
loop_
 _atom_site_type_symbol
 _atom_site_label
 _atom_site_symmetry_multiplicity
 _atom_site_fract_x
 _atom_site_fract_y
 _atom_site_fract_z
 _atom_site_occupancy
  Y  Y0  1  0.20282300  0.20282300  0.40564600  1
  Y  Y1  1  0.79717700  0.79717700  0.59435400  1
  Y  Y2  1  0.00000000  0.76138800  0.00000000  1
  Y  Y3  1  0.00000000  0.23861200  0.00000000  1
  Ge  Ge4  1  0.57431800  0.07431800  0.14863600  1
  Ge  Ge5  1  0.42568200  0.92568200  0.85136400  1
  Ge  Ge6  1  0.19813300  0.84895600  0.39626600  1
  Ge  Ge7  1  0.80186700  0.15104400  0.60373400  1
  Ge  Ge8  1  0.19813300  0.54731000  0.39626600  1
  Ge  Ge9  1  0.80186700  0.45269000  0.60373400  1
  Ge  Ge10  1  0.42537700  0.42537700  0.85075300  1
  Ge  Ge11  1  0.57462300  0.57462300  0.14924700  1
  Pd  Pd12  1  0.35260100  0.10248900  0.70520100  1
  Pd  Pd13  1  0.64739900  0.89751100  0.29479900  1
  Pd  Pd14  1  0.35260100  0.60271200  0.70520100  1
  Pd  Pd15  1  0.64739900  0.39728800  0.29479900  1
