# generated using pymatgen
data_K2MgGeO4
_symmetry_space_group_name_H-M   'P 1'
_cell_length_a   5.67934500
_cell_length_b   11.36138900
_cell_length_c   16.03685500
_cell_angle_alpha   90.00000000
_cell_angle_beta   90.00000000
_cell_angle_gamma   90.00000000
_symmetry_Int_Tables_number   1
_chemical_formula_structural   K2MgGeO4
_chemical_formula_sum   'K16 Mg8 Ge8 O32'
_cell_volume   1034.78204297
_cell_formula_units_Z   8
loop_
 _symmetry_equiv_pos_site_id
 _symmetry_equiv_pos_as_xyz
  1  'x, y, z'
loop_
 _atom_site_type_symbol
 _atom_site_label
 _atom_site_symmetry_multiplicity
 _atom_site_fract_x
 _atom_site_fract_y
 _atom_site_fract_z
 _atom_site_occupancy
  K  K0  1  0.03359600  0.22947100  0.87018000  1
  K  K1  1  0.96640400  0.77052900  0.37018000  1
  K  K2  1  0.96640400  0.72947100  0.87018000  1
  K  K3  1  0.03359600  0.27052900  0.37018000  1
  K  K4  1  0.01453200  0.49543300  0.74354400  1
  K  K5  1  0.98546800  0.50456700  0.24354400  1
  K  K6  1  0.98546800  0.99543300  0.74354400  1
  K  K7  1  0.01453200  0.00456700  0.24354400  1
  K  K8  1  0.53430100  0.26651200  0.50017500  1
  K  K9  1  0.46569900  0.73348800  0.00017500  1
  K  K10  1  0.46569900  0.76651200  0.50017500  1
  K  K11  1  0.53430100  0.23348800  0.00017500  1
  K  K12  1  0.51231000  0.00771200  0.62516000  1
  K  K13  1  0.48769000  0.99228800  0.12516000  1
  K  K14  1  0.48769000  0.50771200  0.62516000  1
  K  K15  1  0.51231000  0.49228800  0.12516000  1
  Mg  Mg16  1  0.02188200  0.01667900  0.49521600  1
  Mg  Mg17  1  0.97811800  0.98332100  0.99521600  1
  Mg  Mg18  1  0.97811800  0.51667900  0.49521600  1
  Mg  Mg19  1  0.02188200  0.48332100  0.99521600  1
  Mg  Mg20  1  0.51289400  0.23674700  0.74920900  1
  Mg  Mg21  1  0.48710600  0.76325300  0.24920900  1
  Mg  Mg22  1  0.48710600  0.73674700  0.74920900  1
  Mg  Mg23  1  0.51289400  0.26325300  0.24920900  1
  Ge  Ge24  1  0.52269400  0.48634100  0.87435900  1
  Ge  Ge25  1  0.47730600  0.51365900  0.37435900  1
  Ge  Ge26  1  0.47730600  0.98634100  0.87435900  1
  Ge  Ge27  1  0.52269400  0.01365900  0.37435900  1
  Ge  Ge28  1  0.00995000  0.26866700  0.61956600  1
  Ge  Ge29  1  0.99005000  0.73133300  0.11956600  1
  Ge  Ge30  1  0.99005000  0.76866700  0.61956600  1
  Ge  Ge31  1  0.00995000  0.23133300  0.11956600  1
  O  O32  1  0.58480000  0.33903200  0.84458400  1
  O  O33  1  0.41520000  0.66096800  0.34458400  1
  O  O34  1  0.41520000  0.83903200  0.84458400  1
  O  O35  1  0.58480000  0.16096800  0.34458400  1
  O  O36  1  0.26027800  0.30562400  0.68050300  1
  O  O37  1  0.73972200  0.69437600  0.18050300  1
  O  O38  1  0.73972200  0.80562400  0.68050300  1
  O  O39  1  0.26027800  0.19437600  0.18050300  1
  O  O40  1  0.11314400  0.59706300  0.08298700  1
  O  O41  1  0.88685600  0.40293700  0.58298700  1
  O  O42  1  0.88685600  0.09706300  0.08298700  1
  O  O43  1  0.11314400  0.90293700  0.58298700  1
  O  O44  1  0.21673700  0.50958000  0.89503300  1
  O  O45  1  0.78326300  0.49042000  0.39503300  1
  O  O46  1  0.78326300  0.00958000  0.89503300  1
  O  O47  1  0.21673700  0.99042000  0.39503300  1
  O  O48  1  0.20750400  0.69675200  0.68113700  1
  O  O49  1  0.79249600  0.30324800  0.18113700  1
  O  O50  1  0.79249600  0.19675200  0.68113700  1
  O  O51  1  0.20750400  0.80324800  0.18113700  1
  O  O52  1  0.31174300  0.01546500  0.96674900  1
  O  O53  1  0.68825700  0.98453500  0.46674900  1
  O  O54  1  0.68825700  0.51546500  0.96674900  1
  O  O55  1  0.31174300  0.48453500  0.46674900  1
  O  O56  1  0.09001300  0.17888000  0.53339800  1
  O  O57  1  0.90998700  0.82112000  0.03339800  1
  O  O58  1  0.90998700  0.67888000  0.53339800  1
  O  O59  1  0.09001300  0.32112000  0.03339800  1
  O  O60  1  0.39268000  0.08509700  0.79290000  1
  O  O61  1  0.60732000  0.91490300  0.29290000  1
  O  O62  1  0.60732000  0.58509700  0.79290000  1
  O  O63  1  0.39268000  0.41490300  0.29290000  1
