# generated using pymatgen
data_Rb2Hg3(GeS4)2
_symmetry_space_group_name_H-M   'P 1'
_cell_length_a   6.52644700
_cell_length_b   10.16372700
_cell_length_c   13.47110309
_cell_angle_alpha   82.14866799
_cell_angle_beta   90.00000000
_cell_angle_gamma   90.00000000
_symmetry_Int_Tables_number   1
_chemical_formula_structural   Rb2Hg3(GeS4)2
_chemical_formula_sum   'Rb4 Hg6 Ge4 S16'
_cell_volume   885.20248553
_cell_formula_units_Z   2
loop_
 _symmetry_equiv_pos_site_id
 _symmetry_equiv_pos_as_xyz
  1  'x, y, z'
loop_
 _atom_site_type_symbol
 _atom_site_label
 _atom_site_symmetry_multiplicity
 _atom_site_fract_x
 _atom_site_fract_y
 _atom_site_fract_z
 _atom_site_occupancy
  Rb  Rb0  1  0.16373500  0.22020200  0.69261200  1
  Rb  Rb1  1  0.83626500  0.77979800  0.30738800  1
  Rb  Rb2  1  0.66373500  0.77979800  0.80738800  1
  Rb  Rb3  1  0.33626500  0.22020200  0.19261200  1
  Hg  Hg4  1  0.20585300  0.50205600  0.88220700  1
  Hg  Hg5  1  0.79414700  0.49794400  0.11779300  1
  Hg  Hg6  1  0.70585300  0.49794400  0.61779300  1
  Hg  Hg7  1  0.29414700  0.50205600  0.38220700  1
  Hg  Hg8  1  0.50000000  0.00000000  0.50000000  1
  Hg  Hg9  1  0.00000000  0.00000000  0.00000000  1
  Ge  Ge10  1  0.18399200  0.71746200  0.57506100  1
  Ge  Ge11  1  0.81600800  0.28253800  0.42493900  1
  Ge  Ge12  1  0.68399200  0.28253800  0.92493900  1
  Ge  Ge13  1  0.31600800  0.71746200  0.07506100  1
  S  S14  1  0.84006300  0.72674600  0.57393100  1
  S  S15  1  0.15993700  0.27325400  0.42606900  1
  S  S16  1  0.34006300  0.27325400  0.92606900  1
  S  S17  1  0.65993700  0.72674600  0.07393100  1
  S  S18  1  0.30705100  0.54196300  0.67136700  1
  S  S19  1  0.69294900  0.45803700  0.32863300  1
  S  S20  1  0.80705100  0.45803700  0.82863300  1
  S  S21  1  0.19294900  0.54196300  0.17136700  1
  S  S22  1  0.28306300  0.90890300  0.63397700  1
  S  S23  1  0.71693700  0.09109700  0.36602300  1
  S  S24  1  0.78306300  0.09109700  0.86602300  1
  S  S25  1  0.21693700  0.90890300  0.13397700  1
  S  S26  1  0.19543000  0.73587900  0.91716600  1
  S  S27  1  0.80457000  0.26412100  0.08283400  1
  S  S28  1  0.69543000  0.26412100  0.58283400  1
  S  S29  1  0.30457000  0.73587900  0.41716600  1
