# generated using pymatgen
data_MgCu2SiSe4
_symmetry_space_group_name_H-M   'P 1'
_cell_length_a   6.56238600
_cell_length_b   6.85209200
_cell_length_c   8.01150000
_cell_angle_alpha   90.00000000
_cell_angle_beta   90.00000000
_cell_angle_gamma   90.00000000
_symmetry_Int_Tables_number   1
_chemical_formula_structural   MgCu2SiSe4
_chemical_formula_sum   'Mg2 Cu4 Si2 Se8'
_cell_volume   360.24569073
_cell_formula_units_Z   2
loop_
 _symmetry_equiv_pos_site_id
 _symmetry_equiv_pos_as_xyz
  1  'x, y, z'
loop_
 _atom_site_type_symbol
 _atom_site_label
 _atom_site_symmetry_multiplicity
 _atom_site_fract_x
 _atom_site_fract_y
 _atom_site_fract_z
 _atom_site_occupancy
  Mg  Mg0  1  0.99461400  0.65356800  0.50000000  1
  Mg  Mg1  1  0.49461400  0.34643200  0.00000000  1
  Cu  Cu2  1  0.00677700  0.17849600  0.75310200  1
  Cu  Cu3  1  0.00677700  0.17849600  0.24689800  1
  Cu  Cu4  1  0.50677700  0.82150400  0.74689800  1
  Cu  Cu5  1  0.50677700  0.82150400  0.25310200  1
  Si  Si6  1  0.49797300  0.32354000  0.50000000  1
  Si  Si7  1  0.99797300  0.67646000  0.00000000  1
  Se  Se8  1  0.37501800  0.15788800  0.73197400  1
  Se  Se9  1  0.37501800  0.15788800  0.26802600  1
  Se  Se10  1  0.87501800  0.84211200  0.76802600  1
  Se  Se11  1  0.87501800  0.84211200  0.23197400  1
  Se  Se12  1  0.85150600  0.30414300  0.50000000  1
  Se  Se13  1  0.35150600  0.69585700  0.00000000  1
  Se  Se14  1  0.39211700  0.64622300  0.50000000  1
  Se  Se15  1  0.89211700  0.35377700  0.00000000  1
