# generated using pymatgen
data_ThSiPt
_symmetry_space_group_name_H-M   'P 1'
_cell_length_a   7.96847468
_cell_length_b   7.96847468
_cell_length_c   7.96847468
_cell_angle_alpha   149.66737868
_cell_angle_beta   149.66737868
_cell_angle_gamma   43.42987472
_symmetry_Int_Tables_number   1
_chemical_formula_structural   ThSiPt
_chemical_formula_sum   'Th2 Si2 Pt2'
_cell_volume   128.69621223
_cell_formula_units_Z   2
loop_
 _symmetry_equiv_pos_site_id
 _symmetry_equiv_pos_as_xyz
  1  'x, y, z'
loop_
 _atom_site_type_symbol
 _atom_site_label
 _atom_site_symmetry_multiplicity
 _atom_site_fract_x
 _atom_site_fract_y
 _atom_site_fract_z
 _atom_site_occupancy
  Th  Th0  1  0.58074500  0.58074500  0.00000000  1
  Th  Th1  1  0.33074500  0.83074500  0.50000000  1
  Si  Si2  1  0.99988100  0.99988100  0.00000000  1
  Si  Si3  1  0.74988100  0.24988100  0.50000000  1
  Pt  Pt4  1  0.16637400  0.16637400  0.00000000  1
  Pt  Pt5  1  0.91637400  0.41637400  0.50000000  1
