# generated using pymatgen
data_KNb3(TeO6)2
_symmetry_space_group_name_H-M   'P 1'
_cell_length_a   4.10666900
_cell_length_b   15.22989100
_cell_length_c   17.74157600
_cell_angle_alpha   90.00000000
_cell_angle_beta   90.00000000
_cell_angle_gamma   90.00000000
_symmetry_Int_Tables_number   1
_chemical_formula_structural   KNb3(TeO6)2
_chemical_formula_sum   'K4 Nb12 Te8 O48'
_cell_volume   1109.63128039
_cell_formula_units_Z   4
loop_
 _symmetry_equiv_pos_site_id
 _symmetry_equiv_pos_as_xyz
  1  'x, y, z'
loop_
 _atom_site_type_symbol
 _atom_site_label
 _atom_site_symmetry_multiplicity
 _atom_site_fract_x
 _atom_site_fract_y
 _atom_site_fract_z
 _atom_site_occupancy
  K  K0  1  0.22654900  0.07117100  0.75000000  1
  K  K1  1  0.77345100  0.92882900  0.25000000  1
  K  K2  1  0.22654900  0.42882900  0.25000000  1
  K  K3  1  0.77345100  0.57117100  0.75000000  1
  Nb  Nb4  1  0.23395500  0.79347200  0.75000000  1
  Nb  Nb5  1  0.76604500  0.20652800  0.25000000  1
  Nb  Nb6  1  0.23395500  0.70652800  0.25000000  1
  Nb  Nb7  1  0.76604500  0.29347200  0.75000000  1
  Nb  Nb8  1  0.76824500  0.15040700  0.56946100  1
  Nb  Nb9  1  0.23175500  0.84959300  0.06946100  1
  Nb  Nb10  1  0.76824500  0.34959300  0.43053900  1
  Nb  Nb11  1  0.23175500  0.65040700  0.93053900  1
  Nb  Nb12  1  0.23175500  0.84959300  0.43053900  1
  Nb  Nb13  1  0.76824500  0.15040700  0.93053900  1
  Nb  Nb14  1  0.23175500  0.65040700  0.56946100  1
  Nb  Nb15  1  0.76824500  0.34959300  0.06946100  1
  Te  Te16  1  0.61170300  0.91462000  0.59737800  1
  Te  Te17  1  0.38829700  0.08538000  0.09737800  1
  Te  Te18  1  0.61170300  0.58538000  0.40262200  1
  Te  Te19  1  0.38829700  0.41462000  0.90262200  1
  Te  Te20  1  0.38829700  0.08538000  0.40262200  1
  Te  Te21  1  0.61170300  0.91462000  0.90262200  1
  Te  Te22  1  0.38829700  0.41462000  0.59737800  1
  Te  Te23  1  0.61170300  0.58538000  0.09737800  1
  O  O24  1  0.28254500  0.93322400  0.52301000  1
  O  O25  1  0.71745500  0.06677600  0.02301000  1
  O  O26  1  0.28254500  0.56677600  0.47699000  1
  O  O27  1  0.71745500  0.43322400  0.97699000  1
  O  O28  1  0.71745500  0.06677600  0.47699000  1
  O  O29  1  0.28254500  0.93322400  0.97699000  1
  O  O30  1  0.71745500  0.43322400  0.52301000  1
  O  O31  1  0.28254500  0.56677600  0.02301000  1
  O  O32  1  0.69785000  0.03143700  0.62950300  1
  O  O33  1  0.30215000  0.96856300  0.12950300  1
  O  O34  1  0.69785000  0.46856300  0.37049700  1
  O  O35  1  0.30215000  0.53143700  0.87049700  1
  O  O36  1  0.30215000  0.96856300  0.37049700  1
  O  O37  1  0.69785000  0.03143700  0.87049700  1
  O  O38  1  0.30215000  0.53143700  0.62950300  1
  O  O39  1  0.69785000  0.46856300  0.12950300  1
  O  O40  1  0.28997600  0.89618100  0.67358000  1
  O  O41  1  0.71002400  0.10381900  0.17358000  1
  O  O42  1  0.28997600  0.60381900  0.32642000  1
  O  O43  1  0.71002400  0.39618100  0.82642000  1
  O  O44  1  0.71002400  0.10381900  0.32642000  1
  O  O45  1  0.28997600  0.89618100  0.82642000  1
  O  O46  1  0.71002400  0.39618100  0.67358000  1
  O  O47  1  0.28997600  0.60381900  0.17358000  1
  O  O48  1  0.28803400  0.70794000  0.66796900  1
  O  O49  1  0.71196600  0.29206000  0.16796900  1
  O  O50  1  0.28803400  0.79206000  0.33203100  1
  O  O51  1  0.71196600  0.20794000  0.83203100  1
  O  O52  1  0.71196600  0.29206000  0.33203100  1
  O  O53  1  0.28803400  0.70794000  0.83203100  1
  O  O54  1  0.71196600  0.20794000  0.66796900  1
  O  O55  1  0.28803400  0.79206000  0.16796900  1
  O  O56  1  0.78825300  0.80050400  0.75000000  1
  O  O57  1  0.21174700  0.19949600  0.25000000  1
  O  O58  1  0.78825300  0.69949600  0.25000000  1
  O  O59  1  0.21174700  0.30050400  0.75000000  1
  O  O60  1  0.70679900  0.25000000  0.50000000  1
  O  O61  1  0.29320100  0.75000000  0.00000000  1
  O  O62  1  0.29320100  0.75000000  0.50000000  1
  O  O63  1  0.70679900  0.25000000  0.00000000  1
  O  O64  1  0.21160000  0.14632400  0.56800300  1
  O  O65  1  0.78840000  0.85367600  0.06800300  1
  O  O66  1  0.21160000  0.35367600  0.43199700  1
  O  O67  1  0.78840000  0.64632400  0.93199700  1
  O  O68  1  0.78840000  0.85367600  0.43199700  1
  O  O69  1  0.21160000  0.14632400  0.93199700  1
  O  O70  1  0.78840000  0.64632400  0.56800300  1
  O  O71  1  0.21160000  0.35367600  0.06800300  1
