# generated using pymatgen
data_Zr3As
_symmetry_space_group_name_H-M   'P 1'
_cell_length_a   11.05803500
_cell_length_b   11.05803500
_cell_length_c   5.49588900
_cell_angle_alpha   90.00000000
_cell_angle_beta   90.00000000
_cell_angle_gamma   90.00000000
_symmetry_Int_Tables_number   1
_chemical_formula_structural   Zr3As
_chemical_formula_sum   'Zr24 As8'
_cell_volume   672.03806569
_cell_formula_units_Z   8
loop_
 _symmetry_equiv_pos_site_id
 _symmetry_equiv_pos_as_xyz
  1  'x, y, z'
loop_
 _atom_site_type_symbol
 _atom_site_label
 _atom_site_symmetry_multiplicity
 _atom_site_fract_x
 _atom_site_fract_y
 _atom_site_fract_z
 _atom_site_occupancy
  Zr  Zr0  1  0.89452600  0.58275100  0.03569500  1
  Zr  Zr1  1  0.10547400  0.41724900  0.03569500  1
  Zr  Zr2  1  0.91724900  0.39452600  0.53569500  1
  Zr  Zr3  1  0.08275100  0.60547400  0.53569500  1
  Zr  Zr4  1  0.60547400  0.91724900  0.46430500  1
  Zr  Zr5  1  0.39452600  0.08275100  0.46430500  1
  Zr  Zr6  1  0.58275100  0.10547400  0.96430500  1
  Zr  Zr7  1  0.41724900  0.89452600  0.96430500  1
  Zr  Zr8  1  0.86064800  0.02628800  0.71691100  1
  Zr  Zr9  1  0.13935200  0.97371200  0.71691100  1
  Zr  Zr10  1  0.47371200  0.36064800  0.21691100  1
  Zr  Zr11  1  0.52628800  0.63935200  0.21691100  1
  Zr  Zr12  1  0.63935200  0.47371200  0.78308900  1
  Zr  Zr13  1  0.36064800  0.52628800  0.78308900  1
  Zr  Zr14  1  0.02628800  0.13935200  0.28308900  1
  Zr  Zr15  1  0.97371200  0.86064800  0.28308900  1
  Zr  Zr16  1  0.28476500  0.18022000  0.98884200  1
  Zr  Zr17  1  0.71523500  0.81978000  0.98884200  1
  Zr  Zr18  1  0.31978000  0.78476500  0.48884200  1
  Zr  Zr19  1  0.68022000  0.21523500  0.48884200  1
  Zr  Zr20  1  0.21523500  0.31978000  0.51115800  1
  Zr  Zr21  1  0.78476500  0.68022000  0.51115800  1
  Zr  Zr22  1  0.18022000  0.71523500  0.01115800  1
  Zr  Zr23  1  0.81978000  0.28476500  0.01115800  1
  As  As24  1  0.79376300  0.04074300  0.21209200  1
  As  As25  1  0.20623700  0.95925700  0.21209200  1
  As  As26  1  0.45925700  0.29376300  0.71209200  1
  As  As27  1  0.54074300  0.70623700  0.71209200  1
  As  As28  1  0.70623700  0.45925700  0.28790800  1
  As  As29  1  0.29376300  0.54074300  0.28790800  1
  As  As30  1  0.04074300  0.20623700  0.78790800  1
  As  As31  1  0.95925700  0.79376300  0.78790800  1
