# generated using pymatgen
data_InS
_symmetry_space_group_name_H-M   'P 1'
_cell_length_a   4.01044600
_cell_length_b   4.75367400
_cell_length_c   10.72534600
_cell_angle_alpha   90.00000000
_cell_angle_beta   90.00000000
_cell_angle_gamma   90.00000000
_symmetry_Int_Tables_number   1
_chemical_formula_structural   InS
_chemical_formula_sum   'In4 S4'
_cell_volume   204.47178089
_cell_formula_units_Z   4
loop_
 _symmetry_equiv_pos_site_id
 _symmetry_equiv_pos_as_xyz
  1  'x, y, z'
loop_
 _atom_site_type_symbol
 _atom_site_label
 _atom_site_symmetry_multiplicity
 _atom_site_fract_x
 _atom_site_fract_y
 _atom_site_fract_z
 _atom_site_occupancy
  In  In0  1  0.50000000  0.37441300  0.62003100  1
  In  In1  1  0.50000000  0.62558700  0.37996900  1
  In  In2  1  0.00000000  0.87441300  0.87996900  1
  In  In3  1  0.00000000  0.12558700  0.12003100  1
  S  S4  1  0.50000000  0.53985500  0.84585100  1
  S  S5  1  0.50000000  0.46014500  0.15414900  1
  S  S6  1  0.00000000  0.03985500  0.65414900  1
  S  S7  1  0.00000000  0.96014500  0.34585100  1
