# generated using pymatgen
data_Sr2LiSi3
_symmetry_space_group_name_H-M   'P 1'
_cell_length_a   11.76121614
_cell_length_b   10.07597870
_cell_length_c   8.55673755
_cell_angle_alpha   77.80778283
_cell_angle_beta   56.86540379
_cell_angle_gamma   45.32681338
_symmetry_Int_Tables_number   1
_chemical_formula_structural   Sr2LiSi3
_chemical_formula_sum   'Sr8 Li4 Si12'
_cell_volume   577.76484732
_cell_formula_units_Z   4
loop_
 _symmetry_equiv_pos_site_id
 _symmetry_equiv_pos_as_xyz
  1  'x, y, z'
loop_
 _atom_site_type_symbol
 _atom_site_label
 _atom_site_symmetry_multiplicity
 _atom_site_fract_x
 _atom_site_fract_y
 _atom_site_fract_z
 _atom_site_occupancy
  Sr  Sr0  1  0.12408600  0.12408600  0.87591400  1
  Sr  Sr1  1  0.87591500  0.87591500  0.12408500  1
  Sr  Sr2  1  0.12591500  0.12591500  0.37408500  1
  Sr  Sr3  1  0.37408600  0.37408600  0.12591400  1
  Sr  Sr4  1  0.62432800  0.62432900  0.37567200  1
  Sr  Sr5  1  0.37567200  0.37567200  0.62432800  1
  Sr  Sr6  1  0.62567200  0.62567200  0.87432800  1
  Sr  Sr7  1  0.87432900  0.87432900  0.62567100  1
  Li  Li8  1  0.08277400  0.41722600  0.08277400  1
  Li  Li9  1  0.83277400  0.16722600  0.83277400  1
  Li  Li10  1  0.16722600  0.83277400  0.16722600  1
  Li  Li11  1  0.41722600  0.08277400  0.41722600  1
  Si  Si12  1  0.91358900  0.59208000  0.42561300  1
  Si  Si13  1  0.06871800  0.42561300  0.59208000  1
  Si  Si14  1  0.42561300  0.06871800  0.91358900  1
  Si  Si15  1  0.59208000  0.91358900  0.06871800  1
  Si  Si16  1  0.33641100  0.65792000  0.82438700  1
  Si  Si17  1  0.65792000  0.33641100  0.18128200  1
  Si  Si18  1  0.82438700  0.18128200  0.33641100  1
  Si  Si19  1  0.18128200  0.82438700  0.65792000  1
  Si  Si20  1  0.91126600  0.58873500  0.91126500  1
  Si  Si21  1  0.58873500  0.91126600  0.58873400  1
  Si  Si22  1  0.33873500  0.66126600  0.33873500  1
  Si  Si23  1  0.66126500  0.33873500  0.66126500  1
