# generated using pymatgen
data_Ba9U4(Ag5S12)2
_symmetry_space_group_name_H-M   'P 1'
_cell_length_a   15.65798000
_cell_length_b   15.65798000
_cell_length_c   15.65798000
_cell_angle_alpha   126.43884830
_cell_angle_beta   126.43884830
_cell_angle_gamma   79.16805321
_symmetry_Int_Tables_number   1
_chemical_formula_structural   Ba9U4(Ag5S12)2
_chemical_formula_sum   'Ba18 U8 Ag20 S48'
_cell_volume   2402.59989191
_cell_formula_units_Z   2
loop_
 _symmetry_equiv_pos_site_id
 _symmetry_equiv_pos_as_xyz
  1  'x, y, z'
loop_
 _atom_site_type_symbol
 _atom_site_label
 _atom_site_symmetry_multiplicity
 _atom_site_fract_x
 _atom_site_fract_y
 _atom_site_fract_z
 _atom_site_occupancy
  Ba  Ba0  1  0.45124000  0.17546200  0.82028100  1
  Ba  Ba1  1  0.35518200  0.63095900  0.17971900  1
  Ba  Ba2  1  0.85518200  0.67546200  0.72422300  1
  Ba  Ba3  1  0.95124000  0.13095900  0.27577700  1
  Ba  Ba4  1  0.17546200  0.35518200  0.72422300  1
  Ba  Ba5  1  0.63095900  0.45124000  0.27577700  1
  Ba  Ba6  1  0.67546200  0.95124000  0.82028100  1
  Ba  Ba7  1  0.13095900  0.85518200  0.17971900  1
  Ba  Ba8  1  0.32337500  0.04633900  0.18181600  1
  Ba  Ba9  1  0.86452300  0.14156000  0.81818400  1
  Ba  Ba10  1  0.36452300  0.54633900  0.72296400  1
  Ba  Ba11  1  0.82337500  0.64156000  0.27703600  1
  Ba  Ba12  1  0.04633900  0.86452300  0.72296400  1
  Ba  Ba13  1  0.14156000  0.32337500  0.27703600  1
  Ba  Ba14  1  0.54633900  0.82337500  0.18181600  1
  Ba  Ba15  1  0.64156000  0.36452300  0.81818400  1
  Ba  Ba16  1  0.25278800  0.25278800  0.00000000  1
  Ba  Ba17  1  0.75278800  0.75278800  0.00000000  1
  U  U18  1  0.49846600  0.50687600  0.50000000  1
  U  U19  1  0.00687600  0.99846600  0.50000000  1
  U  U20  1  0.50687600  0.00687600  0.00841000  1
  U  U21  1  0.99846600  0.49846600  0.99159000  1
  U  U22  1  0.99161900  0.49161900  0.50000000  1
  U  U23  1  0.49161900  0.99161900  0.50000000  1
  U  U24  1  0.50009700  0.50009700  0.00000000  1
  U  U25  1  0.00009700  0.00009700  0.00000000  1
  Ag  Ag26  1  0.25123400  0.96050100  0.71026400  1
  Ag  Ag27  1  0.25023700  0.54097000  0.28973600  1
  Ag  Ag28  1  0.75023700  0.46050100  0.70926700  1
  Ag  Ag29  1  0.75123400  0.04097000  0.29073300  1
  Ag  Ag30  1  0.96050100  0.25023700  0.70926700  1
  Ag  Ag31  1  0.54097000  0.25123400  0.29073300  1
  Ag  Ag32  1  0.46050100  0.75123400  0.71026400  1
  Ag  Ag33  1  0.04097000  0.75023700  0.28973600  1
  Ag  Ag34  1  0.67690800  0.82247200  0.50000000  1
  Ag  Ag35  1  0.32247200  0.17690800  0.50000000  1
  Ag  Ag36  1  0.82247200  0.32247200  0.14556400  1
  Ag  Ag37  1  0.17690800  0.67690800  0.85443600  1
  Ag  Ag38  1  0.81606700  0.95095300  0.50000000  1
  Ag  Ag39  1  0.45095300  0.31606700  0.50000000  1
  Ag  Ag40  1  0.95095300  0.45095300  0.13488700  1
  Ag  Ag41  1  0.31606700  0.81606700  0.86511300  1
  Ag  Ag42  1  0.83905700  0.33905700  0.50000000  1
  Ag  Ag43  1  0.33905700  0.83905700  0.50000000  1
  Ag  Ag44  1  0.67520700  0.17520700  0.50000000  1
  Ag  Ag45  1  0.17520700  0.67520700  0.50000000  1
  S  S46  1  0.30099800  0.00119500  0.93091800  1
  S  S47  1  0.07027700  0.37008000  0.06908200  1
  S  S48  1  0.57027700  0.50119500  0.70019700  1
  S  S49  1  0.80099800  0.87008000  0.29980300  1
  S  S50  1  0.00119500  0.07027700  0.70019700  1
  S  S51  1  0.37008000  0.30099800  0.29980300  1
  S  S52  1  0.50119500  0.80099800  0.93091800  1
  S  S53  1  0.87008000  0.57027700  0.06908200  1
  S  S54  1  0.65626800  0.39734400  0.05374200  1
  S  S55  1  0.34360100  0.60252500  0.94625800  1
  S  S56  1  0.84360100  0.89734400  0.74107600  1
  S  S57  1  0.15626800  0.10252500  0.25892400  1
  S  S58  1  0.39734300  0.34360100  0.74107600  1
  S  S59  1  0.60252500  0.65626800  0.25892400  1
  S  S60  1  0.89734400  0.15626800  0.05374200  1
  S  S61  1  0.10252500  0.84360100  0.94625800  1
  S  S62  1  0.50500700  0.20334300  0.07918000  1
  S  S63  1  0.12416300  0.42582700  0.92082000  1
  S  S64  1  0.62416300  0.70334300  0.69833600  1
  S  S65  1  0.00500700  0.92582700  0.30166400  1
  S  S66  1  0.20334300  0.12416300  0.69833600  1
  S  S67  1  0.42582700  0.50500700  0.30166400  1
  S  S68  1  0.70334300  0.00500700  0.07918000  1
  S  S69  1  0.92582700  0.62416300  0.92082000  1
  S  S70  1  0.50947800  0.82247300  0.50000000  1
  S  S71  1  0.32247300  0.00947800  0.50000000  1
  S  S72  1  0.82247300  0.32247300  0.31299500  1
  S  S73  1  0.00947800  0.50947800  0.68700500  1
  S  S74  1  0.31916500  0.56453700  0.50000000  1
  S  S75  1  0.06453700  0.81916500  0.50000000  1
  S  S76  1  0.56453700  0.06453700  0.24537200  1
  S  S77  1  0.81916500  0.31916500  0.75462800  1
  S  S78  1  0.66075700  0.99303100  0.50000000  1
  S  S79  1  0.49303100  0.16075700  0.50000000  1
  S  S80  1  0.99303100  0.49303100  0.33227400  1
  S  S81  1  0.16075700  0.66075700  0.66772600  1
  S  S82  1  0.12838900  0.36537600  0.50000000  1
  S  S83  1  0.86537600  0.62838900  0.50000000  1
  S  S84  1  0.36537600  0.86537600  0.23698700  1
  S  S85  1  0.62838900  0.12838900  0.76301300  1
  S  S86  1  0.94128100  0.17293200  0.50000000  1
  S  S87  1  0.67293200  0.44128100  0.50000000  1
  S  S88  1  0.17293200  0.67293200  0.23165100  1
  S  S89  1  0.44128100  0.94128100  0.76834900  1
  S  S90  1  0.39375800  0.39375800  0.00000000  1
  S  S91  1  0.89375800  0.89375800  0.00000000  1
  S  S92  1  0.10612200  0.10612200  0.00000000  1
  S  S93  1  0.60612200  0.60612200  0.00000000  1
