# generated using pymatgen
data_Ca2ScOsO6
_symmetry_space_group_name_H-M   'P 1'
_cell_length_a   5.66734600
_cell_length_b   5.50882400
_cell_length_c   9.60251950
_cell_angle_alpha   55.18226941
_cell_angle_beta   90.00000000
_cell_angle_gamma   90.00000000
_symmetry_Int_Tables_number   1
_chemical_formula_structural   Ca2ScOsO6
_chemical_formula_sum   'Ca4 Sc2 Os2 O12'
_cell_volume   246.12314939
_cell_formula_units_Z   2
loop_
 _symmetry_equiv_pos_site_id
 _symmetry_equiv_pos_as_xyz
  1  'x, y, z'
loop_
 _atom_site_type_symbol
 _atom_site_label
 _atom_site_symmetry_multiplicity
 _atom_site_fract_x
 _atom_site_fract_y
 _atom_site_fract_z
 _atom_site_occupancy
  Ca  Ca0  1  0.94783300  0.23845700  0.74981800  1
  Ca  Ca1  1  0.55216700  0.23845700  0.24981800  1
  Ca  Ca2  1  0.05216700  0.76154300  0.25018200  1
  Ca  Ca3  1  0.44783300  0.76154300  0.75018200  1
  Sc  Sc4  1  0.00000000  0.50000000  0.00000000  1
  Sc  Sc5  1  0.50000000  0.50000000  0.50000000  1
  Os  Os6  1  0.00000000  0.00000000  0.50000000  1
  Os  Os7  1  0.50000000  0.00000000  0.00000000  1
  O  O8  1  0.53006100  0.33560200  0.75768100  1
  O  O9  1  0.96993900  0.33560200  0.25768100  1
  O  O10  1  0.46993900  0.66439800  0.24231900  1
  O  O11  1  0.03006100  0.66439800  0.74231900  1
  O  O12  1  0.69626900  0.75668300  0.95193100  1
  O  O13  1  0.80373100  0.75668300  0.45193100  1
  O  O14  1  0.30373100  0.24331700  0.04806900  1
  O  O15  1  0.19626900  0.24331700  0.54806900  1
  O  O16  1  0.78982300  0.14168600  0.05014500  1
  O  O17  1  0.71017700  0.14168600  0.55014500  1
  O  O18  1  0.21017700  0.85831400  0.94985500  1
  O  O19  1  0.28982300  0.85831400  0.44985500  1
