# generated using pymatgen
data_LaUTe6
_symmetry_space_group_name_H-M   'P 1'
_cell_length_a   13.11803742
_cell_length_b   13.11803742
_cell_length_c   4.42417600
_cell_angle_alpha   90.00000000
_cell_angle_beta   90.00000000
_cell_angle_gamma   160.62453863
_symmetry_Int_Tables_number   1
_chemical_formula_structural   LaUTe6
_chemical_formula_sum   'La1 U1 Te6'
_cell_volume   252.57502368
_cell_formula_units_Z   1
loop_
 _symmetry_equiv_pos_site_id
 _symmetry_equiv_pos_as_xyz
  1  'x, y, z'
loop_
 _atom_site_type_symbol
 _atom_site_label
 _atom_site_symmetry_multiplicity
 _atom_site_fract_x
 _atom_site_fract_y
 _atom_site_fract_z
 _atom_site_occupancy
  La  La0  1  0.83126200  0.16873800  0.00000000  1
  U  U1  1  0.16566000  0.83434000  0.50000000  1
  Te  Te2  1  0.57592200  0.42407800  0.50000000  1
  Te  Te3  1  0.43008100  0.56991900  0.00000000  1
  Te  Te4  1  0.29099900  0.70900100  0.50000000  1
  Te  Te5  1  0.69991800  0.30008200  0.00000000  1
  Te  Te6  1  0.93033000  0.06967000  0.50000000  1
  Te  Te7  1  0.07582800  0.92417200  0.00000000  1
