# generated using pymatgen
data_CsMoP2HO9
_symmetry_space_group_name_H-M   'P 1'
_cell_length_a   14.66229800
_cell_length_b   6.37874600
_cell_length_c   10.12800135
_cell_angle_alpha   79.79222566
_cell_angle_beta   90.00000000
_cell_angle_gamma   90.00000000
_symmetry_Int_Tables_number   1
_chemical_formula_structural   CsMoP2HO9
_chemical_formula_sum   'Cs4 Mo4 P8 H4 O36'
_cell_volume   932.24898093
_cell_formula_units_Z   4
loop_
 _symmetry_equiv_pos_site_id
 _symmetry_equiv_pos_as_xyz
  1  'x, y, z'
loop_
 _atom_site_type_symbol
 _atom_site_label
 _atom_site_symmetry_multiplicity
 _atom_site_fract_x
 _atom_site_fract_y
 _atom_site_fract_z
 _atom_site_occupancy
  Cs  Cs0  1  0.32906900  0.81359200  0.33276300  1
  Cs  Cs1  1  0.82906900  0.18640800  0.16723700  1
  Cs  Cs2  1  0.67093100  0.18640800  0.66723700  1
  Cs  Cs3  1  0.17093100  0.81359200  0.83276300  1
  Mo  Mo4  1  0.03781500  0.70404800  0.22327600  1
  Mo  Mo5  1  0.53781500  0.29595200  0.27672400  1
  Mo  Mo6  1  0.96218500  0.29595200  0.77672400  1
  Mo  Mo7  1  0.46218500  0.70404800  0.72327600  1
  P  P8  1  0.37330900  0.39105900  0.01455000  1
  P  P9  1  0.87330900  0.60894100  0.48545000  1
  P  P10  1  0.62669100  0.60894100  0.98545000  1
  P  P11  1  0.12669100  0.39105900  0.51455000  1
  P  P12  1  0.40838000  0.19063900  0.78317700  1
  P  P13  1  0.90838000  0.80936100  0.71682300  1
  P  P14  1  0.59162000  0.80936100  0.21682300  1
  P  P15  1  0.09162000  0.19063900  0.28317700  1
  H  H16  1  0.26598400  0.31290000  0.59933900  1
  H  H17  1  0.76598400  0.68710000  0.90066100  1
  H  H18  1  0.73401600  0.68710000  0.40066100  1
  H  H19  1  0.23401600  0.31290000  0.09933900  1
  O  O20  1  0.09518900  0.59516000  0.42539500  1
  O  O21  1  0.59518900  0.40484000  0.07460500  1
  O  O22  1  0.90481100  0.40484000  0.57460500  1
  O  O23  1  0.40481100  0.59516000  0.92539500  1
  O  O24  1  0.08849500  0.34149700  0.65509900  1
  O  O25  1  0.58849500  0.65850300  0.84490100  1
  O  O26  1  0.91150500  0.65850300  0.34490100  1
  O  O27  1  0.41150500  0.34149700  0.15509900  1
  O  O28  1  0.26668900  0.39812100  0.01714500  1
  O  O29  1  0.76668900  0.60187900  0.48285500  1
  O  O30  1  0.73331100  0.60187900  0.98285500  1
  O  O31  1  0.23331100  0.39812100  0.51714500  1
  O  O32  1  0.10113700  0.18970200  0.44295700  1
  O  O33  1  0.60113700  0.81029800  0.05704300  1
  O  O34  1  0.89886300  0.81029800  0.55704300  1
  O  O35  1  0.39886300  0.18970200  0.94295700  1
  O  O36  1  0.03032500  0.38478500  0.22685900  1
  O  O37  1  0.53032500  0.61521500  0.27314100  1
  O  O38  1  0.96967500  0.61521500  0.77314100  1
  O  O39  1  0.46967500  0.38478500  0.72685900  1
  O  O40  1  0.18394800  0.18777100  0.22071400  1
  O  O41  1  0.68394800  0.81222900  0.27928600  1
  O  O42  1  0.81605200  0.81222900  0.77928600  1
  O  O43  1  0.31605200  0.18777100  0.72071400  1
  O  O44  1  0.46795500  0.99179500  0.78017400  1
  O  O45  1  0.96795500  0.00820500  0.71982600  1
  O  O46  1  0.53204500  0.00820500  0.21982600  1
  O  O47  1  0.03204500  0.99179500  0.28017400  1
  O  O48  1  0.35291700  0.73858700  0.65674900  1
  O  O49  1  0.85291700  0.26141300  0.84325100  1
  O  O50  1  0.64708300  0.26141300  0.34325100  1
  O  O51  1  0.14708300  0.73858700  0.15674900  1
  O  O52  1  0.03229100  0.23779100  0.91543700  1
  O  O53  1  0.53229100  0.76220900  0.58456300  1
  O  O54  1  0.96770900  0.76220900  0.08456300  1
  O  O55  1  0.46770900  0.23779100  0.41543700  1
