# generated using pymatgen
data_Ho5Ge4
_symmetry_space_group_name_H-M   'P 1'
_cell_length_a   7.63571700
_cell_length_b   7.71186000
_cell_length_c   14.68666800
_cell_angle_alpha   90.00000000
_cell_angle_beta   90.00000000
_cell_angle_gamma   90.00000000
_symmetry_Int_Tables_number   1
_chemical_formula_structural   Ho5Ge4
_chemical_formula_sum   'Ho20 Ge16'
_cell_volume   864.83297084
_cell_formula_units_Z   4
loop_
 _symmetry_equiv_pos_site_id
 _symmetry_equiv_pos_as_xyz
  1  'x, y, z'
loop_
 _atom_site_type_symbol
 _atom_site_label
 _atom_site_symmetry_multiplicity
 _atom_site_fract_x
 _atom_site_fract_y
 _atom_site_fract_z
 _atom_site_occupancy
  Ho  Ho0  1  0.71171900  0.49745300  0.75000000  1
  Ho  Ho1  1  0.28828100  0.50254700  0.25000000  1
  Ho  Ho2  1  0.21171900  0.00254700  0.75000000  1
  Ho  Ho3  1  0.78828100  0.99745300  0.25000000  1
  Ho  Ho4  1  0.46790000  0.17649400  0.39816500  1
  Ho  Ho5  1  0.53210000  0.82350600  0.89816500  1
  Ho  Ho6  1  0.53210000  0.82350600  0.60183500  1
  Ho  Ho7  1  0.46790000  0.17649400  0.10183500  1
  Ho  Ho8  1  0.96790000  0.32350600  0.39816500  1
  Ho  Ho9  1  0.03210000  0.67649400  0.89816500  1
  Ho  Ho10  1  0.03210000  0.67649400  0.60183500  1
  Ho  Ho11  1  0.96790000  0.32350600  0.10183500  1
  Ho  Ho12  1  0.87927600  0.16306600  0.88195800  1
  Ho  Ho13  1  0.12072400  0.83693400  0.38195800  1
  Ho  Ho14  1  0.12072400  0.83693400  0.11804200  1
  Ho  Ho15  1  0.87927600  0.16306600  0.61804200  1
  Ho  Ho16  1  0.37927600  0.33693400  0.88195800  1
  Ho  Ho17  1  0.62072400  0.66306600  0.38195800  1
  Ho  Ho18  1  0.62072400  0.66306600  0.11804200  1
  Ho  Ho19  1  0.37927600  0.33693400  0.61804200  1
  Ge  Ge20  1  0.33540200  0.63862800  0.75000000  1
  Ge  Ge21  1  0.66459800  0.36137200  0.25000000  1
  Ge  Ge22  1  0.83540200  0.86137200  0.75000000  1
  Ge  Ge23  1  0.16459800  0.13862800  0.25000000  1
  Ge  Ge24  1  0.58046100  0.11941100  0.75000000  1
  Ge  Ge25  1  0.41953900  0.88058900  0.25000000  1
  Ge  Ge26  1  0.08046100  0.38058900  0.75000000  1
  Ge  Ge27  1  0.91953900  0.61941100  0.25000000  1
  Ge  Ge28  1  0.71989600  0.46871500  0.95523500  1
  Ge  Ge29  1  0.28010400  0.53128500  0.45523500  1
  Ge  Ge30  1  0.28010400  0.53128500  0.04476500  1
  Ge  Ge31  1  0.71989600  0.46871500  0.54476500  1
  Ge  Ge32  1  0.21989600  0.03128500  0.95523500  1
  Ge  Ge33  1  0.78010400  0.96871500  0.45523500  1
  Ge  Ge34  1  0.78010400  0.96871500  0.04476500  1
  Ge  Ge35  1  0.21989600  0.03128500  0.54476500  1
