# generated using pymatgen
data_Na2VNiF7
_symmetry_space_group_name_H-M   'P 1'
_cell_length_a   7.41857699
_cell_length_b   7.41857699
_cell_length_c   7.41857699
_cell_angle_alpha   120.73947924
_cell_angle_beta   118.99525683
_cell_angle_gamma   90.23648983
_symmetry_Int_Tables_number   1
_chemical_formula_structural   Na2VNiF7
_chemical_formula_sum   'Na4 V2 Ni2 F14'
_cell_volume   289.19276959
_cell_formula_units_Z   2
loop_
 _symmetry_equiv_pos_site_id
 _symmetry_equiv_pos_as_xyz
  1  'x, y, z'
loop_
 _atom_site_type_symbol
 _atom_site_label
 _atom_site_symmetry_multiplicity
 _atom_site_fract_x
 _atom_site_fract_y
 _atom_site_fract_z
 _atom_site_occupancy
  Na  Na0  1  0.50000000  0.00000000  0.00000000  1
  Na  Na1  1  0.50000000  0.50000000  0.50000000  1
  Na  Na2  1  0.00000000  0.00000000  0.00000000  1
  Na  Na3  1  0.50000000  0.50000000  0.00000000  1
  V  V4  1  0.50000000  0.00000000  0.50000000  1
  V  V5  1  0.00000000  0.50000000  0.50000000  1
  Ni  Ni6  1  0.00000000  0.00000000  0.50000000  1
  Ni  Ni7  1  0.00000000  0.50000000  0.00000000  1
  F  F8  1  0.10049200  0.25000000  0.85049200  1
  F  F9  1  0.89950800  0.75000000  0.14950800  1
  F  F10  1  0.67725000  0.40829600  0.26895300  1
  F  F11  1  0.32275000  0.59170400  0.73104700  1
  F  F12  1  0.63934300  0.90829600  0.73104700  1
  F  F13  1  0.36065700  0.09170400  0.26895300  1
  F  F14  1  0.94635500  0.18191100  0.36195300  1
  F  F15  1  0.05364500  0.41559800  0.23555600  1
  F  F16  1  0.31995800  0.68191100  0.23555600  1
  F  F17  1  0.68004200  0.91559800  0.36195300  1
  F  F18  1  0.05364500  0.81808900  0.63804700  1
  F  F19  1  0.94635500  0.58440200  0.76444400  1
  F  F20  1  0.68004200  0.31808900  0.76444400  1
  F  F21  1  0.31995800  0.08440200  0.63804700  1
