# generated using pymatgen
data_SmCdPd
_symmetry_space_group_name_H-M   'P 1'
_cell_length_a   7.73780191
_cell_length_b   7.73780191
_cell_length_c   3.96614300
_cell_angle_alpha   90.00000000
_cell_angle_beta   90.00000000
_cell_angle_gamma   119.99999925
_symmetry_Int_Tables_number   1
_chemical_formula_structural   SmCdPd
_chemical_formula_sum   'Sm3 Cd3 Pd3'
_cell_volume   205.65260679
_cell_formula_units_Z   3
loop_
 _symmetry_equiv_pos_site_id
 _symmetry_equiv_pos_as_xyz
  1  'x, y, z'
loop_
 _atom_site_type_symbol
 _atom_site_label
 _atom_site_symmetry_multiplicity
 _atom_site_fract_x
 _atom_site_fract_y
 _atom_site_fract_z
 _atom_site_occupancy
  Sm  Sm0  1  0.40560400  0.40560400  0.50000000  1
  Sm  Sm1  1  0.59439600  0.00000000  0.50000000  1
  Sm  Sm2  1  0.00000000  0.59439600  0.50000000  1
  Cd  Cd3  1  0.74526600  0.74526600  0.00000000  1
  Cd  Cd4  1  0.25473400  0.00000000  0.00000000  1
  Cd  Cd5  1  0.00000000  0.25473400  0.00000000  1
  Pd  Pd6  1  0.66666700  0.33333300  0.00000000  1
  Pd  Pd7  1  0.33333300  0.66666700  0.00000000  1
  Pd  Pd8  1  0.00000000  0.00000000  0.50000000  1
