# generated using pymatgen
data_ZrNbB4
_symmetry_space_group_name_H-M   'P 1'
_cell_length_a   3.14845387
_cell_length_b   3.14845387
_cell_length_c   6.87379500
_cell_angle_alpha   90.00000000
_cell_angle_beta   90.00000000
_cell_angle_gamma   119.99999733
_symmetry_Int_Tables_number   1
_chemical_formula_structural   ZrNbB4
_chemical_formula_sum   'Zr1 Nb1 B4'
_cell_volume   59.00949380
_cell_formula_units_Z   1
loop_
 _symmetry_equiv_pos_site_id
 _symmetry_equiv_pos_as_xyz
  1  'x, y, z'
loop_
 _atom_site_type_symbol
 _atom_site_label
 _atom_site_symmetry_multiplicity
 _atom_site_fract_x
 _atom_site_fract_y
 _atom_site_fract_z
 _atom_site_occupancy
  Zr  Zr0  1  0.00000000  0.00000000  0.50000000  1
  Nb  Nb1  1  0.00000000  0.00000000  0.00000000  1
  B  B2  1  0.66666700  0.33333300  0.75776800  1
  B  B3  1  0.66666700  0.33333300  0.24223200  1
  B  B4  1  0.33333300  0.66666700  0.75776800  1
  B  B5  1  0.33333300  0.66666700  0.24223200  1
