# generated using pymatgen
data_KCr(SO4)2
_symmetry_space_group_name_H-M   'P 1'
_cell_length_a   4.85876834
_cell_length_b   17.13624559
_cell_length_c   8.41629711
_cell_angle_alpha   75.78175356
_cell_angle_beta   90.00805729
_cell_angle_gamma   98.15038392
_symmetry_Int_Tables_number   1
_chemical_formula_structural   KCr(SO4)2
_chemical_formula_sum   'K4 Cr4 S8 O32'
_cell_volume   671.98326781
_cell_formula_units_Z   4
loop_
 _symmetry_equiv_pos_site_id
 _symmetry_equiv_pos_as_xyz
  1  'x, y, z'
loop_
 _atom_site_type_symbol
 _atom_site_label
 _atom_site_symmetry_multiplicity
 _atom_site_fract_x
 _atom_site_fract_y
 _atom_site_fract_z
 _atom_site_occupancy
  K  K0  1  0.49998500  0.00003400  0.49998500  1
  K  K1  1  0.99999000  0.99996600  0.00002200  1
  K  K2  1  0.75000400  0.50000600  0.25001000  1
  K  K3  1  0.24997200  0.49999300  0.75001100  1
  Cr  Cr4  1  0.87529400  0.75005500  0.12491200  1
  Cr  Cr5  1  0.62494700  0.25000400  0.37494600  1
  Cr  Cr6  1  0.37510900  0.75000100  0.62497900  1
  Cr  Cr7  1  0.12500900  0.25004800  0.87498600  1
  S  S8  1  0.17728100  0.35466000  0.15601600  1
  S  S9  1  0.67727700  0.35466500  0.65600400  1
  S  S10  1  0.82264500  0.64532600  0.84400400  1
  S  S11  1  0.32268400  0.64533700  0.34398100  1
  S  S12  1  0.42734300  0.85466300  0.90599400  1
  S  S13  1  0.92732400  0.85466200  0.40600900  1
  S  S14  1  0.57271000  0.14533500  0.09400200  1
  S  S15  1  0.07270300  0.14533600  0.59400800  1
  O  O16  1  0.22174300  0.44353400  0.11155100  1
  O  O17  1  0.72173600  0.44353800  0.61156400  1
  O  O18  1  0.77824100  0.55645100  0.88844800  1
  O  O19  1  0.27824100  0.55645800  0.38845400  1
  O  O20  1  0.47173100  0.94353500  0.86156600  1
  O  O21  1  0.97174600  0.94353900  0.36154800  1
  O  O22  1  0.52823900  0.05645500  0.13846300  1
  O  O23  1  0.02824000  0.05645700  0.63844300  1
  O  O24  1  0.01358800  0.67578100  0.69493700  1
  O  O25  1  0.51363700  0.67580200  0.19492600  1
  O  O26  1  0.95067000  0.67575800  0.98360000  1
  O  O27  1  0.45068200  0.67576500  0.48360700  1
  O  O28  1  0.33780900  0.32419200  0.30506700  1
  O  O29  1  0.83780300  0.32420500  0.80506100  1
  O  O30  1  0.54926000  0.67577400  0.80777800  1
  O  O31  1  0.04927300  0.67578900  0.30775300  1
  O  O32  1  0.27491800  0.32422800  0.01643400  1
  O  O33  1  0.77491100  0.32423200  0.51643700  1
  O  O34  1  0.87344900  0.32421100  0.19224200  1
  O  O35  1  0.37345200  0.32421900  0.69222400  1
  O  O36  1  0.70069800  0.82421300  0.94223900  1
  O  O37  1  0.20070900  0.82420900  0.44223800  1
  O  O38  1  0.23640500  0.82420900  0.05507400  1
  O  O39  1  0.73636600  0.82420400  0.55507100  1
  O  O40  1  0.87654500  0.17578100  0.05777100  1
  O  O41  1  0.37653400  0.17578000  0.55776500  1
  O  O42  1  0.29929400  0.82422800  0.76641500  1
  O  O43  1  0.79931000  0.82423000  0.26639800  1
  O  O44  1  0.41216000  0.17579700  0.94494900  1
  O  O45  1  0.91217000  0.17579800  0.44494200  1
  O  O46  1  0.47508200  0.17576700  0.23359200  1
  O  O47  1  0.97508300  0.17577100  0.73357600  1
