# generated using pymatgen
data_Li2CrO4
_symmetry_space_group_name_H-M   'P 1'
_cell_length_a   8.78930057
_cell_length_b   8.78930057
_cell_length_c   8.78930099
_cell_angle_alpha   107.73749758
_cell_angle_beta   107.73749758
_cell_angle_gamma   107.73749139
_symmetry_Int_Tables_number   1
_chemical_formula_structural   Li2CrO4
_chemical_formula_sum   'Li12 Cr6 O24'
_cell_volume   553.69892668
_cell_formula_units_Z   6
loop_
 _symmetry_equiv_pos_site_id
 _symmetry_equiv_pos_as_xyz
  1  'x, y, z'
loop_
 _atom_site_type_symbol
 _atom_site_label
 _atom_site_symmetry_multiplicity
 _atom_site_fract_x
 _atom_site_fract_y
 _atom_site_fract_z
 _atom_site_occupancy
  Li  Li0  1  0.39588300  0.22357900  0.62260500  1
  Li  Li1  1  0.62260500  0.39588300  0.22357900  1
  Li  Li2  1  0.22357900  0.62260500  0.39588300  1
  Li  Li3  1  0.60411700  0.77642100  0.37739500  1
  Li  Li4  1  0.37739500  0.60411700  0.77642100  1
  Li  Li5  1  0.77642100  0.37739500  0.60411700  1
  Li  Li6  1  0.06097900  0.88770900  0.29480000  1
  Li  Li7  1  0.29480000  0.06097900  0.88770900  1
  Li  Li8  1  0.88770900  0.29480000  0.06097900  1
  Li  Li9  1  0.93902100  0.11229100  0.70520000  1
  Li  Li10  1  0.70520000  0.93902100  0.11229100  1
  Li  Li11  1  0.11229100  0.70520000  0.93902100  1
  Cr  Cr12  1  0.73433100  0.55233200  0.95946700  1
  Cr  Cr13  1  0.95946700  0.73433100  0.55233200  1
  Cr  Cr14  1  0.55233200  0.95946700  0.73433100  1
  Cr  Cr15  1  0.26566900  0.44766800  0.04053300  1
  Cr  Cr16  1  0.04053300  0.26566900  0.44766800  1
  Cr  Cr17  1  0.44766800  0.04053300  0.26566900  1
  O  O18  1  0.86396800  0.53583500  0.85706400  1
  O  O19  1  0.85706400  0.86396800  0.53583500  1
  O  O20  1  0.53583500  0.85706400  0.86396800  1
  O  O21  1  0.13603200  0.46416500  0.14293600  1
  O  O22  1  0.14293600  0.13603200  0.46416500  1
  O  O23  1  0.46416500  0.14293600  0.13603200  1
  O  O24  1  0.74142000  0.42946500  0.07075400  1
  O  O25  1  0.07075400  0.74142000  0.42946500  1
  O  O26  1  0.42946500  0.07075400  0.74142000  1
  O  O27  1  0.25858000  0.57053500  0.92924600  1
  O  O28  1  0.92924600  0.25858000  0.57053500  1
  O  O29  1  0.57053500  0.92924600  0.25858000  1
  O  O30  1  0.52703800  0.47548500  0.80726500  1
  O  O31  1  0.80726500  0.52703800  0.47548500  1
  O  O32  1  0.47548500  0.80726500  0.52703800  1
  O  O33  1  0.47296200  0.52451500  0.19273500  1
  O  O34  1  0.19273500  0.47296200  0.52451500  1
  O  O35  1  0.52451500  0.19273500  0.47296200  1
  O  O36  1  0.80999700  0.76460400  0.10085700  1
  O  O37  1  0.10085700  0.80999700  0.76460500  1
  O  O38  1  0.76460400  0.10085700  0.80999700  1
  O  O39  1  0.19000300  0.23539500  0.89914300  1
  O  O40  1  0.89914300  0.19000300  0.23539600  1
  O  O41  1  0.23539600  0.89914300  0.19000300  1
