# generated using pymatgen
data_Ga7Pt3
_symmetry_space_group_name_H-M   'P 1'
_cell_length_a   7.68749447
_cell_length_b   7.68749447
_cell_length_c   7.68749447
_cell_angle_alpha   109.47122063
_cell_angle_beta   109.47122063
_cell_angle_gamma   109.47122063
_symmetry_Int_Tables_number   1
_chemical_formula_structural   Ga7Pt3
_chemical_formula_sum   'Ga14 Pt6'
_cell_volume   349.72973426
_cell_formula_units_Z   2
loop_
 _symmetry_equiv_pos_site_id
 _symmetry_equiv_pos_as_xyz
  1  'x, y, z'
loop_
 _atom_site_type_symbol
 _atom_site_label
 _atom_site_symmetry_multiplicity
 _atom_site_fract_x
 _atom_site_fract_y
 _atom_site_fract_z
 _atom_site_occupancy
  Ga  Ga0  1  0.75000000  0.25000000  0.50000000  1
  Ga  Ga1  1  0.75000000  0.50000000  0.25000000  1
  Ga  Ga2  1  0.50000000  0.25000000  0.75000000  1
  Ga  Ga3  1  0.25000000  0.50000000  0.75000000  1
  Ga  Ga4  1  0.25000000  0.75000000  0.50000000  1
  Ga  Ga5  1  0.50000000  0.75000000  0.25000000  1
  Ga  Ga6  1  0.00000000  0.00000000  0.32850800  1
  Ga  Ga7  1  0.00000000  0.32850800  0.00000000  1
  Ga  Ga8  1  0.32850800  0.00000000  0.00000000  1
  Ga  Ga9  1  0.67149200  0.67149200  0.67149200  1
  Ga  Ga10  1  0.00000000  0.00000000  0.67149200  1
  Ga  Ga11  1  0.00000000  0.67149200  0.00000000  1
  Ga  Ga12  1  0.67149200  0.00000000  0.00000000  1
  Ga  Ga13  1  0.32850800  0.32850800  0.32850800  1
  Pt  Pt14  1  0.65936400  0.65936400  0.00000000  1
  Pt  Pt15  1  0.34063600  0.00000000  0.34063600  1
  Pt  Pt16  1  0.00000000  0.34063600  0.34063600  1
  Pt  Pt17  1  0.34063600  0.34063600  0.00000000  1
  Pt  Pt18  1  0.65936400  0.00000000  0.65936400  1
  Pt  Pt19  1  0.00000000  0.65936400  0.65936400  1
