# generated using pymatgen
data_ErIn2Pd
_symmetry_space_group_name_H-M   'P 1'
_cell_length_a   10.82340101
_cell_length_b   10.82340101
_cell_length_c   10.82340101
_cell_angle_alpha   100.35089056
_cell_angle_beta   100.35089056
_cell_angle_gamma   129.84015042
_symmetry_Int_Tables_number   1
_chemical_formula_structural   ErIn2Pd
_chemical_formula_sum   'Er10 In20 Pd10'
_cell_volume   881.76269896
_cell_formula_units_Z   10
loop_
 _symmetry_equiv_pos_site_id
 _symmetry_equiv_pos_as_xyz
  1  'x, y, z'
loop_
 _atom_site_type_symbol
 _atom_site_label
 _atom_site_symmetry_multiplicity
 _atom_site_fract_x
 _atom_site_fract_y
 _atom_site_fract_z
 _atom_site_occupancy
  Er  Er0  1  0.89193500  0.61118600  0.28074900  1
  Er  Er1  1  0.33043800  0.61118600  0.71925100  1
  Er  Er2  1  0.61118600  0.33043800  0.71925100  1
  Er  Er3  1  0.61118600  0.89193500  0.28074900  1
  Er  Er4  1  0.92128200  0.32388700  0.00000000  1
  Er  Er5  1  0.32388700  0.92128200  0.00000000  1
  Er  Er6  1  0.32388700  0.32388700  0.40260500  1
  Er  Er7  1  0.92128200  0.92128200  0.59739500  1
  Er  Er8  1  0.54187300  0.54187300  0.00000000  1
  Er  Er9  1  0.00518800  0.00518800  0.00000000  1
  In  In10  1  0.01620800  0.52349300  0.79162900  1
  In  In11  1  0.73186400  0.22457900  0.20837100  1
  In  In12  1  0.52349300  0.73186400  0.50728500  1
  In  In13  1  0.01620800  0.22457900  0.49271500  1
  In  In14  1  0.22457900  0.01620800  0.49271500  1
  In  In15  1  0.73186400  0.52349300  0.50728500  1
  In  In16  1  0.52349300  0.01620800  0.79162900  1
  In  In17  1  0.22457900  0.73186400  0.20837100  1
  In  In18  1  0.51729700  0.13458100  0.38271600  1
  In  In19  1  0.75186500  0.13458100  0.61728400  1
  In  In20  1  0.13458100  0.75186500  0.61728400  1
  In  In21  1  0.13458100  0.51729700  0.38271600  1
  In  In22  1  0.90632600  0.64226700  0.00000000  1
  In  In23  1  0.64226700  0.90632600  0.00000000  1
  In  In24  1  0.64226700  0.64226700  0.73594100  1
  In  In25  1  0.90632600  0.90632600  0.26405900  1
  In  In26  1  0.44164400  0.28049000  0.16115400  1
  In  In27  1  0.11933500  0.28049000  0.83884600  1
  In  In28  1  0.28049000  0.11933500  0.83884600  1
  In  In29  1  0.28049000  0.44164400  0.16115400  1
  Pd  Pd30  1  0.88474700  0.38474700  0.50000000  1
  Pd  Pd31  1  0.38474700  0.88474700  0.50000000  1
  Pd  Pd32  1  0.30649000  0.62812400  0.00000000  1
  Pd  Pd33  1  0.62812400  0.30649000  0.00000000  1
  Pd  Pd34  1  0.62812400  0.62812400  0.32163400  1
  Pd  Pd35  1  0.30649000  0.30649000  0.67836600  1
  Pd  Pd36  1  0.18628700  0.97406900  0.21221900  1
  Pd  Pd37  1  0.76185000  0.97406900  0.78778100  1
  Pd  Pd38  1  0.97406900  0.76185000  0.78778100  1
  Pd  Pd39  1  0.97406900  0.18628700  0.21221900  1
