# generated using pymatgen
data_Y2BeAlBO7
_symmetry_space_group_name_H-M   'P 1'
_cell_length_a   7.37884700
_cell_length_b   4.75490100
_cell_length_c   7.38607044
_cell_angle_alpha   89.73932363
_cell_angle_beta   90.00000000
_cell_angle_gamma   90.00000000
_symmetry_Int_Tables_number   1
_chemical_formula_structural   Y2BeAlBO7
_chemical_formula_sum   'Y4 Be2 Al2 B2 O14'
_cell_volume   259.14267351
_cell_formula_units_Z   2
loop_
 _symmetry_equiv_pos_site_id
 _symmetry_equiv_pos_as_xyz
  1  'x, y, z'
loop_
 _atom_site_type_symbol
 _atom_site_label
 _atom_site_symmetry_multiplicity
 _atom_site_fract_x
 _atom_site_fract_y
 _atom_site_fract_z
 _atom_site_occupancy
  Y  Y0  1  0.66238500  0.50843200  0.57752700  1
  Y  Y1  1  0.16238500  0.49156800  0.42247300  1
  Y  Y2  1  0.33516500  0.50618800  0.90428600  1
  Y  Y3  1  0.83516500  0.49381200  0.09571400  1
  Be  Be4  1  0.86453800  0.94503000  0.38578400  1
  Be  Be5  1  0.36453800  0.05497000  0.61421600  1
  Al  Al6  1  0.49803600  0.00034800  0.24767100  1
  Al  Al7  1  0.99803600  0.99965200  0.75232900  1
  B  B8  1  0.13618900  0.93565700  0.11378600  1
  B  B9  1  0.63618900  0.06434300  0.88621400  1
  O  O10  1  0.58149800  0.20736600  0.06438100  1
  O  O11  1  0.08149800  0.79263400  0.93561900  1
  O  O12  1  0.42289800  0.21954800  0.42177200  1
  O  O13  1  0.92289800  0.78045200  0.57822800  1
  O  O14  1  0.67292500  0.77825900  0.32084100  1
  O  O15  1  0.17292500  0.22174100  0.67915900  1
  O  O16  1  0.31580800  0.79539100  0.16240700  1
  O  O17  1  0.81580800  0.20460900  0.83759300  1
  O  O18  1  0.86004900  0.27897200  0.38622700  1
  O  O19  1  0.36004900  0.72102800  0.61377300  1
  O  O20  1  0.14152500  0.24148800  0.10478200  1
  O  O21  1  0.64152500  0.75851200  0.89521800  1
  O  O22  1  0.50898400  0.18028600  0.75506900  1
  O  O23  1  0.00898400  0.81971400  0.24493100  1
