# generated using pymatgen
data_Cs2P3
_symmetry_space_group_name_H-M   'P 1'
_cell_length_a   9.19851102
_cell_length_b   9.03955649
_cell_length_c   6.98115880
_cell_angle_alpha   68.70464350
_cell_angle_beta   66.29394354
_cell_angle_gamma   45.00141297
_symmetry_Int_Tables_number   1
_chemical_formula_structural   Cs2P3
_chemical_formula_sum   'Cs4 P6'
_cell_volume   373.03949639
_cell_formula_units_Z   2
loop_
 _symmetry_equiv_pos_site_id
 _symmetry_equiv_pos_as_xyz
  1  'x, y, z'
loop_
 _atom_site_type_symbol
 _atom_site_label
 _atom_site_symmetry_multiplicity
 _atom_site_fract_x
 _atom_site_fract_y
 _atom_site_fract_z
 _atom_site_occupancy
  Cs  Cs0  1  0.75000000  0.75000000  0.75000000  1
  Cs  Cs1  1  0.25000000  0.25000000  0.25000000  1
  Cs  Cs2  1  0.28177200  0.71822800  0.28177200  1
  Cs  Cs3  1  0.71822800  0.28177200  0.71822800  1
  P  P4  1  0.12509000  0.73356600  0.87491000  1
  P  P5  1  0.26643400  0.87491000  0.73356600  1
  P  P6  1  0.87491000  0.26643400  0.12509000  1
  P  P7  1  0.73356600  0.12509000  0.26643400  1
  P  P8  1  0.85794100  0.85794100  0.14205900  1
  P  P9  1  0.14205900  0.14205900  0.85794100  1
