# generated using pymatgen
data_CsSbS(O2F)2
_symmetry_space_group_name_H-M   'P 1'
_cell_length_a   5.46722900
_cell_length_b   10.13725000
_cell_length_c   11.69428300
_cell_angle_alpha   90.00000000
_cell_angle_beta   90.00000000
_cell_angle_gamma   90.00000000
_symmetry_Int_Tables_number   1
_chemical_formula_structural   CsSbS(O2F)2
_chemical_formula_sum   'Cs4 Sb4 S4 O16 F8'
_cell_volume   648.12835462
_cell_formula_units_Z   4
loop_
 _symmetry_equiv_pos_site_id
 _symmetry_equiv_pos_as_xyz
  1  'x, y, z'
loop_
 _atom_site_type_symbol
 _atom_site_label
 _atom_site_symmetry_multiplicity
 _atom_site_fract_x
 _atom_site_fract_y
 _atom_site_fract_z
 _atom_site_occupancy
  Cs  Cs0  1  0.61420100  0.01431000  0.16084400  1
  Cs  Cs1  1  0.11420100  0.98569000  0.83915600  1
  Cs  Cs2  1  0.61420100  0.51431000  0.33915600  1
  Cs  Cs3  1  0.11420100  0.48569000  0.66084400  1
  Sb  Sb4  1  0.10419900  0.32715000  0.08059800  1
  Sb  Sb5  1  0.60419900  0.67285000  0.91940200  1
  Sb  Sb6  1  0.10419900  0.82715000  0.41940200  1
  Sb  Sb7  1  0.60419900  0.17285000  0.58059800  1
  S  S8  1  0.16390900  0.20292600  0.36575000  1
  S  S9  1  0.66390900  0.79707400  0.63425000  1
  S  S10  1  0.16390900  0.70292600  0.13425000  1
  S  S11  1  0.66390900  0.29707400  0.86575000  1
  O  O12  1  0.01182000  0.08739000  0.33824700  1
  O  O13  1  0.51182000  0.91261000  0.66175300  1
  O  O14  1  0.01182000  0.58739000  0.16175300  1
  O  O15  1  0.51182000  0.41261000  0.83824700  1
  O  O16  1  0.39967700  0.15093300  0.42201800  1
  O  O17  1  0.89967700  0.84906700  0.57798200  1
  O  O18  1  0.39967700  0.65093300  0.07798200  1
  O  O19  1  0.89967700  0.34906700  0.92201800  1
  O  O20  1  0.25524200  0.26949100  0.25745400  1
  O  O21  1  0.75524200  0.73050900  0.74254600  1
  O  O22  1  0.25524200  0.76949100  0.24254600  1
  O  O23  1  0.75524200  0.23050900  0.75745400  1
  O  O24  1  0.03992300  0.29858200  0.43930500  1
  O  O25  1  0.53992300  0.70141800  0.56069500  1
  O  O26  1  0.03992300  0.79858200  0.06069500  1
  O  O27  1  0.53992300  0.20141800  0.93930500  1
  F  F28  1  0.07956100  0.13367200  0.06175500  1
  F  F29  1  0.57956100  0.86632800  0.93824500  1
  F  F30  1  0.07956100  0.63367200  0.43824500  1
  F  F31  1  0.57956100  0.36632800  0.56175500  1
  F  F32  1  0.28366600  0.17828900  0.65506200  1
  F  F33  1  0.78366600  0.82171100  0.34493800  1
  F  F34  1  0.28366600  0.67828900  0.84493800  1
  F  F35  1  0.78366600  0.32171100  0.15506200  1
