# generated using pymatgen
data_GdCu2
_symmetry_space_group_name_H-M   'P 1'
_cell_length_a   5.54734347
_cell_length_b   5.54734347
_cell_length_c   5.54734347
_cell_angle_alpha   133.83015315
_cell_angle_beta   101.61353072
_cell_angle_gamma   96.09445453
_symmetry_Int_Tables_number   1
_chemical_formula_structural   GdCu2
_chemical_formula_sum   'Gd2 Cu4'
_cell_volume   113.10813993
_cell_formula_units_Z   2
loop_
 _symmetry_equiv_pos_site_id
 _symmetry_equiv_pos_as_xyz
  1  'x, y, z'
loop_
 _atom_site_type_symbol
 _atom_site_label
 _atom_site_symmetry_multiplicity
 _atom_site_fract_x
 _atom_site_fract_y
 _atom_site_fract_z
 _atom_site_occupancy
  Gd  Gd0  1  0.71217900  0.46217900  0.25000000  1
  Gd  Gd1  1  0.28782100  0.53782100  0.75000000  1
  Cu  Cu2  1  0.88578700  0.83500100  0.05078700  1
  Cu  Cu3  1  0.11421300  0.16499900  0.94921300  1
  Cu  Cu4  1  0.71578600  0.16499900  0.55078700  1
  Cu  Cu5  1  0.28421400  0.83500100  0.44921300  1
