# generated using pymatgen
data_Nd2(Al3Ir)3
_symmetry_space_group_name_H-M   'P 1'
_cell_length_a   7.62403044
_cell_length_b   7.62403044
_cell_length_c   9.60722200
_cell_angle_alpha   90.00000000
_cell_angle_beta   90.00000000
_cell_angle_gamma   119.42637126
_symmetry_Int_Tables_number   1
_chemical_formula_structural   Nd2(Al3Ir)3
_chemical_formula_sum   'Nd4 Al18 Ir6'
_cell_volume   486.38382982
_cell_formula_units_Z   2
loop_
 _symmetry_equiv_pos_site_id
 _symmetry_equiv_pos_as_xyz
  1  'x, y, z'
loop_
 _atom_site_type_symbol
 _atom_site_label
 _atom_site_symmetry_multiplicity
 _atom_site_fract_x
 _atom_site_fract_y
 _atom_site_fract_z
 _atom_site_occupancy
  Nd  Nd0  1  0.99514200  0.66930000  0.25000000  1
  Nd  Nd1  1  0.00485800  0.33070000  0.75000000  1
  Nd  Nd2  1  0.66930000  0.99514200  0.25000000  1
  Nd  Nd3  1  0.33070000  0.00485800  0.75000000  1
  Al  Al4  1  0.12894400  0.12894400  0.25000000  1
  Al  Al5  1  0.87105600  0.87105600  0.75000000  1
  Al  Al6  1  0.00314900  0.33486000  0.07214500  1
  Al  Al7  1  0.99685100  0.66514000  0.92785500  1
  Al  Al8  1  0.99685100  0.66514000  0.57214500  1
  Al  Al9  1  0.33486000  0.00314900  0.42785500  1
  Al  Al10  1  0.00314900  0.33486000  0.42785500  1
  Al  Al11  1  0.66514000  0.99685100  0.57214500  1
  Al  Al12  1  0.66514000  0.99685100  0.92785500  1
  Al  Al13  1  0.33486000  0.00314900  0.07214500  1
  Al  Al14  1  0.33458900  0.33458900  0.55031200  1
  Al  Al15  1  0.66541100  0.66541100  0.44968800  1
  Al  Al16  1  0.66541100  0.66541100  0.05031200  1
  Al  Al17  1  0.33458900  0.33458900  0.94968800  1
  Al  Al18  1  0.33782300  0.54510600  0.25000000  1
  Al  Al19  1  0.66217700  0.45489400  0.75000000  1
  Al  Al20  1  0.54510600  0.33782300  0.25000000  1
  Al  Al21  1  0.45489400  0.66217700  0.75000000  1
  Ir  Ir22  1  0.67097700  0.32902300  0.00000000  1
  Ir  Ir23  1  0.32902300  0.67097700  0.00000000  1
  Ir  Ir24  1  0.32902300  0.67097700  0.50000000  1
  Ir  Ir25  1  0.67097700  0.32902300  0.50000000  1
  Ir  Ir26  1  0.00000000  0.00000000  0.00000000  1
  Ir  Ir27  1  0.00000000  0.00000000  0.50000000  1
