# generated using pymatgen
data_KHg6
_symmetry_space_group_name_H-M   'P 1'
_cell_length_a   5.71997300
_cell_length_b   10.95115400
_cell_length_c   14.06264500
_cell_angle_alpha   90.00000000
_cell_angle_beta   90.00000000
_cell_angle_gamma   90.00000000
_symmetry_Int_Tables_number   1
_chemical_formula_structural   KHg6
_chemical_formula_sum   'K4 Hg24'
_cell_volume   880.88837470
_cell_formula_units_Z   4
loop_
 _symmetry_equiv_pos_site_id
 _symmetry_equiv_pos_as_xyz
  1  'x, y, z'
loop_
 _atom_site_type_symbol
 _atom_site_label
 _atom_site_symmetry_multiplicity
 _atom_site_fract_x
 _atom_site_fract_y
 _atom_site_fract_z
 _atom_site_occupancy
  K  K0  1  0.25000000  0.12936500  0.81832500  1
  K  K1  1  0.25000000  0.37063500  0.31832500  1
  K  K2  1  0.75000000  0.87063500  0.18167500  1
  K  K3  1  0.75000000  0.62936500  0.68167500  1
  Hg  Hg4  1  0.25000000  0.14508000  0.54417200  1
  Hg  Hg5  1  0.25000000  0.35492000  0.04417200  1
  Hg  Hg6  1  0.75000000  0.85492000  0.45582800  1
  Hg  Hg7  1  0.75000000  0.64508000  0.95582800  1
  Hg  Hg8  1  0.25000000  0.86996900  0.59746600  1
  Hg  Hg9  1  0.25000000  0.63003100  0.09746600  1
  Hg  Hg10  1  0.75000000  0.13003100  0.40253400  1
  Hg  Hg11  1  0.75000000  0.36996900  0.90253400  1
  Hg  Hg12  1  0.25000000  0.40254800  0.63573900  1
  Hg  Hg13  1  0.25000000  0.09745200  0.13573900  1
  Hg  Hg14  1  0.75000000  0.59745200  0.36426100  1
  Hg  Hg15  1  0.75000000  0.90254800  0.86426100  1
  Hg  Hg16  1  0.25000000  0.77587600  0.80540300  1
  Hg  Hg17  1  0.25000000  0.72412400  0.30540300  1
  Hg  Hg18  1  0.75000000  0.22412400  0.19459700  1
  Hg  Hg19  1  0.75000000  0.27587600  0.69459700  1
  Hg  Hg20  1  0.25000000  0.50222100  0.84830100  1
  Hg  Hg21  1  0.25000000  0.99777900  0.34830100  1
  Hg  Hg22  1  0.75000000  0.49777900  0.15169900  1
  Hg  Hg23  1  0.75000000  0.00222100  0.65169900  1
  Hg  Hg24  1  0.25000000  0.87677200  0.00717700  1
  Hg  Hg25  1  0.25000000  0.62322800  0.50717700  1
  Hg  Hg26  1  0.75000000  0.12322800  0.99282300  1
  Hg  Hg27  1  0.75000000  0.37677200  0.49282300  1
