# generated using pymatgen
data_ErB4Os
_symmetry_space_group_name_H-M   'P 1'
_cell_length_a   3.55787600
_cell_length_b   5.95018900
_cell_length_c   11.50696600
_cell_angle_alpha   90.00000000
_cell_angle_beta   90.00000000
_cell_angle_gamma   90.00000000
_symmetry_Int_Tables_number   1
_chemical_formula_structural   ErB4Os
_chemical_formula_sum   'Er4 B16 Os4'
_cell_volume   243.60286880
_cell_formula_units_Z   4
loop_
 _symmetry_equiv_pos_site_id
 _symmetry_equiv_pos_as_xyz
  1  'x, y, z'
loop_
 _atom_site_type_symbol
 _atom_site_label
 _atom_site_symmetry_multiplicity
 _atom_site_fract_x
 _atom_site_fract_y
 _atom_site_fract_z
 _atom_site_occupancy
  Er  Er0  1  0.00000000  0.62797800  0.34969500  1
  Er  Er1  1  0.00000000  0.37202200  0.65030500  1
  Er  Er2  1  0.00000000  0.12797800  0.15030500  1
  Er  Er3  1  0.00000000  0.87202200  0.84969500  1
  B  B4  1  0.50000000  0.78957000  0.18618200  1
  B  B5  1  0.50000000  0.21043000  0.81381800  1
  B  B6  1  0.50000000  0.28957000  0.31381800  1
  B  B7  1  0.50000000  0.71043000  0.68618200  1
  B  B8  1  0.50000000  0.86434300  0.02990900  1
  B  B9  1  0.50000000  0.13565700  0.97009100  1
  B  B10  1  0.50000000  0.36434300  0.47009100  1
  B  B11  1  0.50000000  0.63565700  0.52990900  1
  B  B12  1  0.50000000  0.88693500  0.45311000  1
  B  B13  1  0.50000000  0.11306500  0.54689000  1
  B  B14  1  0.50000000  0.38693500  0.04689000  1
  B  B15  1  0.50000000  0.61306500  0.95311000  1
  B  B16  1  0.50000000  0.97454400  0.30829100  1
  B  B17  1  0.50000000  0.02545600  0.69170900  1
  B  B18  1  0.50000000  0.47454400  0.19170900  1
  B  B19  1  0.50000000  0.52545600  0.80829100  1
  Os  Os20  1  0.00000000  0.64164300  0.09362800  1
  Os  Os21  1  0.00000000  0.35835700  0.90637200  1
  Os  Os22  1  0.00000000  0.14164300  0.40637200  1
  Os  Os23  1  0.00000000  0.85835700  0.59362800  1
