# generated using pymatgen
data_Nd2Pd2O5
_symmetry_space_group_name_H-M   'P 1'
_cell_length_a   6.65342700
_cell_length_b   6.65342700
_cell_length_c   5.62698300
_cell_angle_alpha   90.00000000
_cell_angle_beta   90.00000000
_cell_angle_gamma   90.00000000
_symmetry_Int_Tables_number   1
_chemical_formula_structural   Nd2Pd2O5
_chemical_formula_sum   'Nd4 Pd4 O10'
_cell_volume   249.09579462
_cell_formula_units_Z   2
loop_
 _symmetry_equiv_pos_site_id
 _symmetry_equiv_pos_as_xyz
  1  'x, y, z'
loop_
 _atom_site_type_symbol
 _atom_site_label
 _atom_site_symmetry_multiplicity
 _atom_site_fract_x
 _atom_site_fract_y
 _atom_site_fract_z
 _atom_site_occupancy
  Nd  Nd0  1  0.10748700  0.25951200  0.00000000  1
  Nd  Nd1  1  0.89251300  0.74048800  0.00000000  1
  Nd  Nd2  1  0.25951200  0.89251300  0.50000000  1
  Nd  Nd3  1  0.74048800  0.10748700  0.50000000  1
  Pd  Pd4  1  0.59543600  0.30509900  0.00000000  1
  Pd  Pd5  1  0.40456400  0.69490100  0.00000000  1
  Pd  Pd6  1  0.30509900  0.40456400  0.50000000  1
  Pd  Pd7  1  0.69490100  0.59543600  0.50000000  1
  O  O8  1  0.40125500  0.19478500  0.25855600  1
  O  O9  1  0.59874500  0.80521500  0.74144400  1
  O  O10  1  0.59874500  0.80521500  0.25855600  1
  O  O11  1  0.19478500  0.59874500  0.75855600  1
  O  O12  1  0.40125500  0.19478500  0.74144400  1
  O  O13  1  0.80521500  0.40125500  0.24144400  1
  O  O14  1  0.80521500  0.40125500  0.75855600  1
  O  O15  1  0.19478500  0.59874500  0.24144400  1
  O  O16  1  0.00000000  0.00000000  0.25000000  1
  O  O17  1  0.00000000  0.00000000  0.75000000  1
