# generated using pymatgen
data_La4As2(S2O)3
_symmetry_space_group_name_H-M   'P 1'
_cell_length_a   11.74071398
_cell_length_b   11.74071398
_cell_length_c   11.74071398
_cell_angle_alpha   150.86017057
_cell_angle_beta   117.65607404
_cell_angle_gamma   70.26945897
_symmetry_Int_Tables_number   1
_chemical_formula_structural   La4As2(S2O)3
_chemical_formula_sum   'La8 As4 S12 O6'
_cell_volume   689.34418430
_cell_formula_units_Z   2
loop_
 _symmetry_equiv_pos_site_id
 _symmetry_equiv_pos_as_xyz
  1  'x, y, z'
loop_
 _atom_site_type_symbol
 _atom_site_label
 _atom_site_symmetry_multiplicity
 _atom_site_fract_x
 _atom_site_fract_y
 _atom_site_fract_z
 _atom_site_occupancy
  La  La0  1  0.17066000  0.77653300  0.39018400  1
  La  La1  1  0.82934000  0.21952400  0.60587200  1
  La  La2  1  0.61365200  0.71952400  0.89018400  1
  La  La3  1  0.38634800  0.27653300  0.10587200  1
  La  La4  1  0.47349500  0.07221100  0.39678300  1
  La  La5  1  0.52650500  0.92328800  0.59871700  1
  La  La6  1  0.32457100  0.42328800  0.89678300  1
  La  La7  1  0.67542900  0.57221100  0.09871700  1
  As  As8  1  0.77094200  0.51150300  0.49211800  1
  As  As9  1  0.22905800  0.72117700  0.74056100  1
  As  As10  1  0.01938500  0.01150300  0.24056100  1
  As  As11  1  0.98061500  0.22117700  0.99211800  1
  S  S12  1  0.64712500  0.28297100  0.37195500  1
  S  S13  1  0.35287500  0.72483000  0.63584600  1
  S  S14  1  0.08898400  0.22483000  0.87195500  1
  S  S15  1  0.91101600  0.78297100  0.13584600  1
  S  S16  1  0.96455300  0.60976200  0.32801300  1
  S  S17  1  0.03544700  0.36346000  0.64520900  1
  S  S18  1  0.71825100  0.86346000  0.82801300  1
  S  S19  1  0.28174900  0.10976200  0.14520900  1
  S  S20  1  0.22224100  0.92608400  0.29968900  1
  S  S21  1  0.77775900  0.07744700  0.70384300  1
  S  S22  1  0.37360400  0.57744700  0.79968900  1
  S  S23  1  0.62639600  0.42608400  0.20384300  1
  O  O24  1  0.34365200  0.09704600  0.75331300  1
  O  O25  1  0.65634800  0.40966100  0.75339400  1
  O  O26  1  0.65626700  0.90966100  0.25331300  1
  O  O27  1  0.34373300  0.59704600  0.25339400  1
  O  O28  1  0.50000000  0.25450100  0.75450100  1
  O  O29  1  0.50000000  0.75450100  0.25450100  1
