# generated using pymatgen
data_Ba3HoIrRuO9
_symmetry_space_group_name_H-M   'P 1'
_cell_length_a   5.94502416
_cell_length_b   5.94502416
_cell_length_c   14.66923600
_cell_angle_alpha   90.00000000
_cell_angle_beta   90.00000000
_cell_angle_gamma   120.00000183
_symmetry_Int_Tables_number   1
_chemical_formula_structural   Ba3HoIrRuO9
_chemical_formula_sum   'Ba6 Ho2 Ir2 Ru2 O18'
_cell_volume   448.99899376
_cell_formula_units_Z   2
loop_
 _symmetry_equiv_pos_site_id
 _symmetry_equiv_pos_as_xyz
  1  'x, y, z'
loop_
 _atom_site_type_symbol
 _atom_site_label
 _atom_site_symmetry_multiplicity
 _atom_site_fract_x
 _atom_site_fract_y
 _atom_site_fract_z
 _atom_site_occupancy
  Ba  Ba0  1  0.00000000  0.00000000  0.75006800  1
  Ba  Ba1  1  0.00000000  0.00000000  0.25006800  1
  Ba  Ba2  1  0.66666700  0.33333300  0.40718800  1
  Ba  Ba3  1  0.33333300  0.66666700  0.59459200  1
  Ba  Ba4  1  0.33333300  0.66666700  0.90718800  1
  Ba  Ba5  1  0.66666700  0.33333300  0.09459200  1
  Ho  Ho6  1  0.00000000  0.00000000  0.50123800  1
  Ho  Ho7  1  0.00000000  0.00000000  0.00123800  1
  Ir  Ir8  1  0.66666700  0.33333300  0.66448500  1
  Ir  Ir9  1  0.33333300  0.66666700  0.16448500  1
  Ru  Ru10  1  0.33333300  0.66666700  0.33688900  1
  Ru  Ru11  1  0.66666700  0.33333300  0.83688900  1
  O  O12  1  0.82428600  0.64857200  0.91181100  1
  O  O13  1  0.82428600  0.17571400  0.91181100  1
  O  O14  1  0.35142800  0.17571400  0.91181100  1
  O  O15  1  0.17543800  0.35087600  0.08587000  1
  O  O16  1  0.17543800  0.82456200  0.08587000  1
  O  O17  1  0.64912400  0.82456200  0.08587000  1
  O  O18  1  0.17571400  0.35142800  0.41181100  1
  O  O19  1  0.17571400  0.82428600  0.41181100  1
  O  O20  1  0.64857200  0.82428600  0.41181100  1
  O  O21  1  0.82456200  0.64912400  0.58587000  1
  O  O22  1  0.82456200  0.17543800  0.58587000  1
  O  O23  1  0.35087600  0.17543800  0.58587000  1
  O  O24  1  0.51014400  0.02028800  0.75084100  1
  O  O25  1  0.51014400  0.48985600  0.75084100  1
  O  O26  1  0.97971200  0.48985600  0.75084100  1
  O  O27  1  0.48985600  0.97971200  0.25084100  1
  O  O28  1  0.48985600  0.51014400  0.25084100  1
  O  O29  1  0.02028800  0.51014400  0.25084100  1
