# generated using pymatgen
data_TbF3
_symmetry_space_group_name_H-M   'P 1'
_cell_length_a   4.44595900
_cell_length_b   6.46480300
_cell_length_c   6.96554200
_cell_angle_alpha   90.00000000
_cell_angle_beta   90.00000000
_cell_angle_gamma   90.00000000
_symmetry_Int_Tables_number   1
_chemical_formula_structural   TbF3
_chemical_formula_sum   'Tb4 F12'
_cell_volume   200.20534315
_cell_formula_units_Z   4
loop_
 _symmetry_equiv_pos_site_id
 _symmetry_equiv_pos_as_xyz
  1  'x, y, z'
loop_
 _atom_site_type_symbol
 _atom_site_label
 _atom_site_symmetry_multiplicity
 _atom_site_fract_x
 _atom_site_fract_y
 _atom_site_fract_z
 _atom_site_occupancy
  Tb  Tb0  1  0.93855900  0.63142200  0.75000000  1
  Tb  Tb1  1  0.43855900  0.86857800  0.25000000  1
  Tb  Tb2  1  0.56144100  0.13142200  0.75000000  1
  Tb  Tb3  1  0.06144100  0.36857800  0.25000000  1
  F  F4  1  0.37808800  0.16426700  0.43682000  1
  F  F5  1  0.87808800  0.33573300  0.56318000  1
  F  F6  1  0.12191200  0.66426700  0.06318000  1
  F  F7  1  0.62191200  0.83573300  0.93682000  1
  F  F8  1  0.58849000  0.52261300  0.25000000  1
  F  F9  1  0.08849000  0.97738700  0.75000000  1
  F  F10  1  0.91151000  0.02261300  0.25000000  1
  F  F11  1  0.41151000  0.47738700  0.75000000  1
  F  F12  1  0.37808800  0.16426700  0.06318000  1
  F  F13  1  0.87808800  0.33573300  0.93682000  1
  F  F14  1  0.12191200  0.66426700  0.43682000  1
  F  F15  1  0.62191200  0.83573300  0.56318000  1
