# generated using pymatgen
data_Si3Ag3(SnP3)2
_symmetry_space_group_name_H-M   'P 1'
_cell_length_a   9.07067040
_cell_length_b   9.07067040
_cell_length_c   9.07067040
_cell_angle_alpha   109.47122063
_cell_angle_beta   109.47122063
_cell_angle_gamma   109.47122063
_symmetry_Int_Tables_number   1
_chemical_formula_structural   Si3Ag3(SnP3)2
_chemical_formula_sum   'Si6 Ag6 Sn4 P12'
_cell_volume   574.50824910
_cell_formula_units_Z   2
loop_
 _symmetry_equiv_pos_site_id
 _symmetry_equiv_pos_as_xyz
  1  'x, y, z'
loop_
 _atom_site_type_symbol
 _atom_site_label
 _atom_site_symmetry_multiplicity
 _atom_site_fract_x
 _atom_site_fract_y
 _atom_site_fract_z
 _atom_site_occupancy
  Si  Si0  1  0.25000000  0.75000000  0.50000000  1
  Si  Si1  1  0.75000000  0.50000000  0.25000000  1
  Si  Si2  1  0.75000000  0.25000000  0.50000000  1
  Si  Si3  1  0.50000000  0.25000000  0.75000000  1
  Si  Si4  1  0.50000000  0.75000000  0.25000000  1
  Si  Si5  1  0.25000000  0.50000000  0.75000000  1
  Ag  Ag6  1  0.19894900  0.00000000  0.19894900  1
  Ag  Ag7  1  0.00000000  0.80105100  0.80105100  1
  Ag  Ag8  1  0.00000000  0.19894900  0.19894900  1
  Ag  Ag9  1  0.80105100  0.80105100  0.00000000  1
  Ag  Ag10  1  0.80105100  0.00000000  0.80105100  1
  Ag  Ag11  1  0.19894900  0.19894900  0.00000000  1
  Sn  Sn12  1  0.00000000  0.00000000  0.59046800  1
  Sn  Sn13  1  0.59046800  0.00000000  0.00000000  1
  Sn  Sn14  1  0.00000000  0.59046800  0.00000000  1
  Sn  Sn15  1  0.40953200  0.40953200  0.40953200  1
  P  P16  1  0.00000000  0.49912800  0.24764600  1
  P  P17  1  0.49912800  0.00000000  0.24764600  1
  P  P18  1  0.50087200  0.74851800  0.50087200  1
  P  P19  1  0.24764600  0.49912800  0.00000000  1
  P  P20  1  0.74851800  0.50087200  0.50087200  1
  P  P21  1  0.25148200  0.75235400  0.75235400  1
  P  P22  1  0.75235400  0.25148200  0.75235400  1
  P  P23  1  0.24764600  0.00000000  0.49912800  1
  P  P24  1  0.50087200  0.50087200  0.74851800  1
  P  P25  1  0.00000000  0.24764600  0.49912800  1
  P  P26  1  0.75235400  0.75235400  0.25148200  1
  P  P27  1  0.49912800  0.24764600  0.00000000  1
