# generated using pymatgen
data_SrAl2(SiO4)2
_symmetry_space_group_name_H-M   'P 1'
_cell_length_a   5.24009578
_cell_length_b   5.24009300
_cell_length_c   15.42902700
_cell_angle_alpha   89.99995956
_cell_angle_beta   90.00000036
_cell_angle_gamma   59.99998768
_symmetry_Int_Tables_number   1
_chemical_formula_structural   SrAl2(SiO4)2
_chemical_formula_sum   'Sr2 Al4 Si4 O16'
_cell_volume   366.89968324
_cell_formula_units_Z   2
loop_
 _symmetry_equiv_pos_site_id
 _symmetry_equiv_pos_as_xyz
  1  'x, y, z'
loop_
 _atom_site_type_symbol
 _atom_site_label
 _atom_site_symmetry_multiplicity
 _atom_site_fract_x
 _atom_site_fract_y
 _atom_site_fract_z
 _atom_site_occupancy
  Sr  Sr0  1  0.00000000  0.00000000  0.50000000  1
  Sr  Sr1  1  0.00000000  0.00000000  0.00000000  1
  Al  Al2  1  0.66666500  0.66666700  0.64577900  1
  Al  Al3  1  0.33333500  0.33333300  0.35422100  1
  Al  Al4  1  0.66666800  0.66666700  0.14577900  1
  Al  Al5  1  0.33333200  0.33333300  0.85422100  1
  Si  Si6  1  0.33333200  0.33333300  0.63936200  1
  Si  Si7  1  0.66666800  0.66666700  0.36063800  1
  Si  Si8  1  0.33333500  0.33333300  0.13936200  1
  Si  Si9  1  0.66666500  0.66666700  0.86063800  1
  O  O10  1  0.66666200  0.66666800  0.75687500  1
  O  O11  1  0.33333100  0.33333200  0.74312500  1
  O  O12  1  0.33333800  0.33333200  0.24312500  1
  O  O13  1  0.66666900  0.66666800  0.25687500  1
  O  O14  1  0.39865600  0.01154800  0.60102800  1
  O  O15  1  0.01154700  0.58979400  0.60102800  1
  O  O16  1  0.58979300  0.39865700  0.60102800  1
  O  O17  1  0.60134400  0.98845200  0.39897200  1
  O  O18  1  0.98845300  0.41020600  0.39897200  1
  O  O19  1  0.41020700  0.60134300  0.39897200  1
  O  O20  1  0.58979600  0.01154800  0.10102800  1
  O  O21  1  0.01155000  0.39865700  0.10102800  1
  O  O22  1  0.39865900  0.58979400  0.10102800  1
  O  O23  1  0.41020400  0.98845200  0.89897200  1
  O  O24  1  0.98845000  0.60134300  0.89897200  1
  O  O25  1  0.60134100  0.41020600  0.89897200  1
