# generated using pymatgen
data_ZnMoN2
_symmetry_space_group_name_H-M   'P 1'
_cell_length_a   2.94054107
_cell_length_b   2.94054107
_cell_length_c   11.54771500
_cell_angle_alpha   90.00000000
_cell_angle_beta   90.00000000
_cell_angle_gamma   119.99997909
_symmetry_Int_Tables_number   1
_chemical_formula_structural   ZnMoN2
_chemical_formula_sum   'Zn2 Mo2 N4'
_cell_volume   86.47314995
_cell_formula_units_Z   2
loop_
 _symmetry_equiv_pos_site_id
 _symmetry_equiv_pos_as_xyz
  1  'x, y, z'
loop_
 _atom_site_type_symbol
 _atom_site_label
 _atom_site_symmetry_multiplicity
 _atom_site_fract_x
 _atom_site_fract_y
 _atom_site_fract_z
 _atom_site_occupancy
  Zn  Zn0  1  0.66666700  0.33333300  0.33746300  1
  Zn  Zn1  1  0.00000000  0.00000000  0.83746300  1
  Mo  Mo2  1  0.66666700  0.33333300  0.10782400  1
  Mo  Mo3  1  0.00000000  0.00000000  0.60782400  1
  N  N4  1  0.00000000  0.00000000  0.00209200  1
  N  N5  1  0.00000000  0.00000000  0.22361700  1
  N  N6  1  0.66666700  0.33333300  0.50209200  1
  N  N7  1  0.66666700  0.33333300  0.72361700  1
