# generated using pymatgen
data_Nd2Si2PbSe8
_symmetry_space_group_name_H-M   'P 1'
_cell_length_a   9.43888537
_cell_length_b   9.43888537
_cell_length_c   10.74858381
_cell_angle_alpha   65.07450893
_cell_angle_beta   65.07450893
_cell_angle_gamma   60.16641766
_symmetry_Int_Tables_number   1
_chemical_formula_structural   Nd2Si2PbSe8
_chemical_formula_sum   'Nd4 Si4 Pb2 Se16'
_cell_volume   725.52237390
_cell_formula_units_Z   2
loop_
 _symmetry_equiv_pos_site_id
 _symmetry_equiv_pos_as_xyz
  1  'x, y, z'
loop_
 _atom_site_type_symbol
 _atom_site_label
 _atom_site_symmetry_multiplicity
 _atom_site_fract_x
 _atom_site_fract_y
 _atom_site_fract_z
 _atom_site_occupancy
  Nd  Nd0  1  0.24967200  0.43692900  0.25137300  1
  Nd  Nd1  1  0.94151300  0.06179000  0.24711100  1
  Nd  Nd2  1  0.43692900  0.24967200  0.75137300  1
  Nd  Nd3  1  0.06179000  0.94151300  0.74711100  1
  Si  Si4  1  0.33415900  0.84462800  0.97855000  1
  Si  Si5  1  0.84462800  0.33415900  0.47855000  1
  Si  Si6  1  0.65570500  0.16409700  0.02223900  1
  Si  Si7  1  0.16409700  0.65570500  0.52223900  1
  Pb  Pb8  1  0.57186800  0.75018400  0.25009800  1
  Pb  Pb9  1  0.75018400  0.57186800  0.75009800  1
  Se  Se10  1  0.53723600  0.60319700  0.07286500  1
  Se  Se11  1  0.09741500  0.78369100  0.05693000  1
  Se  Se12  1  0.27516700  0.06653700  0.05400600  1
  Se  Se13  1  0.78369100  0.09741500  0.55693000  1
  Se  Se14  1  0.60319700  0.53723600  0.57286500  1
  Se  Se15  1  0.06653700  0.27516700  0.55400600  1
  Se  Se16  1  0.42926600  0.39555300  0.95088200  1
  Se  Se17  1  0.89691500  0.21727400  0.93576200  1
  Se  Se18  1  0.71366900  0.95540000  0.92977000  1
  Se  Se19  1  0.21727400  0.89691500  0.43576200  1
  Se  Se20  1  0.39555300  0.42926600  0.45088200  1
  Se  Se21  1  0.95540000  0.71366900  0.42977000  1
  Se  Se22  1  0.40767700  0.93411000  0.73350600  1
  Se  Se23  1  0.93411000  0.40767700  0.23350600  1
  Se  Se24  1  0.58248400  0.09386400  0.26690900  1
  Se  Se25  1  0.09386400  0.58248400  0.76690900  1
