# generated using pymatgen
data_Sm2HfS5
_symmetry_space_group_name_H-M   'P 1'
_cell_length_a   7.34393300
_cell_length_b   7.88014200
_cell_length_c   11.66492100
_cell_angle_alpha   90.00000000
_cell_angle_beta   90.00000000
_cell_angle_gamma   90.00000000
_symmetry_Int_Tables_number   1
_chemical_formula_structural   Sm2HfS5
_chemical_formula_sum   'Sm8 Hf4 S20'
_cell_volume   675.06338303
_cell_formula_units_Z   4
loop_
 _symmetry_equiv_pos_site_id
 _symmetry_equiv_pos_as_xyz
  1  'x, y, z'
loop_
 _atom_site_type_symbol
 _atom_site_label
 _atom_site_symmetry_multiplicity
 _atom_site_fract_x
 _atom_site_fract_y
 _atom_site_fract_z
 _atom_site_occupancy
  Sm  Sm0  1  0.52592700  0.00195500  0.32238400  1
  Sm  Sm1  1  0.97407300  0.49804500  0.82238400  1
  Sm  Sm2  1  0.47407300  0.50195500  0.67761600  1
  Sm  Sm3  1  0.02592700  0.99804500  0.17761600  1
  Sm  Sm4  1  0.47407300  0.99804500  0.67761600  1
  Sm  Sm5  1  0.02592700  0.50195500  0.17761600  1
  Sm  Sm6  1  0.52592700  0.49804500  0.32238400  1
  Sm  Sm7  1  0.97407300  0.00195500  0.82238400  1
  Hf  Hf8  1  0.07492800  0.75000000  0.49374600  1
  Hf  Hf9  1  0.42507200  0.75000000  0.99374600  1
  Hf  Hf10  1  0.92507200  0.25000000  0.50625400  1
  Hf  Hf11  1  0.57492800  0.25000000  0.00625400  1
  S  S12  1  0.84013300  0.53541300  0.59009300  1
  S  S13  1  0.65986700  0.96458700  0.09009300  1
  S  S14  1  0.15986700  0.03541300  0.40990700  1
  S  S15  1  0.34013300  0.46458700  0.90990700  1
  S  S16  1  0.15986700  0.46458700  0.40990700  1
  S  S17  1  0.34013300  0.03541300  0.90990700  1
  S  S18  1  0.84013300  0.96458700  0.59009300  1
  S  S19  1  0.65986700  0.53541300  0.09009300  1
  S  S20  1  0.83601800  0.75000000  0.31958200  1
  S  S21  1  0.66398200  0.75000000  0.81958200  1
  S  S22  1  0.16398200  0.25000000  0.68041800  1
  S  S23  1  0.33601800  0.25000000  0.18041800  1
  S  S24  1  0.44315700  0.75000000  0.49557400  1
  S  S25  1  0.05684300  0.75000000  0.99557400  1
  S  S26  1  0.55684300  0.25000000  0.50442600  1
  S  S27  1  0.94315700  0.25000000  0.00442600  1
  S  S28  1  0.18568100  0.75000000  0.70550200  1
  S  S29  1  0.31431900  0.75000000  0.20550200  1
  S  S30  1  0.81431900  0.25000000  0.29449800  1
  S  S31  1  0.68568100  0.25000000  0.79449800  1
