# generated using pymatgen
data_Zr2Se3
_symmetry_space_group_name_H-M   'P 1'
_cell_length_a   6.53796175
_cell_length_b   6.53796175
_cell_length_c   6.72596654
_cell_angle_alpha   80.57496335
_cell_angle_beta   80.57496335
_cell_angle_gamma   120.07579670
_symmetry_Int_Tables_number   1
_chemical_formula_structural   Zr2Se3
_chemical_formula_sum   'Zr4 Se6'
_cell_volume   235.03856715
_cell_formula_units_Z   2
loop_
 _symmetry_equiv_pos_site_id
 _symmetry_equiv_pos_as_xyz
  1  'x, y, z'
loop_
 _atom_site_type_symbol
 _atom_site_label
 _atom_site_symmetry_multiplicity
 _atom_site_fract_x
 _atom_site_fract_y
 _atom_site_fract_z
 _atom_site_occupancy
  Zr  Zr0  1  0.17077700  0.82922300  0.50000000  1
  Zr  Zr1  1  0.50000000  0.50000000  0.50000000  1
  Zr  Zr2  1  0.82922300  0.17077700  0.50000000  1
  Zr  Zr3  1  0.00000000  0.00000000  0.00000000  1
  Se  Se4  1  0.26044900  0.26044900  0.24322000  1
  Se  Se5  1  0.57974600  0.92152100  0.23590300  1
  Se  Se6  1  0.92152100  0.57974600  0.23590300  1
  Se  Se7  1  0.07847900  0.42025400  0.76409700  1
  Se  Se8  1  0.42025400  0.07847900  0.76409700  1
  Se  Se9  1  0.73955100  0.73955100  0.75678000  1
