# generated using pymatgen
data_Ce(AlAu)2
_symmetry_space_group_name_H-M   'P 1'
_cell_length_a   4.44560000
_cell_length_b   4.44560000
_cell_length_c   10.43166100
_cell_angle_alpha   90.00000000
_cell_angle_beta   90.00000000
_cell_angle_gamma   90.00000000
_symmetry_Int_Tables_number   1
_chemical_formula_structural   Ce(AlAu)2
_chemical_formula_sum   'Ce2 Al4 Au4'
_cell_volume   206.16466506
_cell_formula_units_Z   2
loop_
 _symmetry_equiv_pos_site_id
 _symmetry_equiv_pos_as_xyz
  1  'x, y, z'
loop_
 _atom_site_type_symbol
 _atom_site_label
 _atom_site_symmetry_multiplicity
 _atom_site_fract_x
 _atom_site_fract_y
 _atom_site_fract_z
 _atom_site_occupancy
  Ce  Ce0  1  0.00000000  0.50000000  0.24914100  1
  Ce  Ce1  1  0.50000000  0.00000000  0.75085900  1
  Al  Al2  1  0.00000000  0.00000000  0.50000000  1
  Al  Al3  1  0.50000000  0.50000000  0.50000000  1
  Al  Al4  1  0.00000000  0.50000000  0.87199800  1
  Al  Al5  1  0.50000000  0.00000000  0.12800200  1
  Au  Au6  1  0.00000000  0.00000000  0.00000000  1
  Au  Au7  1  0.50000000  0.50000000  0.00000000  1
  Au  Au8  1  0.00000000  0.50000000  0.63111300  1
  Au  Au9  1  0.50000000  0.00000000  0.36888700  1
