# generated using pymatgen
data_Li5FeO4
_symmetry_space_group_name_H-M   'P 1'
_cell_length_a   9.25785900
_cell_length_b   9.30098700
_cell_length_c   9.31027100
_cell_angle_alpha   90.00000000
_cell_angle_beta   90.00000000
_cell_angle_gamma   90.00000000
_symmetry_Int_Tables_number   1
_chemical_formula_structural   Li5FeO4
_chemical_formula_sum   'Li40 Fe8 O32'
_cell_volume   801.68161104
_cell_formula_units_Z   8
loop_
 _symmetry_equiv_pos_site_id
 _symmetry_equiv_pos_as_xyz
  1  'x, y, z'
loop_
 _atom_site_type_symbol
 _atom_site_label
 _atom_site_symmetry_multiplicity
 _atom_site_fract_x
 _atom_site_fract_y
 _atom_site_fract_z
 _atom_site_occupancy
  Li  Li0  1  0.10352300  0.61782600  0.15618800  1
  Li  Li1  1  0.60352300  0.38217400  0.34381200  1
  Li  Li2  1  0.39647700  0.11782600  0.84381200  1
  Li  Li3  1  0.89647700  0.88217400  0.65618800  1
  Li  Li4  1  0.89647700  0.38217400  0.84381200  1
  Li  Li5  1  0.39647700  0.61782600  0.65618800  1
  Li  Li6  1  0.60352300  0.88217400  0.15618800  1
  Li  Li7  1  0.10352300  0.11782600  0.34381200  1
  Li  Li8  1  0.16227600  0.39023200  0.38148700  1
  Li  Li9  1  0.66227600  0.60976800  0.11851300  1
  Li  Li10  1  0.33772400  0.89023200  0.61851300  1
  Li  Li11  1  0.83772400  0.10976800  0.88148700  1
  Li  Li12  1  0.83772400  0.60976800  0.61851300  1
  Li  Li13  1  0.33772400  0.39023200  0.88148700  1
  Li  Li14  1  0.66227600  0.10976800  0.38148700  1
  Li  Li15  1  0.16227600  0.89023200  0.11851300  1
  Li  Li16  1  0.89318300  0.62745300  0.35306800  1
  Li  Li17  1  0.39318300  0.37254700  0.14693200  1
  Li  Li18  1  0.60681700  0.12745300  0.64693200  1
  Li  Li19  1  0.87528400  0.64649600  0.87968400  1
  Li  Li20  1  0.10681700  0.37254700  0.64693200  1
  Li  Li21  1  0.60681700  0.62745300  0.85306800  1
  Li  Li22  1  0.39318300  0.87254700  0.35306800  1
  Li  Li23  1  0.89318300  0.12745300  0.14693200  1
  Li  Li24  1  0.85754400  0.38871000  0.10703600  1
  Li  Li25  1  0.35754400  0.61129000  0.39296400  1
  Li  Li26  1  0.64245600  0.88871000  0.89296400  1
  Li  Li27  1  0.14245600  0.11129000  0.60703600  1
  Li  Li28  1  0.14245600  0.61129000  0.89296400  1
  Li  Li29  1  0.64245600  0.38871000  0.60703600  1
  Li  Li30  1  0.35754400  0.11129000  0.10703600  1
  Li  Li31  1  0.85754400  0.88871000  0.39296400  1
  Li  Li32  1  0.87528400  0.14649600  0.62031600  1
  Li  Li33  1  0.37528400  0.85350400  0.87968400  1
  Li  Li34  1  0.62471600  0.64649600  0.37968400  1
  Li  Li35  1  0.12471600  0.35350400  0.12031600  1
  Li  Li36  1  0.12471600  0.85350400  0.37968400  1
  Li  Li37  1  0.62471600  0.14649600  0.12031600  1
  Li  Li38  1  0.37528400  0.35350400  0.62031600  1
  Li  Li39  1  0.10681700  0.87254700  0.85306800  1
  Fe  Fe40  1  0.88196500  0.35416700  0.38372700  1
  Fe  Fe41  1  0.38196500  0.64583300  0.11627300  1
  Fe  Fe42  1  0.61803500  0.85416700  0.61627300  1
  Fe  Fe43  1  0.11803500  0.14583300  0.88372700  1
  Fe  Fe44  1  0.11803500  0.64583300  0.61627300  1
  Fe  Fe45  1  0.61803500  0.35416700  0.88372700  1
  Fe  Fe46  1  0.38196500  0.14583300  0.38372700  1
  Fe  Fe47  1  0.88196500  0.85416700  0.11627300  1
  O  O48  1  0.75426300  0.49404700  0.46588600  1
  O  O49  1  0.25426300  0.50595300  0.03411400  1
  O  O50  1  0.74573700  0.99404700  0.53411400  1
  O  O51  1  0.24573700  0.00595300  0.96588600  1
  O  O52  1  0.24573700  0.50595300  0.53411400  1
  O  O53  1  0.74573700  0.49404700  0.96588600  1
  O  O54  1  0.25426300  0.00595300  0.46588600  1
  O  O55  1  0.75426300  0.99404700  0.03411400  1
  O  O56  1  0.99910700  0.46752800  0.25663000  1
  O  O57  1  0.49910700  0.53247200  0.24337000  1
  O  O58  1  0.50089300  0.96752800  0.74337000  1
  O  O59  1  0.00089300  0.03247200  0.75663000  1
  O  O60  1  0.00089300  0.53247200  0.74337000  1
  O  O61  1  0.50089300  0.46752800  0.75663000  1
  O  O62  1  0.49910700  0.03247200  0.25663000  1
  O  O63  1  0.99910700  0.96752800  0.24337000  1
  O  O64  1  0.75906400  0.25201800  0.25402700  1
  O  O65  1  0.25906400  0.74798200  0.24597300  1
  O  O66  1  0.74093600  0.75201800  0.74597300  1
  O  O67  1  0.24093600  0.24798200  0.75402700  1
  O  O68  1  0.01668300  0.74902100  0.00419300  1
  O  O69  1  0.74093600  0.25201800  0.75402700  1
  O  O70  1  0.25906400  0.24798200  0.25402700  1
  O  O71  1  0.75906400  0.75201800  0.24597300  1
  O  O72  1  0.01668300  0.24902100  0.49580700  1
  O  O73  1  0.51668300  0.75097900  0.00419300  1
  O  O74  1  0.48331700  0.74902100  0.50419300  1
  O  O75  1  0.98331700  0.25097900  0.99580700  1
  O  O76  1  0.98331700  0.75097900  0.50419300  1
  O  O77  1  0.48331700  0.24902100  0.99580700  1
  O  O78  1  0.51668300  0.25097900  0.49580700  1
  O  O79  1  0.24093600  0.74798200  0.74597300  1
