# generated using pymatgen
data_ThPS
_symmetry_space_group_name_H-M   'P 1'
_cell_length_a   3.96294400
_cell_length_b   3.96294400
_cell_length_c   8.21830200
_cell_angle_alpha   90.00000000
_cell_angle_beta   90.00000000
_cell_angle_gamma   90.00000000
_symmetry_Int_Tables_number   1
_chemical_formula_structural   ThPS
_chemical_formula_sum   'Th2 P2 S2'
_cell_volume   129.06781775
_cell_formula_units_Z   2
loop_
 _symmetry_equiv_pos_site_id
 _symmetry_equiv_pos_as_xyz
  1  'x, y, z'
loop_
 _atom_site_type_symbol
 _atom_site_label
 _atom_site_symmetry_multiplicity
 _atom_site_fract_x
 _atom_site_fract_y
 _atom_site_fract_z
 _atom_site_occupancy
  Th  Th0  1  0.50000000  0.00000000  0.26736000  1
  Th  Th1  1  0.00000000  0.50000000  0.73264000  1
  P  P2  1  0.00000000  0.00000000  0.00000000  1
  P  P3  1  0.50000000  0.50000000  0.00000000  1
  S  S4  1  0.50000000  0.00000000  0.63289600  1
  S  S5  1  0.00000000  0.50000000  0.36710400  1
