# generated using pymatgen
data_CsHCO3
_symmetry_space_group_name_H-M   'P 1'
_cell_length_a   11.31558000
_cell_length_b   4.68822100
_cell_length_c   7.79001213
_cell_angle_alpha   67.85366921
_cell_angle_beta   90.00000000
_cell_angle_gamma   90.00000000
_symmetry_Int_Tables_number   1
_chemical_formula_structural   CsHCO3
_chemical_formula_sum   'Cs4 H4 C4 O12'
_cell_volume   382.77107137
_cell_formula_units_Z   4
loop_
 _symmetry_equiv_pos_site_id
 _symmetry_equiv_pos_as_xyz
  1  'x, y, z'
loop_
 _atom_site_type_symbol
 _atom_site_label
 _atom_site_symmetry_multiplicity
 _atom_site_fract_x
 _atom_site_fract_y
 _atom_site_fract_z
 _atom_site_occupancy
  Cs  Cs0  1  0.17241600  0.42828900  0.92156200  1
  Cs  Cs1  1  0.32758400  0.42828900  0.42156200  1
  Cs  Cs2  1  0.82758400  0.57171100  0.07843800  1
  Cs  Cs3  1  0.67241600  0.57171100  0.57843800  1
  H  H4  1  0.09542400  0.99985700  0.49709200  1
  H  H5  1  0.40457600  0.99985700  0.99709200  1
  H  H6  1  0.90457600  0.00014300  0.50290800  1
  H  H7  1  0.59542400  0.00014300  0.00290800  1
  C  C8  1  0.04675700  0.83061900  0.31136200  1
  C  C9  1  0.45324300  0.83061900  0.81136200  1
  C  C10  1  0.95324300  0.16938100  0.68863800  1
  C  C11  1  0.54675700  0.16938100  0.18863800  1
  O  O12  1  0.08227600  0.71930000  0.19611200  1
  O  O13  1  0.41772400  0.71930000  0.69611200  1
  O  O14  1  0.91772400  0.28070000  0.80388800  1
  O  O15  1  0.58227600  0.28070000  0.30388800  1
  O  O16  1  0.93906100  0.87414700  0.34613400  1
  O  O17  1  0.56093900  0.87414700  0.84613400  1
  O  O18  1  0.06093900  0.12585300  0.65386600  1
  O  O19  1  0.43906100  0.12585300  0.15386600  1
  O  O20  1  0.13349900  0.91801900  0.40524300  1
  O  O21  1  0.36650100  0.91801900  0.90524300  1
  O  O22  1  0.86650100  0.08198100  0.59475700  1
  O  O23  1  0.63349900  0.08198100  0.09475700  1
