# generated using pymatgen
data_Yb13Zn58
_symmetry_space_group_name_H-M   'P 1'
_cell_length_a   13.98460566
_cell_length_b   14.38156944
_cell_length_c   14.38156944
_cell_angle_alpha   119.99969942
_cell_angle_beta   90.00000000
_cell_angle_gamma   90.00000000
_symmetry_Int_Tables_number   1
_chemical_formula_structural   Yb13Zn58
_chemical_formula_sum   'Yb26 Zn116'
_cell_volume   2504.92505578
_cell_formula_units_Z   2
loop_
 _symmetry_equiv_pos_site_id
 _symmetry_equiv_pos_as_xyz
  1  'x, y, z'
loop_
 _atom_site_type_symbol
 _atom_site_label
 _atom_site_symmetry_multiplicity
 _atom_site_fract_x
 _atom_site_fract_y
 _atom_site_fract_z
 _atom_site_occupancy
  Yb  Yb0  1  0.50000000  -0.00000000  -0.00000000  1
  Yb  Yb1  1  -0.00000000  -0.00000000  -0.00000000  1
  Yb  Yb2  1  0.75000000  0.45576944  0.91153931  1
  Yb  Yb3  1  0.75000000  0.45577228  0.54422772  1
  Yb  Yb4  1  0.75000000  0.08846069  0.54423056  1
  Yb  Yb5  1  0.25000000  0.54423056  0.08846069  1
  Yb  Yb6  1  0.25000000  0.54422772  0.45577228  1
  Yb  Yb7  1  0.25000000  0.91153931  0.45576944  1
  Yb  Yb8  1  0.75000000  0.12412236  0.24824246  1
  Yb  Yb9  1  0.75000000  0.12411823  0.87588177  1
  Yb  Yb10  1  0.75000000  0.75175754  0.87587764  1
  Yb  Yb11  1  0.25000000  0.87587764  0.75175754  1
  Yb  Yb12  1  0.25000000  0.87588177  0.12411823  1
  Yb  Yb13  1  0.25000000  0.24824246  0.12412236  1
  Yb  Yb14  1  0.55346452  0.79306996  0.58614051  1
  Yb  Yb15  1  0.55346532  0.79307035  0.20692965  1
  Yb  Yb16  1  0.55346452  0.41385949  0.20693004  1
  Yb  Yb17  1  0.44653548  0.20693004  0.41385949  1
  Yb  Yb18  1  0.44653468  0.20692965  0.79307035  1
  Yb  Yb19  1  0.44653548  0.58614051  0.79306996  1
  Yb  Yb20  1  0.05346452  0.20693004  0.41385949  1
  Yb  Yb21  1  0.05346532  0.20692965  0.79307035  1
  Yb  Yb22  1  0.05346452  0.58614051  0.79306996  1
  Yb  Yb23  1  0.94653548  0.79306996  0.58614051  1
  Yb  Yb24  1  0.94653468  0.79307035  0.20692965  1
  Yb  Yb25  1  0.94653548  0.41385949  0.20693004  1
  Zn  Zn26  1  0.75000000  0.99999943  0.00000057  1
  Zn  Zn27  1  0.25000000  0.00000057  0.99999943  1
  Zn  Zn28  1  0.25000000  0.66666595  0.33333405  1
  Zn  Zn29  1  0.75000000  0.33333405  0.66666595  1
  Zn  Zn30  1  0.59496097  0.66666734  0.33333266  1
  Zn  Zn31  1  0.40503903  0.33333266  0.66666734  1
  Zn  Zn32  1  0.09496097  0.33333266  0.66666734  1
  Zn  Zn33  1  0.90503903  0.66666734  0.33333266  1
  Zn  Zn34  1  0.50000000  0.50000000  -0.00000000  1
  Zn  Zn35  1  0.50000000  0.50000000  0.50000000  1
  Zn  Zn36  1  0.50000000  -0.00000000  0.50000000  1
  Zn  Zn37  1  -0.00000000  0.50000000  -0.00000000  1
  Zn  Zn38  1  -0.00000000  0.50000000  0.50000000  1
  Zn  Zn39  1  -0.00000000  -0.00000000  0.50000000  1
  Zn  Zn40  1  0.75000000  0.72985112  0.45969760  1
  Zn  Zn41  1  0.75000000  0.72985009  0.27014991  1
  Zn  Zn42  1  0.75000000  0.54030240  0.27014888  1
  Zn  Zn43  1  0.25000000  0.27014888  0.54030240  1
  Zn  Zn44  1  0.25000000  0.27014991  0.72985009  1
  Zn  Zn45  1  0.25000000  0.45969760  0.72985112  1
  Zn  Zn46  1  0.49999955  0.80050769  0.99999966  1
  Zn  Zn47  1  0.50000000  0.19949505  0.19949505  1
  Zn  Zn48  1  0.50000045  0.99999966  0.80050769  1
  Zn  Zn49  1  0.50000045  0.19949231  0.00000034  1
  Zn  Zn50  1  0.49999955  0.00000034  0.19949231  1
  Zn  Zn51  1  0.50000000  0.80050495  0.80050495  1
  Zn  Zn52  1  0.99999955  0.19949231  0.00000034  1
  Zn  Zn53  1  -0.00000000  0.80050495  0.80050495  1
  Zn  Zn54  1  0.00000045  0.00000034  0.19949231  1
  Zn  Zn55  1  0.00000045  0.80050769  0.99999966  1
  Zn  Zn56  1  0.99999955  0.99999966  0.80050769  1
  Zn  Zn57  1  -0.00000000  0.19949505  0.19949505  1
  Zn  Zn58  1  0.75000000  0.91358216  0.63457527  1
  Zn  Zn59  1  0.75000000  0.72099465  0.08641699  1
  Zn  Zn60  1  0.75000000  0.36542771  0.27900916  1
  Zn  Zn61  1  0.75000000  0.72099084  0.63457229  1
  Zn  Zn62  1  0.75000000  0.36542473  0.08641784  1
  Zn  Zn63  1  0.75000000  0.91358301  0.27900535  1
  Zn  Zn64  1  0.25000000  0.08641784  0.36542473  1
  Zn  Zn65  1  0.25000000  0.27900535  0.91358301  1
  Zn  Zn66  1  0.25000000  0.63457229  0.72099084  1
  Zn  Zn67  1  0.25000000  0.27900916  0.36542771  1
  Zn  Zn68  1  0.25000000  0.63457527  0.91358216  1
  Zn  Zn69  1  0.25000000  0.08641699  0.72099465  1
  Zn  Zn70  1  0.65924785  0.90066201  0.80132629  1
  Zn  Zn71  1  0.65924795  0.90066437  0.09933563  1
  Zn  Zn72  1  0.65924785  0.19867371  0.09933799  1
  Zn  Zn73  1  0.34075215  0.09933799  0.19867371  1
  Zn  Zn74  1  0.34075205  0.09933563  0.90066437  1
  Zn  Zn75  1  0.34075215  0.80132629  0.90066201  1
  Zn  Zn76  1  0.15924785  0.09933799  0.19867371  1
  Zn  Zn77  1  0.15924795  0.09933563  0.90066437  1
  Zn  Zn78  1  0.15924785  0.80132629  0.90066201  1
  Zn  Zn79  1  0.84075215  0.90066201  0.80132629  1
  Zn  Zn80  1  0.84075205  0.90066437  0.09933563  1
  Zn  Zn81  1  0.84075215  0.19867371  0.09933799  1
  Zn  Zn82  1  0.14574238  0.43663910  0.87328147  1
  Zn  Zn83  1  0.14574220  0.43664266  0.56335734  1
  Zn  Zn84  1  0.14574238  0.12671853  0.56336090  1
  Zn  Zn85  1  0.85425762  0.56336090  0.12671853  1
  Zn  Zn86  1  0.85425780  0.56335734  0.43664266  1
  Zn  Zn87  1  0.85425762  0.87328147  0.43663910  1
  Zn  Zn88  1  0.64574238  0.56336090  0.12671853  1
  Zn  Zn89  1  0.64574220  0.56335734  0.43664266  1
  Zn  Zn90  1  0.64574238  0.87328147  0.43663910  1
  Zn  Zn91  1  0.35425762  0.43663910  0.87328147  1
  Zn  Zn92  1  0.35425780  0.43664266  0.56335734  1
  Zn  Zn93  1  0.35425762  0.12671853  0.56336090  1
  Zn  Zn94  1  0.55233130  0.39837442  0.79675366  1
  Zn  Zn95  1  0.55233361  0.39837726  0.60162274  1
  Zn  Zn96  1  0.55233130  0.20324634  0.60162558  1
  Zn  Zn97  1  0.44766870  0.60162558  0.20324634  1
  Zn  Zn98  1  0.44766639  0.60162274  0.39837726  1
  Zn  Zn99  1  0.44766870  0.79675366  0.39837442  1
  Zn  Zn100  1  0.05233130  0.60162558  0.20324634  1
  Zn  Zn101  1  0.05233361  0.60162274  0.39837726  1
  Zn  Zn102  1  0.05233130  0.79675366  0.39837442  1
  Zn  Zn103  1  0.94766870  0.39837442  0.79675366  1
  Zn  Zn104  1  0.94766639  0.39837726  0.60162274  1
  Zn  Zn105  1  0.94766870  0.20324634  0.60162558  1
  Zn  Zn106  1  0.16065244  0.76410070  0.52820076  1
  Zn  Zn107  1  0.16065523  0.76410212  0.23589788  1
  Zn  Zn108  1  0.16065244  0.47179924  0.23589930  1
  Zn  Zn109  1  0.83934756  0.23589930  0.47179924  1
  Zn  Zn110  1  0.83934477  0.23589788  0.76410212  1
  Zn  Zn111  1  0.83934756  0.52820076  0.76410070  1
  Zn  Zn112  1  0.66065244  0.23589930  0.47179924  1
  Zn  Zn113  1  0.66065523  0.23589788  0.76410212  1
  Zn  Zn114  1  0.66065244  0.52820076  0.76410070  1
  Zn  Zn115  1  0.33934756  0.76410070  0.52820076  1
  Zn  Zn116  1  0.33934477  0.76410212  0.23589788  1
  Zn  Zn117  1  0.33934756  0.47179924  0.23589930  1
  Zn  Zn118  1  0.60425443  0.63443674  0.96397438  1
  Zn  Zn119  1  0.60425364  0.32953616  0.36556209  1
  Zn  Zn120  1  0.60425383  0.03602337  0.67046213  1
  Zn  Zn121  1  0.60425383  0.32953787  0.96397663  1
  Zn  Zn122  1  0.60425443  0.03602562  0.36556326  1
  Zn  Zn123  1  0.60425364  0.63443791  0.67046384  1
  Zn  Zn124  1  0.39574557  0.36556326  0.03602562  1
  Zn  Zn125  1  0.39574636  0.67046384  0.63443791  1
  Zn  Zn126  1  0.39574617  0.96397663  0.32953787  1
  Zn  Zn127  1  0.39574617  0.67046213  0.03602337  1
  Zn  Zn128  1  0.39574557  0.96397438  0.63443674  1
  Zn  Zn129  1  0.39574636  0.36556209  0.32953616  1
  Zn  Zn130  1  0.10425443  0.36556326  0.03602562  1
  Zn  Zn131  1  0.10425364  0.67046384  0.63443791  1
  Zn  Zn132  1  0.10425383  0.96397663  0.32953787  1
  Zn  Zn133  1  0.10425383  0.67046213  0.03602337  1
  Zn  Zn134  1  0.10425443  0.96397438  0.63443674  1
  Zn  Zn135  1  0.10425364  0.36556209  0.32953616  1
  Zn  Zn136  1  0.89574557  0.63443674  0.96397438  1
  Zn  Zn137  1  0.89574636  0.32953616  0.36556209  1
  Zn  Zn138  1  0.89574617  0.03602337  0.67046213  1
  Zn  Zn139  1  0.89574617  0.32953787  0.96397663  1
  Zn  Zn140  1  0.89574557  0.03602562  0.36556326  1
  Zn  Zn141  1  0.89574636  0.63443791  0.67046384  1
