# generated using pymatgen
data_KMnP(OF)3
_symmetry_space_group_name_H-M   'P 1'
_cell_length_a   12.87399000
_cell_length_b   5.51792500
_cell_length_c   7.87984319
_cell_angle_alpha   65.76172373
_cell_angle_beta   90.00000000
_cell_angle_gamma   90.00000000
_symmetry_Int_Tables_number   1
_chemical_formula_structural   KMnP(OF)3
_chemical_formula_sum   'K4 Mn4 P4 O12 F12'
_cell_volume   510.42044717
_cell_formula_units_Z   4
loop_
 _symmetry_equiv_pos_site_id
 _symmetry_equiv_pos_as_xyz
  1  'x, y, z'
loop_
 _atom_site_type_symbol
 _atom_site_label
 _atom_site_symmetry_multiplicity
 _atom_site_fract_x
 _atom_site_fract_y
 _atom_site_fract_z
 _atom_site_occupancy
  K  K0  1  0.20053000  0.64669200  0.81113700  1
  K  K1  1  0.29947000  0.64669200  0.31113700  1
  K  K2  1  0.79947000  0.35330800  0.18886300  1
  K  K3  1  0.70053000  0.35330800  0.68886300  1
  Mn  Mn4  1  0.00000000  0.50000000  0.50000000  1
  Mn  Mn5  1  0.50000000  0.50000000  0.00000000  1
  Mn  Mn6  1  0.00000000  0.00000000  0.00000000  1
  Mn  Mn7  1  0.50000000  0.00000000  0.50000000  1
  P  P8  1  0.10677100  0.12615500  0.31458900  1
  P  P9  1  0.39322900  0.12615500  0.81458900  1
  P  P10  1  0.89322900  0.87384500  0.68541100  1
  P  P11  1  0.60677100  0.87384500  0.18541100  1
  O  O12  1  0.11485000  0.83344000  0.44345800  1
  O  O13  1  0.38515000  0.83344000  0.94345800  1
  O  O14  1  0.88515000  0.16656000  0.55654200  1
  O  O15  1  0.61485000  0.16656000  0.05654200  1
  O  O16  1  0.02764400  0.19648700  0.15565900  1
  O  O17  1  0.47235600  0.19648700  0.65565900  1
  O  O18  1  0.97235600  0.80351300  0.84434100  1
  O  O19  1  0.52764400  0.80351300  0.34434100  1
  O  O20  1  0.10233900  0.31281700  0.41391300  1
  O  O21  1  0.39766100  0.31281700  0.91391300  1
  O  O22  1  0.89766100  0.68718300  0.58608700  1
  O  O23  1  0.60233900  0.68718300  0.08608700  1
  F  F24  1  0.05533800  0.33451200  0.74287000  1
  F  F25  1  0.44466200  0.33451200  0.24287000  1
  F  F26  1  0.94466200  0.66548800  0.25713000  1
  F  F27  1  0.55533800  0.66548800  0.75713000  1
  F  F28  1  0.13471400  0.86623400  0.03793700  1
  F  F29  1  0.36528600  0.86623400  0.53793700  1
  F  F30  1  0.86528600  0.13376600  0.96206300  1
  F  F31  1  0.63471400  0.13376600  0.46206300  1
  F  F32  1  0.21740700  0.20639500  0.21159800  1
  F  F33  1  0.28259300  0.20639500  0.71159800  1
  F  F34  1  0.78259300  0.79360500  0.78840200  1
  F  F35  1  0.71740700  0.79360500  0.28840200  1
