# generated using pymatgen
data_Al3SiPd4
_symmetry_space_group_name_H-M   'P 1'
_cell_length_a   4.88875173
_cell_length_b   4.88875173
_cell_length_c   4.88875161
_cell_angle_alpha   90.59436367
_cell_angle_beta   90.59436367
_cell_angle_gamma   90.59436316
_symmetry_Int_Tables_number   1
_chemical_formula_structural   Al3SiPd4
_chemical_formula_sum   'Al3 Si1 Pd4'
_cell_volume   116.82165133
_cell_formula_units_Z   1
loop_
 _symmetry_equiv_pos_site_id
 _symmetry_equiv_pos_as_xyz
  1  'x, y, z'
loop_
 _atom_site_type_symbol
 _atom_site_label
 _atom_site_symmetry_multiplicity
 _atom_site_fract_x
 _atom_site_fract_y
 _atom_site_fract_z
 _atom_site_occupancy
  Al  Al0  1  0.34231500  0.15736700  0.65009600  1
  Al  Al1  1  0.15736700  0.65009600  0.34231500  1
  Al  Al2  1  0.65009600  0.34231500  0.15736700  1
  Si  Si3  1  0.84370500  0.84370500  0.84370500  1
  Pd  Pd4  1  0.14343200  0.14343200  0.14343200  1
  Pd  Pd5  1  0.65544000  0.85144800  0.35619700  1
  Pd  Pd6  1  0.85144800  0.35619700  0.65544000  1
  Pd  Pd7  1  0.35619700  0.65544000  0.85144800  1
