# generated using pymatgen
data_Mg2ZnP2
_symmetry_space_group_name_H-M   'P 1'
_cell_length_a   4.04345942
_cell_length_b   4.04346000
_cell_length_c   6.55278500
_cell_angle_alpha   89.99774932
_cell_angle_beta   89.99775411
_cell_angle_gamma   60.00087630
_symmetry_Int_Tables_number   1
_chemical_formula_structural   Mg2ZnP2
_chemical_formula_sum   'Mg2 Zn1 P2'
_cell_volume   92.78261861
_cell_formula_units_Z   1
loop_
 _symmetry_equiv_pos_site_id
 _symmetry_equiv_pos_as_xyz
  1  'x, y, z'
loop_
 _atom_site_type_symbol
 _atom_site_label
 _atom_site_symmetry_multiplicity
 _atom_site_fract_x
 _atom_site_fract_y
 _atom_site_fract_z
 _atom_site_occupancy
  Mg  Mg0  1  0.33332700  0.33332700  0.36485400  1
  Mg  Mg1  1  0.00000500  0.00000500  0.00454900  1
  Zn  Zn2  1  0.66666900  0.66666900  0.63913900  1
  P  P3  1  0.66667300  0.66667300  0.23212300  1
  P  P4  1  0.33332600  0.33332600  0.75933400  1
