# generated using pymatgen
data_Rb2NdBr5
_symmetry_space_group_name_H-M   'P 1'
_cell_length_a   8.79732600
_cell_length_b   9.37596300
_cell_length_c   14.13978800
_cell_angle_alpha   90.00000000
_cell_angle_beta   90.00000000
_cell_angle_gamma   90.00000000
_symmetry_Int_Tables_number   1
_chemical_formula_structural   Rb2NdBr5
_chemical_formula_sum   'Rb8 Nd4 Br20'
_cell_volume   1166.29783300
_cell_formula_units_Z   4
loop_
 _symmetry_equiv_pos_site_id
 _symmetry_equiv_pos_as_xyz
  1  'x, y, z'
loop_
 _atom_site_type_symbol
 _atom_site_label
 _atom_site_symmetry_multiplicity
 _atom_site_fract_x
 _atom_site_fract_y
 _atom_site_fract_z
 _atom_site_occupancy
  Rb  Rb0  1  0.94711700  0.00496700  0.82773300  1
  Rb  Rb1  1  0.05288300  0.99503300  0.17226700  1
  Rb  Rb2  1  0.44711700  0.99503300  0.67226700  1
  Rb  Rb3  1  0.05288300  0.50496700  0.17226700  1
  Rb  Rb4  1  0.55288300  0.00496700  0.32773300  1
  Rb  Rb5  1  0.94711700  0.49503300  0.82773300  1
  Rb  Rb6  1  0.55288300  0.49503300  0.32773300  1
  Rb  Rb7  1  0.44711700  0.50496700  0.67226700  1
  Nd  Nd8  1  0.92555400  0.75000000  0.50441000  1
  Nd  Nd9  1  0.07444600  0.25000000  0.49559000  1
  Nd  Nd10  1  0.42555400  0.25000000  0.99559000  1
  Nd  Nd11  1  0.57444600  0.75000000  0.00441000  1
  Br  Br12  1  0.12071300  0.75000000  0.67375200  1
  Br  Br13  1  0.87928700  0.25000000  0.32624800  1
  Br  Br14  1  0.62071300  0.25000000  0.82624800  1
  Br  Br15  1  0.37928700  0.75000000  0.17375200  1
  Br  Br16  1  0.83957500  0.04216200  0.57359600  1
  Br  Br17  1  0.16042500  0.95783800  0.42640400  1
  Br  Br18  1  0.33957500  0.95783800  0.92640400  1
  Br  Br19  1  0.16042500  0.54216200  0.42640400  1
  Br  Br20  1  0.66042500  0.04216200  0.07359600  1
  Br  Br21  1  0.83957500  0.45783800  0.57359600  1
  Br  Br22  1  0.66042500  0.45783800  0.07359600  1
  Br  Br23  1  0.33957500  0.54216200  0.92640400  1
  Br  Br24  1  0.58645500  0.75000000  0.50969600  1
  Br  Br25  1  0.41354500  0.25000000  0.49030400  1
  Br  Br26  1  0.08645500  0.25000000  0.99030400  1
  Br  Br27  1  0.91354500  0.75000000  0.00969600  1
  Br  Br28  1  0.65895500  0.75000000  0.80180800  1
  Br  Br29  1  0.34104500  0.25000000  0.19819200  1
  Br  Br30  1  0.15895500  0.25000000  0.69819200  1
  Br  Br31  1  0.84104500  0.75000000  0.30180800  1
