# generated using pymatgen
data_Al4InAgSe8
_symmetry_space_group_name_H-M   'P 1'
_cell_length_a   6.84064740
_cell_length_b   6.84064740
_cell_length_c   8.27801863
_cell_angle_alpha   89.77467690
_cell_angle_beta   89.77467690
_cell_angle_gamma   105.47791723
_symmetry_Int_Tables_number   1
_chemical_formula_structural   Al4InAgSe8
_chemical_formula_sum   'Al4 In1 Ag1 Se8'
_cell_volume   373.30907713
_cell_formula_units_Z   1
loop_
 _symmetry_equiv_pos_site_id
 _symmetry_equiv_pos_as_xyz
  1  'x, y, z'
loop_
 _atom_site_type_symbol
 _atom_site_label
 _atom_site_symmetry_multiplicity
 _atom_site_fract_x
 _atom_site_fract_y
 _atom_site_fract_z
 _atom_site_occupancy
  Al  Al0  1  0.98794800  0.01205200  0.50000000  1
  Al  Al1  1  0.51173200  0.48826800  0.00000000  1
  Al  Al2  1  0.99011100  0.48921600  0.75436400  1
  Al  Al3  1  0.51078400  0.00988900  0.24563600  1
  In  In4  1  0.50218200  0.49781800  0.50000000  1
  Ag  Ag5  1  0.99941900  0.00058100  0.00000000  1
  Se  Se6  1  0.40134400  0.12710200  0.99905300  1
  Se  Se7  1  0.90486000  0.63530700  0.49832700  1
  Se  Se8  1  0.87289800  0.59865600  0.00094700  1
  Se  Se9  1  0.36469300  0.09514000  0.50167300  1
  Se  Se10  1  0.86798200  0.14328600  0.26551000  1
  Se  Se11  1  0.36344400  0.63411000  0.76714700  1
  Se  Se12  1  0.85671400  0.13201800  0.73449000  1
  Se  Se13  1  0.36589000  0.63655600  0.23285300  1
