# generated using pymatgen
data_Rb2Cu3(P2O7)2
_symmetry_space_group_name_H-M   'P 1'
_cell_length_a   10.77967100
_cell_length_b   7.82883300
_cell_length_c   7.90874166
_cell_angle_alpha   75.97064603
_cell_angle_beta   90.00000000
_cell_angle_gamma   90.00000000
_symmetry_Int_Tables_number   1
_chemical_formula_structural   Rb2Cu3(P2O7)2
_chemical_formula_sum   'Rb4 Cu6 P8 O28'
_cell_volume   647.52793269
_cell_formula_units_Z   2
loop_
 _symmetry_equiv_pos_site_id
 _symmetry_equiv_pos_as_xyz
  1  'x, y, z'
loop_
 _atom_site_type_symbol
 _atom_site_label
 _atom_site_symmetry_multiplicity
 _atom_site_fract_x
 _atom_site_fract_y
 _atom_site_fract_z
 _atom_site_occupancy
  Rb  Rb0  1  0.81052000  0.26129000  0.54593900  1
  Rb  Rb1  1  0.31052000  0.73871000  0.95406100  1
  Rb  Rb2  1  0.18948000  0.73871000  0.45406100  1
  Rb  Rb3  1  0.68948000  0.26129000  0.04593900  1
  Cu  Cu4  1  0.00000000  0.00000000  0.00000000  1
  Cu  Cu5  1  0.50000000  0.00000000  0.50000000  1
  Cu  Cu6  1  0.89787600  0.72900700  0.76918900  1
  Cu  Cu7  1  0.39787600  0.27099300  0.73081100  1
  Cu  Cu8  1  0.10212400  0.27099300  0.23081100  1
  Cu  Cu9  1  0.60212400  0.72900700  0.26918900  1
  P  P10  1  0.05180100  0.38214300  0.83576000  1
  P  P11  1  0.55180100  0.61785700  0.66424000  1
  P  P12  1  0.94819900  0.61785700  0.16424000  1
  P  P13  1  0.44819900  0.38214300  0.33576000  1
  P  P14  1  0.16020800  0.12065900  0.65639500  1
  P  P15  1  0.66020800  0.87934100  0.84360500  1
  P  P16  1  0.83979200  0.87934100  0.34360500  1
  P  P17  1  0.33979200  0.12065900  0.15639500  1
  O  O18  1  0.87487500  0.58316900  0.01005700  1
  O  O19  1  0.37487500  0.41683100  0.48994300  1
  O  O20  1  0.12512500  0.41683100  0.98994300  1
  O  O21  1  0.62512500  0.58316900  0.51005700  1
  O  O22  1  0.09166500  0.97652000  0.79122600  1
  O  O23  1  0.59166500  0.02348000  0.70877400  1
  O  O24  1  0.90833500  0.02348000  0.20877400  1
  O  O25  1  0.40833500  0.97652000  0.29122600  1
  O  O26  1  0.00657500  0.55172100  0.70983900  1
  O  O27  1  0.50657500  0.44827900  0.79016100  1
  O  O28  1  0.99342500  0.44827900  0.29016100  1
  O  O29  1  0.49342500  0.55172100  0.20983900  1
  O  O30  1  0.80102300  0.91682400  0.83766200  1
  O  O31  1  0.30102300  0.08317600  0.66233800  1
  O  O32  1  0.19897700  0.08317600  0.16233800  1
  O  O33  1  0.69897700  0.91682400  0.33766200  1
  O  O34  1  0.15242800  0.30654200  0.71725400  1
  O  O35  1  0.65242800  0.69345800  0.78274600  1
  O  O36  1  0.84757200  0.69345800  0.28274600  1
  O  O37  1  0.34757200  0.30654200  0.21725400  1
  O  O38  1  0.10123700  0.14417100  0.47799900  1
  O  O39  1  0.60123700  0.85582900  0.02200100  1
  O  O40  1  0.89876300  0.85582900  0.52200100  1
  O  O41  1  0.39876300  0.14417100  0.97799900  1
  O  O42  1  0.94888700  0.24212600  0.88409800  1
  O  O43  1  0.44888700  0.75787400  0.61590200  1
  O  O44  1  0.05111300  0.75787400  0.11590200  1
  O  O45  1  0.55111300  0.24212600  0.38409800  1
