# generated using pymatgen
data_Eu(NO3)3
_symmetry_space_group_name_H-M   'P 1'
_cell_length_a   6.46067700
_cell_length_b   10.19129600
_cell_length_c   11.41535524
_cell_angle_alpha   87.41387531
_cell_angle_beta   90.00000000
_cell_angle_gamma   90.00000000
_symmetry_Int_Tables_number   1
_chemical_formula_structural   Eu(NO3)3
_chemical_formula_sum   'Eu4 N12 O36'
_cell_volume   750.85198433
_cell_formula_units_Z   4
loop_
 _symmetry_equiv_pos_site_id
 _symmetry_equiv_pos_as_xyz
  1  'x, y, z'
loop_
 _atom_site_type_symbol
 _atom_site_label
 _atom_site_symmetry_multiplicity
 _atom_site_fract_x
 _atom_site_fract_y
 _atom_site_fract_z
 _atom_site_occupancy
  Eu  Eu0  1  0.68130400  0.28741200  0.74060700  1
  Eu  Eu1  1  0.18130400  0.21258800  0.25939300  1
  Eu  Eu2  1  0.31869600  0.71258800  0.25939300  1
  Eu  Eu3  1  0.81869600  0.78741200  0.74060700  1
  N  N4  1  0.38393600  0.17324100  0.49252800  1
  N  N5  1  0.88393600  0.32675900  0.50747200  1
  N  N6  1  0.61606400  0.82675900  0.50747200  1
  N  N7  1  0.11606400  0.67324100  0.49252800  1
  N  N8  1  0.73065200  0.19579300  0.21059600  1
  N  N9  1  0.23065200  0.30420700  0.78940400  1
  N  N10  1  0.26934800  0.80420700  0.78940400  1
  N  N11  1  0.76934800  0.69579300  0.21059600  1
  N  N12  1  0.72143300  0.53237200  0.87959200  1
  N  N13  1  0.22143300  0.96762800  0.12040800  1
  N  N14  1  0.27856700  0.46762800  0.12040800  1
  N  N15  1  0.77856700  0.03237200  0.87959200  1
  O  O16  1  0.42111600  0.27455200  0.42605500  1
  O  O17  1  0.92111600  0.22544800  0.57394500  1
  O  O18  1  0.57888400  0.72544800  0.57394500  1
  O  O19  1  0.07888400  0.77455200  0.42605500  1
  O  O20  1  0.26539600  0.08625200  0.45336700  1
  O  O21  1  0.76539600  0.41374800  0.54663300  1
  O  O22  1  0.73460400  0.91374800  0.54663300  1
  O  O23  1  0.23460400  0.58625200  0.45336700  1
  O  O24  1  0.46067300  0.15988200  0.59286600  1
  O  O25  1  0.96067300  0.34011800  0.40713400  1
  O  O26  1  0.53932700  0.84011800  0.40713400  1
  O  O27  1  0.03932700  0.65988200  0.59286600  1
  O  O28  1  0.82056700  0.10569600  0.27168900  1
  O  O29  1  0.32056700  0.39430400  0.72831100  1
  O  O30  1  0.17943300  0.89430400  0.72831100  1
  O  O31  1  0.67943300  0.60569600  0.27168900  1
  O  O32  1  0.53968300  0.18987300  0.19059200  1
  O  O33  1  0.03968300  0.31012700  0.80940800  1
  O  O34  1  0.46031700  0.81012700  0.80940800  1
  O  O35  1  0.96031700  0.68987300  0.19059200  1
  O  O36  1  0.83691300  0.29109800  0.16917900  1
  O  O37  1  0.33691300  0.20890200  0.83082100  1
  O  O38  1  0.16308700  0.70890200  0.83082100  1
  O  O39  1  0.66308700  0.79109800  0.16917900  1
  O  O40  1  0.73203900  0.53988200  0.76557100  1
  O  O41  1  0.23203900  0.96011800  0.23442900  1
  O  O42  1  0.26796100  0.46011800  0.23442900  1
  O  O43  1  0.76796100  0.03988200  0.76557100  1
  O  O44  1  0.67265900  0.42421800  0.92827400  1
  O  O45  1  0.17265900  0.07578200  0.07172600  1
  O  O46  1  0.32734100  0.57578200  0.07172600  1
  O  O47  1  0.82734100  0.92421800  0.92827400  1
  O  O48  1  0.76145600  0.63309900  0.93366600  1
  O  O49  1  0.26145600  0.86690100  0.06633400  1
  O  O50  1  0.23854400  0.36690100  0.06633400  1
  O  O51  1  0.73854400  0.13309900  0.93366600  1
