# generated using pymatgen
data_LaAg2
_symmetry_space_group_name_H-M   'P 1'
_cell_length_a   6.06694149
_cell_length_b   6.06694149
_cell_length_c   6.06694149
_cell_angle_alpha   132.38186835
_cell_angle_beta   104.19890777
_cell_angle_gamma   94.62549359
_symmetry_Int_Tables_number   1
_chemical_formula_structural   LaAg2
_chemical_formula_sum   'La2 Ag4'
_cell_volume   150.18275677
_cell_formula_units_Z   2
loop_
 _symmetry_equiv_pos_site_id
 _symmetry_equiv_pos_as_xyz
  1  'x, y, z'
loop_
 _atom_site_type_symbol
 _atom_site_label
 _atom_site_symmetry_multiplicity
 _atom_site_fract_x
 _atom_site_fract_y
 _atom_site_fract_z
 _atom_site_occupancy
  La  La0  1  0.21198800  0.46198800  0.75000000  1
  La  La1  1  0.78801200  0.53801200  0.25000000  1
  Ag  Ag2  1  0.38202600  0.83480100  0.54722600  1
  Ag  Ag3  1  0.61797400  0.16519900  0.45277400  1
  Ag  Ag4  1  0.21242500  0.16519900  0.04722600  1
  Ag  Ag5  1  0.78757500  0.83480100  0.95277400  1
