# generated using pymatgen
data_SmMg(BO2)5
_symmetry_space_group_name_H-M   'P 1'
_cell_length_a   7.68253200
_cell_length_b   8.70736900
_cell_length_c   12.51948486
_cell_angle_alpha   49.06046683
_cell_angle_beta   90.00000000
_cell_angle_gamma   90.00000000
_symmetry_Int_Tables_number   1
_chemical_formula_structural   SmMg(BO2)5
_chemical_formula_sum   'Sm4 Mg4 B20 O40'
_cell_volume   632.63854066
_cell_formula_units_Z   4
loop_
 _symmetry_equiv_pos_site_id
 _symmetry_equiv_pos_as_xyz
  1  'x, y, z'
loop_
 _atom_site_type_symbol
 _atom_site_label
 _atom_site_symmetry_multiplicity
 _atom_site_fract_x
 _atom_site_fract_y
 _atom_site_fract_z
 _atom_site_occupancy
  Sm  Sm0  1  0.18662200  0.94782900  0.23770700  1
  Sm  Sm1  1  0.81337800  0.05217100  0.76229300  1
  Sm  Sm2  1  0.68662200  0.05217100  0.26229300  1
  Sm  Sm3  1  0.31337800  0.94782900  0.73770700  1
  Mg  Mg4  1  0.90934400  0.52313600  0.37359300  1
  Mg  Mg5  1  0.09065600  0.47686400  0.62640700  1
  Mg  Mg6  1  0.40934400  0.47686400  0.12640700  1
  Mg  Mg7  1  0.59065600  0.52313600  0.87359300  1
  B  B8  1  0.82634300  0.91031800  0.10536600  1
  B  B9  1  0.17365700  0.08968200  0.89463400  1
  B  B10  1  0.32634300  0.08968200  0.39463400  1
  B  B11  1  0.67365700  0.91031800  0.60536600  1
  B  B12  1  0.57745500  0.65546700  0.26000800  1
  B  B13  1  0.42254500  0.34453300  0.73999200  1
  B  B14  1  0.07745500  0.34453300  0.23999200  1
  B  B15  1  0.92254500  0.65546700  0.76000800  1
  B  B16  1  0.81386900  0.48000300  0.08756700  1
  B  B17  1  0.18613100  0.51999700  0.91243300  1
  B  B18  1  0.31386900  0.51999700  0.41243300  1
  B  B19  1  0.68613100  0.48000300  0.58756700  1
  B  B20  1  0.46744000  0.72362700  0.55577400  1
  B  B21  1  0.53256000  0.27637300  0.44422600  1
  B  B22  1  0.96744000  0.27637300  0.94422600  1
  B  B23  1  0.03256000  0.72362700  0.05577400  1
  B  B24  1  0.59808800  0.84411100  0.99886900  1
  B  B25  1  0.40191200  0.15588900  0.00113100  1
  B  B26  1  0.09808800  0.15588900  0.50113100  1
  B  B27  1  0.90191200  0.84411100  0.49886900  1
  O  O28  1  0.91467600  0.31561900  0.19277600  1
  O  O29  1  0.08532400  0.68438100  0.80722400  1
  O  O30  1  0.41467600  0.68438100  0.30722400  1
  O  O31  1  0.58532400  0.31561900  0.69277600  1
  O  O32  1  0.87516100  0.67487500  0.00994400  1
  O  O33  1  0.12483900  0.32512500  0.99005600  1
  O  O34  1  0.37516100  0.32512500  0.49005600  1
  O  O35  1  0.62483900  0.67487500  0.50994400  1
  O  O36  1  0.39160500  0.90867700  0.41887600  1
  O  O37  1  0.60839500  0.09132300  0.58112400  1
  O  O38  1  0.89160500  0.09132300  0.08112400  1
  O  O39  1  0.10839500  0.90867700  0.91887600  1
  O  O40  1  0.71223100  0.79961900  0.23253900  1
  O  O41  1  0.28776900  0.20038100  0.76746100  1
  O  O42  1  0.21223100  0.20038100  0.26746100  1
  O  O43  1  0.78776900  0.79961900  0.73253900  1
  O  O44  1  0.65218200  0.42847400  0.07148700  1
  O  O45  1  0.34781800  0.57152600  0.92851300  1
  O  O46  1  0.15218200  0.57152600  0.42851300  1
  O  O47  1  0.84781800  0.42847400  0.57148700  1
  O  O48  1  0.77329200  0.97139200  0.48271900  1
  O  O49  1  0.22670800  0.02860800  0.51728100  1
  O  O50  1  0.27329200  0.02860800  0.01728100  1
  O  O51  1  0.72670800  0.97139200  0.98271900  1
  O  O52  1  0.65112900  0.45027900  0.36613900  1
  O  O53  1  0.34887100  0.54972100  0.63386100  1
  O  O54  1  0.15112900  0.54972100  0.13386100  1
  O  O55  1  0.84887100  0.45027900  0.86613900  1
  O  O56  1  0.53151800  0.68685200  0.13025000  1
  O  O57  1  0.46848200  0.31314800  0.86975000  1
  O  O58  1  0.03151800  0.31314800  0.36975000  1
  O  O59  1  0.96848200  0.68685200  0.63025000  1
  O  O60  1  0.95268200  0.87868000  0.38102000  1
  O  O61  1  0.04731800  0.12132000  0.61898000  1
  O  O62  1  0.45268200  0.12132000  0.11898000  1
  O  O63  1  0.54731800  0.87868000  0.88102000  1
  O  O64  1  0.97233200  0.76599100  0.14829100  1
  O  O65  1  0.02766800  0.23400900  0.85170900  1
  O  O66  1  0.47233200  0.23400900  0.35170900  1
  O  O67  1  0.52766800  0.76599100  0.64829100  1
