# generated using pymatgen
data_Eu5P3O12F
_symmetry_space_group_name_H-M   'P 1'
_cell_length_a   9.85312340
_cell_length_b   9.85312340
_cell_length_c   7.31697300
_cell_angle_alpha   90.00000000
_cell_angle_beta   90.00000000
_cell_angle_gamma   119.99999598
_symmetry_Int_Tables_number   1
_chemical_formula_structural   Eu5P3O12F
_chemical_formula_sum   'Eu10 P6 O24 F2'
_cell_volume   615.19096095
_cell_formula_units_Z   2
loop_
 _symmetry_equiv_pos_site_id
 _symmetry_equiv_pos_as_xyz
  1  'x, y, z'
loop_
 _atom_site_type_symbol
 _atom_site_label
 _atom_site_symmetry_multiplicity
 _atom_site_fract_x
 _atom_site_fract_y
 _atom_site_fract_z
 _atom_site_occupancy
  Eu  Eu0  1  0.33333300  0.66666700  0.99979700  1
  Eu  Eu1  1  0.66666700  0.33333300  0.00020300  1
  Eu  Eu2  1  0.66666700  0.33333300  0.49979700  1
  Eu  Eu3  1  0.33333300  0.66666700  0.50020300  1
  Eu  Eu4  1  0.74812300  0.75824200  0.75000000  1
  Eu  Eu5  1  0.25187700  0.24175800  0.25000000  1
  Eu  Eu6  1  0.01011900  0.25187700  0.75000000  1
  Eu  Eu7  1  0.98988100  0.74812300  0.25000000  1
  Eu  Eu8  1  0.24175800  0.98988100  0.75000000  1
  Eu  Eu9  1  0.75824200  0.01011900  0.25000000  1
  P  P10  1  0.96987600  0.60163400  0.75000000  1
  P  P11  1  0.03012400  0.39836600  0.25000000  1
  P  P12  1  0.63175800  0.03012400  0.75000000  1
  P  P13  1  0.36824200  0.96987600  0.25000000  1
  P  P14  1  0.39836600  0.36824200  0.75000000  1
  P  P15  1  0.60163400  0.63175800  0.25000000  1
  O  O16  1  0.52028300  0.84922200  0.75000000  1
  O  O17  1  0.47971700  0.15077800  0.25000000  1
  O  O18  1  0.32893900  0.47971700  0.75000000  1
  O  O19  1  0.67106100  0.52028300  0.25000000  1
  O  O20  1  0.15077800  0.67106100  0.75000000  1
  O  O21  1  0.84922200  0.32893900  0.25000000  1
  O  O22  1  0.88223500  0.41818400  0.75000000  1
  O  O23  1  0.11776500  0.58181600  0.25000000  1
  O  O24  1  0.53594800  0.11776500  0.75000000  1
  O  O25  1  0.46405200  0.88223500  0.25000000  1
  O  O26  1  0.58181600  0.46405200  0.75000000  1
  O  O27  1  0.41818400  0.53594800  0.25000000  1
  O  O28  1  0.91685900  0.65605700  0.92223300  1
  O  O29  1  0.08314100  0.34394300  0.07776700  1
  O  O30  1  0.73919700  0.08314100  0.92223300  1
  O  O31  1  0.08314100  0.34394300  0.42223300  1
  O  O32  1  0.26080300  0.91685900  0.07776700  1
  O  O33  1  0.91685900  0.65605700  0.57776700  1
  O  O34  1  0.34394300  0.26080300  0.92223300  1
  O  O35  1  0.26080300  0.91685900  0.42223300  1
  O  O36  1  0.65605700  0.73919700  0.07776700  1
  O  O37  1  0.73919700  0.08314100  0.57776700  1
  O  O38  1  0.65605700  0.73919700  0.42223300  1
  O  O39  1  0.34394300  0.26080300  0.57776700  1
  F  F40  1  0.00000000  0.00000000  0.75000000  1
  F  F41  1  0.00000000  0.00000000  0.25000000  1
