# generated using pymatgen
data_MnPd2
_symmetry_space_group_name_H-M   'P 1'
_cell_length_a   4.03499000
_cell_length_b   5.53871900
_cell_length_c   8.24127100
_cell_angle_alpha   90.00000000
_cell_angle_beta   90.00000000
_cell_angle_gamma   90.00000000
_symmetry_Int_Tables_number   1
_chemical_formula_structural   MnPd2
_chemical_formula_sum   'Mn4 Pd8'
_cell_volume   184.18149358
_cell_formula_units_Z   4
loop_
 _symmetry_equiv_pos_site_id
 _symmetry_equiv_pos_as_xyz
  1  'x, y, z'
loop_
 _atom_site_type_symbol
 _atom_site_label
 _atom_site_symmetry_multiplicity
 _atom_site_fract_x
 _atom_site_fract_y
 _atom_site_fract_z
 _atom_site_occupancy
  Mn  Mn0  1  0.75000000  0.34831700  0.59647600  1
  Mn  Mn1  1  0.75000000  0.84831700  0.90352400  1
  Mn  Mn2  1  0.25000000  0.65168300  0.40352400  1
  Mn  Mn3  1  0.25000000  0.15168300  0.09647600  1
  Pd  Pd4  1  0.75000000  0.35561800  0.92498700  1
  Pd  Pd5  1  0.75000000  0.85561800  0.57501300  1
  Pd  Pd6  1  0.25000000  0.64438200  0.07501300  1
  Pd  Pd7  1  0.25000000  0.14438200  0.42498700  1
  Pd  Pd8  1  0.75000000  0.40937200  0.26480600  1
  Pd  Pd9  1  0.75000000  0.90937200  0.23519400  1
  Pd  Pd10  1  0.25000000  0.59062800  0.73519400  1
  Pd  Pd11  1  0.25000000  0.09062800  0.76480600  1
