# generated using pymatgen
data_Dy(NO3)3
_symmetry_space_group_name_H-M   'P 1'
_cell_length_a   6.19782900
_cell_length_b   9.80737200
_cell_length_c   11.10228849
_cell_angle_alpha   88.50929262
_cell_angle_beta   90.00000000
_cell_angle_gamma   90.00000000
_symmetry_Int_Tables_number   1
_chemical_formula_structural   Dy(NO3)3
_chemical_formula_sum   'Dy4 N12 O36'
_cell_volume   674.61770970
_cell_formula_units_Z   4
loop_
 _symmetry_equiv_pos_site_id
 _symmetry_equiv_pos_as_xyz
  1  'x, y, z'
loop_
 _atom_site_type_symbol
 _atom_site_label
 _atom_site_symmetry_multiplicity
 _atom_site_fract_x
 _atom_site_fract_y
 _atom_site_fract_z
 _atom_site_occupancy
  Dy  Dy0  1  0.67808700  0.27862800  0.73657900  1
  Dy  Dy1  1  0.17808700  0.22137200  0.26342100  1
  Dy  Dy2  1  0.32191300  0.72137200  0.26342100  1
  Dy  Dy3  1  0.82191300  0.77862800  0.73657900  1
  N  N4  1  0.37610300  0.16461100  0.49117600  1
  N  N5  1  0.87610300  0.33538900  0.50882400  1
  N  N6  1  0.62389700  0.83538900  0.50882400  1
  N  N7  1  0.12389700  0.66461100  0.49117600  1
  N  N8  1  0.72876400  0.21373200  0.20972900  1
  N  N9  1  0.22876400  0.28626800  0.79027100  1
  N  N10  1  0.27123600  0.78626800  0.79027100  1
  N  N11  1  0.77123600  0.71373200  0.20972900  1
  N  N12  1  0.72448800  0.52212200  0.88320700  1
  N  N13  1  0.22448800  0.97787800  0.11679300  1
  N  N14  1  0.27551200  0.47787800  0.11679300  1
  N  N15  1  0.77551200  0.02212200  0.88320700  1
  O  O16  1  0.42591400  0.26906000  0.42546700  1
  O  O17  1  0.92591400  0.23094000  0.57453300  1
  O  O18  1  0.57408600  0.73094000  0.57453300  1
  O  O19  1  0.07408600  0.76906000  0.42546700  1
  O  O20  1  0.23591400  0.08436100  0.44971700  1
  O  O21  1  0.73591400  0.41563900  0.55028300  1
  O  O22  1  0.76408600  0.91563900  0.55028300  1
  O  O23  1  0.26408600  0.58436100  0.44971700  1
  O  O24  1  0.46161900  0.14247500  0.59205900  1
  O  O25  1  0.96161900  0.35752500  0.40794100  1
  O  O26  1  0.53838100  0.85752500  0.40794100  1
  O  O27  1  0.03838100  0.64247500  0.59205900  1
  O  O28  1  0.81590300  0.11982300  0.27447700  1
  O  O29  1  0.31590300  0.38017700  0.72552300  1
  O  O30  1  0.18409700  0.88017700  0.72552300  1
  O  O31  1  0.68409700  0.61982300  0.27447700  1
  O  O32  1  0.53186300  0.20992200  0.18263900  1
  O  O33  1  0.03186300  0.29007800  0.81736100  1
  O  O34  1  0.46813700  0.79007800  0.81736100  1
  O  O35  1  0.96813700  0.70992200  0.18263900  1
  O  O36  1  0.84713200  0.31056500  0.17147800  1
  O  O37  1  0.34713200  0.18943500  0.82852200  1
  O  O38  1  0.15286800  0.68943500  0.82852200  1
  O  O39  1  0.65286800  0.81056500  0.17147800  1
  O  O40  1  0.73540500  0.53219500  0.76520300  1
  O  O41  1  0.23540500  0.96780500  0.23479700  1
  O  O42  1  0.26459500  0.46780500  0.23479700  1
  O  O43  1  0.76459500  0.03219500  0.76520300  1
  O  O44  1  0.66774700  0.40798700  0.92672100  1
  O  O45  1  0.16774700  0.09201300  0.07327900  1
  O  O46  1  0.33225300  0.59201300  0.07327900  1
  O  O47  1  0.83225300  0.90798700  0.92672100  1
  O  O48  1  0.77066200  0.62302500  0.94229100  1
  O  O49  1  0.27066200  0.87697500  0.05770900  1
  O  O50  1  0.22933800  0.37697500  0.05770900  1
  O  O51  1  0.72933800  0.12302500  0.94229100  1
