# generated using pymatgen
data_B9Pb8O21F
_symmetry_space_group_name_H-M   'P 1'
_cell_length_a   14.23098601
_cell_length_b   14.23098601
_cell_length_c   14.23098600
_cell_angle_alpha   40.76842827
_cell_angle_beta   40.76842827
_cell_angle_gamma   40.76843003
_symmetry_Int_Tables_number   1
_chemical_formula_structural   B9Pb8O21F
_chemical_formula_sum   'B18 Pb16 O42 F2'
_cell_volume   1108.97126707
_cell_formula_units_Z   2
loop_
 _symmetry_equiv_pos_site_id
 _symmetry_equiv_pos_as_xyz
  1  'x, y, z'
loop_
 _atom_site_type_symbol
 _atom_site_label
 _atom_site_symmetry_multiplicity
 _atom_site_fract_x
 _atom_site_fract_y
 _atom_site_fract_z
 _atom_site_occupancy
  B  B0  1  0.59855300  0.75000000  0.90144700  1
  B  B1  1  0.90144700  0.59855300  0.75000000  1
  B  B2  1  0.75000000  0.90144700  0.59855300  1
  B  B3  1  0.40144700  0.25000000  0.09855300  1
  B  B4  1  0.09855300  0.40144700  0.25000000  1
  B  B5  1  0.25000000  0.09855300  0.40144700  1
  B  B6  1  0.43054600  0.88577400  0.07758600  1
  B  B7  1  0.07758600  0.43054600  0.88577400  1
  B  B8  1  0.88577400  0.07758600  0.43054600  1
  B  B9  1  0.57758600  0.38577400  0.93054600  1
  B  B10  1  0.93054600  0.57758600  0.38577400  1
  B  B11  1  0.38577400  0.93054600  0.57758600  1
  B  B12  1  0.56945400  0.11422600  0.92241400  1
  B  B13  1  0.92241400  0.56945400  0.11422600  1
  B  B14  1  0.11422600  0.92241400  0.56945400  1
  B  B15  1  0.42241400  0.61422600  0.06945400  1
  B  B16  1  0.06945400  0.42241400  0.61422600  1
  B  B17  1  0.61422600  0.06945400  0.42241400  1
  Pb  Pb18  1  0.20127000  0.71011100  0.46911900  1
  Pb  Pb19  1  0.46911900  0.20127000  0.71011100  1
  Pb  Pb20  1  0.71011100  0.46911900  0.20127000  1
  Pb  Pb21  1  0.96911900  0.21011100  0.70127000  1
  Pb  Pb22  1  0.70127000  0.96911900  0.21011100  1
  Pb  Pb23  1  0.21011100  0.70127000  0.96911900  1
  Pb  Pb24  1  0.79873000  0.28988900  0.53088100  1
  Pb  Pb25  1  0.53088100  0.79873000  0.28988900  1
  Pb  Pb26  1  0.28988900  0.53088100  0.79873000  1
  Pb  Pb27  1  0.03088100  0.78988900  0.29873000  1
  Pb  Pb28  1  0.29873000  0.03088100  0.78988900  1
  Pb  Pb29  1  0.78988900  0.29873000  0.03088100  1
  Pb  Pb30  1  0.16355400  0.16355400  0.16355400  1
  Pb  Pb31  1  0.66355400  0.66355400  0.66355400  1
  Pb  Pb32  1  0.83644600  0.83644600  0.83644600  1
  Pb  Pb33  1  0.33644600  0.33644600  0.33644600  1
  O  O34  1  0.38684300  0.84730400  0.22720500  1
  O  O35  1  0.22720500  0.38684300  0.84730400  1
  O  O36  1  0.84730400  0.22720500  0.38684300  1
  O  O37  1  0.72720500  0.34730400  0.88684300  1
  O  O38  1  0.88684300  0.72720500  0.34730400  1
  O  O39  1  0.34730400  0.88684300  0.72720500  1
  O  O40  1  0.61315700  0.15269600  0.77279500  1
  O  O41  1  0.77279500  0.61315700  0.15269600  1
  O  O42  1  0.15269600  0.77279500  0.61315700  1
  O  O43  1  0.27279500  0.65269600  0.11315700  1
  O  O44  1  0.11315700  0.27279500  0.65269600  1
  O  O45  1  0.65269600  0.11315700  0.27279500  1
  O  O46  1  0.54733700  0.76398200  0.03122500  1
  O  O47  1  0.03122500  0.54733700  0.76398200  1
  O  O48  1  0.76398200  0.03122500  0.54733700  1
  O  O49  1  0.53122500  0.26398200  0.04733700  1
  O  O50  1  0.04733700  0.53122500  0.26398200  1
  O  O51  1  0.26398200  0.04733700  0.53122500  1
  O  O52  1  0.45266300  0.23601800  0.96877500  1
  O  O53  1  0.96877500  0.45266300  0.23601800  1
  O  O54  1  0.23601800  0.96877500  0.45266300  1
  O  O55  1  0.46877500  0.73601800  0.95266300  1
  O  O56  1  0.95266300  0.46877500  0.73601800  1
  O  O57  1  0.73601800  0.95266300  0.46877500  1
  O  O58  1  0.75000000  0.60679900  0.89320100  1
  O  O59  1  0.89320100  0.75000000  0.60679900  1
  O  O60  1  0.60679900  0.89320100  0.75000000  1
  O  O61  1  0.39320100  0.10679900  0.25000000  1
  O  O62  1  0.25000000  0.39320100  0.10679900  1
  O  O63  1  0.10679900  0.25000000  0.39320100  1
  O  O64  1  0.35390200  0.04015200  0.98741100  1
  O  O65  1  0.98741100  0.35390200  0.04015200  1
  O  O66  1  0.04015200  0.98741100  0.35390200  1
  O  O67  1  0.48741100  0.54015200  0.85390200  1
  O  O68  1  0.85390200  0.48741100  0.54015200  1
  O  O69  1  0.54015200  0.85390200  0.48741100  1
  O  O70  1  0.64609800  0.95984800  0.01258900  1
  O  O71  1  0.01258900  0.64609800  0.95984800  1
  O  O72  1  0.95984800  0.01258900  0.64609800  1
  O  O73  1  0.51258900  0.45984800  0.14609800  1
  O  O74  1  0.14609800  0.51258900  0.45984800  1
  O  O75  1  0.45984800  0.14609800  0.51258900  1
  F  F76  1  0.50000000  0.50000000  0.50000000  1
  F  F77  1  0.00000000  0.00000000  0.00000000  1
