# generated using pymatgen
data_Yb2SnGe2
_symmetry_space_group_name_H-M   'P 1'
_cell_length_a   7.37513800
_cell_length_b   7.37513800
_cell_length_c   4.38733100
_cell_angle_alpha   90.00000000
_cell_angle_beta   90.00000000
_cell_angle_gamma   90.00000000
_symmetry_Int_Tables_number   1
_chemical_formula_structural   Yb2SnGe2
_chemical_formula_sum   'Yb4 Sn2 Ge4'
_cell_volume   238.63860567
_cell_formula_units_Z   2
loop_
 _symmetry_equiv_pos_site_id
 _symmetry_equiv_pos_as_xyz
  1  'x, y, z'
loop_
 _atom_site_type_symbol
 _atom_site_label
 _atom_site_symmetry_multiplicity
 _atom_site_fract_x
 _atom_site_fract_y
 _atom_site_fract_z
 _atom_site_occupancy
  Yb  Yb0  1  0.67599800  0.17599800  0.50000000  1
  Yb  Yb1  1  0.32400200  0.82400200  0.50000000  1
  Yb  Yb2  1  0.17599800  0.32400200  0.50000000  1
  Yb  Yb3  1  0.82400200  0.67599800  0.50000000  1
  Sn  Sn4  1  0.50000000  0.50000000  0.00000000  1
  Sn  Sn5  1  0.00000000  0.00000000  0.00000000  1
  Ge  Ge6  1  0.11959800  0.61959800  0.00000000  1
  Ge  Ge7  1  0.88040200  0.38040200  0.00000000  1
  Ge  Ge8  1  0.61959800  0.88040200  0.00000000  1
  Ge  Ge9  1  0.38040200  0.11959800  0.00000000  1
