# generated using pymatgen
data_Sr3YbRhO6
_symmetry_space_group_name_H-M   'P 1'
_cell_length_a   6.82492494
_cell_length_b   6.82492494
_cell_length_c   6.82492420
_cell_angle_alpha   91.91760633
_cell_angle_beta   91.91760633
_cell_angle_gamma   91.91760626
_symmetry_Int_Tables_number   1
_chemical_formula_structural   Sr3YbRhO6
_chemical_formula_sum   'Sr6 Yb2 Rh2 O12'
_cell_volume   317.35591635
_cell_formula_units_Z   2
loop_
 _symmetry_equiv_pos_site_id
 _symmetry_equiv_pos_as_xyz
  1  'x, y, z'
loop_
 _atom_site_type_symbol
 _atom_site_label
 _atom_site_symmetry_multiplicity
 _atom_site_fract_x
 _atom_site_fract_y
 _atom_site_fract_z
 _atom_site_occupancy
  Sr  Sr0  1  0.38515800  0.11484200  0.75000000  1
  Sr  Sr1  1  0.11484200  0.75000000  0.38515800  1
  Sr  Sr2  1  0.75000000  0.38515800  0.11484200  1
  Sr  Sr3  1  0.61484200  0.88515800  0.25000000  1
  Sr  Sr4  1  0.25000000  0.61484200  0.88515800  1
  Sr  Sr5  1  0.88515800  0.25000000  0.61484200  1
  Yb  Yb6  1  0.25000000  0.25000000  0.25000000  1
  Yb  Yb7  1  0.75000000  0.75000000  0.75000000  1
  Rh  Rh8  1  0.00000000  0.00000000  0.00000000  1
  Rh  Rh9  1  0.50000000  0.50000000  0.50000000  1
  O  O10  1  0.08348500  0.28644000  0.95152200  1
  O  O11  1  0.95152200  0.08348500  0.28644000  1
  O  O12  1  0.28644000  0.95152200  0.08348500  1
  O  O13  1  0.41651500  0.54847800  0.21356000  1
  O  O14  1  0.21356000  0.41651500  0.54847800  1
  O  O15  1  0.54847800  0.21356000  0.41651500  1
  O  O16  1  0.91651500  0.71356000  0.04847800  1
  O  O17  1  0.04847800  0.91651500  0.71356000  1
  O  O18  1  0.71356000  0.04847800  0.91651500  1
  O  O19  1  0.58348500  0.45152200  0.78644000  1
  O  O20  1  0.45152200  0.78644000  0.58348500  1
  O  O21  1  0.78644000  0.58348500  0.45152200  1
