# generated using pymatgen
data_CsInSe2
_symmetry_space_group_name_H-M   'P 1'
_cell_length_a   8.43479398
_cell_length_b   8.43479398
_cell_length_c   17.27948637
_cell_angle_alpha   82.99955198
_cell_angle_beta   82.99955198
_cell_angle_gamma   89.99081623
_symmetry_Int_Tables_number   1
_chemical_formula_structural   CsInSe2
_chemical_formula_sum   'Cs8 In8 Se16'
_cell_volume   1210.96630739
_cell_formula_units_Z   8
loop_
 _symmetry_equiv_pos_site_id
 _symmetry_equiv_pos_as_xyz
  1  'x, y, z'
loop_
 _atom_site_type_symbol
 _atom_site_label
 _atom_site_symmetry_multiplicity
 _atom_site_fract_x
 _atom_site_fract_y
 _atom_site_fract_z
 _atom_site_occupancy
  Cs  Cs0  1  0.65069500  0.27617600  0.39560500  1
  Cs  Cs1  1  0.72382400  0.34930500  0.10439500  1
  Cs  Cs2  1  0.34930500  0.72382400  0.60439500  1
  Cs  Cs3  1  0.27617600  0.65069500  0.89560500  1
  Cs  Cs4  1  0.27716900  0.15200700  0.89168900  1
  Cs  Cs5  1  0.84799300  0.72283100  0.60831100  1
  Cs  Cs6  1  0.72283100  0.84799300  0.10831100  1
  Cs  Cs7  1  0.15200700  0.27716900  0.39168900  1
  In  In8  1  0.58496100  0.20868800  0.66641500  1
  In  In9  1  0.79131200  0.41503900  0.83358500  1
  In  In10  1  0.41503900  0.79131200  0.33358500  1
  In  In11  1  0.20868800  0.58496100  0.16641500  1
  In  In12  1  0.08191500  0.20825300  0.66691700  1
  In  In13  1  0.79174700  0.91808500  0.83308300  1
  In  In14  1  0.91808500  0.79174700  0.33308300  1
  In  In15  1  0.20825300  0.08191500  0.16691700  1
  Se  Se16  1  0.55146300  0.44853700  0.75000000  1
  Se  Se17  1  0.44853700  0.55146300  0.25000000  1
  Se  Se18  1  0.55134800  0.92679300  0.74999700  1
  Se  Se19  1  0.07320700  0.44865200  0.75000300  1
  Se  Se20  1  0.44865200  0.07320700  0.25000300  1
  Se  Se21  1  0.92679300  0.55134800  0.24999700  1
  Se  Se22  1  0.07359300  0.92640700  0.75000000  1
  Se  Se23  1  0.92640700  0.07359300  0.25000000  1
  Se  Se24  1  0.35653100  0.23230800  0.57344700  1
  Se  Se25  1  0.76769200  0.64346900  0.92655300  1
  Se  Se26  1  0.64346900  0.76769200  0.42655300  1
  Se  Se27  1  0.23230800  0.35653100  0.07344700  1
  Se  Se28  1  0.85733500  0.23204900  0.57234000  1
  Se  Se29  1  0.76795100  0.14266500  0.92766000  1
  Se  Se30  1  0.14266500  0.76795100  0.42766000  1
  Se  Se31  1  0.23204900  0.85733500  0.07234000  1
