# generated using pymatgen
data_K2WS4
_symmetry_space_group_name_H-M   'P 1'
_cell_length_a   7.18442700
_cell_length_b   9.60915700
_cell_length_c   12.63568700
_cell_angle_alpha   90.00000000
_cell_angle_beta   90.00000000
_cell_angle_gamma   90.00000000
_symmetry_Int_Tables_number   1
_chemical_formula_structural   K2WS4
_chemical_formula_sum   'K8 W4 S16'
_cell_volume   872.32091415
_cell_formula_units_Z   4
loop_
 _symmetry_equiv_pos_site_id
 _symmetry_equiv_pos_as_xyz
  1  'x, y, z'
loop_
 _atom_site_type_symbol
 _atom_site_label
 _atom_site_symmetry_multiplicity
 _atom_site_fract_x
 _atom_site_fract_y
 _atom_site_fract_z
 _atom_site_occupancy
  K  K0  1  0.75000000  0.51293200  0.31014600  1
  K  K1  1  0.25000000  0.48706800  0.68985400  1
  K  K2  1  0.25000000  0.98706800  0.81014600  1
  K  K3  1  0.75000000  0.01293200  0.18985400  1
  K  K4  1  0.75000000  0.82925100  0.58593000  1
  K  K5  1  0.25000000  0.17074900  0.41407000  1
  K  K6  1  0.25000000  0.67074900  0.08593000  1
  K  K7  1  0.75000000  0.32925100  0.91407000  1
  W  W8  1  0.75000000  0.76882700  0.92162200  1
  W  W9  1  0.25000000  0.23117300  0.07837800  1
  W  W10  1  0.25000000  0.73117300  0.42162200  1
  W  W11  1  0.75000000  0.26882700  0.57837800  1
  S  S12  1  0.99824000  0.68823500  0.84045400  1
  S  S13  1  0.00176000  0.31176500  0.15954600  1
  S  S14  1  0.00176000  0.81176500  0.34045400  1
  S  S15  1  0.49824000  0.31176500  0.15954600  1
  S  S16  1  0.99824000  0.18823500  0.65954600  1
  S  S17  1  0.50176000  0.68823500  0.84045400  1
  S  S18  1  0.50176000  0.18823500  0.65954600  1
  S  S19  1  0.49824000  0.81176500  0.34045400  1
  S  S20  1  0.75000000  0.99695900  0.91641400  1
  S  S21  1  0.25000000  0.00304100  0.08358600  1
  S  S22  1  0.25000000  0.50304100  0.41641400  1
  S  S23  1  0.75000000  0.49695900  0.58358600  1
  S  S24  1  0.75000000  0.19265800  0.41300800  1
  S  S25  1  0.25000000  0.80734200  0.58699200  1
  S  S26  1  0.25000000  0.30734200  0.91300800  1
  S  S27  1  0.75000000  0.69265800  0.08699200  1
