# generated using pymatgen
data_Sr2NbCrO6
_symmetry_space_group_name_H-M   'P 1'
_cell_length_a   8.01609300
_cell_length_b   8.01609300
_cell_length_c   9.81766838
_cell_angle_alpha   65.90515958
_cell_angle_beta   65.90515958
_cell_angle_gamma   90.00000000
_symmetry_Int_Tables_number   1
_chemical_formula_structural   Sr2NbCrO6
_chemical_formula_sum   'Sr8 Nb4 Cr4 O24'
_cell_volume   515.09607580
_cell_formula_units_Z   4
loop_
 _symmetry_equiv_pos_site_id
 _symmetry_equiv_pos_as_xyz
  1  'x, y, z'
loop_
 _atom_site_type_symbol
 _atom_site_label
 _atom_site_symmetry_multiplicity
 _atom_site_fract_x
 _atom_site_fract_y
 _atom_site_fract_z
 _atom_site_occupancy
  Sr  Sr0  1  0.62500000  0.62500000  0.25000000  1
  Sr  Sr1  1  0.87500000  0.37500000  0.75000000  1
  Sr  Sr2  1  0.12500000  0.12500000  0.25000000  1
  Sr  Sr3  1  0.37500000  0.87500000  0.75000000  1
  Sr  Sr4  1  0.37500000  0.37500000  0.75000000  1
  Sr  Sr5  1  0.62500000  0.12500000  0.25000000  1
  Sr  Sr6  1  0.87500000  0.87500000  0.75000000  1
  Sr  Sr7  1  0.12500000  0.62500000  0.25000000  1
  Nb  Nb8  1  0.25000000  0.75000000  0.50000000  1
  Nb  Nb9  1  0.50000000  0.50000000  0.00000000  1
  Nb  Nb10  1  0.75000000  0.25000000  0.50000000  1
  Nb  Nb11  1  0.00000000  0.00000000  0.00000000  1
  Cr  Cr12  1  0.75000000  0.75000000  0.50000000  1
  Cr  Cr13  1  0.00000000  0.50000000  0.00000000  1
  Cr  Cr14  1  0.50000000  0.00000000  0.00000000  1
  Cr  Cr15  1  0.25000000  0.25000000  0.50000000  1
  O  O16  1  0.50000000  0.75017100  0.00000000  1
  O  O17  1  0.75000000  0.50017100  0.50000000  1
  O  O18  1  0.00000000  0.25017100  0.00000000  1
  O  O19  1  0.25000000  0.00017100  0.50000000  1
  O  O20  1  0.50000000  0.24982900  0.00000000  1
  O  O21  1  0.75000000  0.99982900  0.50000000  1
  O  O22  1  0.00000000  0.74982900  0.00000000  1
  O  O23  1  0.25000000  0.49982900  0.50000000  1
  O  O24  1  0.37508500  0.87508500  0.24982900  1
  O  O25  1  0.62508500  0.62508500  0.74982900  1
  O  O26  1  0.87508500  0.37508500  0.24982900  1
  O  O27  1  0.12508500  0.12508500  0.74982900  1
  O  O28  1  0.62491500  0.12491500  0.75017100  1
  O  O29  1  0.87491500  0.87491500  0.25017100  1
  O  O30  1  0.12491500  0.62491500  0.75017100  1
  O  O31  1  0.37491500  0.37491500  0.25017100  1
  O  O32  1  0.74982900  0.00000000  0.00000000  1
  O  O33  1  0.99982900  0.75000000  0.50000000  1
  O  O34  1  0.24982900  0.50000000  0.00000000  1
  O  O35  1  0.49982900  0.25000000  0.50000000  1
  O  O36  1  0.25017100  0.00000000  0.00000000  1
  O  O37  1  0.50017100  0.75000000  0.50000000  1
  O  O38  1  0.75017100  0.50000000  0.00000000  1
  O  O39  1  0.00017100  0.25000000  0.50000000  1
