# generated using pymatgen
data_NdEu2BeO5
_symmetry_space_group_name_H-M   'P 1'
_cell_length_a   6.57765500
_cell_length_b   7.26991300
_cell_length_c   9.57303400
_cell_angle_alpha   90.00000000
_cell_angle_beta   90.00000000
_cell_angle_gamma   90.00000000
_symmetry_Int_Tables_number   1
_chemical_formula_structural   NdEu2BeO5
_chemical_formula_sum   'Nd4 Eu8 Be4 O20'
_cell_volume   457.77271750
_cell_formula_units_Z   4
loop_
 _symmetry_equiv_pos_site_id
 _symmetry_equiv_pos_as_xyz
  1  'x, y, z'
loop_
 _atom_site_type_symbol
 _atom_site_label
 _atom_site_symmetry_multiplicity
 _atom_site_fract_x
 _atom_site_fract_y
 _atom_site_fract_z
 _atom_site_occupancy
  Nd  Nd0  1  0.09590500  0.75000000  0.97584900  1
  Nd  Nd1  1  0.90409500  0.25000000  0.02415100  1
  Nd  Nd2  1  0.59590500  0.25000000  0.52415100  1
  Nd  Nd3  1  0.40409500  0.75000000  0.47584900  1
  Eu  Eu4  1  0.57946300  0.52288600  0.82655400  1
  Eu  Eu5  1  0.42053700  0.47711400  0.17344600  1
  Eu  Eu6  1  0.07946300  0.47711400  0.67344600  1
  Eu  Eu7  1  0.42053700  0.02288600  0.17344600  1
  Eu  Eu8  1  0.92053700  0.52288600  0.32655400  1
  Eu  Eu9  1  0.57946300  0.97711400  0.82655400  1
  Eu  Eu10  1  0.92053700  0.97711400  0.32655400  1
  Eu  Eu11  1  0.07946300  0.02288600  0.67344600  1
  Be  Be12  1  0.80844100  0.75000000  0.59981600  1
  Be  Be13  1  0.19155900  0.25000000  0.40018400  1
  Be  Be14  1  0.30844100  0.25000000  0.90018400  1
  Be  Be15  1  0.69155900  0.75000000  0.09981600  1
  O  O16  1  0.69136100  0.55907100  0.56710700  1
  O  O17  1  0.30863900  0.44092900  0.43289300  1
  O  O18  1  0.19136100  0.44092900  0.93289300  1
  O  O19  1  0.30863900  0.05907100  0.43289300  1
  O  O20  1  0.80863900  0.55907100  0.06710700  1
  O  O21  1  0.69136100  0.94092900  0.56710700  1
  O  O22  1  0.80863900  0.94092900  0.06710700  1
  O  O23  1  0.19136100  0.05907100  0.93289300  1
  O  O24  1  0.33528000  0.75000000  0.72342800  1
  O  O25  1  0.66472000  0.25000000  0.27657200  1
  O  O26  1  0.83528000  0.25000000  0.77657200  1
  O  O27  1  0.16472000  0.75000000  0.22342800  1
  O  O28  1  0.02097900  0.75000000  0.50931200  1
  O  O29  1  0.97902100  0.25000000  0.49068800  1
  O  O30  1  0.52097900  0.25000000  0.99068800  1
  O  O31  1  0.47902100  0.75000000  0.00931200  1
  O  O32  1  0.86447800  0.75000000  0.77232100  1
  O  O33  1  0.13552200  0.25000000  0.22767900  1
  O  O34  1  0.36447800  0.25000000  0.72767900  1
  O  O35  1  0.63552200  0.75000000  0.27232100  1
