# generated using pymatgen
data_Na6W6Se2O25
_symmetry_space_group_name_H-M   'P 1'
_cell_length_a   21.86272646
_cell_length_b   21.86272646
_cell_length_c   6.90209252
_cell_angle_alpha   81.78276737
_cell_angle_beta   81.78276737
_cell_angle_gamma   19.51038191
_symmetry_Int_Tables_number   1
_chemical_formula_structural   Na6W6Se2O25
_chemical_formula_sum   'Na12 W12 Se4 O50'
_cell_volume   1090.16220234
_cell_formula_units_Z   2
loop_
 _symmetry_equiv_pos_site_id
 _symmetry_equiv_pos_as_xyz
  1  'x, y, z'
loop_
 _atom_site_type_symbol
 _atom_site_label
 _atom_site_symmetry_multiplicity
 _atom_site_fract_x
 _atom_site_fract_y
 _atom_site_fract_z
 _atom_site_occupancy
  Na  Na0  1  0.99603300  0.23556500  0.48914100  1
  Na  Na1  1  0.76443500  0.00396700  0.51085900  1
  Na  Na2  1  0.84114000  0.08476200  0.77051600  1
  Na  Na3  1  0.91523800  0.15886000  0.22948400  1
  Na  Na4  1  0.41761100  0.65464300  0.18507000  1
  Na  Na5  1  0.34535700  0.58238900  0.81493000  1
  Na  Na6  1  0.06551600  0.29162500  0.73937900  1
  Na  Na7  1  0.70837500  0.93448400  0.26062100  1
  Na  Na8  1  0.68981100  0.81380400  0.04754700  1
  Na  Na9  1  0.18619600  0.31018900  0.95245300  1
  Na  Na10  1  0.34163600  0.02228500  0.24076700  1
  Na  Na11  1  0.97771500  0.65836400  0.75923300  1
  W  W12  1  0.74739100  0.46903200  0.96519300  1
  W  W13  1  0.53096800  0.25260900  0.03480700  1
  W  W14  1  0.67503200  0.41565200  0.69874100  1
  W  W15  1  0.58434800  0.32496800  0.30125900  1
  W  W16  1  0.23500000  0.98167700  0.96670900  1
  W  W17  1  0.01832300  0.76500000  0.03329100  1
  W  W18  1  0.17454500  0.91647700  0.69915500  1
  W  W19  1  0.08352300  0.82545500  0.30084500  1
  W  W20  1  0.56616700  0.79673100  0.76780800  1
  W  W21  1  0.20326900  0.43383300  0.23219200  1
  W  W22  1  0.40591900  0.09635300  0.47482900  1
  W  W23  1  0.90364700  0.59408100  0.52517100  1
  Se  Se24  1  0.49326300  0.73470800  0.50188400  1
  Se  Se25  1  0.26529200  0.50673700  0.49811600  1
  Se  Se26  1  0.92646500  0.45213100  0.23208000  1
  Se  Se27  1  0.54786900  0.07353500  0.76792000  1
  O  O28  1  0.80576700  0.41813100  0.21025900  1
  O  O29  1  0.58186900  0.19423300  0.78974100  1
  O  O30  1  0.73847900  0.39147000  0.96357000  1
  O  O31  1  0.60853000  0.26152100  0.03643000  1
  O  O32  1  0.48363100  0.71978800  0.01315500  1
  O  O33  1  0.28021200  0.51636900  0.98684500  1
  O  O34  1  0.00250200  0.23678200  0.85599400  1
  O  O35  1  0.76321800  0.99749800  0.14400600  1
  O  O36  1  0.72029400  0.58298600  0.85924400  1
  O  O37  1  0.41701400  0.27970600  0.14075600  1
  O  O38  1  0.66831000  0.53445400  0.65092400  1
  O  O39  1  0.46554600  0.33169000  0.34907600  1
  O  O40  1  0.93971900  0.18097800  0.64775100  1
  O  O41  1  0.81902200  0.06028100  0.35224900  1
  O  O42  1  0.37175300  0.10660900  0.23707900  1
  O  O43  1  0.89339100  0.62824700  0.76292100  1
  O  O44  1  0.42332100  0.66426200  0.79406400  1
  O  O45  1  0.33573800  0.57667900  0.20593600  1
  O  O46  1  0.68222900  0.32828100  0.77861300  1
  O  O47  1  0.67171900  0.31777100  0.22138700  1
  O  O48  1  0.29399300  0.90762300  0.65420500  1
  O  O49  1  0.09237700  0.70600700  0.34579500  1
  O  O50  1  0.57977500  0.82308200  0.97680000  1
  O  O51  1  0.17691800  0.42022500  0.02320000  1
  O  O52  1  0.08641400  0.92442100  0.77778900  1
  O  O53  1  0.07557900  0.91358600  0.22221100  1
  O  O54  1  0.52559000  0.78207900  0.50594800  1
  O  O55  1  0.21792100  0.47441000  0.49405200  1
  O  O56  1  0.15189600  0.97838900  0.96864800  1
  O  O57  1  0.02161100  0.84810400  0.03135200  1
  O  O58  1  0.18737400  0.04015500  0.21048500  1
  O  O59  1  0.95984500  0.81262600  0.78951500  1
  O  O60  1  0.23016500  0.86491900  0.44509100  1
  O  O61  1  0.13508100  0.76983500  0.55490900  1
  O  O62  1  0.05148800  0.29465200  0.41413800  1
  O  O63  1  0.70534800  0.94851200  0.58586200  1
  O  O64  1  0.62392500  0.47071100  0.44451300  1
  O  O65  1  0.52928900  0.37607500  0.55548700  1
  O  O66  1  0.37203900  0.21570000  0.37617100  1
  O  O67  1  0.78430000  0.62796100  0.62382900  1
  O  O68  1  0.67353100  0.84476300  0.42372600  1
  O  O69  1  0.15523700  0.32646900  0.57627400  1
  O  O70  1  0.34589200  0.95926200  0.85931300  1
  O  O71  1  0.04073800  0.65410800  0.14068700  1
  O  O72  1  0.07623000  0.31416200  0.03836400  1
  O  O73  1  0.68583800  0.92377000  0.96163600  1
  O  O74  1  0.42688200  0.99141000  0.60913500  1
  O  O75  1  0.00859000  0.57311800  0.39086500  1
  O  O76  1  0.93828700  0.52255500  0.26663700  1
  O  O77  1  0.47744500  0.06171300  0.73336300  1
