# generated using pymatgen
data_Zn10Ge(B4Rh9)2
_symmetry_space_group_name_H-M   'P 1'
_cell_length_a   17.89231200
_cell_length_b   17.89231200
_cell_length_c   2.88088800
_cell_angle_alpha   90.00000000
_cell_angle_beta   90.00000000
_cell_angle_gamma   90.00000000
_symmetry_Int_Tables_number   1
_chemical_formula_structural   Zn10Ge(B4Rh9)2
_chemical_formula_sum   'Zn20 Ge2 B16 Rh36'
_cell_volume   922.27258640
_cell_formula_units_Z   2
loop_
 _symmetry_equiv_pos_site_id
 _symmetry_equiv_pos_as_xyz
  1  'x, y, z'
loop_
 _atom_site_type_symbol
 _atom_site_label
 _atom_site_symmetry_multiplicity
 _atom_site_fract_x
 _atom_site_fract_y
 _atom_site_fract_z
 _atom_site_occupancy
  Zn  Zn0  1  0.55021900  0.05021900  0.00000000  1
  Zn  Zn1  1  0.44978100  0.94978100  0.00000000  1
  Zn  Zn2  1  0.05021900  0.44978100  0.00000000  1
  Zn  Zn3  1  0.94978100  0.55021900  0.00000000  1
  Zn  Zn4  1  0.03212700  0.18990100  0.00000000  1
  Zn  Zn5  1  0.96787300  0.81009900  0.00000000  1
  Zn  Zn6  1  0.18990100  0.96787300  0.00000000  1
  Zn  Zn7  1  0.53212700  0.31009900  0.00000000  1
  Zn  Zn8  1  0.81009900  0.03212700  0.00000000  1
  Zn  Zn9  1  0.46787300  0.68990100  0.00000000  1
  Zn  Zn10  1  0.68990100  0.53212700  0.00000000  1
  Zn  Zn11  1  0.31009900  0.46787300  0.00000000  1
  Zn  Zn12  1  0.20910600  0.70910600  0.00000000  1
  Zn  Zn13  1  0.79089400  0.29089400  0.00000000  1
  Zn  Zn14  1  0.70910600  0.79089400  0.00000000  1
  Zn  Zn15  1  0.29089400  0.20910600  0.00000000  1
  Zn  Zn16  1  0.66883100  0.16883100  0.00000000  1
  Zn  Zn17  1  0.33116900  0.83116900  0.00000000  1
  Zn  Zn18  1  0.16883100  0.33116900  0.00000000  1
  Zn  Zn19  1  0.83116900  0.66883100  0.00000000  1
  Ge  Ge20  1  0.00000000  0.00000000  0.00000000  1
  Ge  Ge21  1  0.50000000  0.50000000  0.00000000  1
  B  B22  1  0.33424200  0.03896200  0.00000000  1
  B  B23  1  0.66575800  0.96103800  0.00000000  1
  B  B24  1  0.03896200  0.66575800  0.00000000  1
  B  B25  1  0.83424200  0.46103800  0.00000000  1
  B  B26  1  0.96103800  0.33424200  0.00000000  1
  B  B27  1  0.16575800  0.53896200  0.00000000  1
  B  B28  1  0.53896200  0.83424200  0.00000000  1
  B  B29  1  0.46103800  0.16575800  0.00000000  1
  B  B30  1  0.16744200  0.12447900  0.00000000  1
  B  B31  1  0.83255800  0.87552100  0.00000000  1
  B  B32  1  0.12447900  0.83255800  0.00000000  1
  B  B33  1  0.66744200  0.37552100  0.00000000  1
  B  B34  1  0.87552100  0.16744200  0.00000000  1
  B  B35  1  0.33255800  0.62447900  0.00000000  1
  B  B36  1  0.62447900  0.66744200  0.00000000  1
  B  B37  1  0.37552100  0.33255800  0.00000000  1
  Rh  Rh38  1  0.25462700  0.08732800  0.50000000  1
  Rh  Rh39  1  0.74537300  0.91267200  0.50000000  1
  Rh  Rh40  1  0.08732800  0.74537300  0.50000000  1
  Rh  Rh41  1  0.75462700  0.41267200  0.50000000  1
  Rh  Rh42  1  0.91267200  0.25462700  0.50000000  1
  Rh  Rh43  1  0.24537300  0.58732800  0.50000000  1
  Rh  Rh44  1  0.58732800  0.75462700  0.50000000  1
  Rh  Rh45  1  0.41267200  0.24537300  0.50000000  1
  Rh  Rh46  1  0.04767500  0.32570700  0.50000000  1
  Rh  Rh47  1  0.95232500  0.67429300  0.50000000  1
  Rh  Rh48  1  0.32570700  0.95232500  0.50000000  1
  Rh  Rh49  1  0.54767500  0.17429300  0.50000000  1
  Rh  Rh50  1  0.67429300  0.04767500  0.50000000  1
  Rh  Rh51  1  0.45232500  0.82570700  0.50000000  1
  Rh  Rh52  1  0.82570700  0.54767500  0.50000000  1
  Rh  Rh53  1  0.17429300  0.45232500  0.50000000  1
  Rh  Rh54  1  0.15980000  0.21060100  0.50000000  1
  Rh  Rh55  1  0.84020000  0.78939900  0.50000000  1
  Rh  Rh56  1  0.21060100  0.84020000  0.50000000  1
  Rh  Rh57  1  0.65980000  0.28939900  0.50000000  1
  Rh  Rh58  1  0.78939900  0.15980000  0.50000000  1
  Rh  Rh59  1  0.34020000  0.71060100  0.50000000  1
  Rh  Rh60  1  0.71060100  0.65980000  0.50000000  1
  Rh  Rh61  1  0.28939900  0.34020000  0.50000000  1
  Rh  Rh62  1  0.09737100  0.06650800  0.50000000  1
  Rh  Rh63  1  0.90262900  0.93349200  0.50000000  1
  Rh  Rh64  1  0.06650800  0.90262900  0.50000000  1
  Rh  Rh65  1  0.59737100  0.43349200  0.50000000  1
  Rh  Rh66  1  0.93349200  0.09737100  0.50000000  1
  Rh  Rh67  1  0.40262900  0.56650800  0.50000000  1
  Rh  Rh68  1  0.56650800  0.59737100  0.50000000  1
  Rh  Rh69  1  0.43349200  0.40262900  0.50000000  1
  Rh  Rh70  1  0.08236900  0.58236900  0.50000000  1
  Rh  Rh71  1  0.91763100  0.41763100  0.50000000  1
  Rh  Rh72  1  0.58236900  0.91763100  0.50000000  1
  Rh  Rh73  1  0.41763100  0.08236900  0.50000000  1
