# generated using pymatgen
data_Y4RuBr5
_symmetry_space_group_name_H-M   'P 1'
_cell_length_a   11.90111900
_cell_length_b   11.90111900
_cell_length_c   17.31977600
_cell_angle_alpha   90.00000000
_cell_angle_beta   90.00000000
_cell_angle_gamma   90.00000000
_symmetry_Int_Tables_number   1
_chemical_formula_structural   Y4RuBr5
_chemical_formula_sum   'Y32 Ru8 Br40'
_cell_volume   2453.11476479
_cell_formula_units_Z   8
loop_
 _symmetry_equiv_pos_site_id
 _symmetry_equiv_pos_as_xyz
  1  'x, y, z'
loop_
 _atom_site_type_symbol
 _atom_site_label
 _atom_site_symmetry_multiplicity
 _atom_site_fract_x
 _atom_site_fract_y
 _atom_site_fract_z
 _atom_site_occupancy
  Y  Y0  1  0.11336300  0.88663700  0.27270900  1
  Y  Y1  1  0.61336300  0.61336300  0.77270900  1
  Y  Y2  1  0.38663700  0.38663700  0.77270900  1
  Y  Y3  1  0.88663700  0.11336300  0.27270900  1
  Y  Y4  1  0.38663700  0.61336300  0.22729100  1
  Y  Y5  1  0.88663700  0.88663700  0.72729100  1
  Y  Y6  1  0.11336300  0.11336300  0.72729100  1
  Y  Y7  1  0.61336300  0.38663700  0.22729100  1
  Y  Y8  1  0.13066600  0.86933400  0.59250000  1
  Y  Y9  1  0.63066600  0.63066600  0.09250000  1
  Y  Y10  1  0.36933400  0.36933400  0.09250000  1
  Y  Y11  1  0.86933400  0.13066600  0.59250000  1
  Y  Y12  1  0.36933400  0.63066600  0.90750000  1
  Y  Y13  1  0.86933400  0.86933400  0.40750000  1
  Y  Y14  1  0.13066600  0.13066600  0.40750000  1
  Y  Y15  1  0.63066600  0.36933400  0.90750000  1
  Y  Y16  1  0.32880500  0.88355700  0.42318600  1
  Y  Y17  1  0.82880500  0.61644300  0.92318600  1
  Y  Y18  1  0.17119500  0.38355700  0.92318600  1
  Y  Y19  1  0.67119500  0.11644300  0.42318600  1
  Y  Y20  1  0.17119500  0.61644300  0.07681400  1
  Y  Y21  1  0.67119500  0.88355700  0.57681400  1
  Y  Y22  1  0.32880500  0.11644300  0.57681400  1
  Y  Y23  1  0.82880500  0.38355700  0.07681400  1
  Y  Y24  1  0.88355700  0.32880500  0.42318600  1
  Y  Y25  1  0.61644300  0.82880500  0.92318600  1
  Y  Y26  1  0.38355700  0.17119500  0.92318600  1
  Y  Y27  1  0.11644300  0.67119500  0.42318600  1
  Y  Y28  1  0.61644300  0.17119500  0.07681400  1
  Y  Y29  1  0.88355700  0.67119500  0.57681400  1
  Y  Y30  1  0.11644300  0.32880500  0.57681400  1
  Y  Y31  1  0.38355700  0.82880500  0.07681400  1
  Ru  Ru32  1  0.10307500  0.89692500  0.42966700  1
  Ru  Ru33  1  0.60307500  0.60307500  0.92966700  1
  Ru  Ru34  1  0.39692500  0.39692500  0.92966700  1
  Ru  Ru35  1  0.89692500  0.10307500  0.42966700  1
  Ru  Ru36  1  0.39692500  0.60307500  0.07033300  1
  Ru  Ru37  1  0.89692500  0.89692500  0.57033300  1
  Ru  Ru38  1  0.10307500  0.10307500  0.57033300  1
  Ru  Ru39  1  0.60307500  0.39692500  0.07033300  1
  Br  Br40  1  0.60034300  0.87698700  0.41251900  1
  Br  Br41  1  0.10034300  0.62301300  0.91251900  1
  Br  Br42  1  0.89965700  0.37698700  0.91251900  1
  Br  Br43  1  0.39965700  0.12301300  0.41251900  1
  Br  Br44  1  0.89965700  0.62301300  0.08748100  1
  Br  Br45  1  0.39965700  0.87698700  0.58748100  1
  Br  Br46  1  0.60034300  0.12301300  0.58748100  1
  Br  Br47  1  0.10034300  0.37698700  0.08748100  1
  Br  Br48  1  0.87698700  0.60034300  0.41251900  1
  Br  Br49  1  0.62301300  0.10034300  0.91251900  1
  Br  Br50  1  0.37698700  0.89965700  0.91251900  1
  Br  Br51  1  0.12301300  0.39965700  0.41251900  1
  Br  Br52  1  0.62301300  0.89965700  0.08748100  1
  Br  Br53  1  0.87698700  0.39965700  0.58748100  1
  Br  Br54  1  0.12301300  0.60034300  0.58748100  1
  Br  Br55  1  0.37698700  0.10034300  0.08748100  1
  Br  Br56  1  0.35854500  0.64145500  0.40985500  1
  Br  Br57  1  0.85854500  0.85854500  0.90985500  1
  Br  Br58  1  0.14145500  0.14145500  0.90985500  1
  Br  Br59  1  0.64145500  0.35854500  0.40985500  1
  Br  Br60  1  0.14145500  0.85854500  0.09014500  1
  Br  Br61  1  0.64145500  0.64145500  0.59014500  1
  Br  Br62  1  0.35854500  0.35854500  0.59014500  1
  Br  Br63  1  0.85854500  0.14145500  0.09014500  1
  Br  Br64  1  0.37497400  0.62502600  0.73093600  1
  Br  Br65  1  0.87497400  0.87497400  0.23093600  1
  Br  Br66  1  0.12502600  0.12502600  0.23093600  1
  Br  Br67  1  0.62502600  0.37497400  0.73093600  1
  Br  Br68  1  0.12502600  0.87497400  0.76906400  1
  Br  Br69  1  0.62502600  0.62502600  0.26906400  1
  Br  Br70  1  0.37497400  0.37497400  0.26906400  1
  Br  Br71  1  0.87497400  0.12502600  0.76906400  1
  Br  Br72  1  0.36678900  0.86678900  0.25000000  1
  Br  Br73  1  0.86678900  0.63321100  0.75000000  1
  Br  Br74  1  0.13321100  0.36678900  0.75000000  1
  Br  Br75  1  0.63321100  0.13321100  0.25000000  1
  Br  Br76  1  0.13321100  0.63321100  0.25000000  1
  Br  Br77  1  0.63321100  0.86678900  0.75000000  1
  Br  Br78  1  0.36678900  0.13321100  0.75000000  1
  Br  Br79  1  0.86678900  0.36678900  0.25000000  1
