# generated using pymatgen
data_Ba2ScO3F
_symmetry_space_group_name_H-M   'P 1'
_cell_length_a   7.50501856
_cell_length_b   7.50501856
_cell_length_c   7.50501856
_cell_angle_alpha   147.64991371
_cell_angle_beta   147.64991371
_cell_angle_gamma   46.40243313
_symmetry_Int_Tables_number   1
_chemical_formula_structural   Ba2ScO3F
_chemical_formula_sum   'Ba2 Sc1 O3 F1'
_cell_volume   120.60580713
_cell_formula_units_Z   1
loop_
 _symmetry_equiv_pos_site_id
 _symmetry_equiv_pos_as_xyz
  1  'x, y, z'
loop_
 _atom_site_type_symbol
 _atom_site_label
 _atom_site_symmetry_multiplicity
 _atom_site_fract_x
 _atom_site_fract_y
 _atom_site_fract_z
 _atom_site_occupancy
  Ba  Ba0  1  0.63515200  0.63515200  0.00000000  1
  Ba  Ba1  1  0.36158700  0.36158700  0.00000000  1
  Sc  Sc2  1  0.98551900  0.98551900  0.00000000  1
  O  O3  1  0.00585600  0.50585600  0.50000000  1
  O  O4  1  0.50585600  0.00585600  0.50000000  1
  O  O5  1  0.83876600  0.83876600  0.00000000  1
  F  F6  1  0.16726500  0.16726500  0.00000000  1
