# generated using pymatgen
data_Rb2SiO3
_symmetry_space_group_name_H-M   'P 1'
_cell_length_a   13.72753600
_cell_length_b   6.59955400
_cell_length_c   16.57729472
_cell_angle_alpha   72.03036719
_cell_angle_beta   90.00000000
_cell_angle_gamma   90.00000000
_symmetry_Int_Tables_number   1
_chemical_formula_structural   Rb2SiO3
_chemical_formula_sum   'Rb24 Si12 O36'
_cell_volume   1428.57118051
_cell_formula_units_Z   12
loop_
 _symmetry_equiv_pos_site_id
 _symmetry_equiv_pos_as_xyz
  1  'x, y, z'
loop_
 _atom_site_type_symbol
 _atom_site_label
 _atom_site_symmetry_multiplicity
 _atom_site_fract_x
 _atom_site_fract_y
 _atom_site_fract_z
 _atom_site_occupancy
  Rb  Rb0  1  0.37020400  0.09868700  0.13617000  1
  Rb  Rb1  1  0.16745800  0.54578300  0.98839400  1
  Rb  Rb2  1  0.33254200  0.54578300  0.48839400  1
  Rb  Rb3  1  0.83254200  0.45421700  0.01160600  1
  Rb  Rb4  1  0.62979600  0.90131300  0.86383000  1
  Rb  Rb5  1  0.12979600  0.09868700  0.63617000  1
  Rb  Rb6  1  0.66745800  0.45421700  0.51160600  1
  Rb  Rb7  1  0.87020400  0.90131300  0.36383000  1
  Rb  Rb8  1  0.31624500  0.86768900  0.80104300  1
  Rb  Rb9  1  0.81624500  0.13231100  0.69895700  1
  Rb  Rb10  1  0.68375500  0.13231100  0.19895700  1
  Rb  Rb11  1  0.18375500  0.86768900  0.30104300  1
  Rb  Rb12  1  0.01584000  0.64269500  0.78422500  1
  Rb  Rb13  1  0.51584000  0.35730500  0.71577500  1
  Rb  Rb14  1  0.98416000  0.35730500  0.21577500  1
  Rb  Rb15  1  0.48416000  0.64269500  0.28422500  1
  Rb  Rb16  1  0.08359000  0.71966400  0.52835800  1
  Rb  Rb17  1  0.58359000  0.28033600  0.97164200  1
  Rb  Rb18  1  0.91641000  0.28033600  0.47164200  1
  Rb  Rb19  1  0.41641000  0.71966400  0.02835800  1
  Rb  Rb20  1  0.09954200  0.99282900  0.08370000  1
  Rb  Rb21  1  0.59954200  0.00717100  0.41630000  1
  Rb  Rb22  1  0.90045800  0.00717100  0.91630000  1
  Rb  Rb23  1  0.40045800  0.99282900  0.58370000  1
  Si  Si24  1  0.85483300  0.73134200  0.60856900  1
  Si  Si25  1  0.35483300  0.26865800  0.89143100  1
  Si  Si26  1  0.14516700  0.26865800  0.39143100  1
  Si  Si27  1  0.64516700  0.73134200  0.10856900  1
  Si  Si28  1  0.63948500  0.84151000  0.63816800  1
  Si  Si29  1  0.13948500  0.15849000  0.86183200  1
  Si  Si30  1  0.36051500  0.15849000  0.36183200  1
  Si  Si31  1  0.86051500  0.84151000  0.13816800  1
  Si  Si32  1  0.76256900  0.55098200  0.78680300  1
  Si  Si33  1  0.26256900  0.44901800  0.71319700  1
  Si  Si34  1  0.23743100  0.44901800  0.21319700  1
  Si  Si35  1  0.73743100  0.55098200  0.28680300  1
  O  O36  1  0.94205400  0.89278300  0.61470400  1
  O  O37  1  0.44205400  0.10721700  0.88529600  1
  O  O38  1  0.05794600  0.10721700  0.38529600  1
  O  O39  1  0.55794600  0.89278300  0.11470400  1
  O  O40  1  0.86988600  0.60412600  0.54005100  1
  O  O41  1  0.36988600  0.39587400  0.95994900  1
  O  O42  1  0.13011400  0.39587400  0.45994900  1
  O  O43  1  0.63011400  0.60412600  0.04005100  1
  O  O44  1  0.10675900  0.93055700  0.85286100  1
  O  O45  1  0.60675900  0.06944300  0.64713900  1
  O  O46  1  0.89324100  0.06944300  0.14713900  1
  O  O47  1  0.39324100  0.93055700  0.35286100  1
  O  O48  1  0.56557200  0.73432100  0.58680800  1
  O  O49  1  0.06557200  0.26567900  0.91319200  1
  O  O50  1  0.43442800  0.26567900  0.41319200  1
  O  O51  1  0.93442800  0.73432100  0.08680800  1
  O  O52  1  0.80969600  0.70243600  0.83768200  1
  O  O53  1  0.84026100  0.66938300  0.23679200  1
  O  O54  1  0.19030400  0.29756400  0.16231800  1
  O  O55  1  0.69030400  0.70243600  0.33768200  1
  O  O56  1  0.73896600  0.30657400  0.84169300  1
  O  O57  1  0.23896600  0.69342600  0.65830700  1
  O  O58  1  0.26103400  0.69342600  0.15830700  1
  O  O59  1  0.76103400  0.30657400  0.34169300  1
  O  O60  1  0.83683400  0.54922200  0.70512100  1
  O  O61  1  0.33683400  0.45077800  0.79487900  1
  O  O62  1  0.16316600  0.45077800  0.29487900  1
  O  O63  1  0.66316600  0.54922200  0.20512100  1
  O  O64  1  0.75002400  0.87412400  0.58953000  1
  O  O65  1  0.25002400  0.12587600  0.91047000  1
  O  O66  1  0.24997600  0.12587600  0.41047000  1
  O  O67  1  0.74997600  0.87412400  0.08953000  1
  O  O68  1  0.65973900  0.66938300  0.73679200  1
  O  O69  1  0.15973900  0.33061700  0.76320800  1
  O  O70  1  0.34026100  0.33061700  0.26320800  1
  O  O71  1  0.30969600  0.29756400  0.66231800  1
