# generated using pymatgen
data_KPr(PO3)4
_symmetry_space_group_name_H-M   'P 1'
_cell_length_a   8.59989200
_cell_length_b   7.39729600
_cell_length_c   8.14962740
_cell_angle_alpha   88.04959360
_cell_angle_beta   90.00000000
_cell_angle_gamma   90.00000000
_symmetry_Int_Tables_number   1
_chemical_formula_structural   KPr(PO3)4
_chemical_formula_sum   'K2 Pr2 P8 O24'
_cell_volume   518.14590591
_cell_formula_units_Z   2
loop_
 _symmetry_equiv_pos_site_id
 _symmetry_equiv_pos_as_xyz
  1  'x, y, z'
loop_
 _atom_site_type_symbol
 _atom_site_label
 _atom_site_symmetry_multiplicity
 _atom_site_fract_x
 _atom_site_fract_y
 _atom_site_fract_z
 _atom_site_occupancy
  K  K0  1  0.68545800  0.77218300  0.28038800  1
  K  K1  1  0.18545800  0.22781700  0.71961200  1
  Pr  Pr2  1  0.88059600  0.26496500  0.24208100  1
  Pr  Pr3  1  0.38059600  0.73503500  0.75791900  1
  P  P4  1  0.73332600  0.50084200  0.61975500  1
  P  P5  1  0.23332600  0.49915800  0.38024500  1
  P  P6  1  0.75668600  0.93454500  0.90116400  1
  P  P7  1  0.25668600  0.06545500  0.09883600  1
  P  P8  1  0.62792300  0.12229500  0.60490700  1
  P  P9  1  0.12792300  0.87770500  0.39509300  1
  P  P10  1  0.95818300  0.60349700  0.89526000  1
  P  P11  1  0.45818300  0.39650300  0.10474000  1
  O  O12  1  0.76263800  0.04290800  0.72631300  1
  O  O13  1  0.26263800  0.95709200  0.27368700  1
  O  O14  1  0.91021400  0.81327400  0.87327900  1
  O  O15  1  0.41021400  0.18672600  0.12672100  1
  O  O16  1  0.97470400  0.96159000  0.34917700  1
  O  O17  1  0.47470400  0.03841000  0.65082300  1
  O  O18  1  0.68604800  0.11145900  0.43219300  1
  O  O19  1  0.18604800  0.88854100  0.56780700  1
  O  O20  1  0.62097700  0.33025800  0.65709700  1
  O  O21  1  0.12097700  0.66974200  0.34290300  1
  O  O22  1  0.63289600  0.66707200  0.61406600  1
  O  O23  1  0.13289600  0.33292800  0.38593400  1
  O  O24  1  0.11553900  0.18198700  0.07432100  1
  O  O25  1  0.61553900  0.81801300  0.92567900  1
  O  O26  1  0.61784200  0.41331400  0.17565500  1
  O  O27  1  0.11784200  0.58668600  0.82434500  1
  O  O28  1  0.92774400  0.53728900  0.06869200  1
  O  O29  1  0.42774400  0.46271100  0.93130800  1
  O  O30  1  0.83723300  0.49285200  0.78366300  1
  O  O31  1  0.33723300  0.50714800  0.21633700  1
  O  O32  1  0.78918200  0.06399900  0.03501400  1
  O  O33  1  0.28918200  0.93600100  0.96498600  1
  O  O34  1  0.83271400  0.46917700  0.47202300  1
  O  O35  1  0.33271400  0.53082300  0.52797700  1
