# generated using pymatgen
data_BeH12S2(NO5)2
_symmetry_space_group_name_H-M   'P 1'
_cell_length_a   11.65784200
_cell_length_b   11.90523200
_cell_length_c   7.55566418
_cell_angle_alpha   90.00000000
_cell_angle_beta   95.46471098
_cell_angle_gamma   90.00000000
_symmetry_Int_Tables_number   1
_chemical_formula_structural   BeH12S2(NO5)2
_chemical_formula_sum   'Be4 H48 S8 N8 O40'
_cell_volume   1043.87939554
_cell_formula_units_Z   4
loop_
 _symmetry_equiv_pos_site_id
 _symmetry_equiv_pos_as_xyz
  1  'x, y, z'
loop_
 _atom_site_type_symbol
 _atom_site_label
 _atom_site_symmetry_multiplicity
 _atom_site_fract_x
 _atom_site_fract_y
 _atom_site_fract_z
 _atom_site_occupancy
  Be  Be0  1  0.23381700  0.41991900  0.43221800  1
  Be  Be1  1  0.76618300  0.91991900  0.06778200  1
  Be  Be2  1  0.76618300  0.58008100  0.56778200  1
  Be  Be3  1  0.23381700  0.08008100  0.93221800  1
  H  H4  1  0.39929100  0.31766600  0.47221600  1
  H  H5  1  0.60070900  0.81766600  0.02778400  1
  H  H6  1  0.60070900  0.68233400  0.52778400  1
  H  H7  1  0.39929100  0.18233400  0.97221600  1
  H  H8  1  0.28731100  0.23560100  0.41320300  1
  H  H9  1  0.71268900  0.73560100  0.08679700  1
  H  H10  1  0.71268900  0.76439900  0.58679700  1
  H  H11  1  0.28731100  0.26439900  0.91320300  1
  H  H12  1  0.18198300  0.41590200  0.12621900  1
  H  H13  1  0.81801700  0.91590200  0.37378100  1
  H  H14  1  0.81801700  0.58409800  0.87378100  1
  H  H15  1  0.18198300  0.08409800  0.62621900  1
  H  H16  1  0.08835200  0.48272800  0.22991700  1
  H  H17  1  0.91164800  0.98272800  0.27008300  1
  H  H18  1  0.91164800  0.51727200  0.77008300  1
  H  H19  1  0.08835200  0.01727200  0.72991700  1
  H  H20  1  0.88927300  0.33053200  0.40181900  1
  H  H21  1  0.11072700  0.83053200  0.09818100  1
  H  H22  1  0.11072700  0.66946800  0.59818100  1
  H  H23  1  0.88927300  0.16946800  0.90181900  1
  H  H24  1  0.82987700  0.27267400  0.57596600  1
  H  H25  1  0.17012300  0.77267400  0.92403400  1
  H  H26  1  0.17012300  0.72732600  0.42403400  1
  H  H27  1  0.82987700  0.22732600  0.07596600  1
  H  H28  1  0.92436700  0.19621100  0.46316100  1
  H  H29  1  0.07563300  0.69621100  0.03683900  1
  H  H30  1  0.07563300  0.80378900  0.53683900  1
  H  H31  1  0.92436700  0.30378900  0.96316100  1
  H  H32  1  0.96917100  0.30650100  0.59437600  1
  H  H33  1  0.03082900  0.80650100  0.90562400  1
  H  H34  1  0.03082900  0.69349900  0.40562400  1
  H  H35  1  0.96917100  0.19349900  0.09437600  1
  H  H36  1  0.53321300  0.44603000  0.19864200  1
  H  H37  1  0.46678700  0.94603000  0.30135800  1
  H  H38  1  0.46678700  0.55397000  0.80135800  1
  H  H39  1  0.53321300  0.05397000  0.69864200  1
  H  H40  1  0.61492200  0.42955300  0.02649800  1
  H  H41  1  0.38507800  0.92955300  0.47350200  1
  H  H42  1  0.38507800  0.57044700  0.97350200  1
  H  H43  1  0.61492200  0.07044700  0.52649800  1
  H  H44  1  0.67423800  0.41310200  0.23934200  1
  H  H45  1  0.32576200  0.91310200  0.26065800  1
  H  H46  1  0.32576200  0.58689800  0.76065800  1
  H  H47  1  0.67423800  0.08689800  0.73934200  1
  H  H48  1  0.58239800  0.31664200  0.14311600  1
  H  H49  1  0.41760200  0.81664200  0.35688400  1
  H  H50  1  0.41760200  0.68335800  0.85688400  1
  H  H51  1  0.58239800  0.18335800  0.64311600  1
  S  S52  1  0.12634400  0.44418200  0.76468600  1
  S  S53  1  0.87365600  0.94418200  0.73531400  1
  S  S54  1  0.87365600  0.55581800  0.23531400  1
  S  S55  1  0.12634400  0.05581800  0.26468600  1
  S  S56  1  0.63547300  0.39300900  0.65316600  1
  S  S57  1  0.36452700  0.89300900  0.84683400  1
  S  S58  1  0.36452700  0.60699100  0.34683400  1
  S  S59  1  0.63547300  0.10699100  0.15316600  1
  N  N60  1  0.90343300  0.27452500  0.50782300  1
  N  N61  1  0.09656700  0.77452500  0.99217700  1
  N  N62  1  0.09656700  0.72547500  0.49217700  1
  N  N63  1  0.90343300  0.22547500  0.00782300  1
  N  N64  1  0.60141100  0.40163400  0.15326600  1
  N  N65  1  0.39858900  0.90163400  0.34673400  1
  N  N66  1  0.39858900  0.59836600  0.84673400  1
  N  N67  1  0.60141100  0.09836600  0.65326600  1
  O  O68  1  0.14192900  0.56726400  0.76602600  1
  O  O69  1  0.85807100  0.06726400  0.73397400  1
  O  O70  1  0.85807100  0.43273600  0.23397400  1
  O  O71  1  0.14192900  0.93273600  0.26602600  1
  O  O72  1  0.00547400  0.41419000  0.79602200  1
  O  O73  1  0.99452600  0.91419000  0.70397800  1
  O  O74  1  0.99452600  0.58581000  0.20397800  1
  O  O75  1  0.00547400  0.08581000  0.29602200  1
  O  O76  1  0.20884800  0.39051200  0.90135700  1
  O  O77  1  0.79115200  0.89051200  0.59864300  1
  O  O78  1  0.79115200  0.60948800  0.09864300  1
  O  O79  1  0.20884800  0.10948800  0.40135700  1
  O  O80  1  0.14444100  0.39700200  0.58325000  1
  O  O81  1  0.85555900  0.89700200  0.91675000  1
  O  O82  1  0.85555900  0.60299800  0.41675000  1
  O  O83  1  0.14444100  0.10299800  0.08325000  1
  O  O84  1  0.59086800  0.46368300  0.79225800  1
  O  O85  1  0.40913200  0.96368300  0.70774200  1
  O  O86  1  0.40913200  0.53631700  0.20774200  1
  O  O87  1  0.59086800  0.03631700  0.29225800  1
  O  O88  1  0.72826600  0.31765600  0.72924300  1
  O  O89  1  0.27173400  0.81765600  0.77075700  1
  O  O90  1  0.27173400  0.68234400  0.27075700  1
  O  O91  1  0.72826600  0.18234400  0.22924300  1
  O  O92  1  0.54308300  0.32570000  0.55436600  1
  O  O93  1  0.45691700  0.82570000  0.94563400  1
  O  O94  1  0.45691700  0.67430000  0.44563400  1
  O  O95  1  0.54308300  0.17430000  0.05436600  1
  O  O96  1  0.68563000  0.47081000  0.51825500  1
  O  O97  1  0.31437000  0.97081000  0.98174500  1
  O  O98  1  0.31437000  0.52919000  0.48174500  1
  O  O99  1  0.68563000  0.02919000  0.01825500  1
  O  O100  1  0.31983100  0.31275200  0.41146000  1
  O  O101  1  0.68016900  0.81275200  0.08854000  1
  O  O102  1  0.68016900  0.68724800  0.58854000  1
  O  O103  1  0.31983100  0.18724800  0.91146000  1
  O  O104  1  0.15085800  0.42430600  0.24356400  1
  O  O105  1  0.84914200  0.92430600  0.25643600  1
  O  O106  1  0.84914200  0.57569400  0.75643600  1
  O  O107  1  0.15085800  0.07569400  0.74356400  1
