# generated using pymatgen
data_Y9Al5S21
_symmetry_space_group_name_H-M   'P 1'
_cell_length_a   11.44201940
_cell_length_b   11.44201940
_cell_length_c   11.44201976
_cell_angle_alpha   94.22129397
_cell_angle_beta   94.22129397
_cell_angle_gamma   94.22129001
_symmetry_Int_Tables_number   1
_chemical_formula_structural   Y9Al5S21
_chemical_formula_sum   'Y18 Al10 S42'
_cell_volume   1485.15994392
_cell_formula_units_Z   2
loop_
 _symmetry_equiv_pos_site_id
 _symmetry_equiv_pos_as_xyz
  1  'x, y, z'
loop_
 _atom_site_type_symbol
 _atom_site_label
 _atom_site_symmetry_multiplicity
 _atom_site_fract_x
 _atom_site_fract_y
 _atom_site_fract_z
 _atom_site_occupancy
  Y  Y0  1  0.26189700  0.12173000  0.88474400  1
  Y  Y1  1  0.92766900  0.77672300  0.54409200  1
  Y  Y2  1  0.60170600  0.45127100  0.23269200  1
  Y  Y3  1  0.45127100  0.23269200  0.60170600  1
  Y  Y4  1  0.12173000  0.88474400  0.26189700  1
  Y  Y5  1  0.77672300  0.54409200  0.92766900  1
  Y  Y6  1  0.54409200  0.92766900  0.77672300  1
  Y  Y7  1  0.23269200  0.60170600  0.45127100  1
  Y  Y8  1  0.88474400  0.26189700  0.12173000  1
  Y  Y9  1  0.41655900  0.56469700  0.79380700  1
  Y  Y10  1  0.07068100  0.22159100  0.45366800  1
  Y  Y11  1  0.75653400  0.89950900  0.12578700  1
  Y  Y12  1  0.22159100  0.45366800  0.07068100  1
  Y  Y13  1  0.89950900  0.12578700  0.75653400  1
  Y  Y14  1  0.56469700  0.79380700  0.41655900  1
  Y  Y15  1  0.12578700  0.75653400  0.89950900  1
  Y  Y16  1  0.79380700  0.41655900  0.56469700  1
  Y  Y17  1  0.45366800  0.07068100  0.22159100  1
  Al  Al18  1  0.95240900  0.61207500  0.27882200  1
  Al  Al19  1  0.61207500  0.27882200  0.95240900  1
  Al  Al20  1  0.27882200  0.95240900  0.61207500  1
  Al  Al21  1  0.45223200  0.77484800  0.11688500  1
  Al  Al22  1  0.11688500  0.45223200  0.77484800  1
  Al  Al23  1  0.77484800  0.11688500  0.45223200  1
  Al  Al24  1  0.14014600  0.14014600  0.14014600  1
  Al  Al25  1  0.82285000  0.82285000  0.82285000  1
  Al  Al26  1  0.32299600  0.32299600  0.32299600  1
  Al  Al27  1  0.64064100  0.64064100  0.64064100  1
  S  S28  1  0.82722400  0.49081200  0.15948400  1
  S  S29  1  0.49081200  0.15948400  0.82722400  1
  S  S30  1  0.15948400  0.82722400  0.49081200  1
  S  S31  1  0.65946400  0.99207400  0.32601300  1
  S  S32  1  0.32601300  0.65946400  0.99207400  1
  S  S33  1  0.99207400  0.32601300  0.65946400  1
  S  S34  1  0.99095800  0.55394900  0.46140400  1
  S  S35  1  0.64506000  0.21875900  0.13332100  1
  S  S36  1  0.30678500  0.89671200  0.79588400  1
  S  S37  1  0.89671200  0.79588400  0.30678500  1
  S  S38  1  0.55394900  0.46140400  0.99095800  1
  S  S39  1  0.21875900  0.13332100  0.64506000  1
  S  S40  1  0.13332100  0.64506000  0.21875900  1
  S  S41  1  0.79588400  0.30678500  0.89671200  1
  S  S42  1  0.46140400  0.99095800  0.55394900  1
  S  S43  1  0.52571700  0.93544500  0.03630900  1
  S  S44  1  0.19061200  0.61607400  0.70308400  1
  S  S45  1  0.84384700  0.28046100  0.37139700  1
  S  S46  1  0.61607400  0.70308400  0.19061200  1
  S  S47  1  0.28046100  0.37139700  0.84384700  1
  S  S48  1  0.93544500  0.03630900  0.52571700  1
  S  S49  1  0.37139700  0.84384700  0.28046100  1
  S  S50  1  0.03630900  0.52571700  0.93544500  1
  S  S51  1  0.70308400  0.19061200  0.61607400  1
  S  S52  1  0.68811500  0.58849400  0.44372500  1
  S  S53  1  0.33241300  0.23865800  0.10542300  1
  S  S54  1  0.99874600  0.89740700  0.76074100  1
  S  S55  1  0.89740700  0.76074100  0.99874600  1
  S  S56  1  0.58849400  0.44372500  0.68811500  1
  S  S57  1  0.23865800  0.10542300  0.33241300  1
  S  S58  1  0.10542300  0.33241300  0.23865800  1
  S  S59  1  0.76074100  0.99874600  0.89740700  1
  S  S60  1  0.44372500  0.68811500  0.58849400  1
  S  S61  1  0.61954100  0.71289000  0.84596700  1
  S  S62  1  0.27125700  0.37591600  0.50971300  1
  S  S63  1  0.95901500  0.05566400  0.20332100  1
  S  S64  1  0.37591600  0.50971300  0.27125700  1
  S  S65  1  0.05566400  0.20332100  0.95901500  1
  S  S66  1  0.71289000  0.84596700  0.61954100  1
  S  S67  1  0.20332100  0.95901500  0.05566400  1
  S  S68  1  0.84596700  0.61954100  0.71289000  1
  S  S69  1  0.50971300  0.27125700  0.37591600  1
