# generated using pymatgen
data_MnAg(PO3)3
_symmetry_space_group_name_H-M   'P 1'
_cell_length_a   14.81141551
_cell_length_b   14.77186914
_cell_length_c   14.78628328
_cell_angle_alpha   90.00000000
_cell_angle_beta   90.00000000
_cell_angle_gamma   90.00000000
_symmetry_Int_Tables_number   1
_chemical_formula_structural   MnAg(PO3)3
_chemical_formula_sum   'Mn16 Ag16 P48 O144'
_cell_volume   3235.12480444
_cell_formula_units_Z   16
loop_
 _symmetry_equiv_pos_site_id
 _symmetry_equiv_pos_as_xyz
  1  'x, y, z'
loop_
 _atom_site_type_symbol
 _atom_site_label
 _atom_site_symmetry_multiplicity
 _atom_site_fract_x
 _atom_site_fract_y
 _atom_site_fract_z
 _atom_site_occupancy
  Mn  Mn0  1  0.11574360  0.86576975  0.37654937  1
  Mn  Mn1  1  0.38425640  0.13423025  0.87654937  1
  Mn  Mn2  1  0.61574360  0.63423025  0.62345063  1
  Mn  Mn3  1  0.88425640  0.36576975  0.12345063  1
  Mn  Mn4  1  0.62592594  0.12348681  0.37490915  1
  Mn  Mn5  1  0.87407406  0.87651319  0.87490915  1
  Mn  Mn6  1  0.12592594  0.37651319  0.62509085  1
  Mn  Mn7  1  0.37407406  0.62348681  0.12509085  1
  Mn  Mn8  1  0.62219148  0.87341488  0.12461269  1
  Mn  Mn9  1  0.87780852  0.12658512  0.62461269  1
  Mn  Mn10  1  0.12219148  0.62658512  0.87538731  1
  Mn  Mn11  1  0.37780852  0.37341488  0.37538731  1
  Mn  Mn12  1  0.86692604  0.61488839  0.37264564  1
  Mn  Mn13  1  0.63307396  0.38511161  0.87264564  1
  Mn  Mn14  1  0.36692604  0.88511161  0.62735436  1
  Mn  Mn15  1  0.13307396  0.11488839  0.12735436  1
  Ag  Ag16  1  0.00088726  0.50894595  0.50682220  1
  Ag  Ag17  1  0.49911274  0.49105405  0.00682220  1
  Ag  Ag18  1  0.50088726  0.99105405  0.49317780  1
  Ag  Ag19  1  0.99911274  0.00894595  0.99317780  1
  Ag  Ag20  1  0.50186322  0.49424069  0.50308752  1
  Ag  Ag21  1  0.99813678  0.50575931  0.00308752  1
  Ag  Ag22  1  0.00186322  0.00575931  0.49691248  1
  Ag  Ag23  1  0.49813678  0.99424069  0.99691248  1
  Ag  Ag24  1  0.25444082  0.75549257  0.25087684  1
  Ag  Ag25  1  0.24555918  0.24450743  0.75087684  1
  Ag  Ag26  1  0.75444082  0.74450743  0.74912316  1
  Ag  Ag27  1  0.74555918  0.25549257  0.24912316  1
  Ag  Ag28  1  0.75772107  0.75584098  0.24795900  1
  Ag  Ag29  1  0.74227893  0.24415902  0.74795900  1
  Ag  Ag30  1  0.25772107  0.74415902  0.75204100  1
  Ag  Ag31  1  0.24227893  0.25584098  0.25204100  1
  P  P32  1  0.47235757  0.02475300  0.23326970  1
  P  P33  1  0.02764243  0.97524700  0.73326970  1
  P  P34  1  0.97235757  0.47524700  0.76673030  1
  P  P35  1  0.52764243  0.52475300  0.26673030  1
  P  P36  1  0.27520493  0.00376990  0.27767899  1
  P  P37  1  0.22479507  0.99623010  0.77767899  1
  P  P38  1  0.77520493  0.49623010  0.72232101  1
  P  P39  1  0.72479507  0.50376990  0.22232101  1
  P  P40  1  0.25599506  0.02428005  0.47610304  1
  P  P41  1  0.24400494  0.97571995  0.97610304  1
  P  P42  1  0.75599506  0.47571995  0.52389696  1
  P  P43  1  0.74400494  0.52428005  0.02389696  1
  P  P44  1  0.27339148  0.22366414  0.51504921  1
  P  P45  1  0.22660852  0.77633586  0.01504921  1
  P  P46  1  0.77339148  0.27633586  0.48495079  1
  P  P47  1  0.72660852  0.72366414  0.98495079  1
  P  P48  1  0.47232593  0.23432917  0.52443076  1
  P  P49  1  0.02767407  0.76567083  0.02443076  1
  P  P50  1  0.97232593  0.26567083  0.47556924  1
  P  P51  1  0.52767407  0.73432917  0.97556924  1
  P  P52  1  0.49659218  0.27659970  0.72189784  1
  P  P53  1  0.00340782  0.72340030  0.22189784  1
  P  P54  1  0.99659218  0.22340030  0.27810216  1
  P  P55  1  0.50340782  0.77659970  0.77810216  1
  P  P56  1  0.47529612  0.47534406  0.73695157  1
  P  P57  1  0.02470388  0.52465594  0.23695157  1
  P  P58  1  0.97529612  0.02465594  0.26304843  1
  P  P59  1  0.52470388  0.97534406  0.76304843  1
  P  P60  1  0.27630296  0.49336003  0.77751451  1
  P  P61  1  0.22369704  0.50663997  0.27751451  1
  P  P62  1  0.77630296  0.00663997  0.22248549  1
  P  P63  1  0.72369704  0.99336003  0.72248549  1
  P  P64  1  0.26259315  0.47533273  0.97634671  1
  P  P65  1  0.23740685  0.52466727  0.47634671  1
  P  P66  1  0.76259315  0.02466727  0.02365329  1
  P  P67  1  0.73740685  0.97533273  0.52365329  1
  P  P68  1  0.22740679  0.27548047  0.99146383  1
  P  P69  1  0.27259321  0.72451953  0.49146383  1
  P  P70  1  0.72740679  0.22451953  0.00853617  1
  P  P71  1  0.77259321  0.77548047  0.50853617  1
  P  P72  1  0.03009072  0.25335500  0.97245657  1
  P  P73  1  0.46990928  0.74664500  0.47245657  1
  P  P74  1  0.53009072  0.24664500  0.02754343  1
  P  P75  1  0.96990928  0.75335500  0.52754343  1
  P  P76  1  0.98436428  0.27585465  0.77552994  1
  P  P77  1  0.51563572  0.72414535  0.27552994  1
  P  P78  1  0.48436428  0.22414535  0.22447006  1
  P  P79  1  0.01563572  0.77585465  0.72447006  1
  O  O80  1  0.52054481  0.97475704  0.15886528  1
  O  O81  1  0.97945519  0.02524296  0.65886528  1
  O  O82  1  0.02054481  0.52524296  0.84113472  1
  O  O83  1  0.47945519  0.47475704  0.34113472  1
  O  O84  1  0.37403963  0.97850735  0.23942259  1
  O  O85  1  0.12596037  0.02149265  0.73942259  1
  O  O86  1  0.87403963  0.52149265  0.76057741  1
  O  O87  1  0.62596037  0.47850735  0.26057741  1
  O  O88  1  0.44701465  0.12490214  0.19671129  1
  O  O89  1  0.05298535  0.87509786  0.69671129  1
  O  O90  1  0.94701465  0.37509786  0.80328871  1
  O  O91  1  0.55298535  0.62490214  0.30328871  1
  O  O92  1  0.51670026  0.03073731  0.32444496  1
  O  O93  1  0.98329974  0.96926269  0.82444496  1
  O  O94  1  0.01670026  0.46926269  0.67555504  1
  O  O95  1  0.48329974  0.53073731  0.17555504  1
  O  O96  1  0.30054793  0.04063056  0.37745977  1
  O  O97  1  0.19945207  0.95936944  0.87745977  1
  O  O98  1  0.80054793  0.45936944  0.62254023  1
  O  O99  1  0.69945207  0.54063056  0.12254023  1
  O  O100  1  0.22395035  0.91610885  0.28315601  1
  O  O101  1  0.27604965  0.08389115  0.78315601  1
  O  O102  1  0.72395035  0.58389115  0.71684399  1
  O  O103  1  0.77604965  0.41610885  0.21684399  1
  O  O104  1  0.23583508  0.08161027  0.22566835  1
  O  O105  1  0.26416492  0.91838973  0.72566835  1
  O  O106  1  0.73583508  0.41838973  0.77433165  1
  O  O107  1  0.76416492  0.58161027  0.27433165  1
  O  O108  1  0.22733916  0.12529903  0.50542776  1
  O  O109  1  0.27266084  0.87470097  0.00542776  1
  O  O110  1  0.72733916  0.37470097  0.49457224  1
  O  O111  1  0.77266084  0.62529903  0.99457224  1
  O  O112  1  0.16996407  0.97096207  0.46933991  1
  O  O113  1  0.33003593  0.02903793  0.96933991  1
  O  O114  1  0.66996407  0.52903793  0.53066009  1
  O  O115  1  0.83003593  0.47096207  0.03066009  1
  O  O116  1  0.33112587  0.99132536  0.53566962  1
  O  O117  1  0.16887413  0.00867464  0.03566962  1
  O  O118  1  0.83112587  0.50867464  0.46433038  1
  O  O119  1  0.66887413  0.49132536  0.96433038  1
  O  O120  1  0.22218036  0.27094047  0.58926338  1
  O  O121  1  0.27781964  0.72905953  0.08926338  1
  O  O122  1  0.72218036  0.22905953  0.41073662  1
  O  O123  1  0.77781964  0.77094047  0.91073662  1
  O  O124  1  0.28048686  0.26824700  0.42417104  1
  O  O125  1  0.21951314  0.73175300  0.92417104  1
  O  O126  1  0.78048686  0.23175300  0.57582896  1
  O  O127  1  0.71951314  0.76824700  0.07582896  1
  O  O128  1  0.37290635  0.19872540  0.55355157  1
  O  O129  1  0.12709365  0.80127460  0.05355157  1
  O  O130  1  0.87290635  0.30127460  0.44644843  1
  O  O131  1  0.62709365  0.69872540  0.94644843  1
  O  O132  1  0.52123273  0.24259487  0.62135057  1
  O  O133  1  0.97876727  0.75740513  0.12135057  1
  O  O134  1  0.02123273  0.25740513  0.37864943  1
  O  O135  1  0.47876727  0.74259487  0.87864943  1
  O  O136  1  0.52000366  0.16078228  0.47350614  1
  O  O137  1  0.97999634  0.83921772  0.97350614  1
  O  O138  1  0.02000366  0.33921772  0.52649386  1
  O  O139  1  0.47999634  0.66078228  0.02649386  1
  O  O140  1  0.46578303  0.32660244  0.48163380  1
  O  O141  1  0.03421697  0.67339756  0.98163380  1
  O  O142  1  0.96578303  0.17339756  0.51836620  1
  O  O143  1  0.53421697  0.82660244  0.01836620  1
  O  O144  1  0.45070445  0.37423377  0.70204280  1
  O  O145  1  0.04929555  0.62576623  0.20204280  1
  O  O146  1  0.95070445  0.12576623  0.29795720  1
  O  O147  1  0.54929555  0.87423377  0.79795720  1
  O  O148  1  0.58547136  0.28738382  0.76989583  1
  O  O149  1  0.91452864  0.71261618  0.26989583  1
  O  O150  1  0.08547136  0.21261618  0.23010417  1
  O  O151  1  0.41452864  0.78738382  0.73010417  1
  O  O152  1  0.42538835  0.21758180  0.76335175  1
  O  O153  1  0.07461165  0.78241820  0.26335175  1
  O  O154  1  0.92538835  0.28241820  0.23664825  1
  O  O155  1  0.57461165  0.71758180  0.73664825  1
  O  O156  1  0.52017754  0.47138313  0.82779818  1
  O  O157  1  0.97982246  0.52861687  0.32779818  1
  O  O158  1  0.02017754  0.02861687  0.17220182  1
  O  O159  1  0.47982246  0.97138313  0.67220182  1
  O  O160  1  0.52190806  0.52509828  0.66129546  1
  O  O161  1  0.97809194  0.47490172  0.16129546  1
  O  O162  1  0.02190806  0.97490172  0.33870454  1
  O  O163  1  0.47809194  0.02509828  0.83870454  1
  O  O164  1  0.37641744  0.51952208  0.74404732  1
  O  O165  1  0.12358256  0.48047792  0.24404732  1
  O  O166  1  0.87641744  0.98047792  0.25595268  1
  O  O167  1  0.62358256  0.01952208  0.75595268  1
  O  O168  1  0.22880773  0.58285582  0.78706115  1
  O  O169  1  0.27119227  0.41714418  0.28706115  1
  O  O170  1  0.72880773  0.91714418  0.21293885  1
  O  O171  1  0.77119227  0.08285582  0.71293885  1
  O  O172  1  0.23468443  0.42112996  0.71969250  1
  O  O173  1  0.26531557  0.57887004  0.21969250  1
  O  O174  1  0.73468443  0.07887004  0.28030750  1
  O  O175  1  0.76531557  0.92112996  0.78030750  1
  O  O176  1  0.29644041  0.44869451  0.87554132  1
  O  O177  1  0.20355959  0.55130549  0.37554132  1
  O  O178  1  0.79644041  0.05130549  0.12445868  1
  O  O179  1  0.70355959  0.94869451  0.62445868  1
  O  O180  1  0.33829888  0.52244589  0.02521542  1
  O  O181  1  0.16170112  0.47755411  0.52521542  1
  O  O182  1  0.83829888  0.97755411  0.97478458  1
  O  O183  1  0.66170112  0.02244589  0.47478458  1
  O  O184  1  0.17204604  0.52067504  0.97224246  1
  O  O185  1  0.32795396  0.47932496  0.47224246  1
  O  O186  1  0.67204604  0.97932496  0.02775754  1
  O  O187  1  0.82795396  0.02067504  0.52775754  1
  O  O188  1  0.25572656  0.37638521  0.02153959  1
  O  O189  1  0.24427344  0.62361479  0.52153959  1
  O  O190  1  0.75572656  0.12361479  0.97846041  1
  O  O191  1  0.74427344  0.87638521  0.47846041  1
  O  O192  1  0.12870609  0.29327807  0.94713241  1
  O  O193  1  0.37129391  0.70672193  0.44713241  1
  O  O194  1  0.62870609  0.20672193  0.05286759  1
  O  O195  1  0.87129391  0.79327807  0.55286759  1
  O  O196  1  0.22085957  0.22262075  0.07783569  1
  O  O197  1  0.27914043  0.77737925  0.57783569  1
  O  O198  1  0.72085957  0.27737925  0.92216431  1
  O  O199  1  0.77914043  0.72262075  0.42216431  1
  O  O200  1  0.28663195  0.24101044  0.91621193  1
  O  O201  1  0.21336805  0.75898956  0.41621193  1
  O  O202  1  0.78663195  0.25898956  0.08378807  1
  O  O203  1  0.71336805  0.74101044  0.58378807  1
  O  O204  1  0.03854689  0.16481710  0.02200421  1
  O  O205  1  0.46145311  0.83518290  0.52200421  1
  O  O206  1  0.53854689  0.33518290  0.97799579  1
  O  O207  1  0.96145311  0.66481710  0.47799579  1
  O  O208  1  0.97611321  0.32795260  0.01511735  1
  O  O209  1  0.52388679  0.67204740  0.51511735  1
  O  O210  1  0.47611321  0.17204740  0.98488265  1
  O  O211  1  0.02388679  0.82795260  0.48488265  1
  O  O212  1  0.99223664  0.22827596  0.87338419  1
  O  O213  1  0.50776336  0.77172404  0.37338419  1
  O  O214  1  0.49223664  0.27172404  0.12661581  1
  O  O215  1  0.00776336  0.72827596  0.62661581  1
  O  O216  1  0.07548129  0.28304112  0.73137152  1
  O  O217  1  0.42451871  0.71695888  0.23137152  1
  O  O218  1  0.57548129  0.21695888  0.26862848  1
  O  O219  1  0.92451871  0.78304112  0.76862848  1
  O  O220  1  0.90998859  0.22645418  0.72702973  1
  O  O221  1  0.59001141  0.77354582  0.22702973  1
  O  O222  1  0.40998859  0.27354582  0.27297027  1
  O  O223  1  0.09001141  0.72645418  0.77297027  1
