# generated using pymatgen
data_Ho2NiB10
_symmetry_space_group_name_H-M   'P 1'
_cell_length_a   4.13151200
_cell_length_b   5.53192200
_cell_length_c   11.03955500
_cell_angle_alpha   90.00000000
_cell_angle_beta   90.00000000
_cell_angle_gamma   90.00000000
_symmetry_Int_Tables_number   1
_chemical_formula_structural   Ho2NiB10
_chemical_formula_sum   'Ho4 Ni2 B20'
_cell_volume   252.31126091
_cell_formula_units_Z   2
loop_
 _symmetry_equiv_pos_site_id
 _symmetry_equiv_pos_as_xyz
  1  'x, y, z'
loop_
 _atom_site_type_symbol
 _atom_site_label
 _atom_site_symmetry_multiplicity
 _atom_site_fract_x
 _atom_site_fract_y
 _atom_site_fract_z
 _atom_site_occupancy
  Ho  Ho0  1  0.50000000  0.19216500  0.36344700  1
  Ho  Ho1  1  0.50000000  0.80783500  0.63655300  1
  Ho  Ho2  1  0.50000000  0.30783500  0.86344700  1
  Ho  Ho3  1  0.50000000  0.69216500  0.13655300  1
  Ni  Ni4  1  0.00000000  0.00000000  0.00000000  1
  Ni  Ni5  1  0.00000000  0.50000000  0.50000000  1
  B  B6  1  0.00000000  0.37440700  0.04067400  1
  B  B7  1  0.00000000  0.62559300  0.95932600  1
  B  B8  1  0.00000000  0.12559300  0.54067400  1
  B  B9  1  0.00000000  0.87440700  0.45932600  1
  B  B10  1  0.00000000  0.34581200  0.19771800  1
  B  B11  1  0.00000000  0.65418800  0.80228200  1
  B  B12  1  0.00000000  0.15418800  0.69771800  1
  B  B13  1  0.00000000  0.84581200  0.30228200  1
  B  B14  1  0.00000000  0.03439300  0.18752200  1
  B  B15  1  0.00000000  0.96560700  0.81247800  1
  B  B16  1  0.00000000  0.46560700  0.68752200  1
  B  B17  1  0.00000000  0.53439300  0.31247800  1
  B  B18  1  0.30087500  0.20396400  0.11428500  1
  B  B19  1  0.69912500  0.79603600  0.88571500  1
  B  B20  1  0.30087500  0.79603600  0.88571500  1
  B  B21  1  0.69912500  0.29603600  0.61428500  1
  B  B22  1  0.69912500  0.20396400  0.11428500  1
  B  B23  1  0.30087500  0.70396400  0.38571500  1
  B  B24  1  0.69912500  0.70396400  0.38571500  1
  B  B25  1  0.30087500  0.29603600  0.61428500  1
