# generated using pymatgen
data_Tm2(CN2)3
_symmetry_space_group_name_H-M   'P 1'
_cell_length_a   7.33108747
_cell_length_b   7.33108747
_cell_length_c   5.20243860
_cell_angle_alpha   84.03814586
_cell_angle_beta   84.03814586
_cell_angle_gamma   29.61430511
_symmetry_Int_Tables_number   1
_chemical_formula_structural   Tm2(CN2)3
_chemical_formula_sum   'Tm2 C3 N6'
_cell_volume   137.36924667
_cell_formula_units_Z   1
loop_
 _symmetry_equiv_pos_site_id
 _symmetry_equiv_pos_as_xyz
  1  'x, y, z'
loop_
 _atom_site_type_symbol
 _atom_site_label
 _atom_site_symmetry_multiplicity
 _atom_site_fract_x
 _atom_site_fract_y
 _atom_site_fract_z
 _atom_site_occupancy
  Tm  Tm0  1  0.86571900  0.86571900  0.56945300  1
  Tm  Tm1  1  0.13428100  0.13428100  0.43054700  1
  C  C2  1  0.32796300  0.32796300  0.09395900  1
  C  C3  1  0.67203700  0.67203700  0.90604100  1
  C  C4  1  0.00000000  0.00000000  0.00000000  1
  N  N5  1  0.98853400  0.98853400  0.23815900  1
  N  N6  1  0.01146600  0.01146600  0.76184100  1
  N  N7  1  0.68992300  0.68992300  0.66558100  1
  N  N8  1  0.31007700  0.31007700  0.33441900  1
  N  N9  1  0.65744800  0.65744800  0.14095400  1
  N  N10  1  0.34255200  0.34255200  0.85904600  1
