# generated using pymatgen
data_Sm2Mo4O15
_symmetry_space_group_name_H-M   'P 1'
_cell_length_a   9.52755000
_cell_length_b   11.14245519
_cell_length_c   11.70021955
_cell_angle_alpha   104.51898339
_cell_angle_beta   109.21022093
_cell_angle_gamma   108.92047916
_symmetry_Int_Tables_number   1
_chemical_formula_structural   Sm2Mo4O15
_chemical_formula_sum   'Sm6 Mo12 O45'
_cell_volume   1016.88991458
_cell_formula_units_Z   3
loop_
 _symmetry_equiv_pos_site_id
 _symmetry_equiv_pos_as_xyz
  1  'x, y, z'
loop_
 _atom_site_type_symbol
 _atom_site_label
 _atom_site_symmetry_multiplicity
 _atom_site_fract_x
 _atom_site_fract_y
 _atom_site_fract_z
 _atom_site_occupancy
  Sm  Sm0  1  0.33416400  0.65835800  0.79727300  1
  Sm  Sm1  1  0.66583600  0.34164200  0.20272700  1
  Sm  Sm2  1  0.23439000  0.22456600  0.17515100  1
  Sm  Sm3  1  0.76561000  0.77543400  0.82484900  1
  Sm  Sm4  1  0.78484500  0.94389600  0.41027900  1
  Sm  Sm5  1  0.21515500  0.05610400  0.58972100  1
  Mo  Mo6  1  0.47687200  0.56374800  0.13253600  1
  Mo  Mo7  1  0.52312800  0.43625200  0.86746400  1
  Mo  Mo8  1  0.26639300  0.98326100  0.91999400  1
  Mo  Mo9  1  0.73360700  0.01673900  0.08000600  1
  Mo  Mo10  1  0.09223400  0.53465500  0.18169400  1
  Mo  Mo11  1  0.90776600  0.46534500  0.81830600  1
  Mo  Mo12  1  0.08396600  0.30979800  0.44854900  1
  Mo  Mo13  1  0.91603400  0.69020200  0.55145100  1
  Mo  Mo14  1  0.93322500  0.13085800  0.79734400  1
  Mo  Mo15  1  0.06677500  0.86914200  0.20265600  1
  Mo  Mo16  1  0.41680300  0.77837100  0.52016100  1
  Mo  Mo17  1  0.58319700  0.22162900  0.47983900  1
  O  O18  1  0.45306000  0.42618700  0.19735800  1
  O  O19  1  0.54694000  0.57381300  0.80264200  1
  O  O20  1  0.32500700  0.60872400  0.16199900  1
  O  O21  1  0.67499300  0.39127600  0.83800100  1
  O  O22  1  0.38427100  0.14454800  0.06772000  1
  O  O23  1  0.61572900  0.85545200  0.93228000  1
  O  O24  1  0.05444600  0.91858600  0.89025800  1
  O  O25  1  0.94555400  0.08141400  0.10974200  1
  O  O26  1  0.33450500  0.85480000  0.94082900  1
  O  O27  1  0.66549500  0.14520000  0.05917100  1
  O  O28  1  0.41506500  0.55782200  0.95821200  1
  O  O29  1  0.58493500  0.44217800  0.04178800  1
  O  O30  1  0.09241900  0.50675600  0.80164100  1
  O  O31  1  0.90758100  0.49324400  0.19835900  1
  O  O32  1  0.19091700  0.46211000  0.59663600  1
  O  O33  1  0.11371700  0.38150600  0.16744200  1
  O  O34  1  0.22128100  0.30654800  0.37523500  1
  O  O35  1  0.88628300  0.61849400  0.83255800  1
  O  O36  1  0.41465600  0.16214900  0.51902700  1
  O  O37  1  0.58534400  0.83785100  0.48097300  1
  O  O38  1  0.33548300  0.28628100  0.75225900  1
  O  O39  1  0.66451700  0.71371900  0.24774100  1
  O  O40  1  0.28455400  0.01850200  0.78301600  1
  O  O41  1  0.71544600  0.98149800  0.21698400  1
  O  O42  1  0.96645000  0.84379500  0.51299000  1
  O  O43  1  0.03355000  0.15620500  0.48701000  1
  O  O44  1  0.03088700  0.93219300  0.34282300  1
  O  O45  1  0.96911300  0.06780700  0.65717700  1
  O  O46  1  0.65588400  0.09477600  0.44794300  1
  O  O47  1  0.34411600  0.90522400  0.55205700  1
  O  O48  1  0.52610200  0.26713100  0.33924900  1
  O  O49  1  0.47389800  0.73286900  0.66075100  1
  O  O50  1  0.75286700  0.37806500  0.62018500  1
  O  O51  1  0.24713300  0.62193500  0.37981500  1
  O  O52  1  0.00000000  0.50000000  0.00000000  1
  O  O53  1  0.21866700  0.01238200  0.20103800  1
  O  O54  1  0.78133300  0.98761800  0.79896200  1
  O  O55  1  0.14804800  0.74451200  0.22129300  1
  O  O56  1  0.85195200  0.25548800  0.77870700  1
  O  O57  1  0.88127300  0.79124800  0.05215300  1
  O  O58  1  0.11872700  0.20875200  0.94784700  1
  O  O59  1  0.10429400  0.69713800  0.66009700  1
  O  O60  1  0.89570600  0.30286200  0.33990300  1
  O  O61  1  0.77871900  0.69345200  0.62476500  1
  O  O62  1  0.80908300  0.53789000  0.40336400  1
