# generated using pymatgen
data_CsGaH4
_symmetry_space_group_name_H-M   'P 1'
_cell_length_a   6.10486700
_cell_length_b   8.11170400
_cell_length_c   10.19638200
_cell_angle_alpha   90.00000000
_cell_angle_beta   90.00000000
_cell_angle_gamma   90.00000000
_symmetry_Int_Tables_number   1
_chemical_formula_structural   CsGaH4
_chemical_formula_sum   'Cs4 Ga4 H16'
_cell_volume   504.93374892
_cell_formula_units_Z   4
loop_
 _symmetry_equiv_pos_site_id
 _symmetry_equiv_pos_as_xyz
  1  'x, y, z'
loop_
 _atom_site_type_symbol
 _atom_site_label
 _atom_site_symmetry_multiplicity
 _atom_site_fract_x
 _atom_site_fract_y
 _atom_site_fract_z
 _atom_site_occupancy
  Cs  Cs0  1  0.25000000  0.33572400  0.68455500  1
  Cs  Cs1  1  0.25000000  0.16427500  0.18455500  1
  Cs  Cs2  1  0.75000000  0.66427600  0.31544500  1
  Cs  Cs3  1  0.75000000  0.83572400  0.81544500  1
  Ga  Ga4  1  0.25000000  0.69632400  0.06000500  1
  Ga  Ga5  1  0.25000000  0.80367600  0.56000500  1
  Ga  Ga6  1  0.75000000  0.30367600  0.93999500  1
  Ga  Ga7  1  0.75000000  0.19632400  0.43999500  1
  H  H8  1  0.25000000  0.62068400  0.91640500  1
  H  H9  1  0.25000000  0.87931600  0.41640500  1
  H  H10  1  0.75000000  0.37931600  0.08359500  1
  H  H11  1  0.75000000  0.12068400  0.58359500  1
  H  H12  1  0.25000000  0.55823000  0.17129700  1
  H  H13  1  0.25000000  0.94177000  0.67129700  1
  H  H14  1  0.75000000  0.44177000  0.82870300  1
  H  H15  1  0.75000000  0.05823000  0.32870300  1
  H  H16  1  0.96188800  0.18888000  0.92069500  1
  H  H17  1  0.53811200  0.31112000  0.42069500  1
  H  H18  1  0.46188800  0.81112000  0.07930500  1
  H  H19  1  0.03811200  0.68888000  0.57930500  1
  H  H20  1  0.03811200  0.81112000  0.07930500  1
  H  H21  1  0.46188800  0.68888000  0.57930500  1
  H  H22  1  0.53811200  0.18888000  0.92069500  1
  H  H23  1  0.96188800  0.31112000  0.42069500  1
