# generated using pymatgen
data_Ho2CdCu2
_symmetry_space_group_name_H-M   'P 1'
_cell_length_a   7.58606000
_cell_length_b   7.58606000
_cell_length_c   3.62631700
_cell_angle_alpha   90.00000000
_cell_angle_beta   90.00000000
_cell_angle_gamma   90.00000000
_symmetry_Int_Tables_number   1
_chemical_formula_structural   Ho2CdCu2
_chemical_formula_sum   'Ho4 Cd2 Cu4'
_cell_volume   208.68840154
_cell_formula_units_Z   2
loop_
 _symmetry_equiv_pos_site_id
 _symmetry_equiv_pos_as_xyz
  1  'x, y, z'
loop_
 _atom_site_type_symbol
 _atom_site_label
 _atom_site_symmetry_multiplicity
 _atom_site_fract_x
 _atom_site_fract_y
 _atom_site_fract_z
 _atom_site_occupancy
  Ho  Ho0  1  0.67637300  0.17637300  0.50000000  1
  Ho  Ho1  1  0.32362700  0.82362700  0.50000000  1
  Ho  Ho2  1  0.17637300  0.32362700  0.50000000  1
  Ho  Ho3  1  0.82362700  0.67637300  0.50000000  1
  Cd  Cd4  1  0.00000000  0.00000000  0.00000000  1
  Cd  Cd5  1  0.50000000  0.50000000  0.00000000  1
  Cu  Cu6  1  0.11719900  0.61719900  0.00000000  1
  Cu  Cu7  1  0.88280100  0.38280100  0.00000000  1
  Cu  Cu8  1  0.61719900  0.88280100  0.00000000  1
  Cu  Cu9  1  0.38280100  0.11719900  0.00000000  1
