# generated using pymatgen
data_Rb2LiNd(BO3)2
_symmetry_space_group_name_H-M   'P 1'
_cell_length_a   7.22603400
_cell_length_b   9.85062400
_cell_length_c   10.24841500
_cell_angle_alpha   90.00000000
_cell_angle_beta   90.00000000
_cell_angle_gamma   90.00000000
_symmetry_Int_Tables_number   1
_chemical_formula_structural   Rb2LiNd(BO3)2
_chemical_formula_sum   'Rb8 Li4 Nd4 B8 O24'
_cell_volume   729.49185364
_cell_formula_units_Z   4
loop_
 _symmetry_equiv_pos_site_id
 _symmetry_equiv_pos_as_xyz
  1  'x, y, z'
loop_
 _atom_site_type_symbol
 _atom_site_label
 _atom_site_symmetry_multiplicity
 _atom_site_fract_x
 _atom_site_fract_y
 _atom_site_fract_z
 _atom_site_occupancy
  Rb  Rb0  1  0.27795400  0.41652800  0.94283900  1
  Rb  Rb1  1  0.72204600  0.58347200  0.44283900  1
  Rb  Rb2  1  0.27795400  0.08347200  0.05716100  1
  Rb  Rb3  1  0.72204600  0.91652800  0.55716100  1
  Rb  Rb4  1  0.72204600  0.58347200  0.05716100  1
  Rb  Rb5  1  0.27795400  0.41652800  0.55716100  1
  Rb  Rb6  1  0.72204600  0.91652800  0.94283900  1
  Rb  Rb7  1  0.27795400  0.08347200  0.44283900  1
  Li  Li8  1  0.44845600  0.15300400  0.75000000  1
  Li  Li9  1  0.55154400  0.84699600  0.25000000  1
  Li  Li10  1  0.44845600  0.34699600  0.25000000  1
  Li  Li11  1  0.55154400  0.65300400  0.75000000  1
  Nd  Nd12  1  0.85971200  0.26356100  0.75000000  1
  Nd  Nd13  1  0.14028800  0.73643900  0.25000000  1
  Nd  Nd14  1  0.85971200  0.23643900  0.25000000  1
  Nd  Nd15  1  0.14028800  0.76356100  0.75000000  1
  B  B16  1  0.69089200  0.25000000  0.00000000  1
  B  B17  1  0.30910800  0.75000000  0.50000000  1
  B  B18  1  0.30910800  0.75000000  0.00000000  1
  B  B19  1  0.69089200  0.25000000  0.50000000  1
  B  B20  1  0.84583400  0.56067800  0.75000000  1
  B  B21  1  0.15416600  0.43932200  0.25000000  1
  B  B22  1  0.84583400  0.93932200  0.25000000  1
  B  B23  1  0.15416600  0.06067800  0.75000000  1
  O  O24  1  0.02238100  0.50537900  0.75000000  1
  O  O25  1  0.97761900  0.49462100  0.25000000  1
  O  O26  1  0.02238100  0.99462100  0.25000000  1
  O  O27  1  0.97761900  0.00537900  0.75000000  1
  O  O28  1  0.88549500  0.25000000  0.00000000  1
  O  O29  1  0.11450500  0.75000000  0.50000000  1
  O  O30  1  0.11450500  0.75000000  0.00000000  1
  O  O31  1  0.88549500  0.25000000  0.50000000  1
  O  O32  1  0.18101500  0.20104700  0.75000000  1
  O  O33  1  0.81898500  0.79895300  0.25000000  1
  O  O34  1  0.18101500  0.29895300  0.25000000  1
  O  O35  1  0.81898500  0.70104700  0.75000000  1
  O  O36  1  0.69165300  0.47623400  0.75000000  1
  O  O37  1  0.30834700  0.52376600  0.25000000  1
  O  O38  1  0.69165300  0.02376600  0.25000000  1
  O  O39  1  0.30834700  0.97623400  0.75000000  1
  O  O40  1  0.60077800  0.19724400  0.60739000  1
  O  O41  1  0.39922200  0.80275600  0.10739000  1
  O  O42  1  0.60077800  0.30275600  0.39261000  1
  O  O43  1  0.39922200  0.69724400  0.89261000  1
  O  O44  1  0.39922200  0.80275600  0.39261000  1
  O  O45  1  0.60077800  0.19724400  0.89261000  1
  O  O46  1  0.39922200  0.69724400  0.60739000  1
  O  O47  1  0.60077800  0.30275600  0.10739000  1
