# generated using pymatgen
data_VCoAs
_symmetry_space_group_name_H-M   'P 1'
_cell_length_a   3.72876200
_cell_length_b   6.01014500
_cell_length_c   6.95254500
_cell_angle_alpha   90.00000000
_cell_angle_beta   90.00000000
_cell_angle_gamma   90.00000000
_symmetry_Int_Tables_number   1
_chemical_formula_structural   VCoAs
_chemical_formula_sum   'V4 Co4 As4'
_cell_volume   155.80931649
_cell_formula_units_Z   4
loop_
 _symmetry_equiv_pos_site_id
 _symmetry_equiv_pos_as_xyz
  1  'x, y, z'
loop_
 _atom_site_type_symbol
 _atom_site_label
 _atom_site_symmetry_multiplicity
 _atom_site_fract_x
 _atom_site_fract_y
 _atom_site_fract_z
 _atom_site_occupancy
  V  V0  1  0.25000000  0.52797500  0.17875700  1
  V  V1  1  0.75000000  0.47202500  0.82124300  1
  V  V2  1  0.75000000  0.97202500  0.67875700  1
  V  V3  1  0.25000000  0.02797500  0.32124300  1
  Co  Co4  1  0.25000000  0.64127800  0.55966500  1
  Co  Co5  1  0.75000000  0.35872200  0.44033500  1
  Co  Co6  1  0.75000000  0.85872200  0.05966500  1
  Co  Co7  1  0.25000000  0.14127800  0.94033500  1
  As  As8  1  0.25000000  0.75884000  0.87783300  1
  As  As9  1  0.75000000  0.24116000  0.12216700  1
  As  As10  1  0.75000000  0.74116000  0.37783300  1
  As  As11  1  0.25000000  0.25884000  0.62216700  1
