# generated using pymatgen
data_Tb12Co5Bi
_symmetry_space_group_name_H-M   'P 1'
_cell_length_a   8.36861008
_cell_length_b   8.36861008
_cell_length_c   8.36861008
_cell_angle_alpha   110.78206441
_cell_angle_beta   110.62743485
_cell_angle_gamma   107.03140722
_symmetry_Int_Tables_number   1
_chemical_formula_structural   Tb12Co5Bi
_chemical_formula_sum   'Tb12 Co5 Bi1'
_cell_volume   450.55665415
_cell_formula_units_Z   1
loop_
 _symmetry_equiv_pos_site_id
 _symmetry_equiv_pos_as_xyz
  1  'x, y, z'
loop_
 _atom_site_type_symbol
 _atom_site_label
 _atom_site_symmetry_multiplicity
 _atom_site_fract_x
 _atom_site_fract_y
 _atom_site_fract_z
 _atom_site_occupancy
  Tb  Tb0  1  0.81678400  0.70995500  0.52673900  1
  Tb  Tb1  1  0.18321600  0.29004500  0.47326100  1
  Tb  Tb2  1  0.18321600  0.70995500  0.89317200  1
  Tb  Tb3  1  0.81678400  0.29004500  0.10682800  1
  Tb  Tb4  1  0.68707900  0.37788500  0.69080600  1
  Tb  Tb5  1  0.31292100  0.62211500  0.30919400  1
  Tb  Tb6  1  0.68707900  0.99627300  0.30919400  1
  Tb  Tb7  1  0.31292100  0.00372700  0.69080600  1
  Tb  Tb8  1  0.60081900  0.79418900  0.80663100  1
  Tb  Tb9  1  0.39918100  0.20581100  0.19336900  1
  Tb  Tb10  1  0.98755800  0.79418900  0.19336900  1
  Tb  Tb11  1  0.01244200  0.20581100  0.80663100  1
  Co  Co12  1  0.62443000  0.00000000  0.62443000  1
  Co  Co13  1  0.37557000  0.00000000  0.37557000  1
  Co  Co14  1  0.11186000  0.61186000  0.50000000  1
  Co  Co15  1  0.88814000  0.38814000  0.50000000  1
  Co  Co16  1  0.00000000  0.00000000  0.00000000  1
  Bi  Bi17  1  0.50000000  0.50000000  0.00000000  1
