# generated using pymatgen
data_Th7Se12
_symmetry_space_group_name_H-M   'P 1'
_cell_length_a   4.12302700
_cell_length_b   11.72313636
_cell_length_c   11.72313636
_cell_angle_alpha   120.00000201
_cell_angle_beta   90.00000000
_cell_angle_gamma   90.00000000
_symmetry_Int_Tables_number   1
_chemical_formula_structural   Th7Se12
_chemical_formula_sum   'Th7 Se12'
_cell_volume   490.72076386
_cell_formula_units_Z   1
loop_
 _symmetry_equiv_pos_site_id
 _symmetry_equiv_pos_as_xyz
  1  'x, y, z'
loop_
 _atom_site_type_symbol
 _atom_site_label
 _atom_site_symmetry_multiplicity
 _atom_site_fract_x
 _atom_site_fract_y
 _atom_site_fract_z
 _atom_site_occupancy
  Th  Th0  1  0.75000000  0.00000000  0.00000000  1
  Th  Th1  1  0.75000000  0.71790000  0.56436500  1
  Th  Th2  1  0.75000000  0.43563500  0.15353500  1
  Th  Th3  1  0.75000000  0.84646500  0.28210000  1
  Th  Th4  1  0.25000000  0.28631600  0.44346300  1
  Th  Th5  1  0.25000000  0.55653700  0.84285300  1
  Th  Th6  1  0.25000000  0.15714700  0.71368400  1
  Se  Se7  1  0.75000000  0.00514000  0.75237200  1
  Se  Se8  1  0.75000000  0.24762800  0.25276800  1
  Se  Se9  1  0.75000000  0.74723200  0.99486000  1
  Se  Se10  1  0.25000000  0.99534100  0.21228200  1
  Se  Se11  1  0.25000000  0.78771800  0.78306000  1
  Se  Se12  1  0.25000000  0.21694000  0.00465900  1
  Se  Se13  1  0.75000000  0.37489800  0.86184000  1
  Se  Se14  1  0.75000000  0.13816000  0.51305700  1
  Se  Se15  1  0.75000000  0.48694300  0.62510200  1
  Se  Se16  1  0.25000000  0.61827800  0.14016000  1
  Se  Se17  1  0.25000000  0.85984000  0.47811900  1
  Se  Se18  1  0.25000000  0.52188100  0.38172200  1
