# generated using pymatgen
data_Sr3Yb2(BO3)4
_symmetry_space_group_name_H-M   'P 1'
_cell_length_a   7.52365100
_cell_length_b   8.73204600
_cell_length_c   16.29753900
_cell_angle_alpha   90.00000000
_cell_angle_beta   90.00000000
_cell_angle_gamma   90.00000000
_symmetry_Int_Tables_number   1
_chemical_formula_structural   Sr3Yb2(BO3)4
_chemical_formula_sum   'Sr12 Yb8 B16 O48'
_cell_volume   1070.69724592
_cell_formula_units_Z   4
loop_
 _symmetry_equiv_pos_site_id
 _symmetry_equiv_pos_as_xyz
  1  'x, y, z'
loop_
 _atom_site_type_symbol
 _atom_site_label
 _atom_site_symmetry_multiplicity
 _atom_site_fract_x
 _atom_site_fract_y
 _atom_site_fract_z
 _atom_site_occupancy
  Sr  Sr0  1  0.01952800  0.33430200  0.45259100  1
  Sr  Sr1  1  0.98047200  0.66569800  0.95259100  1
  Sr  Sr2  1  0.51952800  0.16569800  0.45259100  1
  Sr  Sr3  1  0.48047200  0.83430200  0.95259100  1
  Sr  Sr4  1  0.18123400  0.84189100  0.40854800  1
  Sr  Sr5  1  0.81876600  0.15810900  0.90854800  1
  Sr  Sr6  1  0.68123400  0.65810900  0.40854800  1
  Sr  Sr7  1  0.31876600  0.34189100  0.90854800  1
  Sr  Sr8  1  0.30250600  0.34659600  0.66744800  1
  Sr  Sr9  1  0.69749400  0.65340400  0.16744800  1
  Sr  Sr10  1  0.80250600  0.15340400  0.66744800  1
  Sr  Sr11  1  0.19749400  0.84659600  0.16744800  1
  Yb  Yb12  1  0.31653100  0.47246700  0.28789100  1
  Yb  Yb13  1  0.68346900  0.52753300  0.78789100  1
  Yb  Yb14  1  0.81653100  0.02753300  0.28789100  1
  Yb  Yb15  1  0.18346900  0.97246700  0.78789100  1
  Yb  Yb16  1  0.01809100  0.33066900  0.12687200  1
  Yb  Yb17  1  0.98190900  0.66933100  0.62687200  1
  Yb  Yb18  1  0.51809100  0.16933100  0.12687200  1
  Yb  Yb19  1  0.48190900  0.83066900  0.62687200  1
  B  B20  1  0.17297700  0.05841400  0.99965500  1
  B  B21  1  0.82702300  0.94158600  0.49965500  1
  B  B22  1  0.67297700  0.44158600  0.99965500  1
  B  B23  1  0.32702300  0.55841400  0.49965500  1
  B  B24  1  0.00607800  0.37455000  0.78661800  1
  B  B25  1  0.99392200  0.62545000  0.28661800  1
  B  B26  1  0.50607800  0.12545000  0.78661800  1
  B  B27  1  0.49392200  0.87455000  0.28661800  1
  B  B28  1  0.15954500  0.04196200  0.58493000  1
  B  B29  1  0.84045500  0.95803800  0.08493000  1
  B  B30  1  0.65954500  0.45803800  0.58493000  1
  B  B31  1  0.34045500  0.54196200  0.08493000  1
  B  B32  1  0.21383300  0.15523500  0.28613800  1
  B  B33  1  0.78616700  0.84476500  0.78613800  1
  B  B34  1  0.71383300  0.34476500  0.28613800  1
  B  B35  1  0.28616700  0.65523500  0.78613800  1
  O  O36  1  0.24766300  0.22662900  0.21183000  1
  O  O37  1  0.75233700  0.77337100  0.71183000  1
  O  O38  1  0.74766300  0.27337100  0.21183000  1
  O  O39  1  0.25233700  0.72662900  0.71183000  1
  O  O40  1  0.09002900  0.18774600  0.58150300  1
  O  O41  1  0.90997100  0.81225400  0.08150300  1
  O  O42  1  0.59002900  0.31225400  0.58150300  1
  O  O43  1  0.40997100  0.68774600  0.08150300  1
  O  O44  1  0.09424100  0.20092500  0.00200700  1
  O  O45  1  0.90575900  0.79907500  0.50200700  1
  O  O46  1  0.59424100  0.29907500  0.00200700  1
  O  O47  1  0.40575900  0.70092500  0.50200700  1
  O  O48  1  0.12726100  0.01725200  0.28732500  1
  O  O49  1  0.87273900  0.98274800  0.78732500  1
  O  O50  1  0.62726100  0.48274800  0.28732500  1
  O  O51  1  0.37273900  0.51725200  0.78732500  1
  O  O52  1  0.20727800  0.49359100  0.03470100  1
  O  O53  1  0.79272200  0.50640900  0.53470100  1
  O  O54  1  0.70727800  0.00640900  0.03470100  1
  O  O55  1  0.29272200  0.99359100  0.53470100  1
  O  O56  1  0.11053800  0.24223200  0.78725700  1
  O  O57  1  0.88946200  0.75776800  0.28725700  1
  O  O58  1  0.61053800  0.25776800  0.78725700  1
  O  O59  1  0.38946200  0.74223200  0.28725700  1
  O  O60  1  0.04429000  0.55649000  0.21331000  1
  O  O61  1  0.95571000  0.44351000  0.71331000  1
  O  O62  1  0.54429000  0.94351000  0.21331000  1
  O  O63  1  0.45571000  0.05649000  0.71331000  1
  O  O64  1  0.25928400  0.22317300  0.35936100  1
  O  O65  1  0.74071600  0.77682700  0.85936100  1
  O  O66  1  0.75928400  0.27682700  0.35936100  1
  O  O67  1  0.24071600  0.72317300  0.85936100  1
  O  O68  1  0.39034000  0.46611600  0.43717800  1
  O  O69  1  0.60966000  0.53388400  0.93717800  1
  O  O70  1  0.89034000  0.03388400  0.43717800  1
  O  O71  1  0.10966000  0.96611600  0.93717800  1
  O  O72  1  0.41210400  0.44991600  0.14571300  1
  O  O73  1  0.58789600  0.55008400  0.64571300  1
  O  O74  1  0.91210400  0.05008400  0.14571300  1
  O  O75  1  0.08789600  0.94991600  0.64571300  1
  O  O76  1  0.30675200  0.01763500  0.05191600  1
  O  O77  1  0.69324800  0.98236500  0.55191600  1
  O  O78  1  0.80675200  0.48236500  0.05191600  1
  O  O79  1  0.19324800  0.51763500  0.55191600  1
  O  O80  1  0.05743200  0.56802600  0.36020700  1
  O  O81  1  0.94256800  0.43197400  0.86020700  1
  O  O82  1  0.55743200  0.93197400  0.36020700  1
  O  O83  1  0.44256800  0.06802600  0.86020700  1
