# generated using pymatgen
data_FeSnRh2
_symmetry_space_group_name_H-M   'P 1'
_cell_length_a   4.60375035
_cell_length_b   4.60375035
_cell_length_c   4.60375035
_cell_angle_alpha   126.22652648
_cell_angle_beta   126.22652648
_cell_angle_gamma   79.51614738
_symmetry_Int_Tables_number   1
_chemical_formula_structural   FeSnRh2
_chemical_formula_sum   'Fe1 Sn1 Rh2'
_cell_volume   61.36161458
_cell_formula_units_Z   1
loop_
 _symmetry_equiv_pos_site_id
 _symmetry_equiv_pos_as_xyz
  1  'x, y, z'
loop_
 _atom_site_type_symbol
 _atom_site_label
 _atom_site_symmetry_multiplicity
 _atom_site_fract_x
 _atom_site_fract_y
 _atom_site_fract_z
 _atom_site_occupancy
  Fe  Fe0  1  0.00000000  0.00000000  0.00000000  1
  Sn  Sn1  1  0.50000000  0.50000000  0.00000000  1
  Rh  Rh2  1  0.75000000  0.25000000  0.50000000  1
  Rh  Rh3  1  0.25000000  0.75000000  0.50000000  1
