# generated using pymatgen
data_Tb5Ir3
_symmetry_space_group_name_H-M   'P 1'
_cell_length_a   10.96053000
_cell_length_b   10.96053000
_cell_length_c   6.39869500
_cell_angle_alpha   90.00000000
_cell_angle_beta   90.00000000
_cell_angle_gamma   90.00000000
_symmetry_Int_Tables_number   1
_chemical_formula_structural   Tb5Ir3
_chemical_formula_sum   'Tb20 Ir12'
_cell_volume   768.69582059
_cell_formula_units_Z   4
loop_
 _symmetry_equiv_pos_site_id
 _symmetry_equiv_pos_as_xyz
  1  'x, y, z'
loop_
 _atom_site_type_symbol
 _atom_site_label
 _atom_site_symmetry_multiplicity
 _atom_site_fract_x
 _atom_site_fract_y
 _atom_site_fract_z
 _atom_site_occupancy
  Tb  Tb0  1  0.29105500  0.08832900  0.37854800  1
  Tb  Tb1  1  0.29105500  0.91167100  0.87854800  1
  Tb  Tb2  1  0.70894500  0.08832900  0.87854800  1
  Tb  Tb3  1  0.70894500  0.91167100  0.37854800  1
  Tb  Tb4  1  0.58832900  0.79105500  0.87854800  1
  Tb  Tb5  1  0.58832900  0.20894500  0.37854800  1
  Tb  Tb6  1  0.41167100  0.79105500  0.37854800  1
  Tb  Tb7  1  0.41167100  0.20894500  0.87854800  1
  Tb  Tb8  1  0.20894500  0.41167100  0.62145200  1
  Tb  Tb9  1  0.20894500  0.58832900  0.12145200  1
  Tb  Tb10  1  0.79105500  0.41167100  0.12145200  1
  Tb  Tb11  1  0.79105500  0.58832900  0.62145200  1
  Tb  Tb12  1  0.91167100  0.70894500  0.12145200  1
  Tb  Tb13  1  0.91167100  0.29105500  0.62145200  1
  Tb  Tb14  1  0.08832900  0.70894500  0.62145200  1
  Tb  Tb15  1  0.08832900  0.29105500  0.12145200  1
  Tb  Tb16  1  0.00000000  0.00000000  0.50000000  1
  Tb  Tb17  1  0.00000000  0.00000000  0.00000000  1
  Tb  Tb18  1  0.50000000  0.50000000  0.00000000  1
  Tb  Tb19  1  0.50000000  0.50000000  0.50000000  1
  Ir  Ir20  1  0.84627900  0.15372100  0.25000000  1
  Ir  Ir21  1  0.84627900  0.84627900  0.75000000  1
  Ir  Ir22  1  0.15372100  0.15372100  0.75000000  1
  Ir  Ir23  1  0.15372100  0.84627900  0.25000000  1
  Ir  Ir24  1  0.65372100  0.34627900  0.75000000  1
  Ir  Ir25  1  0.65372100  0.65372100  0.25000000  1
  Ir  Ir26  1  0.34627900  0.34627900  0.25000000  1
  Ir  Ir27  1  0.34627900  0.65372100  0.75000000  1
  Ir  Ir28  1  0.50000000  0.00000000  0.12028500  1
  Ir  Ir29  1  0.50000000  0.00000000  0.62028500  1
  Ir  Ir30  1  0.00000000  0.50000000  0.87971500  1
  Ir  Ir31  1  0.00000000  0.50000000  0.37971500  1
