# generated using pymatgen
data_Sm3(P3Pd10)2
_symmetry_space_group_name_H-M   'P 1'
_cell_length_a   8.72962071
_cell_length_b   8.72962071
_cell_length_c   8.72962071
_cell_angle_alpha   60.00000000
_cell_angle_beta   60.00000000
_cell_angle_gamma   60.00000000
_symmetry_Int_Tables_number   1
_chemical_formula_structural   Sm3(P3Pd10)2
_chemical_formula_sum   'Sm3 P6 Pd20'
_cell_volume   470.40412969
_cell_formula_units_Z   1
loop_
 _symmetry_equiv_pos_site_id
 _symmetry_equiv_pos_as_xyz
  1  'x, y, z'
loop_
 _atom_site_type_symbol
 _atom_site_label
 _atom_site_symmetry_multiplicity
 _atom_site_fract_x
 _atom_site_fract_y
 _atom_site_fract_z
 _atom_site_occupancy
  Sm  Sm0  1  0.25000000  0.25000000  0.25000000  1
  Sm  Sm1  1  0.75000000  0.75000000  0.75000000  1
  Sm  Sm2  1  0.00000000  0.00000000  0.00000000  1
  P  P3  1  0.73814600  0.26185400  0.26185400  1
  P  P4  1  0.26185400  0.73814600  0.73814600  1
  P  P5  1  0.26185400  0.73814600  0.26185400  1
  P  P6  1  0.73814600  0.26185400  0.73814600  1
  P  P7  1  0.26185400  0.26185400  0.73814600  1
  P  P8  1  0.73814600  0.73814600  0.26185400  1
  Pd  Pd9  1  0.38568500  0.38568500  0.38568500  1
  Pd  Pd10  1  0.61431500  0.61431500  0.61431500  1
  Pd  Pd11  1  0.38568500  0.38568500  0.84294400  1
  Pd  Pd12  1  0.38568500  0.84294400  0.38568500  1
  Pd  Pd13  1  0.61431500  0.61431500  0.15705600  1
  Pd  Pd14  1  0.61431500  0.15705600  0.61431500  1
  Pd  Pd15  1  0.84294400  0.38568500  0.38568500  1
  Pd  Pd16  1  0.15705600  0.61431500  0.61431500  1
  Pd  Pd17  1  0.34678800  0.00000000  0.00000000  1
  Pd  Pd18  1  0.65321200  0.00000000  0.00000000  1
  Pd  Pd19  1  0.00000000  0.34678800  0.65321200  1
  Pd  Pd20  1  0.00000000  0.65321200  0.34678800  1
  Pd  Pd21  1  0.00000000  0.34678800  0.00000000  1
  Pd  Pd22  1  0.65321200  0.00000000  0.34678800  1
  Pd  Pd23  1  0.00000000  0.65321200  0.00000000  1
  Pd  Pd24  1  0.34678800  0.00000000  0.65321200  1
  Pd  Pd25  1  0.00000000  0.00000000  0.34678800  1
  Pd  Pd26  1  0.00000000  0.00000000  0.65321200  1
  Pd  Pd27  1  0.65321200  0.34678800  0.00000000  1
  Pd  Pd28  1  0.34678800  0.65321200  0.00000000  1
