# generated using pymatgen
data_NpF5
_symmetry_space_group_name_H-M   'P 1'
_cell_length_a   5.36218726
_cell_length_b   5.36218726
_cell_length_c   5.36218726
_cell_angle_alpha   100.12206519
_cell_angle_beta   100.12206519
_cell_angle_gamma   130.42922748
_symmetry_Int_Tables_number   1
_chemical_formula_structural   NpF5
_chemical_formula_sum   'Np1 F5'
_cell_volume   106.55151028
_cell_formula_units_Z   1
loop_
 _symmetry_equiv_pos_site_id
 _symmetry_equiv_pos_as_xyz
  1  'x, y, z'
loop_
 _atom_site_type_symbol
 _atom_site_label
 _atom_site_symmetry_multiplicity
 _atom_site_fract_x
 _atom_site_fract_y
 _atom_site_fract_z
 _atom_site_occupancy
  Np  Np0  1  0.00000000  0.00000000  0.00000000  1
  F  F1  1  0.89842700  0.27472400  0.17315100  1
  F  F2  1  0.10157300  0.72527600  0.82684900  1
  F  F3  1  0.27472400  0.10157300  0.37629700  1
  F  F4  1  0.72527600  0.89842700  0.62370300  1
  F  F5  1  0.50000000  0.50000000  0.00000000  1
