# generated using pymatgen
data_BaNaCrF6
_symmetry_space_group_name_H-M   'P 1'
_cell_length_a   5.65119300
_cell_length_b   10.09572200
_cell_length_c   19.43098700
_cell_angle_alpha   90.00000000
_cell_angle_beta   90.00000000
_cell_angle_gamma   90.00000000
_symmetry_Int_Tables_number   1
_chemical_formula_structural   BaNaCrF6
_chemical_formula_sum   'Ba8 Na8 Cr8 F48'
_cell_volume   1108.59364322
_cell_formula_units_Z   8
loop_
 _symmetry_equiv_pos_site_id
 _symmetry_equiv_pos_as_xyz
  1  'x, y, z'
loop_
 _atom_site_type_symbol
 _atom_site_label
 _atom_site_symmetry_multiplicity
 _atom_site_fract_x
 _atom_site_fract_y
 _atom_site_fract_z
 _atom_site_occupancy
  Ba  Ba0  1  0.75714900  0.36648600  0.11342300  1
  Ba  Ba1  1  0.24285100  0.86648600  0.88657700  1
  Ba  Ba2  1  0.74285100  0.36648600  0.61342300  1
  Ba  Ba3  1  0.25714900  0.86648600  0.38657700  1
  Ba  Ba4  1  0.25756800  0.00152100  0.13594400  1
  Ba  Ba5  1  0.74243200  0.50152100  0.86405600  1
  Ba  Ba6  1  0.24243200  0.00152100  0.63594400  1
  Ba  Ba7  1  0.75756800  0.50152100  0.36405600  1
  Na  Na8  1  0.25845000  0.63598400  0.06436600  1
  Na  Na9  1  0.74155000  0.13598400  0.93563400  1
  Na  Na10  1  0.24155000  0.63598400  0.56436600  1
  Na  Na11  1  0.75845000  0.13598400  0.43563400  1
  Na  Na12  1  0.25997600  0.23090800  0.31329600  1
  Na  Na13  1  0.74002400  0.73090800  0.68670400  1
  Na  Na14  1  0.24002400  0.23090800  0.81329600  1
  Na  Na15  1  0.75997600  0.73090800  0.18670400  1
  Cr  Cr16  1  0.26311800  0.26146900  0.49424700  1
  Cr  Cr17  1  0.73688200  0.76146900  0.50575300  1
  Cr  Cr18  1  0.23688200  0.26146900  0.99424700  1
  Cr  Cr19  1  0.76311800  0.76146900  0.00575300  1
  Cr  Cr20  1  0.25270700  0.60595600  0.24543500  1
  Cr  Cr21  1  0.74729300  0.10595600  0.75456500  1
  Cr  Cr22  1  0.24729300  0.60595600  0.74543500  1
  Cr  Cr23  1  0.75270700  0.10595600  0.25456500  1
  F  F24  1  0.02170400  0.17487600  0.05901800  1
  F  F25  1  0.97829600  0.67487600  0.94098200  1
  F  F26  1  0.47829600  0.17487600  0.55901800  1
  F  F27  1  0.52170400  0.67487600  0.44098200  1
  F  F28  1  0.32927200  0.11703700  0.42970600  1
  F  F29  1  0.67072800  0.61703700  0.57029400  1
  F  F30  1  0.17072800  0.11703700  0.92970600  1
  F  F31  1  0.82927200  0.61703700  0.07029400  1
  F  F32  1  0.49837500  0.16325700  0.03604600  1
  F  F33  1  0.50162500  0.66325700  0.96395400  1
  F  F34  1  0.00162500  0.16325700  0.53604600  1
  F  F35  1  0.99837500  0.66325700  0.46395400  1
  F  F36  1  0.47907700  0.53809300  0.17973800  1
  F  F37  1  0.52092300  0.03809300  0.82026200  1
  F  F38  1  0.02092300  0.53809300  0.67973800  1
  F  F39  1  0.97907700  0.03809300  0.32026200  1
  F  F40  1  0.52928500  0.19156800  0.19173400  1
  F  F41  1  0.47071500  0.69156800  0.80826600  1
  F  F42  1  0.97071500  0.19156800  0.69173400  1
  F  F43  1  0.02928500  0.69156800  0.30826600  1
  F  F44  1  0.30151000  0.46234700  0.31107100  1
  F  F45  1  0.69849000  0.96234700  0.68892900  1
  F  F46  1  0.19849000  0.46234700  0.81107100  1
  F  F47  1  0.80151000  0.96234700  0.18892900  1
  F  F48  1  0.04634800  0.32891500  0.42570500  1
  F  F49  1  0.95365200  0.82891500  0.57429500  1
  F  F50  1  0.45365200  0.32891500  0.92570500  1
  F  F51  1  0.54634800  0.82891500  0.07429500  1
  F  F52  1  0.01065800  0.20268700  0.21080800  1
  F  F53  1  0.98934200  0.70268700  0.78919200  1
  F  F54  1  0.48934200  0.20268700  0.71080800  1
  F  F55  1  0.51065800  0.70268700  0.28919200  1
  F  F56  1  0.54301700  0.35366600  0.46118800  1
  F  F57  1  0.45698300  0.85366600  0.53881200  1
  F  F58  1  0.95698300  0.35366600  0.96118800  1
  F  F59  1  0.04301700  0.85366600  0.03881200  1
  F  F60  1  0.19811700  0.75124600  0.18064900  1
  F  F61  1  0.80188300  0.25124600  0.81935100  1
  F  F62  1  0.30188300  0.75124600  0.68064900  1
  F  F63  1  0.69811700  0.25124600  0.31935100  1
  F  F64  1  0.29619700  0.40442900  0.05974100  1
  F  F65  1  0.70380300  0.90442900  0.94025900  1
  F  F66  1  0.20380300  0.40442900  0.55974100  1
  F  F67  1  0.79619700  0.90442900  0.44025900  1
  F  F68  1  0.47902300  0.01515600  0.29228600  1
  F  F69  1  0.52097700  0.51515600  0.70771400  1
  F  F70  1  0.02097700  0.01515600  0.79228600  1
  F  F71  1  0.97902300  0.51515600  0.20771400  1
