# generated using pymatgen
data_Rb3La3(BO3)4
_symmetry_space_group_name_H-M   'P 1'
_cell_length_a   9.40911000
_cell_length_b   11.13964300
_cell_length_c   14.66001105
_cell_angle_alpha   69.36653341
_cell_angle_beta   90.00000000
_cell_angle_gamma   90.00000000
_symmetry_Int_Tables_number   1
_chemical_formula_structural   Rb3La3(BO3)4
_chemical_formula_sum   'Rb12 La12 B16 O48'
_cell_volume   1438.01082264
_cell_formula_units_Z   4
loop_
 _symmetry_equiv_pos_site_id
 _symmetry_equiv_pos_as_xyz
  1  'x, y, z'
loop_
 _atom_site_type_symbol
 _atom_site_label
 _atom_site_symmetry_multiplicity
 _atom_site_fract_x
 _atom_site_fract_y
 _atom_site_fract_z
 _atom_site_occupancy
  Rb  Rb0  1  0.56407000  0.69951800  0.90367300  1
  Rb  Rb1  1  0.43593000  0.30048200  0.09632700  1
  Rb  Rb2  1  0.56407000  0.30048200  0.59632700  1
  Rb  Rb3  1  0.43593000  0.69951800  0.40367300  1
  Rb  Rb4  1  0.92260800  0.61001600  0.04193500  1
  Rb  Rb5  1  0.07739200  0.38998400  0.95806500  1
  Rb  Rb6  1  0.92260800  0.38998400  0.45806500  1
  Rb  Rb7  1  0.07739200  0.61001600  0.54193500  1
  Rb  Rb8  1  0.85491400  0.91833500  0.41489500  1
  Rb  Rb9  1  0.14508600  0.08166500  0.58510500  1
  Rb  Rb10  1  0.85491400  0.08166500  0.08510500  1
  Rb  Rb11  1  0.14508600  0.91833500  0.91489500  1
  La  La12  1  0.53035100  0.83338500  0.61951300  1
  La  La13  1  0.46964900  0.16661500  0.38048700  1
  La  La14  1  0.53035100  0.16661500  0.88048700  1
  La  La15  1  0.46964900  0.83338500  0.11951300  1
  La  La16  1  0.80669500  0.00000000  0.75000000  1
  La  La17  1  0.19330500  0.00000000  0.25000000  1
  La  La18  1  0.80149600  0.71010500  0.25416900  1
  La  La19  1  0.19850400  0.28989500  0.74583100  1
  La  La20  1  0.80149600  0.28989500  0.24583100  1
  La  La21  1  0.19850400  0.71010500  0.75416900  1
  La  La22  1  0.73765100  0.50000000  0.75000000  1
  La  La23  1  0.26234900  0.50000000  0.25000000  1
  B  B24  1  0.41466400  0.00000000  0.75000000  1
  B  B25  1  0.58533600  0.00000000  0.25000000  1
  B  B26  1  0.73727400  0.87458000  0.99317800  1
  B  B27  1  0.26272600  0.12542000  0.00682200  1
  B  B28  1  0.73727400  0.12542000  0.50682200  1
  B  B29  1  0.26272600  0.87458000  0.49317800  1
  B  B30  1  0.89374200  0.76141300  0.72234000  1
  B  B31  1  0.10625800  0.23858700  0.27766000  1
  B  B32  1  0.89374200  0.23858700  0.77766000  1
  B  B33  1  0.10625800  0.76141300  0.22234000  1
  B  B34  1  0.73456300  0.61725900  0.52031600  1
  B  B35  1  0.26543700  0.38274100  0.47968400  1
  B  B36  1  0.73456300  0.38274100  0.97968400  1
  B  B37  1  0.26543700  0.61725900  0.02031600  1
  B  B38  1  0.40409000  0.50000000  0.75000000  1
  B  B39  1  0.59591000  0.50000000  0.25000000  1
  O  O40  1  0.94770800  0.64851100  0.71744500  1
  O  O41  1  0.05229200  0.35148900  0.28255500  1
  O  O42  1  0.94770800  0.35148900  0.78255500  1
  O  O43  1  0.05229200  0.64851100  0.21744500  1
  O  O44  1  0.77001000  0.49791300  0.58670000  1
  O  O45  1  0.22999000  0.50208700  0.41330000  1
  O  O46  1  0.77001000  0.50208700  0.91330000  1
  O  O47  1  0.22999000  0.49791300  0.08670000  1
  O  O48  1  0.72565000  0.77565600  0.08424800  1
  O  O49  1  0.27435000  0.22434400  0.91575200  1
  O  O50  1  0.72565000  0.22434400  0.41575200  1
  O  O51  1  0.27435000  0.77565600  0.58424800  1
  O  O52  1  0.47619900  0.60941100  0.74969300  1
  O  O53  1  0.52380100  0.39058900  0.25030700  1
  O  O54  1  0.47619900  0.39058900  0.75030700  1
  O  O55  1  0.52380100  0.60941100  0.24969300  1
  O  O56  1  0.83922800  0.87681000  0.92616700  1
  O  O57  1  0.16077200  0.12319000  0.07383300  1
  O  O58  1  0.83922800  0.12319000  0.57383300  1
  O  O59  1  0.16077200  0.87681000  0.42616700  1
  O  O60  1  0.78281500  0.34539400  0.07597400  1
  O  O61  1  0.21718500  0.65460600  0.92402600  1
  O  O62  1  0.78281500  0.65460600  0.42402600  1
  O  O63  1  0.21718500  0.34539400  0.57597400  1
  O  O64  1  0.25489200  0.50000000  0.75000000  1
  O  O65  1  0.74510800  0.50000000  0.25000000  1
  O  O66  1  0.99141900  0.85360500  0.72970700  1
  O  O67  1  0.00858100  0.14639500  0.27029300  1
  O  O68  1  0.99141900  0.14639500  0.77029300  1
  O  O69  1  0.00858100  0.85360500  0.22970700  1
  O  O70  1  0.63082100  0.96706100  0.97481200  1
  O  O71  1  0.36917900  0.03293900  0.02518800  1
  O  O72  1  0.63082100  0.03293900  0.52518800  1
  O  O73  1  0.36917900  0.96706100  0.47481200  1
  O  O74  1  0.56123800  0.00000000  0.75000000  1
  O  O75  1  0.43876200  0.00000000  0.25000000  1
  O  O76  1  0.34471100  0.90001800  0.73253300  1
  O  O77  1  0.65528900  0.09998200  0.26746700  1
  O  O78  1  0.34471100  0.09998200  0.76746700  1
  O  O79  1  0.65528900  0.90001800  0.23253300  1
  O  O80  1  0.65285400  0.70218200  0.54989800  1
  O  O81  1  0.34714600  0.29781800  0.45010200  1
  O  O82  1  0.65285400  0.29781800  0.95010200  1
  O  O83  1  0.34714600  0.70218200  0.04989800  1
  O  O84  1  0.74882600  0.78506300  0.72318300  1
  O  O85  1  0.25117400  0.21493700  0.27681700  1
  O  O86  1  0.74882600  0.21493700  0.77681700  1
  O  O87  1  0.25117400  0.78506300  0.22318300  1
