# generated using pymatgen
data_GaGePt6
_symmetry_space_group_name_H-M   'P 1'
_cell_length_a   5.60317003
_cell_length_b   5.60317003
_cell_length_c   5.60317003
_cell_angle_alpha   120.21843726
_cell_angle_beta   120.21843726
_cell_angle_gamma   89.62207013
_symmetry_Int_Tables_number   1
_chemical_formula_structural   GaGePt6
_chemical_formula_sum   'Ga1 Ge1 Pt6'
_cell_volume   123.97664960
_cell_formula_units_Z   1
loop_
 _symmetry_equiv_pos_site_id
 _symmetry_equiv_pos_as_xyz
  1  'x, y, z'
loop_
 _atom_site_type_symbol
 _atom_site_label
 _atom_site_symmetry_multiplicity
 _atom_site_fract_x
 _atom_site_fract_y
 _atom_site_fract_z
 _atom_site_occupancy
  Ga  Ga0  1  0.00000000  0.00000000  0.00000000  1
  Ge  Ge1  1  0.50000000  0.50000000  0.00000000  1
  Pt  Pt2  1  0.95165300  0.95165300  0.41285900  1
  Pt  Pt3  1  0.53879300  0.53879300  0.58714100  1
  Pt  Pt4  1  0.04834700  0.46120700  0.00000000  1
  Pt  Pt5  1  0.46120700  0.04834700  0.00000000  1
  Pt  Pt6  1  0.50000000  0.00000000  0.50000000  1
  Pt  Pt7  1  0.00000000  0.50000000  0.50000000  1
