# generated using pymatgen
data_KLu(CO3)2
_symmetry_space_group_name_H-M   'P 1'
_cell_length_a   6.32374371
_cell_length_b   6.32374371
_cell_length_c   6.86245442
_cell_angle_alpha   76.27405687
_cell_angle_beta   76.27405687
_cell_angle_gamma   96.01366562
_symmetry_Int_Tables_number   1
_chemical_formula_structural   KLu(CO3)2
_chemical_formula_sum   'K2 Lu2 C4 O12'
_cell_volume   255.17730528
_cell_formula_units_Z   2
loop_
 _symmetry_equiv_pos_site_id
 _symmetry_equiv_pos_as_xyz
  1  'x, y, z'
loop_
 _atom_site_type_symbol
 _atom_site_label
 _atom_site_symmetry_multiplicity
 _atom_site_fract_x
 _atom_site_fract_y
 _atom_site_fract_z
 _atom_site_occupancy
  K  K0  1  0.62031800  0.37968200  0.75000000  1
  K  K1  1  0.37968200  0.62031800  0.25000000  1
  Lu  Lu2  1  0.09547900  0.90452100  0.75000000  1
  Lu  Lu3  1  0.90452100  0.09547900  0.25000000  1
  C  C4  1  0.64567200  0.89052200  0.75595100  1
  C  C5  1  0.35432800  0.10947800  0.24404900  1
  C  C6  1  0.10947800  0.35432800  0.74404900  1
  C  C7  1  0.89052200  0.64567200  0.25595100  1
  O  O8  1  0.43974700  0.89528000  0.77878700  1
  O  O9  1  0.56025300  0.10472000  0.22121300  1
  O  O10  1  0.10472000  0.56025300  0.72121300  1
  O  O11  1  0.89528000  0.43974700  0.27878700  1
  O  O12  1  0.71865700  0.75011300  0.88350700  1
  O  O13  1  0.28134300  0.24988700  0.11649300  1
  O  O14  1  0.24988700  0.28134300  0.61649300  1
  O  O15  1  0.75011300  0.71865700  0.38350700  1
  O  O16  1  0.79898300  0.03468100  0.60434800  1
  O  O17  1  0.20101700  0.96531900  0.39565200  1
  O  O18  1  0.96531900  0.20101700  0.89565200  1
  O  O19  1  0.03468100  0.79898300  0.10434800  1
