# generated using pymatgen
data_Sr2CdWO6
_symmetry_space_group_name_H-M   'P 1'
_cell_length_a   5.95888500
_cell_length_b   5.80764000
_cell_length_c   10.09819333
_cell_angle_alpha   54.84372529
_cell_angle_beta   90.00000000
_cell_angle_gamma   90.00000000
_symmetry_Int_Tables_number   1
_chemical_formula_structural   Sr2CdWO6
_chemical_formula_sum   'Sr4 Cd2 W2 O12'
_cell_volume   285.72027322
_cell_formula_units_Z   2
loop_
 _symmetry_equiv_pos_site_id
 _symmetry_equiv_pos_as_xyz
  1  'x, y, z'
loop_
 _atom_site_type_symbol
 _atom_site_label
 _atom_site_symmetry_multiplicity
 _atom_site_fract_x
 _atom_site_fract_y
 _atom_site_fract_z
 _atom_site_occupancy
  Sr  Sr0  1  0.95367200  0.24177300  0.24802100  1
  Sr  Sr1  1  0.45367200  0.75822700  0.25197900  1
  Sr  Sr2  1  0.04632800  0.75822700  0.75197900  1
  Sr  Sr3  1  0.54632800  0.24177300  0.74802100  1
  Cd  Cd4  1  0.00000000  0.50000000  0.50000000  1
  Cd  Cd5  1  0.50000000  0.50000000  0.00000000  1
  W  W6  1  0.50000000  0.00000000  0.50000000  1
  W  W7  1  0.00000000  0.00000000  0.00000000  1
  O  O8  1  0.23033800  0.87093800  0.44883400  1
  O  O9  1  0.73033800  0.12906200  0.05116600  1
  O  O10  1  0.76966200  0.12906200  0.55116600  1
  O  O11  1  0.26966200  0.87093800  0.94883400  1
  O  O12  1  0.68491600  0.76807100  0.45917700  1
  O  O13  1  0.18491600  0.23192900  0.04082300  1
  O  O14  1  0.31508400  0.23192900  0.54082300  1
  O  O15  1  0.81508400  0.76807100  0.95917700  1
  O  O16  1  0.03167300  0.68452400  0.22807400  1
  O  O17  1  0.53167300  0.31547600  0.27192600  1
  O  O18  1  0.96832700  0.31547600  0.77192600  1
  O  O19  1  0.46832700  0.68452400  0.72807400  1
