# generated using pymatgen
data_Ho3Ge4
_symmetry_space_group_name_H-M   'P 1'
_cell_length_a   5.70290064
_cell_length_b   5.70290064
_cell_length_c   14.26424500
_cell_angle_alpha   90.00000000
_cell_angle_beta   90.00000000
_cell_angle_gamma   138.36340827
_symmetry_Int_Tables_number   1
_chemical_formula_structural   Ho3Ge4
_chemical_formula_sum   'Ho6 Ge8'
_cell_volume   308.22823020
_cell_formula_units_Z   2
loop_
 _symmetry_equiv_pos_site_id
 _symmetry_equiv_pos_as_xyz
  1  'x, y, z'
loop_
 _atom_site_type_symbol
 _atom_site_label
 _atom_site_symmetry_multiplicity
 _atom_site_fract_x
 _atom_site_fract_y
 _atom_site_fract_z
 _atom_site_occupancy
  Ho  Ho0  1  0.04534000  0.95466000  0.25000000  1
  Ho  Ho1  1  0.95466000  0.04534000  0.75000000  1
  Ho  Ho2  1  0.67041000  0.32959000  0.59680500  1
  Ho  Ho3  1  0.32959000  0.67041000  0.40319500  1
  Ho  Ho4  1  0.32959000  0.67041000  0.09680500  1
  Ho  Ho5  1  0.67041000  0.32959000  0.90319500  1
  Ge  Ge6  1  0.00000000  0.00000000  0.50000000  1
  Ge  Ge7  1  0.00000000  0.00000000  0.00000000  1
  Ge  Ge8  1  0.77430300  0.22569700  0.25000000  1
  Ge  Ge9  1  0.22569700  0.77430300  0.75000000  1
  Ge  Ge10  1  0.61906300  0.38093700  0.39159600  1
  Ge  Ge11  1  0.38093700  0.61906300  0.60840400  1
  Ge  Ge12  1  0.61906300  0.38093700  0.10840400  1
  Ge  Ge13  1  0.38093700  0.61906300  0.89159600  1
