# generated using pymatgen
data_Ba3P4
_symmetry_space_group_name_H-M   'P 1'
_cell_length_a   11.88555531
_cell_length_b   9.72635790
_cell_length_c   8.13218226
_cell_angle_alpha   82.93098309
_cell_angle_beta   54.30297893
_cell_angle_gamma   42.76603798
_symmetry_Int_Tables_number   1
_chemical_formula_structural   Ba3P4
_chemical_formula_sum   'Ba6 P8'
_cell_volume   431.69906195
_cell_formula_units_Z   2
loop_
 _symmetry_equiv_pos_site_id
 _symmetry_equiv_pos_as_xyz
  1  'x, y, z'
loop_
 _atom_site_type_symbol
 _atom_site_label
 _atom_site_symmetry_multiplicity
 _atom_site_fract_x
 _atom_site_fract_y
 _atom_site_fract_z
 _atom_site_occupancy
  Ba  Ba0  1  0.08041500  0.58241100  0.92870600  1
  Ba  Ba1  1  0.40846800  0.92870600  0.58241100  1
  Ba  Ba2  1  0.32129400  0.84153200  0.16958500  1
  Ba  Ba3  1  0.66758900  0.16958500  0.84153200  1
  Ba  Ba4  1  0.99638100  0.50361900  0.50361900  1
  Ba  Ba5  1  0.74638100  0.25361900  0.25361900  1
  P  P6  1  0.43047000  0.07561500  0.91403000  1
  P  P7  1  0.57988500  0.91403000  0.07561500  1
  P  P8  1  0.33597000  0.67011500  0.81953000  1
  P  P9  1  0.17438500  0.81953000  0.67011500  1
  P  P10  1  0.80585300  0.54249300  0.00048700  1
  P  P11  1  0.65116800  0.00048700  0.54249300  1
  P  P12  1  0.70750700  0.44414700  0.59883200  1
  P  P13  1  0.24951300  0.59883200  0.44414700  1
