# generated using pymatgen
data_BaTi(S2O7)3
_symmetry_space_group_name_H-M   'P 1'
_cell_length_a   13.38856300
_cell_length_b   7.31776100
_cell_length_c   18.44396993
_cell_angle_alpha   87.06856109
_cell_angle_beta   90.00000000
_cell_angle_gamma   90.00000000
_symmetry_Int_Tables_number   1
_chemical_formula_structural   BaTi(S2O7)3
_chemical_formula_sum   'Ba4 Ti4 S24 O84'
_cell_volume   1804.67051700
_cell_formula_units_Z   4
loop_
 _symmetry_equiv_pos_site_id
 _symmetry_equiv_pos_as_xyz
  1  'x, y, z'
loop_
 _atom_site_type_symbol
 _atom_site_label
 _atom_site_symmetry_multiplicity
 _atom_site_fract_x
 _atom_site_fract_y
 _atom_site_fract_z
 _atom_site_occupancy
  Ba  Ba0  1  0.74579000  0.93867800  0.50902700  1
  Ba  Ba1  1  0.24579000  0.06132200  0.99097300  1
  Ba  Ba2  1  0.25421000  0.06132200  0.49097300  1
  Ba  Ba3  1  0.75421000  0.93867800  0.00902700  1
  Ti  Ti4  1  0.13227100  0.70100400  0.75401700  1
  Ti  Ti5  1  0.63227100  0.29899600  0.74598300  1
  Ti  Ti6  1  0.86772900  0.29899600  0.24598300  1
  Ti  Ti7  1  0.36772900  0.70100400  0.25401700  1
  S  S8  1  0.19551200  0.55888100  0.59467400  1
  S  S9  1  0.69551200  0.44111900  0.90532600  1
  S  S10  1  0.80448800  0.44111900  0.40532600  1
  S  S11  1  0.30448800  0.55888100  0.09467400  1
  S  S12  1  0.02202900  0.78499900  0.59814700  1
  S  S13  1  0.52202900  0.21500100  0.90185300  1
  S  S14  1  0.97797100  0.21500100  0.40185300  1
  S  S15  1  0.47797100  0.78499900  0.09814700  1
  S  S16  1  0.26694300  0.06018000  0.76809400  1
  S  S17  1  0.76694300  0.93982000  0.73190600  1
  S  S18  1  0.73305700  0.93982000  0.23190600  1
  S  S19  1  0.23305700  0.06018000  0.26809400  1
  S  S20  1  0.35205700  0.73788100  0.83661100  1
  S  S21  1  0.85205700  0.26211900  0.66338900  1
  S  S22  1  0.64794300  0.26211900  0.16338900  1
  S  S23  1  0.14794300  0.73788100  0.33661100  1
  S  S24  1  0.01140400  0.78595400  0.90109900  1
  S  S25  1  0.51140400  0.21404600  0.59890100  1
  S  S26  1  0.98859600  0.21404600  0.09890100  1
  S  S27  1  0.48859600  0.78595400  0.40109900  1
  S  S28  1  0.04827500  0.39954400  0.87615900  1
  S  S29  1  0.54827500  0.60045600  0.62384100  1
  S  S30  1  0.95172500  0.60045600  0.12384100  1
  S  S31  1  0.45172500  0.39954400  0.37615900  1
  O  O32  1  0.02909800  0.76210900  0.67976600  1
  O  O33  1  0.52909800  0.23789100  0.82023400  1
  O  O34  1  0.97090200  0.23789100  0.32023400  1
  O  O35  1  0.47090200  0.76210900  0.17976600  1
  O  O36  1  0.19324300  0.56378000  0.67626100  1
  O  O37  1  0.69324300  0.43622000  0.82373900  1
  O  O38  1  0.80675700  0.43622000  0.32373900  1
  O  O39  1  0.30675700  0.56378000  0.17626100  1
  O  O40  1  0.92137400  0.76136000  0.57389500  1
  O  O41  1  0.42137400  0.23864000  0.92610500  1
  O  O42  1  0.07862600  0.23864000  0.42610500  1
  O  O43  1  0.57862600  0.76136000  0.07389500  1
  O  O44  1  0.07760800  0.59892800  0.57149800  1
  O  O45  1  0.57760800  0.40107200  0.92850200  1
  O  O46  1  0.92239200  0.40107200  0.42850200  1
  O  O47  1  0.42239200  0.59892800  0.07149800  1
  O  O48  1  0.07764700  0.94216900  0.57036600  1
  O  O49  1  0.57764700  0.05783100  0.92963400  1
  O  O50  1  0.92235300  0.05783100  0.42963400  1
  O  O51  1  0.42235300  0.94216900  0.07036600  1
  O  O52  1  0.25510500  0.70581100  0.56329300  1
  O  O53  1  0.75510500  0.29418900  0.93670700  1
  O  O54  1  0.74489500  0.29418900  0.43670700  1
  O  O55  1  0.24489500  0.70581100  0.06329300  1
  O  O56  1  0.25035200  0.66429500  0.81585300  1
  O  O57  1  0.75035200  0.33570500  0.68414700  1
  O  O58  1  0.74964800  0.33570500  0.18414700  1
  O  O59  1  0.24964800  0.66429500  0.31585300  1
  O  O60  1  0.19537400  0.93912700  0.72759200  1
  O  O61  1  0.69537400  0.06087300  0.77240800  1
  O  O62  1  0.80462600  0.06087300  0.27240800  1
  O  O63  1  0.30462600  0.93912700  0.22759200  1
  O  O64  1  0.22652900  0.09717800  0.83846500  1
  O  O65  1  0.72652900  0.90282200  0.66153500  1
  O  O66  1  0.77347100  0.90282200  0.16153500  1
  O  O67  1  0.27347100  0.09717800  0.33846500  1
  O  O68  1  0.36397300  0.92277900  0.78145800  1
  O  O69  1  0.86397300  0.07722100  0.71854200  1
  O  O70  1  0.63602700  0.07722100  0.21854200  1
  O  O71  1  0.13602700  0.92277900  0.28145800  1
  O  O72  1  0.34836200  0.79992200  0.90958700  1
  O  O73  1  0.84836200  0.20007800  0.59041300  1
  O  O74  1  0.65163800  0.20007800  0.09041300  1
  O  O75  1  0.15163800  0.79992200  0.40958700  1
  O  O76  1  0.21021400  0.37678700  0.57182000  1
  O  O77  1  0.71021400  0.62321300  0.92818000  1
  O  O78  1  0.78978600  0.62321300  0.42818000  1
  O  O79  1  0.28978600  0.37678700  0.07182000  1
  O  O80  1  0.30500300  0.20556000  0.72198900  1
  O  O81  1  0.80500300  0.79444000  0.77801100  1
  O  O82  1  0.69499700  0.79444000  0.27801100  1
  O  O83  1  0.19499700  0.20556000  0.22198900  1
  O  O84  1  0.43175100  0.62286000  0.81605200  1
  O  O85  1  0.93175100  0.37714000  0.68394800  1
  O  O86  1  0.56824900  0.37714000  0.18394800  1
  O  O87  1  0.06824900  0.62286000  0.31605200  1
  O  O88  1  0.08280600  0.47707600  0.80221400  1
  O  O89  1  0.58280600  0.52292400  0.69778600  1
  O  O90  1  0.91719400  0.52292400  0.19778600  1
  O  O91  1  0.41719400  0.47707600  0.30221400  1
  O  O92  1  0.97786300  0.56939400  0.90423700  1
  O  O93  1  0.47786300  0.43060600  0.59576300  1
  O  O94  1  0.02213700  0.43060600  0.09576300  1
  O  O95  1  0.52213700  0.56939400  0.40423700  1
  O  O96  1  0.04447900  0.82246500  0.82351700  1
  O  O97  1  0.54447900  0.17753500  0.67648300  1
  O  O98  1  0.95552100  0.17753500  0.17648300  1
  O  O99  1  0.45552100  0.82246500  0.32351700  1
  O  O100  1  0.91856600  0.87371500  0.91636100  1
  O  O101  1  0.41856600  0.12628500  0.58363900  1
  O  O102  1  0.08143400  0.12628500  0.08363900  1
  O  O103  1  0.58143400  0.87371500  0.41636100  1
  O  O104  1  0.09378600  0.80856700  0.95015700  1
  O  O105  1  0.59378600  0.19143300  0.54984300  1
  O  O106  1  0.90621400  0.19143300  0.04984300  1
  O  O107  1  0.40621400  0.80856700  0.45015700  1
  O  O108  1  0.97844500  0.25494900  0.86911100  1
  O  O109  1  0.47844500  0.74505100  0.63088900  1
  O  O110  1  0.02155500  0.74505100  0.13088900  1
  O  O111  1  0.52155500  0.25494900  0.36911100  1
  O  O112  1  0.13065900  0.37670400  0.92620700  1
  O  O113  1  0.63065900  0.62329600  0.57379300  1
  O  O114  1  0.86934100  0.62329600  0.07379300  1
  O  O115  1  0.36934100  0.37670400  0.42620700  1
