# generated using pymatgen
data_HoAg(WO4)2
_symmetry_space_group_name_H-M   'P 1'
_cell_length_a   7.37939474
_cell_length_b   7.37939474
_cell_length_c   7.31740438
_cell_angle_alpha   65.84924228
_cell_angle_beta   65.84924228
_cell_angle_gamma   94.26370526
_symmetry_Int_Tables_number   1
_chemical_formula_structural   HoAg(WO4)2
_chemical_formula_sum   'Ho2 Ag2 W4 O16'
_cell_volume   317.47859026
_cell_formula_units_Z   2
loop_
 _symmetry_equiv_pos_site_id
 _symmetry_equiv_pos_as_xyz
  1  'x, y, z'
loop_
 _atom_site_type_symbol
 _atom_site_label
 _atom_site_symmetry_multiplicity
 _atom_site_fract_x
 _atom_site_fract_y
 _atom_site_fract_z
 _atom_site_occupancy
  Ho  Ho0  1  0.69829800  0.30170200  0.00000000  1
  Ho  Ho1  1  0.30170200  0.69829800  0.00000000  1
  Ag  Ag2  1  0.68217300  0.68217300  0.48239200  1
  Ag  Ag3  1  0.31782700  0.31782700  0.51760800  1
  W  W4  1  0.21136700  0.21136700  0.03114500  1
  W  W5  1  0.78863300  0.78863300  0.96885500  1
  W  W6  1  0.83512800  0.16487200  0.50000000  1
  W  W7  1  0.16487200  0.83512800  0.50000000  1
  O  O8  1  0.35448500  0.10267200  0.24239300  1
  O  O9  1  0.64551500  0.89732800  0.75760700  1
  O  O10  1  0.89732800  0.64551500  0.75760700  1
  O  O11  1  0.10267200  0.35448500  0.24239300  1
  O  O12  1  0.68618800  0.21960300  0.34924600  1
  O  O13  1  0.31381200  0.78039700  0.65075400  1
  O  O14  1  0.78039700  0.31381200  0.65075400  1
  O  O15  1  0.21960300  0.68618800  0.34924600  1
  O  O16  1  0.69953900  0.96058600  0.08574300  1
  O  O17  1  0.30046100  0.03941400  0.91425700  1
  O  O18  1  0.03941400  0.30046100  0.91425700  1
  O  O19  1  0.96058600  0.69953900  0.08574300  1
  O  O20  1  0.97779000  0.97779000  0.34170800  1
  O  O21  1  0.02221000  0.02221000  0.65829200  1
  O  O22  1  0.55528500  0.55528500  0.13564100  1
  O  O23  1  0.44471500  0.44471500  0.86435900  1
