# generated using pymatgen
data_NdCuNi4
_symmetry_space_group_name_H-M   'P 1'
_cell_length_a   4.98609973
_cell_length_b   4.98609973
_cell_length_c   4.00732400
_cell_angle_alpha   90.00000000
_cell_angle_beta   90.00000000
_cell_angle_gamma   120.71014949
_symmetry_Int_Tables_number   1
_chemical_formula_structural   NdCuNi4
_chemical_formula_sum   'Nd1 Cu1 Ni4'
_cell_volume   85.65535786
_cell_formula_units_Z   1
loop_
 _symmetry_equiv_pos_site_id
 _symmetry_equiv_pos_as_xyz
  1  'x, y, z'
loop_
 _atom_site_type_symbol
 _atom_site_label
 _atom_site_symmetry_multiplicity
 _atom_site_fract_x
 _atom_site_fract_y
 _atom_site_fract_z
 _atom_site_occupancy
  Nd  Nd0  1  0.50000000  0.50000000  0.00000000  1
  Cu  Cu1  1  0.00000000  0.00000000  0.50000000  1
  Ni  Ni2  1  0.17575800  0.82424200  0.00000000  1
  Ni  Ni3  1  0.82424200  0.17575800  0.00000000  1
  Ni  Ni4  1  0.00000000  0.50000000  0.50000000  1
  Ni  Ni5  1  0.50000000  0.00000000  0.50000000  1
