# generated using pymatgen
data_Rb2Be3Ni2F12
_symmetry_space_group_name_H-M   'P 1'
_cell_length_a   10.11336100
_cell_length_b   10.11336100
_cell_length_c   10.11336100
_cell_angle_alpha   90.00000000
_cell_angle_beta   90.00000000
_cell_angle_gamma   90.00000000
_symmetry_Int_Tables_number   1
_chemical_formula_structural   Rb2Be3Ni2F12
_chemical_formula_sum   'Rb8 Be12 Ni8 F48'
_cell_volume   1034.39527826
_cell_formula_units_Z   4
loop_
 _symmetry_equiv_pos_site_id
 _symmetry_equiv_pos_as_xyz
  1  'x, y, z'
loop_
 _atom_site_type_symbol
 _atom_site_label
 _atom_site_symmetry_multiplicity
 _atom_site_fract_x
 _atom_site_fract_y
 _atom_site_fract_z
 _atom_site_occupancy
  Rb  Rb0  1  0.04833100  0.04833100  0.04833100  1
  Rb  Rb1  1  0.45166900  0.95166900  0.54833100  1
  Rb  Rb2  1  0.95166900  0.54833100  0.45166900  1
  Rb  Rb3  1  0.54833100  0.45166900  0.95166900  1
  Rb  Rb4  1  0.81561300  0.81561300  0.81561300  1
  Rb  Rb5  1  0.68438700  0.18438700  0.31561300  1
  Rb  Rb6  1  0.18438700  0.31561300  0.68438700  1
  Rb  Rb7  1  0.31561300  0.68438700  0.18438700  1
  Be  Be8  1  0.02040800  0.21397700  0.37565400  1
  Be  Be9  1  0.47959200  0.78602300  0.87565400  1
  Be  Be10  1  0.97959200  0.71397700  0.12434600  1
  Be  Be11  1  0.37565400  0.02040800  0.21397700  1
  Be  Be12  1  0.52040800  0.28602300  0.62434600  1
  Be  Be13  1  0.87565400  0.47959200  0.78602300  1
  Be  Be14  1  0.12434600  0.97959200  0.71397700  1
  Be  Be15  1  0.62434600  0.52040800  0.28602300  1
  Be  Be16  1  0.21397700  0.37565400  0.02040800  1
  Be  Be17  1  0.71397700  0.12434600  0.97959200  1
  Be  Be18  1  0.28602300  0.62434600  0.52040800  1
  Be  Be19  1  0.78602300  0.87565400  0.47959200  1
  Ni  Ni20  1  0.33553200  0.33553200  0.33553200  1
  Ni  Ni21  1  0.16446800  0.66446800  0.83553200  1
  Ni  Ni22  1  0.66446800  0.83553200  0.16446800  1
  Ni  Ni23  1  0.83553200  0.16446800  0.66446800  1
  Ni  Ni24  1  0.59937300  0.59937300  0.59937300  1
  Ni  Ni25  1  0.90062700  0.40062700  0.09937300  1
  Ni  Ni26  1  0.40062700  0.09937300  0.90062700  1
  Ni  Ni27  1  0.09937300  0.90062700  0.40062700  1
  F  F28  1  0.01240300  0.06669900  0.33027800  1
  F  F29  1  0.48759700  0.93330100  0.83027800  1
  F  F30  1  0.98759700  0.56669900  0.16972200  1
  F  F31  1  0.33027800  0.01240300  0.06669900  1
  F  F32  1  0.51240300  0.43330100  0.66972200  1
  F  F33  1  0.83027800  0.48759700  0.93330100  1
  F  F34  1  0.16972200  0.98759700  0.56669900  1
  F  F35  1  0.66972200  0.51240300  0.43330100  1
  F  F36  1  0.06669900  0.33027800  0.01240300  1
  F  F37  1  0.56669900  0.16972200  0.98759700  1
  F  F38  1  0.43330100  0.66972200  0.51240300  1
  F  F39  1  0.93330100  0.83027800  0.48759700  1
  F  F40  1  0.26616900  0.49551600  0.43643700  1
  F  F41  1  0.23383100  0.50448400  0.93643700  1
  F  F42  1  0.73383100  0.99551600  0.06356300  1
  F  F43  1  0.43643700  0.26616900  0.49551600  1
  F  F44  1  0.76616900  0.00448400  0.56356300  1
  F  F45  1  0.93643700  0.23383100  0.50448400  1
  F  F46  1  0.06356300  0.73383100  0.99551600  1
  F  F47  1  0.56356300  0.76616900  0.00448400  1
  F  F48  1  0.49551600  0.43643700  0.26616900  1
  F  F49  1  0.99551600  0.06356300  0.73383100  1
  F  F50  1  0.00448400  0.56356300  0.76616900  1
  F  F51  1  0.50448400  0.93643700  0.23383100  1
  F  F52  1  0.04596400  0.80595700  0.23081500  1
  F  F53  1  0.45403600  0.19404300  0.73081500  1
  F  F54  1  0.95403600  0.30595700  0.26918500  1
  F  F55  1  0.23081500  0.04596400  0.80595700  1
  F  F56  1  0.54596400  0.69404300  0.76918500  1
  F  F57  1  0.73081500  0.45403600  0.19404300  1
  F  F58  1  0.26918500  0.95403600  0.30595700  1
  F  F59  1  0.76918500  0.54596400  0.69404300  1
  F  F60  1  0.80595700  0.23081500  0.04596400  1
  F  F61  1  0.30595700  0.26918500  0.95403600  1
  F  F62  1  0.69404300  0.76918500  0.54596400  1
  F  F63  1  0.19404300  0.73081500  0.45403600  1
  F  F64  1  0.16519400  0.25596300  0.40197200  1
  F  F65  1  0.33480600  0.74403700  0.90197200  1
  F  F66  1  0.83480600  0.75596300  0.09802800  1
  F  F67  1  0.40197200  0.16519400  0.25596300  1
  F  F68  1  0.66519400  0.24403700  0.59802800  1
  F  F69  1  0.90197200  0.33480600  0.74403700  1
  F  F70  1  0.09802800  0.83480600  0.75596300  1
  F  F71  1  0.59802800  0.66519400  0.24403700  1
  F  F72  1  0.25596300  0.40197200  0.16519400  1
  F  F73  1  0.75596300  0.09802800  0.83480600  1
  F  F74  1  0.24403700  0.59802800  0.66519400  1
  F  F75  1  0.74403700  0.90197200  0.33480600  1
