# generated using pymatgen
data_Hf6BCl14
_symmetry_space_group_name_H-M   'P 1'
_cell_length_a   9.63689755
_cell_length_b   9.63689755
_cell_length_c   11.61068400
_cell_angle_alpha   90.00000000
_cell_angle_beta   90.00000000
_cell_angle_gamma   95.14699621
_symmetry_Int_Tables_number   1
_chemical_formula_structural   Hf6BCl14
_chemical_formula_sum   'Hf12 B2 Cl28'
_cell_volume   1073.93400559
_cell_formula_units_Z   2
loop_
 _symmetry_equiv_pos_site_id
 _symmetry_equiv_pos_as_xyz
  1  'x, y, z'
loop_
 _atom_site_type_symbol
 _atom_site_label
 _atom_site_symmetry_multiplicity
 _atom_site_fract_x
 _atom_site_fract_y
 _atom_site_fract_z
 _atom_site_occupancy
  Hf  Hf0  1  0.18433000  0.95092500  0.11691400  1
  Hf  Hf1  1  0.81567000  0.04907500  0.88308600  1
  Hf  Hf2  1  0.31567000  0.54907500  0.61691400  1
  Hf  Hf3  1  0.45092500  0.68433000  0.38308600  1
  Hf  Hf4  1  0.68433000  0.45092500  0.38308600  1
  Hf  Hf5  1  0.54907500  0.31567000  0.61691400  1
  Hf  Hf6  1  0.04907500  0.81567000  0.88308600  1
  Hf  Hf7  1  0.95092500  0.18433000  0.11691400  1
  Hf  Hf8  1  0.35446600  0.35446600  0.39497900  1
  Hf  Hf9  1  0.64553400  0.64553400  0.60502100  1
  Hf  Hf10  1  0.14553400  0.14553400  0.89497900  1
  Hf  Hf11  1  0.85446600  0.85446600  0.10502100  1
  B  B12  1  0.00000000  0.00000000  0.00000000  1
  B  B13  1  0.50000000  0.50000000  0.50000000  1
  Cl  Cl14  1  0.53460200  0.28818200  0.25466600  1
  Cl  Cl15  1  0.46539800  0.71181800  0.74533400  1
  Cl  Cl16  1  0.96539800  0.21181800  0.75466600  1
  Cl  Cl17  1  0.78818200  0.03460200  0.24533400  1
  Cl  Cl18  1  0.03460200  0.78818200  0.24533400  1
  Cl  Cl19  1  0.21181800  0.96539800  0.75466600  1
  Cl  Cl20  1  0.71181800  0.46539800  0.74533400  1
  Cl  Cl21  1  0.28818200  0.53460200  0.25466600  1
  Cl  Cl22  1  0.35994900  0.11404700  0.01076100  1
  Cl  Cl23  1  0.64005100  0.88595300  0.98923900  1
  Cl  Cl24  1  0.14005100  0.38595300  0.51076100  1
  Cl  Cl25  1  0.61404700  0.85994900  0.48923900  1
  Cl  Cl26  1  0.85994900  0.61404700  0.48923900  1
  Cl  Cl27  1  0.38595300  0.14005100  0.51076100  1
  Cl  Cl28  1  0.88595300  0.64005100  0.98923900  1
  Cl  Cl29  1  0.11404700  0.35994900  0.01076100  1
  Cl  Cl30  1  0.39312000  0.89312000  0.25000000  1
  Cl  Cl31  1  0.60688000  0.10688000  0.75000000  1
  Cl  Cl32  1  0.10688000  0.60688000  0.75000000  1
  Cl  Cl33  1  0.89312000  0.39312000  0.25000000  1
  Cl  Cl34  1  0.25012600  0.74987400  0.00000000  1
  Cl  Cl35  1  0.74987400  0.25012600  0.00000000  1
  Cl  Cl36  1  0.24987400  0.75012600  0.50000000  1
  Cl  Cl37  1  0.75012600  0.24987400  0.50000000  1
  Cl  Cl38  1  0.15295900  0.15295900  0.26019100  1
  Cl  Cl39  1  0.84704100  0.84704100  0.73980900  1
  Cl  Cl40  1  0.34704100  0.34704100  0.76019100  1
  Cl  Cl41  1  0.65295900  0.65295900  0.23980900  1
