# generated using pymatgen
data_Tb4BClO7
_symmetry_space_group_name_H-M   'P 1'
_cell_length_a   8.13276800
_cell_length_b   8.70844100
_cell_length_c   12.42891221
_cell_angle_alpha   59.04078381
_cell_angle_beta   90.00000000
_cell_angle_gamma   90.00000000
_symmetry_Int_Tables_number   1
_chemical_formula_structural   Tb4BClO7
_chemical_formula_sum   'Tb16 B4 Cl4 O28'
_cell_volume   754.85426129
_cell_formula_units_Z   4
loop_
 _symmetry_equiv_pos_site_id
 _symmetry_equiv_pos_as_xyz
  1  'x, y, z'
loop_
 _atom_site_type_symbol
 _atom_site_label
 _atom_site_symmetry_multiplicity
 _atom_site_fract_x
 _atom_site_fract_y
 _atom_site_fract_z
 _atom_site_occupancy
  Tb  Tb0  1  0.62855600  0.79946500  0.21938600  1
  Tb  Tb1  1  0.87144400  0.79946500  0.71938600  1
  Tb  Tb2  1  0.37144400  0.20053500  0.78061400  1
  Tb  Tb3  1  0.12855600  0.20053500  0.28061400  1
  Tb  Tb4  1  0.61694600  0.41796600  0.91357000  1
  Tb  Tb5  1  0.88305400  0.41796600  0.41357000  1
  Tb  Tb6  1  0.38305400  0.58203400  0.08643000  1
  Tb  Tb7  1  0.11694600  0.58203400  0.58643000  1
  Tb  Tb8  1  0.63578200  0.57317000  0.58027000  1
  Tb  Tb9  1  0.86421800  0.57317000  0.08027000  1
  Tb  Tb10  1  0.36421800  0.42683000  0.41973000  1
  Tb  Tb11  1  0.13578200  0.42683000  0.91973000  1
  Tb  Tb12  1  0.61574600  0.18463100  0.27852500  1
  Tb  Tb13  1  0.88425400  0.18463100  0.77852500  1
  Tb  Tb14  1  0.38425400  0.81536900  0.72147500  1
  Tb  Tb15  1  0.11574600  0.81536900  0.22147500  1
  B  B16  1  0.87217100  0.86872500  0.41293700  1
  B  B17  1  0.62782900  0.86872500  0.91293700  1
  B  B18  1  0.12782900  0.13127500  0.58706300  1
  B  B19  1  0.37217100  0.13127500  0.08706300  1
  Cl  Cl20  1  0.86325900  0.11814400  0.03676000  1
  Cl  Cl21  1  0.63674100  0.11814400  0.53676000  1
  Cl  Cl22  1  0.13674100  0.88185600  0.96324000  1
  Cl  Cl23  1  0.36325900  0.88185600  0.46324000  1
  O  O24  1  0.62286300  0.54131900  0.40329500  1
  O  O25  1  0.87713700  0.54131900  0.90329500  1
  O  O26  1  0.37713700  0.45868100  0.59670500  1
  O  O27  1  0.12286300  0.45868100  0.09670500  1
  O  O28  1  0.63569500  0.30605600  0.77719800  1
  O  O29  1  0.86430500  0.30605600  0.27719800  1
  O  O30  1  0.36430500  0.69394400  0.22280200  1
  O  O31  1  0.13569500  0.69394400  0.72280200  1
  O  O32  1  0.61550700  0.67470400  0.72095100  1
  O  O33  1  0.88449300  0.67470400  0.22095100  1
  O  O34  1  0.38449300  0.32529600  0.27904900  1
  O  O35  1  0.11550700  0.32529600  0.77904900  1
  O  O36  1  0.62386100  0.43471900  0.09158600  1
  O  O37  1  0.87613900  0.43471900  0.59158600  1
  O  O38  1  0.37613900  0.56528100  0.90841400  1
  O  O39  1  0.12386100  0.56528100  0.40841400  1
  O  O40  1  0.88123400  0.77801200  0.54292300  1
  O  O41  1  0.61876600  0.77801200  0.04292300  1
  O  O42  1  0.11876600  0.22198800  0.45707700  1
  O  O43  1  0.38123400  0.22198800  0.95707700  1
  O  O44  1  0.01393200  0.92358200  0.34313300  1
  O  O45  1  0.48606800  0.92358200  0.84313300  1
  O  O46  1  0.98606800  0.07641800  0.65686700  1
  O  O47  1  0.51393200  0.07641800  0.15686700  1
  O  O48  1  0.71968000  0.89106700  0.35828500  1
  O  O49  1  0.78032000  0.89106700  0.85828500  1
  O  O50  1  0.28032000  0.10893300  0.64171500  1
  O  O51  1  0.21968000  0.10893300  0.14171500  1
