# generated using pymatgen
data_Tb3Rh
_symmetry_space_group_name_H-M   'P 1'
_cell_length_a   6.28761000
_cell_length_b   7.16533400
_cell_length_c   9.56479200
_cell_angle_alpha   90.00000000
_cell_angle_beta   90.00000000
_cell_angle_gamma   90.00000000
_symmetry_Int_Tables_number   1
_chemical_formula_structural   Tb3Rh
_chemical_formula_sum   'Tb12 Rh4'
_cell_volume   430.92090695
_cell_formula_units_Z   4
loop_
 _symmetry_equiv_pos_site_id
 _symmetry_equiv_pos_as_xyz
  1  'x, y, z'
loop_
 _atom_site_type_symbol
 _atom_site_label
 _atom_site_symmetry_multiplicity
 _atom_site_fract_x
 _atom_site_fract_y
 _atom_site_fract_z
 _atom_site_occupancy
  Tb  Tb0  1  0.33054200  0.67779700  0.06334100  1
  Tb  Tb1  1  0.16945800  0.17779700  0.43665900  1
  Tb  Tb2  1  0.66945800  0.32220300  0.56334100  1
  Tb  Tb3  1  0.83054200  0.82220300  0.93665900  1
  Tb  Tb4  1  0.66945800  0.32220300  0.93665900  1
  Tb  Tb5  1  0.83054200  0.82220300  0.56334100  1
  Tb  Tb6  1  0.33054200  0.67779700  0.43665900  1
  Tb  Tb7  1  0.16945800  0.17779700  0.06334100  1
  Tb  Tb8  1  0.86587900  0.53149800  0.25000000  1
  Tb  Tb9  1  0.63412100  0.03149800  0.25000000  1
  Tb  Tb10  1  0.13412100  0.46850200  0.75000000  1
  Tb  Tb11  1  0.36587900  0.96850200  0.75000000  1
  Rh  Rh12  1  0.06171300  0.88181300  0.25000000  1
  Rh  Rh13  1  0.43828700  0.38181300  0.25000000  1
  Rh  Rh14  1  0.93828700  0.11818700  0.75000000  1
  Rh  Rh15  1  0.56171300  0.61818700  0.75000000  1
