# generated using pymatgen
data_Pr2Hf3(MoO4)9
_symmetry_space_group_name_H-M   'P 1'
_cell_length_a   20.77590372
_cell_length_b   20.77589792
_cell_length_c   20.77589797
_cell_angle_alpha   27.73111108
_cell_angle_beta   27.73099405
_cell_angle_gamma   27.73099542
_symmetry_Int_Tables_number   1
_chemical_formula_structural   Pr2Hf3(MoO4)9
_chemical_formula_sum   'Pr4 Hf6 Mo18 O72'
_cell_volume   1714.36756464
_cell_formula_units_Z   2
loop_
 _symmetry_equiv_pos_site_id
 _symmetry_equiv_pos_as_xyz
  1  'x, y, z'
loop_
 _atom_site_type_symbol
 _atom_site_label
 _atom_site_symmetry_multiplicity
 _atom_site_fract_x
 _atom_site_fract_y
 _atom_site_fract_z
 _atom_site_occupancy
  Pr  Pr0  1  0.80392274  0.80387539  0.80387522  1
  Pr  Pr1  1  0.30392274  0.30387522  0.30387539  1
  Pr  Pr2  1  0.19607726  0.19612461  0.19612478  1
  Pr  Pr3  1  0.69607726  0.69612478  0.69612461  1
  Hf  Hf4  1  0.50000000  0.50000000  0.50000000  1
  Hf  Hf5  1  0.00000000  0.00000000  -0.00000000  1
  Hf  Hf6  1  0.09596755  0.09599455  0.09598429  1
  Hf  Hf7  1  0.59596755  0.59598429  0.59599455  1
  Hf  Hf8  1  0.90403245  0.90400545  0.90401571  1
  Hf  Hf9  1  0.40403245  0.40401571  0.40400545  1
  Mo  Mo10  1  0.84496126  0.37777358  0.20231764  1
  Mo  Mo11  1  0.37777265  0.20231335  0.84496480  1
  Mo  Mo12  1  0.20231839  0.84496462  0.37776651  1
  Mo  Mo13  1  0.34496126  0.70231764  0.87777358  1
  Mo  Mo14  1  0.70231839  0.87776651  0.34496462  1
  Mo  Mo15  1  0.87777265  0.34496480  0.70231335  1
  Mo  Mo16  1  0.15503874  0.62222642  0.79768236  1
  Mo  Mo17  1  0.62222735  0.79768665  0.15503520  1
  Mo  Mo18  1  0.79768161  0.15503538  0.62223349  1
  Mo  Mo19  1  0.65503874  0.29768236  0.12222642  1
  Mo  Mo20  1  0.29768161  0.12223349  0.65503538  1
  Mo  Mo21  1  0.12222735  0.65503520  0.29768665  1
  Mo  Mo22  1  0.25000000  0.96710695  0.53289305  1
  Mo  Mo23  1  0.96709671  0.53289958  0.25000347  1
  Mo  Mo24  1  0.53290329  0.24999653  0.96710042  1
  Mo  Mo25  1  0.75000000  0.03289305  0.46710695  1
  Mo  Mo26  1  0.03290329  0.46710042  0.74999653  1
  Mo  Mo27  1  0.46709671  0.75000347  0.03289958  1
  O  O28  1  0.77549704  0.56941937  0.06489375  1
  O  O29  1  0.56942174  0.06489164  0.77549691  1
  O  O30  1  0.06489760  0.77549457  0.56941805  1
  O  O31  1  0.27549704  0.56489375  0.06941937  1
  O  O32  1  0.56489760  0.06941805  0.27549457  1
  O  O33  1  0.06942174  0.27549691  0.56489164  1
  O  O34  1  0.22450296  0.43058063  0.93510625  1
  O  O35  1  0.43057826  0.93510836  0.22450309  1
  O  O36  1  0.93510240  0.22450543  0.43058195  1
  O  O37  1  0.72450296  0.43510625  0.93058063  1
  O  O38  1  0.43510240  0.93058195  0.72450543  1
  O  O39  1  0.93057826  0.72450309  0.43510836  1
  O  O40  1  0.99363832  0.34178119  0.15930702  1
  O  O41  1  0.34177695  0.15930978  0.99363935  1
  O  O42  1  0.15930552  0.99364063  0.34178006  1
  O  O43  1  0.49363832  0.65930702  0.84178119  1
  O  O44  1  0.65930552  0.84178006  0.49364063  1
  O  O45  1  0.84177695  0.49363935  0.65930978  1
  O  O46  1  0.00636168  0.65821881  0.84069298  1
  O  O47  1  0.65822305  0.84069022  0.00636065  1
  O  O48  1  0.84069448  0.00635937  0.65821994  1
  O  O49  1  0.50636168  0.34069298  0.15821881  1
  O  O50  1  0.34069448  0.15821994  0.50635937  1
  O  O51  1  0.15822305  0.50636065  0.34069022  1
  O  O52  1  0.92712269  0.23873783  0.18629195  1
  O  O53  1  0.23873208  0.18628750  0.92713258  1
  O  O54  1  0.18628364  0.92713161  0.23873720  1
  O  O55  1  0.42712269  0.68629195  0.73873783  1
  O  O56  1  0.68628364  0.73873720  0.42713161  1
  O  O57  1  0.73873208  0.42713258  0.68628750  1
  O  O58  1  0.07287731  0.76126217  0.81370805  1
  O  O59  1  0.76126792  0.81371250  0.07286742  1
  O  O60  1  0.81371636  0.07286839  0.76126280  1
  O  O61  1  0.57287731  0.31370805  0.26126217  1
  O  O62  1  0.31371636  0.26126280  0.57286839  1
  O  O63  1  0.26126792  0.57286742  0.31371250  1
  O  O64  1  0.68169319  0.36211848  0.39903197  1
  O  O65  1  0.36212094  0.39903160  0.68169203  1
  O  O66  1  0.39903230  0.68169264  0.36211971  1
  O  O67  1  0.18169319  0.89903197  0.86211848  1
  O  O68  1  0.89903230  0.86211971  0.18169264  1
  O  O69  1  0.86212094  0.18169203  0.89903160  1
  O  O70  1  0.31830681  0.63788152  0.60096803  1
  O  O71  1  0.63787906  0.60096840  0.31830797  1
  O  O72  1  0.60096770  0.31830736  0.63788029  1
  O  O73  1  0.81830681  0.10096803  0.13788152  1
  O  O74  1  0.10096770  0.13788029  0.81830736  1
  O  O75  1  0.13787906  0.81830797  0.10096840  1
  O  O76  1  0.07831001  0.95950159  0.72678910  1
  O  O77  1  0.95950450  0.72679100  0.07830327  1
  O  O78  1  0.72679828  0.07830033  0.95949724  1
  O  O79  1  0.57831001  0.22678910  0.45950159  1
  O  O80  1  0.22679828  0.45949724  0.57830033  1
  O  O81  1  0.45950450  0.57830327  0.22679100  1
  O  O82  1  0.92168999  0.04049841  0.27321090  1
  O  O83  1  0.04049550  0.27320900  0.92169673  1
  O  O84  1  0.27320172  0.92169967  0.04050276  1
  O  O85  1  0.42168999  0.77321090  0.54049841  1
  O  O86  1  0.77320172  0.54050276  0.42169967  1
  O  O87  1  0.54049550  0.42169673  0.77320900  1
  O  O88  1  0.19768507  0.06219357  0.42011441  1
  O  O89  1  0.06218745  0.42011648  0.19769080  1
  O  O90  1  0.42011538  0.19768967  0.06218999  1
  O  O91  1  0.69768507  0.92011441  0.56219357  1
  O  O92  1  0.92011538  0.56218999  0.69768967  1
  O  O93  1  0.56218745  0.69769080  0.92011648  1
  O  O94  1  0.80231493  0.93780643  0.57988559  1
  O  O95  1  0.93781255  0.57988352  0.80230920  1
  O  O96  1  0.57988462  0.80231033  0.93781001  1
  O  O97  1  0.30231493  0.07988559  0.43780643  1
  O  O98  1  0.07988462  0.43781001  0.30231033  1
  O  O99  1  0.43781255  0.30230920  0.07988352  1
