# generated using pymatgen
data_Dy2NiB10
_symmetry_space_group_name_H-M   'P 1'
_cell_length_a   4.14364100
_cell_length_b   5.55272800
_cell_length_c   11.08668300
_cell_angle_alpha   90.00000000
_cell_angle_beta   90.00000000
_cell_angle_gamma   90.00000000
_symmetry_Int_Tables_number   1
_chemical_formula_structural   Dy2NiB10
_chemical_formula_sum   'Dy4 Ni2 B20'
_cell_volume   255.08807222
_cell_formula_units_Z   2
loop_
 _symmetry_equiv_pos_site_id
 _symmetry_equiv_pos_as_xyz
  1  'x, y, z'
loop_
 _atom_site_type_symbol
 _atom_site_label
 _atom_site_symmetry_multiplicity
 _atom_site_fract_x
 _atom_site_fract_y
 _atom_site_fract_z
 _atom_site_occupancy
  Dy  Dy0  1  0.50000000  0.19296600  0.36358200  1
  Dy  Dy1  1  0.50000000  0.80703400  0.63641800  1
  Dy  Dy2  1  0.50000000  0.30703400  0.86358200  1
  Dy  Dy3  1  0.50000000  0.69296600  0.13641800  1
  Ni  Ni4  1  0.00000000  0.00000000  0.00000000  1
  Ni  Ni5  1  0.00000000  0.50000000  0.50000000  1
  B  B6  1  0.00000000  0.37486000  0.04094400  1
  B  B7  1  0.00000000  0.62514000  0.95905600  1
  B  B8  1  0.00000000  0.12514000  0.54094400  1
  B  B9  1  0.00000000  0.87486000  0.45905600  1
  B  B10  1  0.00000000  0.34592200  0.19736700  1
  B  B11  1  0.00000000  0.65407800  0.80263300  1
  B  B12  1  0.00000000  0.15407800  0.69736700  1
  B  B13  1  0.00000000  0.84592200  0.30263300  1
  B  B14  1  0.00000000  0.03543900  0.18780500  1
  B  B15  1  0.00000000  0.96456100  0.81219500  1
  B  B16  1  0.00000000  0.46456100  0.68780500  1
  B  B17  1  0.00000000  0.53543900  0.31219500  1
  B  B18  1  0.30073300  0.20368600  0.11400200  1
  B  B19  1  0.69926700  0.79631400  0.88599800  1
  B  B20  1  0.30073300  0.79631400  0.88599800  1
  B  B21  1  0.69926700  0.29631400  0.61400200  1
  B  B22  1  0.69926700  0.20368600  0.11400200  1
  B  B23  1  0.30073300  0.70368600  0.38599800  1
  B  B24  1  0.69926700  0.70368600  0.38599800  1
  B  B25  1  0.30073300  0.29631400  0.61400200  1
