# generated using pymatgen
data_HfGeMo
_symmetry_space_group_name_H-M   'P 1'
_cell_length_a   3.56671700
_cell_length_b   6.98231100
_cell_length_c   8.32883800
_cell_angle_alpha   90.00000000
_cell_angle_beta   90.00000000
_cell_angle_gamma   90.00000000
_symmetry_Int_Tables_number   1
_chemical_formula_structural   HfGeMo
_chemical_formula_sum   'Hf4 Ge4 Mo4'
_cell_volume   207.42077640
_cell_formula_units_Z   4
loop_
 _symmetry_equiv_pos_site_id
 _symmetry_equiv_pos_as_xyz
  1  'x, y, z'
loop_
 _atom_site_type_symbol
 _atom_site_label
 _atom_site_symmetry_multiplicity
 _atom_site_fract_x
 _atom_site_fract_y
 _atom_site_fract_z
 _atom_site_occupancy
  Hf  Hf0  1  0.25000000  0.54557900  0.16732900  1
  Hf  Hf1  1  0.25000000  0.04557900  0.33267100  1
  Hf  Hf2  1  0.75000000  0.45442100  0.83267100  1
  Hf  Hf3  1  0.75000000  0.95442100  0.66732900  1
  Ge  Ge4  1  0.25000000  0.75555300  0.86188400  1
  Ge  Ge5  1  0.25000000  0.25555300  0.63811600  1
  Ge  Ge6  1  0.75000000  0.24444700  0.13811600  1
  Ge  Ge7  1  0.75000000  0.74444700  0.36188400  1
  Mo  Mo8  1  0.25000000  0.63418800  0.56333700  1
  Mo  Mo9  1  0.25000000  0.13418800  0.93666300  1
  Mo  Mo10  1  0.75000000  0.36581200  0.43666300  1
  Mo  Mo11  1  0.75000000  0.86581200  0.06333700  1
