# generated using pymatgen
data_Ca2CdP2
_symmetry_space_group_name_H-M   'P 1'
_cell_length_a   8.33351010
_cell_length_b   8.33351010
_cell_length_c   7.08801200
_cell_angle_alpha   90.00000000
_cell_angle_beta   90.00000000
_cell_angle_gamma   150.71882115
_symmetry_Int_Tables_number   1
_chemical_formula_structural   Ca2CdP2
_chemical_formula_sum   'Ca4 Cd2 P4'
_cell_volume   240.75452047
_cell_formula_units_Z   2
loop_
 _symmetry_equiv_pos_site_id
 _symmetry_equiv_pos_as_xyz
  1  'x, y, z'
loop_
 _atom_site_type_symbol
 _atom_site_label
 _atom_site_symmetry_multiplicity
 _atom_site_fract_x
 _atom_site_fract_y
 _atom_site_fract_z
 _atom_site_occupancy
  Ca  Ca0  1  0.29887000  0.70113000  0.92629000  1
  Ca  Ca1  1  0.70113000  0.29887000  0.42629000  1
  Ca  Ca2  1  0.46483900  0.53516100  0.26987200  1
  Ca  Ca3  1  0.53516100  0.46483900  0.76987200  1
  Cd  Cd4  1  0.09919800  0.90080200  0.10824900  1
  Cd  Cd5  1  0.90080200  0.09919800  0.60824900  1
  P  P6  1  0.06284200  0.93715800  0.47976300  1
  P  P7  1  0.93715800  0.06284200  0.97976300  1
  P  P8  1  0.31924600  0.68075400  0.50449500  1
  P  P9  1  0.68075400  0.31924600  0.00449500  1
