# generated using pymatgen
data_CsZn2B3O7
_symmetry_space_group_name_H-M   'P 1'
_cell_length_a   10.66605502
_cell_length_b   10.66605502
_cell_length_c   14.71238600
_cell_angle_alpha   90.00000000
_cell_angle_beta   90.00000000
_cell_angle_gamma   132.21840708
_symmetry_Int_Tables_number   1
_chemical_formula_structural   CsZn2B3O7
_chemical_formula_sum   'Cs6 Zn12 B18 O42'
_cell_volume   1239.56089153
_cell_formula_units_Z   6
loop_
 _symmetry_equiv_pos_site_id
 _symmetry_equiv_pos_as_xyz
  1  'x, y, z'
loop_
 _atom_site_type_symbol
 _atom_site_label
 _atom_site_symmetry_multiplicity
 _atom_site_fract_x
 _atom_site_fract_y
 _atom_site_fract_z
 _atom_site_occupancy
  Cs  Cs0  1  0.39217000  0.60783000  0.79848100  1
  Cs  Cs1  1  0.60783000  0.39217000  0.29848100  1
  Cs  Cs2  1  0.38924100  0.61075900  0.15699700  1
  Cs  Cs3  1  0.61075900  0.38924100  0.65699700  1
  Cs  Cs4  1  0.99754900  0.00245100  0.22923100  1
  Cs  Cs5  1  0.00245100  0.99754900  0.72923100  1
  Zn  Zn6  1  0.62339900  0.00462500  0.98441600  1
  Zn  Zn7  1  0.99537500  0.37660100  0.98441600  1
  Zn  Zn8  1  0.37660100  0.99537500  0.48441600  1
  Zn  Zn9  1  0.00462500  0.62339900  0.48441600  1
  Zn  Zn10  1  0.40073500  0.98049300  0.82387400  1
  Zn  Zn11  1  0.01950700  0.59926500  0.82387400  1
  Zn  Zn12  1  0.59926500  0.01950700  0.32387400  1
  Zn  Zn13  1  0.98049300  0.40073500  0.32387400  1
  Zn  Zn14  1  0.01783700  0.60378500  0.14512200  1
  Zn  Zn15  1  0.39621500  0.98216300  0.14512200  1
  Zn  Zn16  1  0.98216300  0.39621500  0.64512200  1
  Zn  Zn17  1  0.60378500  0.01783700  0.64512200  1
  B  B18  1  0.24760600  0.75239400  0.98390400  1
  B  B19  1  0.75239400  0.24760600  0.48390400  1
  B  B20  1  0.70498200  0.76941400  0.97868100  1
  B  B21  1  0.23058600  0.29501800  0.97868100  1
  B  B22  1  0.29501800  0.23058600  0.47868100  1
  B  B23  1  0.76941400  0.70498200  0.47868100  1
  B  B24  1  0.82545400  0.67133200  0.06398500  1
  B  B25  1  0.32866800  0.17454600  0.06398500  1
  B  B26  1  0.17454600  0.32866800  0.56398500  1
  B  B27  1  0.67133200  0.82545400  0.56398500  1
  B  B28  1  0.22549600  0.77450400  0.64994200  1
  B  B29  1  0.77450400  0.22549600  0.14994200  1
  B  B30  1  0.82299700  0.66577400  0.89697100  1
  B  B31  1  0.33422600  0.17700300  0.89697100  1
  B  B32  1  0.17700300  0.33422600  0.39697100  1
  B  B33  1  0.66577400  0.82299700  0.39697100  1
  B  B34  1  0.22486100  0.77513900  0.31441500  1
  B  B35  1  0.77513900  0.22486100  0.81441500  1
  O  O36  1  0.87198100  0.65234200  0.14386700  1
  O  O37  1  0.34765800  0.12801900  0.14386700  1
  O  O38  1  0.12801900  0.34765800  0.64386700  1
  O  O39  1  0.65234200  0.87198100  0.64386700  1
  O  O40  1  0.74800000  0.73865400  0.06151600  1
  O  O41  1  0.26134600  0.25200000  0.06151600  1
  O  O42  1  0.25200000  0.26134600  0.56151600  1
  O  O43  1  0.73865400  0.74800000  0.56151600  1
  O  O44  1  0.62537800  0.82562000  0.97728200  1
  O  O45  1  0.17438000  0.37462200  0.97728200  1
  O  O46  1  0.37462200  0.17438000  0.47728200  1
  O  O47  1  0.82562000  0.62537800  0.47728200  1
  O  O48  1  0.22516800  0.77483200  0.22008500  1
  O  O49  1  0.77483200  0.22516800  0.72008500  1
  O  O50  1  0.08481900  0.63432400  0.35982600  1
  O  O51  1  0.36567600  0.91518100  0.35982600  1
  O  O52  1  0.91518100  0.36567600  0.85982600  1
  O  O53  1  0.63432400  0.08481900  0.85982600  1
  O  O54  1  0.39250100  0.88379600  0.03003800  1
  O  O55  1  0.11620400  0.60749900  0.03003800  1
  O  O56  1  0.60749900  0.11620400  0.53003800  1
  O  O57  1  0.88379600  0.39250100  0.53003800  1
  O  O58  1  0.23722100  0.76277900  0.89059400  1
  O  O59  1  0.76277900  0.23722100  0.39059400  1
  O  O60  1  0.74254600  0.72996500  0.89700400  1
  O  O61  1  0.27003500  0.25745400  0.89700400  1
  O  O62  1  0.25745400  0.27003500  0.39700400  1
  O  O63  1  0.72996500  0.74254600  0.39700400  1
  O  O64  1  0.37540700  0.90266000  0.69465800  1
  O  O65  1  0.09734000  0.62459300  0.69465800  1
  O  O66  1  0.62459300  0.09734000  0.19465700  1
  O  O67  1  0.90266000  0.37540700  0.19465700  1
  O  O68  1  0.20401500  0.79598500  0.55996100  1
  O  O69  1  0.79598500  0.20401500  0.05996100  1
  O  O70  1  0.85466400  0.63083100  0.98101300  1
  O  O71  1  0.36916900  0.14533600  0.98101300  1
  O  O72  1  0.14533600  0.36916900  0.48101300  1
  O  O73  1  0.63083100  0.85466400  0.48101300  1
  O  O74  1  0.87110500  0.64487500  0.81832100  1
  O  O75  1  0.35512500  0.12889500  0.81832100  1
  O  O76  1  0.12889500  0.35512500  0.31832100  1
  O  O77  1  0.64487500  0.87110500  0.31832100  1
