# generated using pymatgen
data_Ho2Re3Si5
_symmetry_space_group_name_H-M   'P 1'
_cell_length_a   10.98925300
_cell_length_b   10.98925300
_cell_length_c   5.53095500
_cell_angle_alpha   90.00000000
_cell_angle_beta   90.00000000
_cell_angle_gamma   90.00000000
_symmetry_Int_Tables_number   1
_chemical_formula_structural   Ho2Re3Si5
_chemical_formula_sum   'Ho8 Re12 Si20'
_cell_volume   667.93848800
_cell_formula_units_Z   4
loop_
 _symmetry_equiv_pos_site_id
 _symmetry_equiv_pos_as_xyz
  1  'x, y, z'
loop_
 _atom_site_type_symbol
 _atom_site_label
 _atom_site_symmetry_multiplicity
 _atom_site_fract_x
 _atom_site_fract_y
 _atom_site_fract_z
 _atom_site_occupancy
  Ho  Ho0  1  0.57676800  0.73897400  0.50000000  1
  Ho  Ho1  1  0.42323200  0.26102600  0.50000000  1
  Ho  Ho2  1  0.07676800  0.76102600  0.00000000  1
  Ho  Ho3  1  0.92323200  0.23897400  0.00000000  1
  Ho  Ho4  1  0.26102600  0.57676800  0.50000000  1
  Ho  Ho5  1  0.73897400  0.42323200  0.50000000  1
  Ho  Ho6  1  0.23897400  0.07676800  0.00000000  1
  Ho  Ho7  1  0.76102600  0.92323200  0.00000000  1
  Re  Re8  1  0.87477500  0.85439200  0.50000000  1
  Re  Re9  1  0.12522500  0.14560800  0.50000000  1
  Re  Re10  1  0.37477500  0.64560800  0.00000000  1
  Re  Re11  1  0.62522500  0.35439200  0.00000000  1
  Re  Re12  1  0.14560800  0.87477500  0.50000000  1
  Re  Re13  1  0.85439200  0.12522500  0.50000000  1
  Re  Re14  1  0.35439200  0.37477500  0.00000000  1
  Re  Re15  1  0.64560800  0.62522500  0.00000000  1
  Re  Re16  1  0.50000000  0.00000000  0.25000000  1
  Re  Re17  1  0.00000000  0.50000000  0.75000000  1
  Re  Re18  1  0.00000000  0.50000000  0.25000000  1
  Re  Re19  1  0.50000000  0.00000000  0.75000000  1
  Si  Si20  1  0.67390700  0.17390700  0.25000000  1
  Si  Si21  1  0.32609300  0.82609300  0.25000000  1
  Si  Si22  1  0.17390700  0.32609300  0.75000000  1
  Si  Si23  1  0.82609300  0.67390700  0.75000000  1
  Si  Si24  1  0.82609300  0.67390700  0.25000000  1
  Si  Si25  1  0.17390700  0.32609300  0.25000000  1
  Si  Si26  1  0.67390700  0.17390700  0.75000000  1
  Si  Si27  1  0.32609300  0.82609300  0.75000000  1
  Si  Si28  1  0.50000000  0.50000000  0.25943300  1
  Si  Si29  1  0.00000000  0.00000000  0.75943300  1
  Si  Si30  1  0.50000000  0.50000000  0.74056700  1
  Si  Si31  1  0.00000000  0.00000000  0.24056700  1
  Si  Si32  1  0.68540300  0.97396500  0.50000000  1
  Si  Si33  1  0.31459700  0.02603500  0.50000000  1
  Si  Si34  1  0.18540300  0.52603500  0.00000000  1
  Si  Si35  1  0.81459700  0.47396500  0.00000000  1
  Si  Si36  1  0.02603500  0.68540300  0.50000000  1
  Si  Si37  1  0.97396500  0.31459700  0.50000000  1
  Si  Si38  1  0.47396500  0.18540300  0.00000000  1
  Si  Si39  1  0.52603500  0.81459700  0.00000000  1
