# generated using pymatgen
data_KBaPSe4
_symmetry_space_group_name_H-M   'P 1'
_cell_length_a   7.12018500
_cell_length_b   10.31586400
_cell_length_c   12.71452300
_cell_angle_alpha   90.00000000
_cell_angle_beta   90.00000000
_cell_angle_gamma   90.00000000
_symmetry_Int_Tables_number   1
_chemical_formula_structural   KBaPSe4
_chemical_formula_sum   'K4 Ba4 P4 Se16'
_cell_volume   933.89265030
_cell_formula_units_Z   4
loop_
 _symmetry_equiv_pos_site_id
 _symmetry_equiv_pos_as_xyz
  1  'x, y, z'
loop_
 _atom_site_type_symbol
 _atom_site_label
 _atom_site_symmetry_multiplicity
 _atom_site_fract_x
 _atom_site_fract_y
 _atom_site_fract_z
 _atom_site_occupancy
  K  K0  1  0.25000000  0.33337600  0.13041800  1
  K  K1  1  0.75000000  0.66662400  0.86958200  1
  K  K2  1  0.75000000  0.83337600  0.36958200  1
  K  K3  1  0.25000000  0.16662400  0.63041800  1
  Ba  Ba4  1  0.25000000  0.61932600  0.64209100  1
  Ba  Ba5  1  0.75000000  0.38067400  0.35790900  1
  Ba  Ba6  1  0.75000000  0.11932600  0.85790900  1
  Ba  Ba7  1  0.25000000  0.88067400  0.14209100  1
  P  P8  1  0.25000000  0.60435100  0.32646000  1
  P  P9  1  0.75000000  0.39564900  0.67354000  1
  P  P10  1  0.75000000  0.10435100  0.17354000  1
  P  P11  1  0.25000000  0.89564900  0.82646000  1
  Se  Se12  1  0.25000000  0.07569500  0.92378000  1
  Se  Se13  1  0.75000000  0.92430500  0.07622000  1
  Se  Se14  1  0.75000000  0.57569500  0.57622000  1
  Se  Se15  1  0.25000000  0.42430500  0.42378000  1
  Se  Se16  1  0.25000000  0.78679000  0.41949300  1
  Se  Se17  1  0.75000000  0.21321000  0.58050700  1
  Se  Se18  1  0.75000000  0.28679000  0.08050700  1
  Se  Se19  1  0.25000000  0.71321000  0.91949300  1
  Se  Se20  1  0.00135900  0.10597400  0.27702900  1
  Se  Se21  1  0.50135900  0.89402600  0.72297100  1
  Se  Se22  1  0.99864100  0.60597400  0.22297100  1
  Se  Se23  1  0.49864100  0.39402600  0.77702900  1
  Se  Se24  1  0.99864100  0.89402600  0.72297100  1
  Se  Se25  1  0.49864100  0.10597400  0.27702900  1
  Se  Se26  1  0.00135900  0.39402600  0.77702900  1
  Se  Se27  1  0.50135900  0.60597400  0.22297100  1
