# generated using pymatgen
data_Na2In2SiS6
_symmetry_space_group_name_H-M   'P 1'
_cell_length_a   7.29640944
_cell_length_b   7.29640944
_cell_length_c   12.38062784
_cell_angle_alpha   74.70281923
_cell_angle_beta   74.70281923
_cell_angle_gamma   65.88563068
_symmetry_Int_Tables_number   1
_chemical_formula_structural   Na2In2SiS6
_chemical_formula_sum   'Na4 In4 Si2 S12'
_cell_volume   571.09398472
_cell_formula_units_Z   2
loop_
 _symmetry_equiv_pos_site_id
 _symmetry_equiv_pos_as_xyz
  1  'x, y, z'
loop_
 _atom_site_type_symbol
 _atom_site_label
 _atom_site_symmetry_multiplicity
 _atom_site_fract_x
 _atom_site_fract_y
 _atom_site_fract_z
 _atom_site_occupancy
  Na  Na0  1  0.90215000  0.53462800  0.34113600  1
  Na  Na1  1  0.53462800  0.90215000  0.84113600  1
  Na  Na2  1  0.07025200  0.92955500  0.50308300  1
  Na  Na3  1  0.92955500  0.07025200  0.00308300  1
  In  In4  1  0.61775600  0.45117600  0.69391100  1
  In  In5  1  0.45117600  0.61775600  0.19391100  1
  In  In6  1  0.29231200  0.41033400  0.99708800  1
  In  In7  1  0.41033400  0.29231200  0.49708800  1
  Si  Si8  1  0.07136500  0.50974700  0.74876600  1
  Si  Si9  1  0.50974700  0.07136500  0.24876600  1
  S  S10  1  0.73746100  0.29462900  0.52148200  1
  S  S11  1  0.29462900  0.73746100  0.02148200  1
  S  S12  1  0.61370500  0.21573900  0.87963700  1
  S  S13  1  0.21573900  0.61370500  0.37963700  1
  S  S14  1  0.25117300  0.69804400  0.70029200  1
  S  S15  1  0.69804400  0.25117300  0.20029200  1
  S  S16  1  0.21359900  0.22001100  0.69532300  1
  S  S17  1  0.22001100  0.21359900  0.19532300  1
  S  S18  1  0.80478800  0.69009900  0.67016700  1
  S  S19  1  0.69009900  0.80478800  0.17016700  1
  S  S20  1  0.97414800  0.46540800  0.92981400  1
  S  S21  1  0.46540800  0.97414800  0.42981400  1
