# generated using pymatgen
data_ScTlTe2
_symmetry_space_group_name_H-M   'P 1'
_cell_length_a   8.50831938
_cell_length_b   8.50831938
_cell_length_c   8.50831884
_cell_angle_alpha   29.06637016
_cell_angle_beta   29.06637016
_cell_angle_gamma   29.06637516
_symmetry_Int_Tables_number   1
_chemical_formula_structural   ScTlTe2
_chemical_formula_sum   'Sc1 Tl1 Te2'
_cell_volume   128.59409902
_cell_formula_units_Z   1
loop_
 _symmetry_equiv_pos_site_id
 _symmetry_equiv_pos_as_xyz
  1  'x, y, z'
loop_
 _atom_site_type_symbol
 _atom_site_label
 _atom_site_symmetry_multiplicity
 _atom_site_fract_x
 _atom_site_fract_y
 _atom_site_fract_z
 _atom_site_occupancy
  Sc  Sc0  1  0.00000000  0.00000000  0.00000000  1
  Tl  Tl1  1  0.50000000  0.50000000  0.50000000  1
  Te  Te2  1  0.73409400  0.73409400  0.73409400  1
  Te  Te3  1  0.26590600  0.26590600  0.26590600  1
