# generated using pymatgen
data_Ho4BClO7
_symmetry_space_group_name_H-M   'P 1'
_cell_length_a   8.03680700
_cell_length_b   8.59647400
_cell_length_c   12.24668418
_cell_angle_alpha   59.98757996
_cell_angle_beta   90.00000000
_cell_angle_gamma   90.00000000
_symmetry_Int_Tables_number   1
_chemical_formula_structural   Ho4BClO7
_chemical_formula_sum   'Ho16 B4 Cl4 O28'
_cell_volume   732.65358043
_cell_formula_units_Z   4
loop_
 _symmetry_equiv_pos_site_id
 _symmetry_equiv_pos_as_xyz
  1  'x, y, z'
loop_
 _atom_site_type_symbol
 _atom_site_label
 _atom_site_symmetry_multiplicity
 _atom_site_fract_x
 _atom_site_fract_y
 _atom_site_fract_z
 _atom_site_occupancy
  Ho  Ho0  1  0.62550500  0.79777700  0.22104600  1
  Ho  Ho1  1  0.87449500  0.79777700  0.72104600  1
  Ho  Ho2  1  0.37449500  0.20222300  0.77895400  1
  Ho  Ho3  1  0.12550500  0.20222300  0.27895400  1
  Ho  Ho4  1  0.61746500  0.42426500  0.90930600  1
  Ho  Ho5  1  0.88253500  0.42426500  0.40930600  1
  Ho  Ho6  1  0.38253500  0.57573500  0.09069400  1
  Ho  Ho7  1  0.11746500  0.57573500  0.59069400  1
  Ho  Ho8  1  0.63825100  0.56972900  0.58110600  1
  Ho  Ho9  1  0.86174900  0.56972900  0.08110600  1
  Ho  Ho10  1  0.36174900  0.43027100  0.41889400  1
  Ho  Ho11  1  0.13825100  0.43027100  0.91889400  1
  Ho  Ho12  1  0.61466400  0.18279800  0.27882800  1
  Ho  Ho13  1  0.88533600  0.18279800  0.77882800  1
  Ho  Ho14  1  0.38533600  0.81720200  0.72117200  1
  Ho  Ho15  1  0.11466400  0.81720200  0.22117200  1
  B  B16  1  0.86976500  0.86944300  0.41391900  1
  B  B17  1  0.63023500  0.86944300  0.91391900  1
  B  B18  1  0.13023500  0.13055700  0.58608100  1
  B  B19  1  0.36976500  0.13055700  0.08608100  1
  Cl  Cl20  1  0.85196000  0.11868200  0.03218400  1
  Cl  Cl21  1  0.64804000  0.11868200  0.53218400  1
  Cl  Cl22  1  0.14804000  0.88131800  0.96781600  1
  Cl  Cl23  1  0.35196000  0.88131800  0.46781600  1
  O  O24  1  0.62246800  0.54122100  0.40311600  1
  O  O25  1  0.87753200  0.54122100  0.90311600  1
  O  O26  1  0.37753200  0.45877900  0.59688400  1
  O  O27  1  0.12246800  0.45877900  0.09688400  1
  O  O28  1  0.63674600  0.30934100  0.77459700  1
  O  O29  1  0.86325400  0.30934100  0.27459700  1
  O  O30  1  0.36325400  0.69065900  0.22540300  1
  O  O31  1  0.13674600  0.69065900  0.72540300  1
  O  O32  1  0.61690900  0.67906000  0.71770200  1
  O  O33  1  0.88309100  0.67906000  0.21770200  1
  O  O34  1  0.38309100  0.32094000  0.28229800  1
  O  O35  1  0.11690900  0.32094000  0.78229800  1
  O  O36  1  0.62189300  0.42779100  0.09261000  1
  O  O37  1  0.87810700  0.42779100  0.59261000  1
  O  O38  1  0.37810700  0.57220900  0.90739000  1
  O  O39  1  0.12189300  0.57220900  0.40739000  1
  O  O40  1  0.88859100  0.77434000  0.54344000  1
  O  O41  1  0.61140900  0.77434000  0.04344000  1
  O  O42  1  0.11140900  0.22566000  0.45656000  1
  O  O43  1  0.38859100  0.22566000  0.95656000  1
  O  O44  1  0.00582200  0.93519800  0.33532600  1
  O  O45  1  0.49417800  0.93519800  0.83532600  1
  O  O46  1  0.99417800  0.06480200  0.66467400  1
  O  O47  1  0.50582200  0.06480200  0.16467400  1
  O  O48  1  0.71164000  0.88744200  0.36450600  1
  O  O49  1  0.78836000  0.88744200  0.86450600  1
  O  O50  1  0.28836000  0.11255800  0.63549400  1
  O  O51  1  0.21164000  0.11255800  0.13549400  1
