# generated using pymatgen
data_Sn3SbF9
_symmetry_space_group_name_H-M   'P 1'
_cell_length_a   4.78887300
_cell_length_b   9.38316700
_cell_length_c   21.62739300
_cell_angle_alpha   90.00000000
_cell_angle_beta   90.00000000
_cell_angle_gamma   90.00000000
_symmetry_Int_Tables_number   1
_chemical_formula_structural   Sn3SbF9
_chemical_formula_sum   'Sn12 Sb4 F36'
_cell_volume   971.82247302
_cell_formula_units_Z   4
loop_
 _symmetry_equiv_pos_site_id
 _symmetry_equiv_pos_as_xyz
  1  'x, y, z'
loop_
 _atom_site_type_symbol
 _atom_site_label
 _atom_site_symmetry_multiplicity
 _atom_site_fract_x
 _atom_site_fract_y
 _atom_site_fract_z
 _atom_site_occupancy
  Sn  Sn0  1  0.05638100  0.75000000  0.50000000  1
  Sn  Sn1  1  0.94361900  0.25000000  0.00000000  1
  Sn  Sn2  1  0.94361900  0.25000000  0.50000000  1
  Sn  Sn3  1  0.05638100  0.75000000  0.00000000  1
  Sn  Sn4  1  0.50636800  0.51004400  0.62032400  1
  Sn  Sn5  1  0.49363200  0.48995600  0.12032400  1
  Sn  Sn6  1  0.50636800  0.98995600  0.37967600  1
  Sn  Sn7  1  0.49363200  0.01004400  0.87967600  1
  Sn  Sn8  1  0.49363200  0.48995600  0.37967600  1
  Sn  Sn9  1  0.50636800  0.51004400  0.87967600  1
  Sn  Sn10  1  0.49363200  0.01004400  0.62032400  1
  Sn  Sn11  1  0.50636800  0.98995600  0.12032400  1
  Sb  Sb12  1  0.05223100  0.25130500  0.75000000  1
  Sb  Sb13  1  0.94776900  0.74869500  0.25000000  1
  Sb  Sb14  1  0.05223100  0.24869500  0.25000000  1
  Sb  Sb15  1  0.94776900  0.75130500  0.75000000  1
  F  F16  1  0.17865100  0.92595500  0.75000000  1
  F  F17  1  0.82134900  0.07404500  0.25000000  1
  F  F18  1  0.17865100  0.57404500  0.25000000  1
  F  F19  1  0.82134900  0.42595500  0.75000000  1
  F  F20  1  0.38726600  0.82375500  0.55910000  1
  F  F21  1  0.61273400  0.17624500  0.05910000  1
  F  F22  1  0.38726600  0.67624500  0.44090000  1
  F  F23  1  0.61273400  0.32375500  0.94090000  1
  F  F24  1  0.61273400  0.17624500  0.44090000  1
  F  F25  1  0.38726600  0.82375500  0.94090000  1
  F  F26  1  0.61273400  0.32375500  0.55910000  1
  F  F27  1  0.38726600  0.67624500  0.05910000  1
  F  F28  1  0.22374100  0.36360900  0.65954900  1
  F  F29  1  0.77625900  0.63639100  0.15954900  1
  F  F30  1  0.22374100  0.13639100  0.34045100  1
  F  F31  1  0.77625900  0.86360900  0.84045100  1
  F  F32  1  0.77625900  0.63639100  0.34045100  1
  F  F33  1  0.22374100  0.36360900  0.84045100  1
  F  F34  1  0.77625900  0.86360900  0.65954900  1
  F  F35  1  0.22374100  0.13639100  0.15954900  1
  F  F36  1  0.18497400  0.54373300  0.55325000  1
  F  F37  1  0.81502600  0.45626700  0.05325000  1
  F  F38  1  0.18497400  0.95626700  0.44675000  1
  F  F39  1  0.81502600  0.04373300  0.94675000  1
  F  F40  1  0.81502600  0.45626700  0.44675000  1
  F  F41  1  0.18497400  0.54373300  0.94675000  1
  F  F42  1  0.81502600  0.04373300  0.55325000  1
  F  F43  1  0.18497400  0.95626700  0.05325000  1
  F  F44  1  0.22266400  0.67406700  0.68697500  1
  F  F45  1  0.77733600  0.32593300  0.18697500  1
  F  F46  1  0.22266400  0.82593300  0.31302500  1
  F  F47  1  0.77733600  0.17406700  0.81302500  1
  F  F48  1  0.77733600  0.32593300  0.31302500  1
  F  F49  1  0.22266400  0.67406700  0.81302500  1
  F  F50  1  0.77733600  0.17406700  0.68697500  1
  F  F51  1  0.22266400  0.82593300  0.18697500  1
