# generated using pymatgen
data_K3SbO3
_symmetry_space_group_name_H-M   'P 1'
_cell_length_a   8.53006800
_cell_length_b   8.53006800
_cell_length_c   8.53006800
_cell_angle_alpha   90.00000000
_cell_angle_beta   90.00000000
_cell_angle_gamma   90.00000000
_symmetry_Int_Tables_number   1
_chemical_formula_structural   K3SbO3
_chemical_formula_sum   'K12 Sb4 O12'
_cell_volume   620.66532034
_cell_formula_units_Z   4
loop_
 _symmetry_equiv_pos_site_id
 _symmetry_equiv_pos_as_xyz
  1  'x, y, z'
loop_
 _atom_site_type_symbol
 _atom_site_label
 _atom_site_symmetry_multiplicity
 _atom_site_fract_x
 _atom_site_fract_y
 _atom_site_fract_z
 _atom_site_occupancy
  K  K0  1  0.01979400  0.01979400  0.01979400  1
  K  K1  1  0.48020600  0.98020600  0.51979400  1
  K  K2  1  0.51979400  0.48020600  0.98020600  1
  K  K3  1  0.98020600  0.51979400  0.48020600  1
  K  K4  1  0.21763600  0.71763600  0.78236400  1
  K  K5  1  0.28236400  0.28236400  0.28236400  1
  K  K6  1  0.21304200  0.28695800  0.71304200  1
  K  K7  1  0.28695800  0.71304200  0.21304200  1
  K  K8  1  0.71304200  0.21304200  0.28695800  1
  K  K9  1  0.78695800  0.78695800  0.78695800  1
  K  K10  1  0.71763600  0.78236400  0.21763600  1
  K  K11  1  0.78236400  0.21763600  0.71763600  1
  Sb  Sb12  1  0.48786300  0.01213700  0.98786300  1
  Sb  Sb13  1  0.01213700  0.98786300  0.48786300  1
  Sb  Sb14  1  0.98786300  0.48786300  0.01213700  1
  Sb  Sb15  1  0.51213700  0.51213700  0.51213700  1
  O  O16  1  0.49557000  0.78603500  0.94165300  1
  O  O17  1  0.99557000  0.71396500  0.05834700  1
  O  O18  1  0.50443000  0.28603500  0.55834700  1
  O  O19  1  0.71396500  0.05834700  0.99557000  1
  O  O20  1  0.78603500  0.94165300  0.49557000  1
  O  O21  1  0.94165300  0.49557000  0.78603500  1
  O  O22  1  0.28603500  0.55834700  0.50443000  1
  O  O23  1  0.21396500  0.44165300  0.00443000  1
  O  O24  1  0.44165300  0.00443000  0.21396500  1
  O  O25  1  0.00443000  0.21396500  0.44165300  1
  O  O26  1  0.55834700  0.50443000  0.28603500  1
  O  O27  1  0.05834700  0.99557000  0.71396500  1
