# generated using pymatgen
data_K2ZrHF7
_symmetry_space_group_name_H-M   'P 1'
_cell_length_a   8.71644100
_cell_length_b   13.64255300
_cell_length_c   11.75484500
_cell_angle_alpha   90.00000000
_cell_angle_beta   90.00000000
_cell_angle_gamma   90.00000000
_symmetry_Int_Tables_number   1
_chemical_formula_structural   K2ZrHF7
_chemical_formula_sum   'K16 Zr8 H8 F56'
_cell_volume   1397.82161348
_cell_formula_units_Z   8
loop_
 _symmetry_equiv_pos_site_id
 _symmetry_equiv_pos_as_xyz
  1  'x, y, z'
loop_
 _atom_site_type_symbol
 _atom_site_label
 _atom_site_symmetry_multiplicity
 _atom_site_fract_x
 _atom_site_fract_y
 _atom_site_fract_z
 _atom_site_occupancy
  K  K0  1  0.34827200  0.67128500  0.25766300  1
  K  K1  1  0.65172800  0.17128500  0.24233700  1
  K  K2  1  0.15172800  0.32871500  0.75766300  1
  K  K3  1  0.84827200  0.82871500  0.74233700  1
  K  K4  1  0.65172800  0.32871500  0.74233700  1
  K  K5  1  0.34827200  0.82871500  0.75766300  1
  K  K6  1  0.84827200  0.67128500  0.24233700  1
  K  K7  1  0.15172800  0.17128500  0.25766300  1
  K  K8  1  0.11669900  0.60781300  0.93223700  1
  K  K9  1  0.88330100  0.10781300  0.56776300  1
  K  K10  1  0.38330100  0.39218700  0.43223700  1
  K  K11  1  0.61669900  0.89218700  0.06776300  1
  K  K12  1  0.88330100  0.39218700  0.06776300  1
  K  K13  1  0.11669900  0.89218700  0.43223700  1
  K  K14  1  0.61669900  0.60781300  0.56776300  1
  K  K15  1  0.38330100  0.10781300  0.93223700  1
  Zr  Zr16  1  0.59502100  0.61795300  0.96070300  1
  Zr  Zr17  1  0.40497900  0.11795300  0.53929700  1
  Zr  Zr18  1  0.90497900  0.38204700  0.46070300  1
  Zr  Zr19  1  0.09502100  0.88204700  0.03929700  1
  Zr  Zr20  1  0.40497900  0.38204700  0.03929700  1
  Zr  Zr21  1  0.59502100  0.88204700  0.46070300  1
  Zr  Zr22  1  0.09502100  0.61795300  0.53929700  1
  Zr  Zr23  1  0.90497900  0.11795300  0.96070300  1
  H  H24  1  0.82373400  0.51731400  0.80849300  1
  H  H25  1  0.17626600  0.01731400  0.69150700  1
  H  H26  1  0.67626600  0.48268600  0.30849300  1
  H  H27  1  0.32373400  0.98268600  0.19150700  1
  H  H28  1  0.17626600  0.48268600  0.19150700  1
  H  H29  1  0.82373400  0.98268600  0.30849300  1
  H  H30  1  0.32373400  0.51731400  0.69150700  1
  H  H31  1  0.67626600  0.01731400  0.80849300  1
  F  F32  1  0.80377500  0.57933700  0.03098900  1
  F  F33  1  0.19622500  0.07933700  0.46901100  1
  F  F34  1  0.69622500  0.42066300  0.53098900  1
  F  F35  1  0.30377500  0.92066300  0.96901100  1
  F  F36  1  0.19622500  0.42066300  0.96901100  1
  F  F37  1  0.80377500  0.92066300  0.53098900  1
  F  F38  1  0.30377500  0.57933700  0.46901100  1
  F  F39  1  0.69622500  0.07933700  0.03098900  1
  F  F40  1  0.57451400  0.70045500  0.10681400  1
  F  F41  1  0.42548600  0.20045500  0.39318600  1
  F  F42  1  0.92548600  0.29954500  0.60681400  1
  F  F43  1  0.07451400  0.79954500  0.89318600  1
  F  F44  1  0.42548600  0.29954500  0.89318600  1
  F  F45  1  0.57451400  0.79954500  0.60681400  1
  F  F46  1  0.07451400  0.70045500  0.39318600  1
  F  F47  1  0.92548600  0.20045500  0.10681400  1
  F  F48  1  0.41872700  0.54384900  0.06318700  1
  F  F49  1  0.58127300  0.04384900  0.43681300  1
  F  F50  1  0.08127300  0.45615100  0.56318700  1
  F  F51  1  0.91872700  0.95615100  0.93681300  1
  F  F52  1  0.58127300  0.45615100  0.93681300  1
  F  F53  1  0.41872700  0.95615100  0.56318700  1
  F  F54  1  0.91872700  0.54384900  0.43681300  1
  F  F55  1  0.08127300  0.04384900  0.06318700  1
  F  F56  1  0.67027000  0.75167400  0.90625100  1
  F  F57  1  0.32973000  0.25167400  0.59374900  1
  F  F58  1  0.82973000  0.24832600  0.40625100  1
  F  F59  1  0.17027000  0.74832600  0.09374900  1
  F  F60  1  0.32973000  0.24832600  0.09374900  1
  F  F61  1  0.67027000  0.74832600  0.40625100  1
  F  F62  1  0.17027000  0.75167400  0.59374900  1
  F  F63  1  0.82973000  0.25167400  0.90625100  1
  F  F64  1  0.40400700  0.65317000  0.87188100  1
  F  F65  1  0.59599300  0.15317000  0.62811900  1
  F  F66  1  0.09599300  0.34683000  0.37188100  1
  F  F67  1  0.90400700  0.84683000  0.12811900  1
  F  F68  1  0.59599300  0.34683000  0.12811900  1
  F  F69  1  0.40400700  0.84683000  0.37188100  1
  F  F70  1  0.90400700  0.65317000  0.62811900  1
  F  F71  1  0.09599300  0.15317000  0.87188100  1
  F  F72  1  0.70443200  0.58221700  0.80391600  1
  F  F73  1  0.29556800  0.08221700  0.69608400  1
  F  F74  1  0.79556800  0.41778300  0.30391600  1
  F  F75  1  0.20443200  0.91778300  0.19608400  1
  F  F76  1  0.29556800  0.41778300  0.19608400  1
  F  F77  1  0.70443200  0.91778300  0.30391600  1
  F  F78  1  0.20443200  0.58221700  0.69608400  1
  F  F79  1  0.79556800  0.08221700  0.80391600  1
  F  F80  1  0.90941300  0.46743700  0.81486600  1
  F  F81  1  0.09058700  0.96743700  0.68513400  1
  F  F82  1  0.59058700  0.53256300  0.31486600  1
  F  F83  1  0.40941300  0.03256300  0.18513400  1
  F  F84  1  0.09058700  0.53256300  0.18513400  1
  F  F85  1  0.90941300  0.03256300  0.31486600  1
  F  F86  1  0.40941300  0.46743700  0.68513400  1
  F  F87  1  0.59058700  0.96743700  0.81486600  1
