# generated using pymatgen
data_Sm8Ga21Ru11
_symmetry_space_group_name_H-M   'P 1'
_cell_length_a   11.42559563
_cell_length_b   11.42559563
_cell_length_c   5.66418000
_cell_angle_alpha   90.00000000
_cell_angle_beta   90.00000000
_cell_angle_gamma   90.07316649
_symmetry_Int_Tables_number   1
_chemical_formula_structural   Sm8Ga21Ru11
_chemical_formula_sum   'Sm8 Ga21 Ru11'
_cell_volume   739.42544453
_cell_formula_units_Z   1
loop_
 _symmetry_equiv_pos_site_id
 _symmetry_equiv_pos_as_xyz
  1  'x, y, z'
loop_
 _atom_site_type_symbol
 _atom_site_label
 _atom_site_symmetry_multiplicity
 _atom_site_fract_x
 _atom_site_fract_y
 _atom_site_fract_z
 _atom_site_occupancy
  Sm  Sm0  1  0.73698400  0.92488800  0.75134300  1
  Sm  Sm1  1  0.26301600  0.07511200  0.75134300  1
  Sm  Sm2  1  0.23647600  0.57575000  0.24942400  1
  Sm  Sm3  1  0.76352400  0.42425000  0.24942400  1
  Sm  Sm4  1  0.42425000  0.76352400  0.75057600  1
  Sm  Sm5  1  0.57575000  0.23647600  0.75057600  1
  Sm  Sm6  1  0.07511200  0.26301600  0.24865700  1
  Sm  Sm7  1  0.92488800  0.73698400  0.24865700  1
  Ga  Ga8  1  0.00000000  0.50000000  0.49456400  1
  Ga  Ga9  1  0.50000000  0.00000000  0.99440200  1
  Ga  Ga10  1  0.00000000  0.50000000  0.00559800  1
  Ga  Ga11  1  0.50000000  0.00000000  0.50543600  1
  Ga  Ga12  1  0.81633000  0.18367000  0.50000000  1
  Ga  Ga13  1  0.18367000  0.81633000  0.50000000  1
  Ga  Ga14  1  0.31983100  0.31983100  0.00000000  1
  Ga  Ga15  1  0.68016900  0.68016900  0.00000000  1
  Ga  Ga16  1  0.67989000  0.67989000  0.50000000  1
  Ga  Ga17  1  0.32011000  0.32011000  0.50000000  1
  Ga  Ga18  1  0.82044900  0.17955100  0.00000000  1
  Ga  Ga19  1  0.17955100  0.82044900  0.00000000  1
  Ga  Ga20  1  0.97356000  0.81117900  0.75830300  1
  Ga  Ga21  1  0.02644000  0.18882100  0.75830300  1
  Ga  Ga22  1  0.47424100  0.68593700  0.24974700  1
  Ga  Ga23  1  0.52575900  0.31406300  0.24974700  1
  Ga  Ga24  1  0.31406300  0.52575900  0.75025300  1
  Ga  Ga25  1  0.68593700  0.47424100  0.75025300  1
  Ga  Ga26  1  0.18882100  0.02644000  0.24169700  1
  Ga  Ga27  1  0.81117900  0.97356000  0.24169700  1
  Ga  Ga28  1  0.00000000  0.00000000  0.50000000  1
  Ru  Ru29  1  0.85562800  0.62142600  0.74888800  1
  Ru  Ru30  1  0.14437200  0.37857400  0.74888800  1
  Ru  Ru31  1  0.35649700  0.87811300  0.25119800  1
  Ru  Ru32  1  0.64350300  0.12188700  0.25119800  1
  Ru  Ru33  1  0.12188700  0.64350300  0.74880200  1
  Ru  Ru34  1  0.87811300  0.35649700  0.74880200  1
  Ru  Ru35  1  0.37857400  0.14437200  0.25111200  1
  Ru  Ru36  1  0.62142600  0.85562800  0.25111200  1
  Ru  Ru37  1  0.50000000  0.50000000  0.00000000  1
  Ru  Ru38  1  0.50000000  0.50000000  0.50000000  1
  Ru  Ru39  1  0.00000000  0.00000000  0.00000000  1
