# generated using pymatgen
data_Sm6Fe13Bi
_symmetry_space_group_name_H-M   'P 1'
_cell_length_a   12.97658832
_cell_length_b   12.97658832
_cell_length_c   12.97658832
_cell_angle_alpha   143.79129599
_cell_angle_beta   143.79129599
_cell_angle_gamma   52.13949216
_symmetry_Int_Tables_number   1
_chemical_formula_structural   Sm6Fe13Bi
_chemical_formula_sum   'Sm12 Fe26 Bi2'
_cell_volume   758.16188758
_cell_formula_units_Z   2
loop_
 _symmetry_equiv_pos_site_id
 _symmetry_equiv_pos_as_xyz
  1  'x, y, z'
loop_
 _atom_site_type_symbol
 _atom_site_label
 _atom_site_symmetry_multiplicity
 _atom_site_fract_x
 _atom_site_fract_y
 _atom_site_fract_z
 _atom_site_occupancy
  Sm  Sm0  1  0.60301700  0.60301700  0.00000000  1
  Sm  Sm1  1  0.10301700  0.10301700  0.00000000  1
  Sm  Sm2  1  0.39698300  0.39698300  0.00000000  1
  Sm  Sm3  1  0.89698300  0.89698300  0.00000000  1
  Sm  Sm4  1  0.47672100  0.97672100  0.82205400  1
  Sm  Sm5  1  0.15466800  0.65466800  0.17794600  1
  Sm  Sm6  1  0.97672100  0.15466800  0.50000000  1
  Sm  Sm7  1  0.65466800  0.47672100  0.50000000  1
  Sm  Sm8  1  0.52327900  0.02327900  0.17794600  1
  Sm  Sm9  1  0.84533200  0.34533200  0.82205400  1
  Sm  Sm10  1  0.02327900  0.84533200  0.50000000  1
  Sm  Sm11  1  0.34533200  0.52327900  0.50000000  1
  Fe  Fe12  1  0.50000000  0.00000000  0.50000000  1
  Fe  Fe13  1  0.00000000  0.50000000  0.50000000  1
  Fe  Fe14  1  0.56676900  0.71022400  0.27699300  1
  Fe  Fe15  1  0.43323100  0.28977600  0.72300700  1
  Fe  Fe16  1  0.06676900  0.78977600  0.85654600  1
  Fe  Fe17  1  0.93323100  0.21022400  0.14345400  1
  Fe  Fe18  1  0.28977600  0.56676900  0.85654600  1
  Fe  Fe19  1  0.71022400  0.43323100  0.14345400  1
  Fe  Fe20  1  0.21022400  0.06676900  0.27699300  1
  Fe  Fe21  1  0.78977600  0.93323100  0.72300700  1
  Fe  Fe22  1  0.62005300  0.12005300  0.85881400  1
  Fe  Fe23  1  0.26123900  0.76123900  0.14118600  1
  Fe  Fe24  1  0.12005300  0.26123900  0.50000000  1
  Fe  Fe25  1  0.76123900  0.62005300  0.50000000  1
  Fe  Fe26  1  0.37994700  0.87994700  0.14118600  1
  Fe  Fe27  1  0.73876100  0.23876100  0.85881400  1
  Fe  Fe28  1  0.87994700  0.73876100  0.50000000  1
  Fe  Fe29  1  0.23876100  0.37994700  0.50000000  1
  Fe  Fe30  1  0.79154800  0.29154800  0.27245600  1
  Fe  Fe31  1  0.01909200  0.51909200  0.72754400  1
  Fe  Fe32  1  0.29154800  0.01909200  0.50000000  1
  Fe  Fe33  1  0.51909200  0.79154800  0.50000000  1
  Fe  Fe34  1  0.20845200  0.70845200  0.72754400  1
  Fe  Fe35  1  0.98090800  0.48090800  0.27245600  1
  Fe  Fe36  1  0.70845200  0.98090800  0.50000000  1
  Fe  Fe37  1  0.48090800  0.20845200  0.50000000  1
  Bi  Bi38  1  0.25000000  0.25000000  0.00000000  1
  Bi  Bi39  1  0.75000000  0.75000000  0.00000000  1
