# generated using pymatgen
data_Cs3H(SF6)2
_symmetry_space_group_name_H-M   'P 1'
_cell_length_a   6.65168800
_cell_length_b   10.20959100
_cell_length_c   10.80207600
_cell_angle_alpha   90.00000000
_cell_angle_beta   90.00000000
_cell_angle_gamma   90.00000000
_symmetry_Int_Tables_number   1
_chemical_formula_structural   Cs3H(SF6)2
_chemical_formula_sum   'Cs6 H2 S4 F24'
_cell_volume   733.57993381
_cell_formula_units_Z   2
loop_
 _symmetry_equiv_pos_site_id
 _symmetry_equiv_pos_as_xyz
  1  'x, y, z'
loop_
 _atom_site_type_symbol
 _atom_site_label
 _atom_site_symmetry_multiplicity
 _atom_site_fract_x
 _atom_site_fract_y
 _atom_site_fract_z
 _atom_site_occupancy
  Cs  Cs0  1  0.99565900  0.50000000  0.50000000  1
  Cs  Cs1  1  0.99565900  0.00000000  0.00000000  1
  Cs  Cs2  1  0.50028100  0.30275600  0.19941600  1
  Cs  Cs3  1  0.50028100  0.19724400  0.69941600  1
  Cs  Cs4  1  0.50028100  0.69724400  0.80058400  1
  Cs  Cs5  1  0.50028100  0.80275600  0.30058400  1
  H  H6  1  0.50928600  0.50000000  0.50000000  1
  H  H7  1  0.50928600  0.00000000  0.00000000  1
  S  S8  1  0.00081300  0.11529800  0.38424600  1
  S  S9  1  0.00081300  0.38470200  0.88424600  1
  S  S10  1  0.00081300  0.88470200  0.61575400  1
  S  S11  1  0.00081300  0.61529800  0.11575400  1
  F  F12  1  0.81180200  0.04052900  0.29766500  1
  F  F13  1  0.81180200  0.45947100  0.79766500  1
  F  F14  1  0.81180200  0.95947100  0.70233500  1
  F  F15  1  0.81180200  0.54052900  0.20233500  1
  F  F16  1  0.19588100  0.70963300  0.04326000  1
  F  F17  1  0.19588100  0.79036700  0.54326000  1
  F  F18  1  0.19588100  0.29036700  0.95674000  1
  F  F19  1  0.19588100  0.20963300  0.45674000  1
  F  F20  1  0.81405700  0.21425900  0.45910200  1
  F  F21  1  0.81405700  0.28574100  0.95910200  1
  F  F22  1  0.81405700  0.78574100  0.54089800  1
  F  F23  1  0.81405700  0.71425900  0.04089800  1
  F  F24  1  0.18095900  0.53856000  0.20896100  1
  F  F25  1  0.18095900  0.96144000  0.70896100  1
  F  F26  1  0.18095900  0.46144000  0.79103900  1
  F  F27  1  0.18095900  0.03856000  0.29103900  1
  F  F28  1  0.00012300  0.22919600  0.27912200  1
  F  F29  1  0.00012300  0.27080400  0.77912200  1
  F  F30  1  0.00012300  0.77080400  0.72087800  1
  F  F31  1  0.00012300  0.72919600  0.22087800  1
  F  F32  1  0.51051100  0.02118600  0.10400000  1
  F  F33  1  0.51051100  0.47881400  0.60400000  1
  F  F34  1  0.51051100  0.97881400  0.89600000  1
  F  F35  1  0.51051100  0.52118600  0.39600000  1
