# generated using pymatgen
data_TaCdBF10
_symmetry_space_group_name_H-M   'P 1'
_cell_length_a   9.57143800
_cell_length_b   8.45277100
_cell_length_c   9.11592650
_cell_angle_alpha   85.64391755
_cell_angle_beta   90.00000000
_cell_angle_gamma   90.00000000
_symmetry_Int_Tables_number   1
_chemical_formula_structural   TaCdBF10
_chemical_formula_sum   'Ta4 Cd4 B4 F40'
_cell_volume   735.39509921
_cell_formula_units_Z   4
loop_
 _symmetry_equiv_pos_site_id
 _symmetry_equiv_pos_as_xyz
  1  'x, y, z'
loop_
 _atom_site_type_symbol
 _atom_site_label
 _atom_site_symmetry_multiplicity
 _atom_site_fract_x
 _atom_site_fract_y
 _atom_site_fract_z
 _atom_site_occupancy
  Ta  Ta0  1  0.06812500  0.33363900  0.26134900  1
  Ta  Ta1  1  0.56812500  0.66636100  0.23865100  1
  Ta  Ta2  1  0.93187500  0.66636100  0.73865100  1
  Ta  Ta3  1  0.43187500  0.33363900  0.76134900  1
  Cd  Cd4  1  0.47644900  0.17956600  0.21528200  1
  Cd  Cd5  1  0.97644900  0.82043400  0.28471800  1
  Cd  Cd6  1  0.52355100  0.82043400  0.78471800  1
  Cd  Cd7  1  0.02355100  0.17956600  0.71528200  1
  B  B8  1  0.27034100  0.93395300  0.50493200  1
  B  B9  1  0.77034100  0.06604700  0.99506800  1
  B  B10  1  0.72965900  0.06604700  0.49506800  1
  B  B11  1  0.22965900  0.93395300  0.00493200  1
  F  F12  1  0.18712500  0.02405000  0.59653600  1
  F  F13  1  0.68712500  0.97595000  0.90346400  1
  F  F14  1  0.81287500  0.97595000  0.40346400  1
  F  F15  1  0.31287500  0.02405000  0.09653600  1
  F  F16  1  0.36133400  0.83393200  0.59254500  1
  F  F17  1  0.86133400  0.16606800  0.90745500  1
  F  F18  1  0.63866600  0.16606800  0.40745500  1
  F  F19  1  0.13866600  0.83393200  0.09254500  1
  F  F20  1  0.18214000  0.83811600  0.42339000  1
  F  F21  1  0.68214000  0.16188400  0.07661000  1
  F  F22  1  0.81786000  0.16188400  0.57661000  1
  F  F23  1  0.31786000  0.83811600  0.92339000  1
  F  F24  1  0.35054000  0.03659800  0.40931400  1
  F  F25  1  0.85054000  0.96340200  0.09068600  1
  F  F26  1  0.64946000  0.96340200  0.59068600  1
  F  F27  1  0.14946000  0.03659800  0.90931400  1
  F  F28  1  0.07653500  0.35150900  0.05432200  1
  F  F29  1  0.57653500  0.64849100  0.44567800  1
  F  F30  1  0.92346500  0.64849100  0.94567800  1
  F  F31  1  0.42346500  0.35150900  0.55432200  1
  F  F32  1  0.07392300  0.31054500  0.47717500  1
  F  F33  1  0.57392300  0.68945500  0.02282500  1
  F  F34  1  0.92607700  0.68945500  0.52282500  1
  F  F35  1  0.42607700  0.31054500  0.97717500  1
  F  F36  1  0.05893300  0.10428800  0.26681100  1
  F  F37  1  0.55893300  0.89571200  0.23318900  1
  F  F38  1  0.94106700  0.89571200  0.73318900  1
  F  F39  1  0.44106700  0.10428800  0.76681100  1
  F  F40  1  0.07058200  0.56184600  0.27296300  1
  F  F41  1  0.57058200  0.43815400  0.22703700  1
  F  F42  1  0.92941800  0.43815400  0.72703700  1
  F  F43  1  0.42941800  0.56184600  0.77296300  1
  F  F44  1  0.87214000  0.33970400  0.26247100  1
  F  F45  1  0.37214000  0.66029600  0.23752900  1
  F  F46  1  0.12786000  0.66029600  0.73752900  1
  F  F47  1  0.62786000  0.33970400  0.76247100  1
  F  F48  1  0.27354600  0.31905600  0.26034700  1
  F  F49  1  0.77354600  0.68094400  0.23965300  1
  F  F50  1  0.72645400  0.68094400  0.73965300  1
  F  F51  1  0.22645400  0.31905600  0.76034700  1
