# generated using pymatgen
data_V4Cd3(PO4)6
_symmetry_space_group_name_H-M   'P 1'
_cell_length_a   6.57563700
_cell_length_b   8.90426686
_cell_length_c   8.93000435
_cell_angle_alpha   89.85625565
_cell_angle_beta   108.06505898
_cell_angle_gamma   107.70931110
_symmetry_Int_Tables_number   1
_chemical_formula_structural   V4Cd3(PO4)6
_chemical_formula_sum   'V4 Cd3 P6 O24'
_cell_volume   471.09227044
_cell_formula_units_Z   1
loop_
 _symmetry_equiv_pos_site_id
 _symmetry_equiv_pos_as_xyz
  1  'x, y, z'
loop_
 _atom_site_type_symbol
 _atom_site_label
 _atom_site_symmetry_multiplicity
 _atom_site_fract_x
 _atom_site_fract_y
 _atom_site_fract_z
 _atom_site_occupancy
  V  V0  1  0.13336200  0.88033300  0.56666700  1
  V  V1  1  0.36750100  0.43477700  0.12019700  1
  V  V2  1  0.86407700  0.12076200  0.42970300  1
  V  V3  1  0.63165200  0.56405300  0.88199700  1
  Cd  Cd4  1  0.25497100  0.75055400  0.25009600  1
  Cd  Cd5  1  0.74940300  0.24467200  0.75683400  1
  Cd  Cd6  1  0.02866000  0.98084200  0.98082100  1
  P  P7  1  0.24839700  0.21755800  0.77790000  1
  P  P8  1  0.75244300  0.78528700  0.21959200  1
  P  P9  1  0.35813500  0.14370500  0.35801600  1
  P  P10  1  0.13640100  0.64351900  0.85660100  1
  P  P11  1  0.64327200  0.85470100  0.64225400  1
  P  P12  1  0.86194600  0.35562800  0.14044700  1
  O  O13  1  0.26352700  0.04971900  0.75769300  1
  O  O14  1  0.22649500  0.23955900  0.94550100  1
  O  O15  1  0.73125500  0.94949200  0.24439100  1
  O  O16  1  0.77634100  0.76198400  0.05316300  1
  O  O17  1  0.96694400  0.76438200  0.34572700  1
  O  O18  1  0.53845000  0.65562900  0.23425100  1
  O  O19  1  0.03356000  0.23687000  0.65212000  1
  O  O20  1  0.46245700  0.34490800  0.76262500  1
  O  O21  1  0.14247100  0.70522800  0.69657900  1
  O  O22  1  0.35619200  0.30350700  0.29408000  1
  O  O23  1  0.85646300  0.29600500  0.30182000  1
  O  O24  1  0.64348500  0.69469100  0.70639600  1
  O  O25  1  0.40931900  0.84273900  0.52281500  1
  O  O26  1  0.09614000  0.48273700  0.16142200  1
  O  O27  1  0.59214100  0.15825900  0.47972100  1
  O  O28  1  0.90371100  0.51834000  0.83855900  1
  O  O29  1  0.29330400  0.01605000  0.22006800  1
  O  O30  1  0.18908100  0.78083200  0.98113800  1
  O  O31  1  0.71562600  0.98094600  0.78342100  1
  O  O32  1  0.81034500  0.22033300  0.01711500  1
  O  O33  1  0.18003900  0.09051100  0.44872700  1
  O  O34  1  0.31939100  0.55486600  0.91360700  1
  O  O35  1  0.81989500  0.90810700  0.55082600  1
  O  O36  1  0.67944600  0.44681400  0.08660900  1
