# generated using pymatgen
data_K2MgV2O7
_symmetry_space_group_name_H-M   'P 1'
_cell_length_a   8.52608100
_cell_length_b   8.52608100
_cell_length_c   11.60697700
_cell_angle_alpha   90.00000000
_cell_angle_beta   90.00000000
_cell_angle_gamma   90.00000000
_symmetry_Int_Tables_number   1
_chemical_formula_structural   K2MgV2O7
_chemical_formula_sum   'K8 Mg4 V8 O28'
_cell_volume   843.75825017
_cell_formula_units_Z   4
loop_
 _symmetry_equiv_pos_site_id
 _symmetry_equiv_pos_as_xyz
  1  'x, y, z'
loop_
 _atom_site_type_symbol
 _atom_site_label
 _atom_site_symmetry_multiplicity
 _atom_site_fract_x
 _atom_site_fract_y
 _atom_site_fract_z
 _atom_site_occupancy
  K  K0  1  0.81845200  0.81845200  0.00000000  1
  K  K1  1  0.68154800  0.31845200  0.50000000  1
  K  K2  1  0.31845200  0.68154800  0.50000000  1
  K  K3  1  0.18154800  0.18154800  0.00000000  1
  K  K4  1  0.64813000  0.35187000  0.00000000  1
  K  K5  1  0.14813000  0.14813000  0.50000000  1
  K  K6  1  0.85187000  0.85187000  0.50000000  1
  K  K7  1  0.35187000  0.64813000  0.00000000  1
  Mg  Mg8  1  0.00000000  0.50000000  0.75000000  1
  Mg  Mg9  1  0.00000000  0.50000000  0.25000000  1
  Mg  Mg10  1  0.50000000  0.00000000  0.75000000  1
  Mg  Mg11  1  0.50000000  0.00000000  0.25000000  1
  V  V12  1  0.64193600  0.64193600  0.71290700  1
  V  V13  1  0.35806400  0.35806400  0.71290700  1
  V  V14  1  0.64193600  0.64193600  0.28709300  1
  V  V15  1  0.14193600  0.85806400  0.21290700  1
  V  V16  1  0.85806400  0.14193600  0.21290700  1
  V  V17  1  0.85806400  0.14193600  0.78709300  1
  V  V18  1  0.14193600  0.85806400  0.78709300  1
  V  V19  1  0.35806400  0.35806400  0.28709300  1
  O  O20  1  0.64112600  0.64112600  0.85780500  1
  O  O21  1  0.35887400  0.35887400  0.85780500  1
  O  O22  1  0.64112600  0.64112600  0.14219500  1
  O  O23  1  0.14112600  0.85887400  0.35780500  1
  O  O24  1  0.85887400  0.14112600  0.35780500  1
  O  O25  1  0.85887400  0.14112600  0.64219500  1
  O  O26  1  0.14112600  0.85887400  0.64219500  1
  O  O27  1  0.35887400  0.35887400  0.14219500  1
  O  O28  1  0.41102300  0.17559900  0.34134700  1
  O  O29  1  0.58897700  0.82440100  0.34134700  1
  O  O30  1  0.17559900  0.41102300  0.65865300  1
  O  O31  1  0.67559900  0.08897700  0.84134700  1
  O  O32  1  0.32440100  0.91102300  0.84134700  1
  O  O33  1  0.08897700  0.67559900  0.15865300  1
  O  O34  1  0.91102300  0.32440100  0.15865300  1
  O  O35  1  0.82440100  0.58897700  0.65865300  1
  O  O36  1  0.58897700  0.82440100  0.65865300  1
  O  O37  1  0.41102300  0.17559900  0.65865300  1
  O  O38  1  0.82440100  0.58897700  0.34134700  1
  O  O39  1  0.32440100  0.91102300  0.15865300  1
  O  O40  1  0.00000000  0.00000000  0.15581700  1
  O  O41  1  0.50000000  0.50000000  0.65581700  1
  O  O42  1  0.50000000  0.50000000  0.34418300  1
  O  O43  1  0.00000000  0.00000000  0.84418300  1
  O  O44  1  0.17559900  0.41102300  0.34134700  1
  O  O45  1  0.08897700  0.67559900  0.84134700  1
  O  O46  1  0.91102300  0.32440100  0.84134700  1
  O  O47  1  0.67559900  0.08897700  0.15865300  1
