# generated using pymatgen
data_Sr2FeO3
_symmetry_space_group_name_H-M   'P 1'
_cell_length_a   5.34753881
_cell_length_b   13.56716227
_cell_length_c   5.34753740
_cell_angle_alpha   79.88107395
_cell_angle_beta   83.77611973
_cell_angle_gamma   100.11890932
_symmetry_Int_Tables_number   1
_chemical_formula_structural   Sr2FeO3
_chemical_formula_sum   'Sr8 Fe4 O12'
_cell_volume   372.08985122
_cell_formula_units_Z   4
loop_
 _symmetry_equiv_pos_site_id
 _symmetry_equiv_pos_as_xyz
  1  'x, y, z'
loop_
 _atom_site_type_symbol
 _atom_site_label
 _atom_site_symmetry_multiplicity
 _atom_site_fract_x
 _atom_site_fract_y
 _atom_site_fract_z
 _atom_site_occupancy
  Sr  Sr0  1  0.57510200  0.15023900  0.92489800  1
  Sr  Sr1  1  0.82510100  0.65023700  0.17489900  1
  Sr  Sr2  1  0.07510100  0.15023700  0.42489900  1
  Sr  Sr3  1  0.32510300  0.65023900  0.67489900  1
  Sr  Sr4  1  0.67489900  0.34976100  0.32510300  1
  Sr  Sr5  1  0.92489800  0.84976100  0.57510200  1
  Sr  Sr6  1  0.17489900  0.34976300  0.82510100  1
  Sr  Sr7  1  0.42489900  0.84976300  0.07510100  1
  Fe  Fe8  1  0.50000000  0.99999400  0.50000100  1
  Fe  Fe9  1  0.74999800  0.50000100  0.74999800  1
  Fe  Fe10  1  0.00000000  0.00000100  0.99999700  1
  Fe  Fe11  1  0.24999800  0.50000000  0.25000000  1
  O  O12  1  0.25000900  0.00000000  0.25000900  1
  O  O13  1  0.50000800  0.50000000  0.50000800  1
  O  O14  1  0.74999200  0.00000000  0.74999200  1
  O  O15  1  0.99999200  0.50000000  0.99999100  1
  O  O16  1  0.67112700  0.34226800  0.82887600  1
  O  O17  1  0.92112600  0.84226800  0.07887400  1
  O  O18  1  0.17112600  0.34226700  0.32887500  1
  O  O19  1  0.42112500  0.84226800  0.57887400  1
  O  O20  1  0.57887400  0.15773300  0.42112500  1
  O  O21  1  0.82887600  0.65773300  0.67112700  1
  O  O22  1  0.07887400  0.15773300  0.92112500  1
  O  O23  1  0.32887500  0.65773300  0.17112700  1
