# generated using pymatgen
data_Th(BRu)2
_symmetry_space_group_name_H-M   'P 1'
_cell_length_a   6.80958299
_cell_length_b   6.03931484
_cell_length_c   5.58946507
_cell_angle_alpha   71.56906515
_cell_angle_beta   57.28743963
_cell_angle_gamma   51.14349522
_symmetry_Int_Tables_number   1
_chemical_formula_structural   Th(BRu)2
_chemical_formula_sum   'Th2 B4 Ru4'
_cell_volume   150.51958446
_cell_formula_units_Z   2
loop_
 _symmetry_equiv_pos_site_id
 _symmetry_equiv_pos_as_xyz
  1  'x, y, z'
loop_
 _atom_site_type_symbol
 _atom_site_label
 _atom_site_symmetry_multiplicity
 _atom_site_fract_x
 _atom_site_fract_y
 _atom_site_fract_z
 _atom_site_occupancy
  Th  Th0  1  0.00000000  0.00000000  0.00000000  1
  Th  Th1  1  0.25000000  0.25000000  0.25000000  1
  B  B2  1  0.31748100  0.68251900  0.31748100  1
  B  B3  1  0.68251900  0.31748100  0.68251900  1
  B  B4  1  0.56748100  0.93251900  0.56748100  1
  B  B5  1  0.93251900  0.56748100  0.93251900  1
  Ru  Ru6  1  0.63678800  0.63678800  0.36321200  1
  Ru  Ru7  1  0.36321200  0.36321200  0.63678800  1
  Ru  Ru8  1  0.61321200  0.61321200  0.88678800  1
  Ru  Ru9  1  0.88678800  0.88678800  0.61321200  1
