# generated using pymatgen
data_Ho3Rh2
_symmetry_space_group_name_H-M   'P 1'
_cell_length_a   14.85528433
_cell_length_b   14.85528433
_cell_length_c   14.85528433
_cell_angle_alpha   135.77433451
_cell_angle_beta   135.77433451
_cell_angle_gamma   64.32941117
_symmetry_Int_Tables_number   1
_chemical_formula_structural   Ho3Rh2
_chemical_formula_sum   'Ho42 Rh28'
_cell_volume   1572.94417747
_cell_formula_units_Z   14
loop_
 _symmetry_equiv_pos_site_id
 _symmetry_equiv_pos_as_xyz
  1  'x, y, z'
loop_
 _atom_site_type_symbol
 _atom_site_label
 _atom_site_symmetry_multiplicity
 _atom_site_fract_x
 _atom_site_fract_y
 _atom_site_fract_z
 _atom_site_occupancy
  Ho  Ho0  1  0.63210300  0.50431100  0.27914800  1
  Ho  Ho1  1  0.22516200  0.35295400  0.72085200  1
  Ho  Ho2  1  0.13210300  0.85295400  0.12779200  1
  Ho  Ho3  1  0.72516200  0.00431100  0.87220800  1
  Ho  Ho4  1  0.35295400  0.63210300  0.12779200  1
  Ho  Ho5  1  0.50431100  0.22516200  0.87220800  1
  Ho  Ho6  1  0.00431100  0.13210300  0.27914800  1
  Ho  Ho7  1  0.85295400  0.72516200  0.72085200  1
  Ho  Ho8  1  0.36789700  0.49568900  0.72085200  1
  Ho  Ho9  1  0.77483800  0.64704600  0.27914800  1
  Ho  Ho10  1  0.86789700  0.14704600  0.87220800  1
  Ho  Ho11  1  0.27483800  0.99568900  0.12779200  1
  Ho  Ho12  1  0.64704600  0.36789700  0.87220800  1
  Ho  Ho13  1  0.49568900  0.77483800  0.12779200  1
  Ho  Ho14  1  0.99568900  0.86789700  0.72085200  1
  Ho  Ho15  1  0.14704600  0.27483800  0.27914800  1
  Ho  Ho16  1  0.38642000  0.51694400  0.29015400  1
  Ho  Ho17  1  0.22679000  0.09626600  0.70984600  1
  Ho  Ho18  1  0.88642000  0.59626600  0.86947600  1
  Ho  Ho19  1  0.72679000  0.01694400  0.13052400  1
  Ho  Ho20  1  0.09626600  0.38642000  0.86947600  1
  Ho  Ho21  1  0.51694400  0.22679000  0.13052400  1
  Ho  Ho22  1  0.01694400  0.88642000  0.29015400  1
  Ho  Ho23  1  0.59626600  0.72679000  0.70984600  1
  Ho  Ho24  1  0.61358000  0.48305600  0.70984600  1
  Ho  Ho25  1  0.77321000  0.90373400  0.29015400  1
  Ho  Ho26  1  0.11358000  0.40373400  0.13052400  1
  Ho  Ho27  1  0.27321000  0.98305600  0.86947600  1
  Ho  Ho28  1  0.90373400  0.61358000  0.13052400  1
  Ho  Ho29  1  0.48305600  0.77321000  0.86947600  1
  Ho  Ho30  1  0.98305600  0.11358000  0.70984600  1
  Ho  Ho31  1  0.40373400  0.27321000  0.29015400  1
  Ho  Ho32  1  0.84967500  0.34967500  0.19935100  1
  Ho  Ho33  1  0.15032500  0.65032500  0.80064900  1
  Ho  Ho34  1  0.34967500  0.15032500  0.50000000  1
  Ho  Ho35  1  0.65032500  0.84967500  0.50000000  1
  Ho  Ho36  1  0.38805300  0.88805300  0.50000000  1
  Ho  Ho37  1  0.88805300  0.38805300  0.50000000  1
  Ho  Ho38  1  0.61194700  0.11194700  0.50000000  1
  Ho  Ho39  1  0.11194700  0.61194700  0.50000000  1
  Ho  Ho40  1  0.25000000  0.75000000  0.50000000  1
  Ho  Ho41  1  0.75000000  0.25000000  0.50000000  1
  Rh  Rh42  1  0.71481600  0.21481600  0.14211600  1
  Rh  Rh43  1  0.07270000  0.57270000  0.85788400  1
  Rh  Rh44  1  0.21481600  0.07270000  0.50000000  1
  Rh  Rh45  1  0.57270000  0.71481600  0.50000000  1
  Rh  Rh46  1  0.28518400  0.78518400  0.85788400  1
  Rh  Rh47  1  0.92730000  0.42730000  0.14211600  1
  Rh  Rh48  1  0.78518400  0.92730000  0.50000000  1
  Rh  Rh49  1  0.42730000  0.28518400  0.50000000  1
  Rh  Rh50  1  0.46580700  0.96580700  0.80829900  1
  Rh  Rh51  1  0.15750800  0.65750800  0.19170100  1
  Rh  Rh52  1  0.96580700  0.15750800  0.50000000  1
  Rh  Rh53  1  0.65750800  0.46580700  0.50000000  1
  Rh  Rh54  1  0.53419300  0.03419300  0.19170100  1
  Rh  Rh55  1  0.84249200  0.34249200  0.80829900  1
  Rh  Rh56  1  0.03419300  0.84249200  0.50000000  1
  Rh  Rh57  1  0.34249200  0.53419300  0.50000000  1
  Rh  Rh58  1  0.59682700  0.09682700  0.69365400  1
  Rh  Rh59  1  0.40317300  0.90317300  0.30634600  1
  Rh  Rh60  1  0.09682700  0.40317300  0.50000000  1
  Rh  Rh61  1  0.90317300  0.59682700  0.50000000  1
  Rh  Rh62  1  0.36634300  0.36634300  0.00000000  1
  Rh  Rh63  1  0.86634300  0.86634300  0.00000000  1
  Rh  Rh64  1  0.63365700  0.63365700  0.00000000  1
  Rh  Rh65  1  0.13365700  0.13365700  0.00000000  1
  Rh  Rh66  1  0.50000000  0.50000000  0.00000000  1
  Rh  Rh67  1  0.00000000  0.00000000  0.00000000  1
  Rh  Rh68  1  0.25000000  0.25000000  0.00000000  1
  Rh  Rh69  1  0.75000000  0.75000000  0.00000000  1
