# generated using pymatgen
data_K2Zn5As4
_symmetry_space_group_name_H-M   'P 1'
_cell_length_a   6.87396264
_cell_length_b   6.87396264
_cell_length_c   11.77323700
_cell_angle_alpha   90.00000000
_cell_angle_beta   90.00000000
_cell_angle_gamma   117.10569704
_symmetry_Int_Tables_number   1
_chemical_formula_structural   K2Zn5As4
_chemical_formula_sum   'K4 Zn10 As8'
_cell_volume   495.20150772
_cell_formula_units_Z   2
loop_
 _symmetry_equiv_pos_site_id
 _symmetry_equiv_pos_as_xyz
  1  'x, y, z'
loop_
 _atom_site_type_symbol
 _atom_site_label
 _atom_site_symmetry_multiplicity
 _atom_site_fract_x
 _atom_site_fract_y
 _atom_site_fract_z
 _atom_site_occupancy
  K  K0  1  0.21416000  0.78584000  0.50000000  1
  K  K1  1  0.21416000  0.78584000  0.00000000  1
  K  K2  1  0.78584000  0.21416000  0.50000000  1
  K  K3  1  0.78584000  0.21416000  0.00000000  1
  Zn  Zn4  1  0.52908300  0.24305200  0.25000000  1
  Zn  Zn5  1  0.75694800  0.47091700  0.75000000  1
  Zn  Zn6  1  0.47091700  0.75694800  0.75000000  1
  Zn  Zn7  1  0.24305200  0.52908300  0.25000000  1
  Zn  Zn8  1  0.65225200  0.65225200  0.39140500  1
  Zn  Zn9  1  0.34774800  0.34774800  0.60859500  1
  Zn  Zn10  1  0.65225200  0.65225200  0.10859500  1
  Zn  Zn11  1  0.34774800  0.34774800  0.89140500  1
  Zn  Zn12  1  0.00704700  0.00704700  0.25000000  1
  Zn  Zn13  1  0.99295300  0.99295300  0.75000000  1
  As  As14  1  0.60011200  0.91552400  0.25000000  1
  As  As15  1  0.08447600  0.39988800  0.75000000  1
  As  As16  1  0.39988800  0.08447600  0.75000000  1
  As  As17  1  0.91552400  0.60011200  0.25000000  1
  As  As18  1  0.27659700  0.27659700  0.40143800  1
  As  As19  1  0.72340300  0.72340300  0.59856200  1
  As  As20  1  0.27659700  0.27659700  0.09856200  1
  As  As21  1  0.72340300  0.72340300  0.90143800  1
