# generated using pymatgen
data_Rb3Sb2I9
_symmetry_space_group_name_H-M   'P 1'
_cell_length_a   8.42643200
_cell_length_b   15.03050900
_cell_length_c   25.70601908
_cell_angle_alpha   55.30274705
_cell_angle_beta   90.00000000
_cell_angle_gamma   90.00000000
_symmetry_Int_Tables_number   1
_chemical_formula_structural   Rb3Sb2I9
_chemical_formula_sum   'Rb12 Sb8 I36'
_cell_volume   2676.79162308
_cell_formula_units_Z   4
loop_
 _symmetry_equiv_pos_site_id
 _symmetry_equiv_pos_as_xyz
  1  'x, y, z'
loop_
 _atom_site_type_symbol
 _atom_site_label
 _atom_site_symmetry_multiplicity
 _atom_site_fract_x
 _atom_site_fract_y
 _atom_site_fract_z
 _atom_site_occupancy
  Rb  Rb0  1  0.26249800  0.00336300  0.63443000  1
  Rb  Rb1  1  0.73750200  0.00336300  0.13443000  1
  Rb  Rb2  1  0.78678600  0.41837900  0.68053400  1
  Rb  Rb3  1  0.21321400  0.41837900  0.18053400  1
  Rb  Rb4  1  0.72414200  0.68596700  0.79646400  1
  Rb  Rb5  1  0.27585800  0.68596700  0.29646400  1
  Rb  Rb6  1  0.77155900  0.07050100  0.34916300  1
  Rb  Rb7  1  0.22844100  0.07050100  0.84916300  1
  Rb  Rb8  1  0.76002900  0.76101800  0.00709400  1
  Rb  Rb9  1  0.23997100  0.76101800  0.50709400  1
  Rb  Rb10  1  0.72375900  0.33950700  0.46517700  1
  Rb  Rb11  1  0.27624100  0.33950700  0.96517700  1
  Sb  Sb12  1  0.75552900  0.20903300  0.90987500  1
  Sb  Sb13  1  0.24447100  0.20903300  0.40987500  1
  Sb  Sb14  1  0.74307800  0.69857300  0.41362400  1
  Sb  Sb15  1  0.25692200  0.69857300  0.91362400  1
  Sb  Sb16  1  0.26011600  0.55324300  0.72993700  1
  Sb  Sb17  1  0.73988400  0.55324300  0.22993700  1
  Sb  Sb18  1  0.75328500  0.05310000  0.73028000  1
  Sb  Sb19  1  0.24671500  0.05310000  0.23028000  1
  I  I20  1  0.56856000  0.43249500  0.81572400  1
  I  I21  1  0.43144000  0.43249500  0.31572400  1
  I  I22  1  0.94854500  0.85619100  0.85126500  1
  I  I23  1  0.05145500  0.85619100  0.35126500  1
  I  I24  1  0.55112500  0.22379200  0.63240200  1
  I  I25  1  0.44887500  0.22379200  0.13240200  1
  I  I26  1  0.96207300  0.18666600  0.18277700  1
  I  I27  1  0.03792700  0.18666600  0.68277700  1
  I  I28  1  0.82091400  0.28697200  0.98832200  1
  I  I29  1  0.17908600  0.28697200  0.48832200  1
  I  I30  1  0.54373100  0.56671500  0.95813100  1
  I  I31  1  0.45626900  0.56671500  0.45813100  1
  I  I32  1  0.33302300  0.47799700  0.65094300  1
  I  I33  1  0.66697700  0.47799700  0.15094300  1
  I  I34  1  0.94515400  0.01304800  0.99048200  1
  I  I35  1  0.05484600  0.01304800  0.49048200  1
  I  I36  1  0.67098800  0.13562200  0.81760600  1
  I  I37  1  0.32901200  0.13562200  0.31760600  1
  I  I38  1  0.83237400  0.61949100  0.32517300  1
  I  I39  1  0.16762600  0.61949100  0.82517300  1
  I  I40  1  0.45354300  0.74811000  0.65382000  1
  I  I41  1  0.54645700  0.74811000  0.15382000  1
  I  I42  1  0.68758300  0.78290000  0.48992900  1
  I  I43  1  0.31241700  0.78290000  0.98992900  1
  I  I44  1  0.44374800  0.89976300  0.79347800  1
  I  I45  1  0.55625200  0.89976300  0.29347800  1
  I  I46  1  0.46658500  0.09822800  0.98026200  1
  I  I47  1  0.53341500  0.09822800  0.48026200  1
  I  I48  1  0.97643100  0.66730400  0.65649100  1
  I  I49  1  0.02356900  0.66730400  0.15649100  1
  I  I50  1  0.93147300  0.32813100  0.32422300  1
  I  I51  1  0.06852700  0.32813100  0.82422300  1
  I  I52  1  0.80954100  0.96589500  0.65540600  1
  I  I53  1  0.19045900  0.96589500  0.15540600  1
  I  I54  1  0.93754400  0.52309600  0.51258800  1
  I  I55  1  0.06245600  0.52309600  0.01258800  1
