# generated using pymatgen
data_Tm4Zn5Ge6
_symmetry_space_group_name_H-M   'P 1'
_cell_length_a   9.45387183
_cell_length_b   9.45387183
_cell_length_c   15.20613900
_cell_angle_alpha   90.00000000
_cell_angle_beta   90.00000000
_cell_angle_gamma   154.15289390
_symmetry_Int_Tables_number   1
_chemical_formula_structural   Tm4Zn5Ge6
_chemical_formula_sum   'Tm8 Zn10 Ge12'
_cell_volume   592.51061097
_cell_formula_units_Z   2
loop_
 _symmetry_equiv_pos_site_id
 _symmetry_equiv_pos_as_xyz
  1  'x, y, z'
loop_
 _atom_site_type_symbol
 _atom_site_label
 _atom_site_symmetry_multiplicity
 _atom_site_fract_x
 _atom_site_fract_y
 _atom_site_fract_z
 _atom_site_occupancy
  Tm  Tm0  1  0.03247400  0.96752600  0.73642800  1
  Tm  Tm1  1  0.96752600  0.03247400  0.23642800  1
  Tm  Tm2  1  0.83305800  0.16694200  0.69678900  1
  Tm  Tm3  1  0.16694200  0.83305800  0.19678900  1
  Tm  Tm4  1  0.17484400  0.82515600  0.55600700  1
  Tm  Tm5  1  0.82515600  0.17484400  0.05600700  1
  Tm  Tm6  1  0.98138500  0.01861500  0.50116200  1
  Tm  Tm7  1  0.01861500  0.98138500  0.00116200  1
  Zn  Zn8  1  0.56561800  0.43438200  0.31375700  1
  Zn  Zn9  1  0.43438200  0.56561800  0.81375700  1
  Zn  Zn10  1  0.84906600  0.15093400  0.37314900  1
  Zn  Zn11  1  0.15093400  0.84906600  0.87314900  1
  Zn  Zn12  1  0.34910200  0.65089800  0.51899700  1
  Zn  Zn13  1  0.65089800  0.34910200  0.01899700  1
  Zn  Zn14  1  0.69896000  0.30104000  0.37609200  1
  Zn  Zn15  1  0.30104000  0.69896000  0.87609200  1
  Zn  Zn16  1  0.65536600  0.34463400  0.72599700  1
  Zn  Zn17  1  0.34463400  0.65536600  0.22599700  1
  Ge  Ge18  1  0.22881200  0.77118800  0.73401500  1
  Ge  Ge19  1  0.56936500  0.43063500  0.59108600  1
  Ge  Ge20  1  0.22377600  0.77622400  0.01508400  1
  Ge  Ge21  1  0.77622400  0.22377600  0.51508400  1
  Ge  Ge22  1  0.56025900  0.43974100  0.14553100  1
  Ge  Ge23  1  0.43974100  0.56025900  0.64553100  1
  Ge  Ge24  1  0.56591800  0.43408200  0.87098600  1
  Ge  Ge25  1  0.43408200  0.56591800  0.37098600  1
  Ge  Ge26  1  0.88841100  0.11158900  0.88357900  1
  Ge  Ge27  1  0.11158900  0.88841100  0.38357900  1
  Ge  Ge28  1  0.43063500  0.56936500  0.09108600  1
  Ge  Ge29  1  0.77118800  0.22881200  0.23401500  1
