# generated using pymatgen
data_Mg149Ta
_symmetry_space_group_name_H-M   'P 1'
_cell_length_a   15.94086851
_cell_length_b   15.94087491
_cell_length_c   15.62378517
_cell_angle_alpha   90.00000000
_cell_angle_beta   90.00000000
_cell_angle_gamma   120.00001110
_symmetry_Int_Tables_number   1
_chemical_formula_structural   Mg149Ta
_chemical_formula_sum   'Mg149 Ta1'
_cell_volume   3438.27789505
_cell_formula_units_Z   1
loop_
 _symmetry_equiv_pos_site_id
 _symmetry_equiv_pos_as_xyz
  1  'x, y, z'
loop_
 _atom_site_type_symbol
 _atom_site_label
 _atom_site_symmetry_multiplicity
 _atom_site_fract_x
 _atom_site_fract_y
 _atom_site_fract_z
 _atom_site_occupancy
  Mg  Mg0  1  0.80552759  -0.00004748  -0.00000000  1
  Mg  Mg1  1  0.19442493  -0.00004748  -0.00000000  1
  Mg  Mg2  1  0.39797447  0.00036546  -0.00000000  1
  Mg  Mg3  1  0.60239199  0.00036646  -0.00000000  1
  Mg  Mg4  1  0.00004748  0.19447241  -0.00000000  1
  Mg  Mg5  1  0.19442493  0.19447241  -0.00000000  1
  Mg  Mg6  1  0.59976371  0.19952842  -0.00000000  1
  Mg  Mg7  1  0.79995248  0.20004752  -0.00000000  1
  Mg  Mg8  1  0.40009504  0.20004752  -0.00000000  1
  Mg  Mg9  1  0.99963454  0.39760801  -0.00000000  1
  Mg  Mg10  1  0.39797447  0.39760901  -0.00000000  1
  Mg  Mg11  1  0.19965333  0.39930666  -0.00000000  1
  Mg  Mg12  1  0.59976371  0.40023529  -0.00000000  1
  Mg  Mg13  1  0.80047158  0.40023529  -0.00000000  1
  Mg  Mg14  1  0.40011186  0.59988714  -0.00000000  1
  Mg  Mg15  1  0.19977528  0.59988814  -0.00000000  1
  Mg  Mg16  1  0.79995248  0.59990496  -0.00000000  1
  Mg  Mg17  1  0.60239199  0.60202553  -0.00000000  1
  Mg  Mg18  1  0.99963454  0.60202553  -0.00000000  1
  Mg  Mg19  1  0.40011186  0.80022372  -0.00000000  1
  Mg  Mg20  1  0.60069334  0.80034667  -0.00000000  1
  Mg  Mg21  1  0.19965333  0.80034667  -0.00000000  1
  Mg  Mg22  1  0.80552759  0.80557507  -0.00000000  1
  Mg  Mg23  1  0.00004748  0.80557507  -0.00000000  1
  Mg  Mg24  1  0.06493697  0.12987493  0.16079063  1
  Mg  Mg25  1  0.06493697  0.93506303  0.16079063  1
  Mg  Mg26  1  0.87012607  0.93506303  0.16079063  1
  Mg  Mg27  1  0.26728404  0.13364252  0.16573059  1
  Mg  Mg28  1  0.86635748  0.13364252  0.16573059  1
  Mg  Mg29  1  0.86635748  0.73271496  0.16573059  1
  Mg  Mg30  1  0.06672001  0.53336001  0.16629090  1
  Mg  Mg31  1  0.46663999  0.53336001  0.16629090  1
  Mg  Mg32  1  0.46663999  0.93327999  0.16629090  1
  Mg  Mg33  1  0.06716894  0.33319772  0.16627609  1
  Mg  Mg34  1  0.26603077  0.33319872  0.16627609  1
  Mg  Mg35  1  0.06716894  0.73397023  0.16627609  1
  Mg  Mg36  1  0.66680228  0.73397023  0.16627609  1
  Mg  Mg37  1  0.66680228  0.93283206  0.16627609  1
  Mg  Mg38  1  0.26603077  0.93283206  0.16627609  1
  Mg  Mg39  1  0.66666700  0.33333300  0.16613851  1
  Mg  Mg40  1  0.66686522  0.13336959  0.16664827  1
  Mg  Mg41  1  0.46650537  0.13336959  0.16664827  1
  Mg  Mg42  1  0.46650537  0.33313478  0.16664827  1
  Mg  Mg43  1  0.86663041  0.33313578  0.16664827  1
  Mg  Mg44  1  0.86663041  0.53349463  0.16664827  1
  Mg  Mg45  1  0.66686522  0.53349463  0.16664827  1
  Mg  Mg46  1  0.26678948  0.53357896  0.16653742  1
  Mg  Mg47  1  0.46642104  0.73321052  0.16653742  1
  Mg  Mg48  1  0.26678948  0.73321052  0.16653742  1
  Mg  Mg49  1  0.00030847  0.19946910  0.33148890  1
  Mg  Mg50  1  0.19916063  0.19947010  0.33148890  1
  Mg  Mg51  1  0.00030847  0.80083937  0.33148890  1
  Mg  Mg52  1  0.80053090  0.80083937  0.33148890  1
  Mg  Mg53  1  0.80053090  0.99969053  0.33148890  1
  Mg  Mg54  1  0.19916063  0.99969053  0.33148890  1
  Mg  Mg55  1  0.39959726  0.99991941  0.33286514  1
  Mg  Mg56  1  0.60032215  0.99991941  0.33286514  1
  Mg  Mg57  1  0.00008059  0.39967785  0.33286514  1
  Mg  Mg58  1  0.39959726  0.39967785  0.33286514  1
  Mg  Mg59  1  0.00008059  0.60040274  0.33286514  1
  Mg  Mg60  1  0.60032215  0.60040274  0.33286514  1
  Mg  Mg61  1  0.59983928  0.19967956  0.33301002  1
  Mg  Mg62  1  0.80032044  0.40016072  0.33301002  1
  Mg  Mg63  1  0.59983928  0.40016072  0.33301002  1
  Mg  Mg64  1  -0.00000000  0.00000000  0.33385766  1
  Mg  Mg65  1  0.39986654  0.19993277  0.33344625  1
  Mg  Mg66  1  0.80006723  0.19993277  0.33344625  1
  Mg  Mg67  1  0.80006723  0.60013346  0.33344625  1
  Mg  Mg68  1  0.20013161  0.40026322  0.33357477  1
  Mg  Mg69  1  0.59973678  0.79986839  0.33357477  1
  Mg  Mg70  1  0.20013161  0.79986839  0.33357477  1
  Mg  Mg71  1  0.19986985  0.59993542  0.33323132  1
  Mg  Mg72  1  0.40006558  0.59993542  0.33323132  1
  Mg  Mg73  1  0.40006558  0.80013015  0.33323132  1
  Mg  Mg74  1  0.26612031  0.13306066  0.50000000  1
  Mg  Mg75  1  0.86693934  0.13306066  0.50000000  1
  Mg  Mg76  1  0.06662809  0.13325618  0.50000000  1
  Mg  Mg77  1  0.66709118  0.13388720  0.50000000  1
  Mg  Mg78  1  0.46679602  0.13388820  0.50000000  1
  Mg  Mg79  1  0.26640712  0.33267156  0.50000000  1
  Mg  Mg80  1  0.06626345  0.33267156  0.50000000  1
  Mg  Mg81  1  0.86611180  0.33290782  0.50000000  1
  Mg  Mg82  1  0.46679602  0.33290882  0.50000000  1
  Mg  Mg83  1  0.66666700  0.33333300  0.50000000  1
  Mg  Mg84  1  0.26635769  0.53271538  0.50000000  1
  Mg  Mg85  1  0.46736869  0.53263131  0.50000000  1
  Mg  Mg86  1  0.06526261  0.53263131  0.50000000  1
  Mg  Mg87  1  0.66709118  0.53320398  0.50000000  1
  Mg  Mg88  1  0.86611180  0.53320398  0.50000000  1
  Mg  Mg89  1  0.06626345  0.73359188  0.50000000  1
  Mg  Mg90  1  0.66732944  0.73359288  0.50000000  1
  Mg  Mg91  1  0.26635769  0.73364131  0.50000000  1
  Mg  Mg92  1  0.46728462  0.73364231  0.50000000  1
  Mg  Mg93  1  0.86693934  0.73387869  0.50000000  1
  Mg  Mg94  1  0.86674382  0.93337191  0.50000000  1
  Mg  Mg95  1  0.06662809  0.93337191  0.50000000  1
  Mg  Mg96  1  0.26640712  0.93373655  0.50000000  1
  Mg  Mg97  1  0.66732944  0.93373655  0.50000000  1
  Mg  Mg98  1  0.46736869  0.93473739  0.50000000  1
  Mg  Mg99  1  0.19986985  0.59993542  0.66676868  1
  Mg  Mg100  1  0.40006558  0.59993542  0.66676868  1
  Mg  Mg101  1  0.40006558  0.80013015  0.66676868  1
  Mg  Mg102  1  0.20013161  0.40026322  0.66642523  1
  Mg  Mg103  1  0.59973678  0.79986839  0.66642523  1
  Mg  Mg104  1  0.20013161  0.79986839  0.66642523  1
  Mg  Mg105  1  0.39986654  0.19993277  0.66655375  1
  Mg  Mg106  1  0.80006723  0.19993277  0.66655375  1
  Mg  Mg107  1  0.80006723  0.60013346  0.66655375  1
  Mg  Mg108  1  -0.00000000  0.00000000  0.66614234  1
  Mg  Mg109  1  0.59983928  0.19967956  0.66699098  1
  Mg  Mg110  1  0.80032044  0.40016072  0.66699098  1
  Mg  Mg111  1  0.59983928  0.40016072  0.66699098  1
  Mg  Mg112  1  0.39959726  0.99991941  0.66713386  1
  Mg  Mg113  1  0.60032215  0.99991941  0.66713386  1
  Mg  Mg114  1  0.00008059  0.39967785  0.66713386  1
  Mg  Mg115  1  0.39959726  0.39967785  0.66713386  1
  Mg  Mg116  1  0.00008059  0.60040274  0.66713386  1
  Mg  Mg117  1  0.60032215  0.60040274  0.66713386  1
  Mg  Mg118  1  0.00030847  0.19946910  0.66851110  1
  Mg  Mg119  1  0.19916063  0.19947010  0.66851110  1
  Mg  Mg120  1  0.00030847  0.80083937  0.66851110  1
  Mg  Mg121  1  0.80053090  0.80083937  0.66851110  1
  Mg  Mg122  1  0.80053090  0.99969053  0.66851110  1
  Mg  Mg123  1  0.19916063  0.99969053  0.66851110  1
  Mg  Mg124  1  0.26678948  0.53357896  0.83346258  1
  Mg  Mg125  1  0.46642104  0.73321052  0.83346258  1
  Mg  Mg126  1  0.26678948  0.73321052  0.83346258  1
  Mg  Mg127  1  0.66686522  0.13336959  0.83335173  1
  Mg  Mg128  1  0.46650537  0.13336959  0.83335173  1
  Mg  Mg129  1  0.46650537  0.33313478  0.83335173  1
  Mg  Mg130  1  0.86663041  0.33313578  0.83335173  1
  Mg  Mg131  1  0.86663041  0.53349463  0.83335173  1
  Mg  Mg132  1  0.66686522  0.53349463  0.83335173  1
  Mg  Mg133  1  0.66666700  0.33333300  0.83386249  1
  Mg  Mg134  1  0.06716894  0.33319772  0.83372391  1
  Mg  Mg135  1  0.26603077  0.33319872  0.83372391  1
  Mg  Mg136  1  0.06716894  0.73397023  0.83372391  1
  Mg  Mg137  1  0.66680228  0.73397023  0.83372391  1
  Mg  Mg138  1  0.66680228  0.93283206  0.83372391  1
  Mg  Mg139  1  0.26603077  0.93283206  0.83372391  1
  Mg  Mg140  1  0.06672001  0.53336001  0.83370910  1
  Mg  Mg141  1  0.46663999  0.53336001  0.83370910  1
  Mg  Mg142  1  0.46663999  0.93327999  0.83370910  1
  Mg  Mg143  1  0.26728404  0.13364252  0.83426941  1
  Mg  Mg144  1  0.86635748  0.13364252  0.83426941  1
  Mg  Mg145  1  0.86635748  0.73271496  0.83426941  1
  Mg  Mg146  1  0.06493697  0.12987493  0.83920937  1
  Mg  Mg147  1  0.06493697  0.93506303  0.83920937  1
  Mg  Mg148  1  0.87012607  0.93506303  0.83920937  1
  Ta  Ta149  1  -0.00000000  0.00000000  -0.00000000  1
