# generated using pymatgen
data_Ca2Zn3Si3PbO12
_symmetry_space_group_name_H-M   'P 1'
_cell_length_a   8.38052800
_cell_length_b   8.90914100
_cell_length_c   17.83909233
_cell_angle_alpha   60.08998802
_cell_angle_beta   90.00000000
_cell_angle_gamma   90.00000000
_symmetry_Int_Tables_number   1
_chemical_formula_structural   Ca2Zn3Si3PbO12
_chemical_formula_sum   'Ca8 Zn12 Si12 Pb4 O48'
_cell_volume   1154.52593693
_cell_formula_units_Z   4
loop_
 _symmetry_equiv_pos_site_id
 _symmetry_equiv_pos_as_xyz
  1  'x, y, z'
loop_
 _atom_site_type_symbol
 _atom_site_label
 _atom_site_symmetry_multiplicity
 _atom_site_fract_x
 _atom_site_fract_y
 _atom_site_fract_z
 _atom_site_occupancy
  Ca  Ca0  1  0.96090000  0.33590800  0.42573500  1
  Ca  Ca1  1  0.53910000  0.33590800  0.92573500  1
  Ca  Ca2  1  0.03910000  0.66409200  0.57426500  1
  Ca  Ca3  1  0.46090000  0.66409200  0.07426500  1
  Ca  Ca4  1  0.53805000  0.32788100  0.41153200  1
  Ca  Ca5  1  0.96195000  0.32788100  0.91153200  1
  Ca  Ca6  1  0.46195000  0.67211900  0.58846800  1
  Ca  Ca7  1  0.03805000  0.67211900  0.08846800  1
  Zn  Zn8  1  0.83534900  0.66729000  0.25642000  1
  Zn  Zn9  1  0.66465100  0.66729000  0.75642000  1
  Zn  Zn10  1  0.16465100  0.33271000  0.74358000  1
  Zn  Zn11  1  0.33534900  0.33271000  0.24358000  1
  Zn  Zn12  1  0.83892800  0.01587800  0.40975100  1
  Zn  Zn13  1  0.66107200  0.01587800  0.90975100  1
  Zn  Zn14  1  0.16107200  0.98412200  0.59024900  1
  Zn  Zn15  1  0.33892800  0.98412200  0.09024900  1
  Zn  Zn16  1  0.83952500  0.32385500  0.08379700  1
  Zn  Zn17  1  0.66047500  0.32385500  0.58379700  1
  Zn  Zn18  1  0.16047500  0.67614500  0.91620300  1
  Zn  Zn19  1  0.33952500  0.67614500  0.41620300  1
  Si  Si20  1  0.72828300  0.35437100  0.23471000  1
  Si  Si21  1  0.77171700  0.35437100  0.73471000  1
  Si  Si22  1  0.27171700  0.64562900  0.76529000  1
  Si  Si23  1  0.22828300  0.64562900  0.26529000  1
  Si  Si24  1  0.72941900  0.97276600  0.08783300  1
  Si  Si25  1  0.77058100  0.97276600  0.58783300  1
  Si  Si26  1  0.27058100  0.02723400  0.91216700  1
  Si  Si27  1  0.22941900  0.02723400  0.41216700  1
  Si  Si28  1  0.72566600  0.67913900  0.42551500  1
  Si  Si29  1  0.77433400  0.67913900  0.92551500  1
  Si  Si30  1  0.27433400  0.32086100  0.57448500  1
  Si  Si31  1  0.22566600  0.32086100  0.07448500  1
  Pb  Pb32  1  0.55337200  0.00512000  0.24916200  1
  Pb  Pb33  1  0.94662800  0.00512000  0.74916200  1
  Pb  Pb34  1  0.44662800  0.99488000  0.75083800  1
  Pb  Pb35  1  0.05337200  0.99488000  0.25083800  1
  O  O36  1  0.72989500  0.77179000  0.31838300  1
  O  O37  1  0.77010500  0.77179000  0.81838300  1
  O  O38  1  0.27010500  0.22821000  0.68161700  1
  O  O39  1  0.22989500  0.22821000  0.18161700  1
  O  O40  1  0.23711300  0.86043800  0.20524400  1
  O  O41  1  0.26288700  0.86043800  0.70524400  1
  O  O42  1  0.76288700  0.13956200  0.79475600  1
  O  O43  1  0.73711300  0.13956200  0.29475600  1
  O  O44  1  0.73049900  0.09606400  0.13366000  1
  O  O45  1  0.76950100  0.09606400  0.63366000  1
  O  O46  1  0.26950100  0.90393600  0.86634000  1
  O  O47  1  0.23049900  0.90393600  0.36634000  1
  O  O48  1  0.75012400  0.42913300  0.30231400  1
  O  O49  1  0.74987600  0.42913300  0.80231400  1
  O  O50  1  0.24987600  0.57086700  0.69768600  1
  O  O51  1  0.25012400  0.57086700  0.19768600  1
  O  O52  1  0.74185400  0.10472700  0.48304700  1
  O  O53  1  0.75814600  0.10472700  0.98304700  1
  O  O54  1  0.25814600  0.89527300  0.51695300  1
  O  O55  1  0.24185400  0.89527300  0.01695300  1
  O  O56  1  0.75453400  0.46932000  0.46518200  1
  O  O57  1  0.74546600  0.46932000  0.96518200  1
  O  O58  1  0.24546600  0.53068000  0.53481800  1
  O  O59  1  0.25453400  0.53068000  0.03481800  1
  O  O60  1  0.86762900  0.82147200  0.13178500  1
  O  O61  1  0.63237100  0.82147200  0.63178500  1
  O  O62  1  0.13237100  0.17852800  0.86821500  1
  O  O63  1  0.36762900  0.17852800  0.36821500  1
  O  O64  1  0.86369200  0.76456200  0.45868900  1
  O  O65  1  0.63630800  0.76456200  0.95868900  1
  O  O66  1  0.13630800  0.23543800  0.54131100  1
  O  O67  1  0.36369200  0.23543800  0.04131100  1
  O  O68  1  0.86482100  0.42782000  0.15798300  1
  O  O69  1  0.63517900  0.42782000  0.65798300  1
  O  O70  1  0.13517900  0.57218000  0.84201700  1
  O  O71  1  0.36482100  0.57218000  0.34201700  1
  O  O72  1  0.05179800  0.59825700  0.31242700  1
  O  O73  1  0.44820200  0.59825700  0.81242700  1
  O  O74  1  0.94820200  0.40174300  0.68757300  1
  O  O75  1  0.55179800  0.40174300  0.18757300  1
  O  O76  1  0.05467300  0.12387800  0.39390800  1
  O  O77  1  0.44532700  0.12387800  0.89390800  1
  O  O78  1  0.94532700  0.87612200  0.60609200  1
  O  O79  1  0.55467300  0.87612200  0.10609200  1
  O  O80  1  0.05072200  0.28065600  0.04643700  1
  O  O81  1  0.44927800  0.28065600  0.54643700  1
  O  O82  1  0.94927800  0.71934400  0.95356300  1
  O  O83  1  0.55072200  0.71934400  0.45356300  1
