# generated using pymatgen
data_KMgP2H5O9
_symmetry_space_group_name_H-M   'P 1'
_cell_length_a   6.67929900
_cell_length_b   7.79860900
_cell_length_c   15.68835900
_cell_angle_alpha   90.00000000
_cell_angle_beta   90.00000000
_cell_angle_gamma   90.00000000
_symmetry_Int_Tables_number   1
_chemical_formula_structural   KMgP2H5O9
_chemical_formula_sum   'K4 Mg4 P8 H20 O36'
_cell_volume   817.19471748
_cell_formula_units_Z   4
loop_
 _symmetry_equiv_pos_site_id
 _symmetry_equiv_pos_as_xyz
  1  'x, y, z'
loop_
 _atom_site_type_symbol
 _atom_site_label
 _atom_site_symmetry_multiplicity
 _atom_site_fract_x
 _atom_site_fract_y
 _atom_site_fract_z
 _atom_site_occupancy
  K  K0  1  0.12491200  0.24550600  0.96453400  1
  K  K1  1  0.37508800  0.24550600  0.46453400  1
  K  K2  1  0.87508800  0.74550600  0.03546600  1
  K  K3  1  0.62491200  0.74550600  0.53546600  1
  Mg  Mg4  1  0.06357900  0.25062100  0.19715900  1
  Mg  Mg5  1  0.43642100  0.25062100  0.69715900  1
  Mg  Mg6  1  0.93642100  0.75062100  0.80284100  1
  Mg  Mg7  1  0.56357900  0.75062100  0.30284100  1
  P  P8  1  0.85953800  0.43798700  0.36237300  1
  P  P9  1  0.63195300  0.05632500  0.86473600  1
  P  P10  1  0.14046200  0.93798700  0.63762700  1
  P  P11  1  0.36804700  0.55632500  0.13526400  1
  P  P12  1  0.13195300  0.55632500  0.63526400  1
  P  P13  1  0.35953800  0.93798700  0.13762700  1
  P  P14  1  0.86804700  0.05632500  0.36473600  1
  P  P15  1  0.64046200  0.43798700  0.86237300  1
  H  H16  1  0.39524500  0.14666900  0.26887600  1
  H  H17  1  0.10533400  0.35677100  0.76768000  1
  H  H18  1  0.60475500  0.64666900  0.73112400  1
  H  H19  1  0.89466600  0.85677100  0.23232000  1
  H  H20  1  0.60533400  0.85677100  0.73232000  1
  H  H21  1  0.89524500  0.64666900  0.23112400  1
  H  H22  1  0.39466600  0.35677100  0.26768000  1
  H  H23  1  0.10475500  0.14666900  0.76887600  1
  H  H24  1  0.73009200  0.15100400  0.10909800  1
  H  H25  1  0.77199800  0.35252000  0.60638100  1
  H  H26  1  0.26990800  0.65100400  0.89090200  1
  H  H27  1  0.22800200  0.85252000  0.39361900  1
  H  H28  1  0.27199800  0.85252000  0.89361900  1
  H  H29  1  0.23009200  0.65100400  0.39090200  1
  H  H30  1  0.72800200  0.35252000  0.10638100  1
  H  H31  1  0.76990800  0.15100400  0.60909800  1
  H  H32  1  0.00444800  0.49644700  0.48897000  1
  H  H33  1  0.99555200  0.99644700  0.51103000  1
  H  H34  1  0.50444800  0.99644700  0.01103000  1
  H  H35  1  0.49555200  0.49644700  0.98897000  1
  O  O36  1  0.93347700  0.43768000  0.27136300  1
  O  O37  1  0.56374400  0.06085600  0.77210700  1
  O  O38  1  0.06652300  0.93768000  0.72863700  1
  O  O39  1  0.43625600  0.56085600  0.22789300  1
  O  O40  1  0.06374400  0.56085600  0.72789300  1
  O  O41  1  0.43347700  0.93768000  0.22863700  1
  O  O42  1  0.93625600  0.06085600  0.27210700  1
  O  O43  1  0.56652300  0.43768000  0.77136300  1
  O  O44  1  0.77854800  0.24881600  0.38766000  1
  O  O45  1  0.72145200  0.24881600  0.88766000  1
  O  O46  1  0.22145200  0.74881600  0.61234000  1
  O  O47  1  0.27854800  0.74881600  0.11234000  1
  O  O48  1  0.04534500  0.47389500  0.42286700  1
  O  O49  1  0.45457600  0.02542200  0.92636800  1
  O  O50  1  0.95465500  0.97389500  0.57713300  1
  O  O51  1  0.54542400  0.52542200  0.07363200  1
  O  O52  1  0.95457600  0.52542200  0.57363200  1
  O  O53  1  0.54534500  0.97389500  0.07713300  1
  O  O54  1  0.04542400  0.02542200  0.42636800  1
  O  O55  1  0.45465500  0.47389500  0.92286700  1
  O  O56  1  0.68690900  0.55747000  0.38269000  1
  O  O57  1  0.80950600  0.93922800  0.88230400  1
  O  O58  1  0.31309100  0.05747000  0.61731000  1
  O  O59  1  0.19049400  0.43922800  0.11769600  1
  O  O60  1  0.30950600  0.43922800  0.61769600  1
  O  O61  1  0.18690900  0.05747000  0.11731000  1
  O  O62  1  0.69049400  0.93922800  0.38230400  1
  O  O63  1  0.81309100  0.55747000  0.88269000  1
  O  O64  1  0.81855500  0.25219300  0.11025100  1
  O  O65  1  0.68144500  0.25219300  0.61025100  1
  O  O66  1  0.18144500  0.75219300  0.88974900  1
  O  O67  1  0.31855500  0.75219300  0.38974900  1
  O  O68  1  0.31712900  0.25159100  0.28238800  1
  O  O69  1  0.18287100  0.25159100  0.78238800  1
  O  O70  1  0.68287100  0.75159100  0.71761200  1
  O  O71  1  0.81712900  0.75159100  0.21761200  1
