# generated using pymatgen
data_Os3W
_symmetry_space_group_name_H-M   'P 1'
_cell_length_a   5.56702605
_cell_length_b   5.56702605
_cell_length_c   4.40716500
_cell_angle_alpha   90.00000000
_cell_angle_beta   90.00000000
_cell_angle_gamma   120.00000062
_symmetry_Int_Tables_number   1
_chemical_formula_structural   Os3W
_chemical_formula_sum   'Os6 W2'
_cell_volume   118.28684460
_cell_formula_units_Z   2
loop_
 _symmetry_equiv_pos_site_id
 _symmetry_equiv_pos_as_xyz
  1  'x, y, z'
loop_
 _atom_site_type_symbol
 _atom_site_label
 _atom_site_symmetry_multiplicity
 _atom_site_fract_x
 _atom_site_fract_y
 _atom_site_fract_z
 _atom_site_occupancy
  Os  Os0  1  0.16656300  0.33312600  0.25000000  1
  Os  Os1  1  0.66687400  0.83343700  0.25000000  1
  Os  Os2  1  0.16656300  0.83343700  0.25000000  1
  Os  Os3  1  0.83343700  0.66687400  0.75000000  1
  Os  Os4  1  0.33312600  0.16656300  0.75000000  1
  Os  Os5  1  0.83343700  0.16656300  0.75000000  1
  W  W6  1  0.33333300  0.66666700  0.75000000  1
  W  W7  1  0.66666700  0.33333300  0.25000000  1
