# generated using pymatgen
data_HfGa2
_symmetry_space_group_name_H-M   'P 1'
_cell_length_a   13.12859173
_cell_length_b   13.12859173
_cell_length_c   13.12859173
_cell_angle_alpha   162.17715733
_cell_angle_beta   162.17715733
_cell_angle_gamma   25.30907026
_symmetry_Int_Tables_number   1
_chemical_formula_structural   HfGa2
_chemical_formula_sum   'Hf4 Ga8'
_cell_volume   211.92319344
_cell_formula_units_Z   4
loop_
 _symmetry_equiv_pos_site_id
 _symmetry_equiv_pos_as_xyz
  1  'x, y, z'
loop_
 _atom_site_type_symbol
 _atom_site_label
 _atom_site_symmetry_multiplicity
 _atom_site_fract_x
 _atom_site_fract_y
 _atom_site_fract_z
 _atom_site_occupancy
  Hf  Hf0  1  0.82558500  0.32558500  0.50000000  1
  Hf  Hf1  1  0.07558500  0.07558500  0.00000000  1
  Hf  Hf2  1  0.92441500  0.92441500  0.00000000  1
  Hf  Hf3  1  0.67441500  0.17441500  0.50000000  1
  Ga  Ga4  1  0.00065200  0.50065200  0.50000000  1
  Ga  Ga5  1  0.25065200  0.25065200  0.00000000  1
  Ga  Ga6  1  0.74934800  0.74934800  0.00000000  1
  Ga  Ga7  1  0.49934800  0.99934800  0.50000000  1
  Ga  Ga8  1  0.16163100  0.66163100  0.50000000  1
  Ga  Ga9  1  0.41163100  0.41163100  0.00000000  1
  Ga  Ga10  1  0.58836900  0.58836900  0.00000000  1
  Ga  Ga11  1  0.33836900  0.83836900  0.50000000  1
