# generated using pymatgen
data_Sm2CdCu2
_symmetry_space_group_name_H-M   'P 1'
_cell_length_a   7.75053000
_cell_length_b   7.75053000
_cell_length_c   3.72485300
_cell_angle_alpha   90.00000000
_cell_angle_beta   90.00000000
_cell_angle_gamma   90.00000000
_symmetry_Int_Tables_number   1
_chemical_formula_structural   Sm2CdCu2
_chemical_formula_sum   'Sm4 Cd2 Cu4'
_cell_volume   223.75458403
_cell_formula_units_Z   2
loop_
 _symmetry_equiv_pos_site_id
 _symmetry_equiv_pos_as_xyz
  1  'x, y, z'
loop_
 _atom_site_type_symbol
 _atom_site_label
 _atom_site_symmetry_multiplicity
 _atom_site_fract_x
 _atom_site_fract_y
 _atom_site_fract_z
 _atom_site_occupancy
  Sm  Sm0  1  0.67864200  0.17864200  0.50000000  1
  Sm  Sm1  1  0.32135800  0.82135800  0.50000000  1
  Sm  Sm2  1  0.17864200  0.32135800  0.50000000  1
  Sm  Sm3  1  0.82135800  0.67864200  0.50000000  1
  Cd  Cd4  1  0.00000000  0.00000000  0.00000000  1
  Cd  Cd5  1  0.50000000  0.50000000  0.00000000  1
  Cu  Cu6  1  0.11616100  0.61616100  0.00000000  1
  Cu  Cu7  1  0.88383900  0.38383900  0.00000000  1
  Cu  Cu8  1  0.61616100  0.88383900  0.00000000  1
  Cu  Cu9  1  0.38383900  0.11616100  0.00000000  1
