# generated using pymatgen
data_BaGd2O4
_symmetry_space_group_name_H-M   'P 1'
_cell_length_a   3.53952500
_cell_length_b   10.60070100
_cell_length_c   12.35742600
_cell_angle_alpha   90.00000000
_cell_angle_beta   90.00000000
_cell_angle_gamma   90.00000000
_symmetry_Int_Tables_number   1
_chemical_formula_structural   BaGd2O4
_chemical_formula_sum   'Ba4 Gd8 O16'
_cell_volume   463.66849492
_cell_formula_units_Z   4
loop_
 _symmetry_equiv_pos_site_id
 _symmetry_equiv_pos_as_xyz
  1  'x, y, z'
loop_
 _atom_site_type_symbol
 _atom_site_label
 _atom_site_symmetry_multiplicity
 _atom_site_fract_x
 _atom_site_fract_y
 _atom_site_fract_z
 _atom_site_occupancy
  Ba  Ba0  1  0.75000000  0.25297200  0.85161500  1
  Ba  Ba1  1  0.25000000  0.74702800  0.14838500  1
  Ba  Ba2  1  0.75000000  0.75297200  0.64838500  1
  Ba  Ba3  1  0.25000000  0.24702800  0.35161500  1
  Gd  Gd4  1  0.25000000  0.57501000  0.38867100  1
  Gd  Gd5  1  0.75000000  0.42499000  0.61132900  1
  Gd  Gd6  1  0.25000000  0.07501000  0.11132900  1
  Gd  Gd7  1  0.75000000  0.92499000  0.88867100  1
  Gd  Gd8  1  0.75000000  0.92249900  0.38996700  1
  Gd  Gd9  1  0.25000000  0.07750100  0.61003300  1
  Gd  Gd10  1  0.75000000  0.42249900  0.11003300  1
  Gd  Gd11  1  0.25000000  0.57750100  0.88996700  1
  O  O12  1  0.25000000  0.57107500  0.57451600  1
  O  O13  1  0.75000000  0.42892500  0.42548400  1
  O  O14  1  0.25000000  0.07107500  0.92548400  1
  O  O15  1  0.75000000  0.92892500  0.07451600  1
  O  O16  1  0.25000000  0.48169700  0.21714300  1
  O  O17  1  0.75000000  0.51830300  0.78285700  1
  O  O18  1  0.25000000  0.98169700  0.28285700  1
  O  O19  1  0.75000000  0.01830300  0.71714300  1
  O  O20  1  0.25000000  0.88287600  0.51890900  1
  O  O21  1  0.75000000  0.11712400  0.48109100  1
  O  O22  1  0.25000000  0.38287600  0.98109100  1
  O  O23  1  0.75000000  0.61712400  0.01890900  1
  O  O24  1  0.75000000  0.70974900  0.33708600  1
  O  O25  1  0.25000000  0.29025100  0.66291400  1
  O  O26  1  0.75000000  0.20974900  0.16291400  1
  O  O27  1  0.25000000  0.79025100  0.83708600  1
