# generated using pymatgen
data_Nd2Pd2Pb
_symmetry_space_group_name_H-M   'P 1'
_cell_length_a   3.70884600
_cell_length_b   8.17049200
_cell_length_c   8.17049200
_cell_angle_alpha   90.00000000
_cell_angle_beta   90.00000000
_cell_angle_gamma   90.00000000
_symmetry_Int_Tables_number   1
_chemical_formula_structural   Nd2Pd2Pb
_chemical_formula_sum   'Nd4 Pd4 Pb2'
_cell_volume   247.59120812
_cell_formula_units_Z   2
loop_
 _symmetry_equiv_pos_site_id
 _symmetry_equiv_pos_as_xyz
  1  'x, y, z'
loop_
 _atom_site_type_symbol
 _atom_site_label
 _atom_site_symmetry_multiplicity
 _atom_site_fract_x
 _atom_site_fract_y
 _atom_site_fract_z
 _atom_site_occupancy
  Nd  Nd0  1  0.50000000  0.17384300  0.67384300  1
  Nd  Nd1  1  0.50000000  0.82615700  0.32615700  1
  Nd  Nd2  1  0.50000000  0.32615700  0.17384300  1
  Nd  Nd3  1  0.50000000  0.67384300  0.82615700  1
  Pd  Pd4  1  0.00000000  0.62279600  0.12279600  1
  Pd  Pd5  1  0.00000000  0.37720400  0.87720400  1
  Pd  Pd6  1  0.00000000  0.87720400  0.62279600  1
  Pd  Pd7  1  0.00000000  0.12279600  0.37720400  1
  Pb  Pb8  1  0.00000000  0.00000000  0.00000000  1
  Pb  Pb9  1  0.00000000  0.50000000  0.50000000  1
