# generated using pymatgen
data_Cs2U3P6(HO5)4
_symmetry_space_group_name_H-M   'P 1'
_cell_length_a   13.24899287
_cell_length_b   13.24899287
_cell_length_c   7.74951582
_cell_angle_alpha   81.10915588
_cell_angle_beta   81.10915588
_cell_angle_gamma   24.80330477
_symmetry_Int_Tables_number   1
_chemical_formula_structural   Cs2U3P6(HO5)4
_chemical_formula_sum   'Cs2 U3 P6 H4 O20'
_cell_volume   563.46888113
_cell_formula_units_Z   1
loop_
 _symmetry_equiv_pos_site_id
 _symmetry_equiv_pos_as_xyz
  1  'x, y, z'
loop_
 _atom_site_type_symbol
 _atom_site_label
 _atom_site_symmetry_multiplicity
 _atom_site_fract_x
 _atom_site_fract_y
 _atom_site_fract_z
 _atom_site_occupancy
  Cs  Cs0  1  0.66878900  0.66878900  0.42121400  1
  Cs  Cs1  1  0.33121100  0.33121100  0.57878600  1
  U  U2  1  0.50000000  0.50000000  0.50000000  1
  U  U3  1  0.82060500  0.82060500  0.07779800  1
  U  U4  1  0.17939500  0.17939500  0.92220200  1
  P  P5  1  0.74401100  0.74401100  0.81198600  1
  P  P6  1  0.25598900  0.25598900  0.18801400  1
  P  P7  1  0.41508400  0.41508400  0.94343700  1
  P  P8  1  0.58491600  0.58491600  0.05656300  1
  P  P9  1  0.93271400  0.93271400  0.31667900  1
  P  P10  1  0.06728600  0.06728600  0.68332100  1
  H  H11  1  0.44916000  0.44916000  0.06802500  1
  H  H12  1  0.55084000  0.55084000  0.93197500  1
  H  H13  1  0.96412900  0.96412900  0.15075500  1
  H  H14  1  0.03587100  0.03587100  0.84924500  1
  O  O15  1  0.45136900  0.45136900  0.76324000  1
  O  O16  1  0.54863100  0.54863100  0.23676000  1
  O  O17  1  0.82870700  0.27673900  0.58854100  1
  O  O18  1  0.27673900  0.82870700  0.58854100  1
  O  O19  1  0.17129300  0.72326100  0.41145900  1
  O  O20  1  0.72326100  0.17129300  0.41145900  1
  O  O21  1  0.72953200  0.72953200  0.01478200  1
  O  O22  1  0.27046800  0.27046800  0.98521800  1
  O  O23  1  0.15702900  0.60790200  0.96853600  1
  O  O24  1  0.60790200  0.15702900  0.96853600  1
  O  O25  1  0.84297100  0.39209800  0.03146400  1
  O  O26  1  0.39209800  0.84297100  0.03146400  1
  O  O27  1  0.05762900  0.50149100  0.26545100  1
  O  O28  1  0.50149100  0.05762900  0.26545100  1
  O  O29  1  0.94237100  0.49850900  0.73454900  1
  O  O30  1  0.49850900  0.94237100  0.73454900  1
  O  O31  1  0.80458700  0.80458700  0.77577700  1
  O  O32  1  0.19541300  0.19541300  0.22422300  1
  O  O33  1  0.87527400  0.87527400  0.29329000  1
  O  O34  1  0.12472600  0.12472600  0.70671000  1
