# generated using pymatgen
data_Sc4Co3Sb4
_symmetry_space_group_name_H-M   'P 1'
_cell_length_a   4.29400700
_cell_length_b   6.87382500
_cell_length_c   7.32170120
_cell_angle_alpha   89.59138161
_cell_angle_beta   90.00000000
_cell_angle_gamma   90.00000000
_symmetry_Int_Tables_number   1
_chemical_formula_structural   Sc4Co3Sb4
_chemical_formula_sum   'Sc4 Co3 Sb4'
_cell_volume   216.10368664
_cell_formula_units_Z   1
loop_
 _symmetry_equiv_pos_site_id
 _symmetry_equiv_pos_as_xyz
  1  'x, y, z'
loop_
 _atom_site_type_symbol
 _atom_site_label
 _atom_site_symmetry_multiplicity
 _atom_site_fract_x
 _atom_site_fract_y
 _atom_site_fract_z
 _atom_site_occupancy
  Sc  Sc0  1  0.50000000  0.49901700  0.72311600  1
  Sc  Sc1  1  0.50000000  0.99600700  0.78222400  1
  Sc  Sc2  1  0.00000000  0.50009600  0.27882300  1
  Sc  Sc3  1  0.00000000  0.01040900  0.21566500  1
  Co  Co4  1  0.50000000  0.14735000  0.43055100  1
  Co  Co5  1  0.00000000  0.34832300  0.92976200  1
  Co  Co6  1  0.00000000  0.85386100  0.56821500  1
  Sb  Sb7  1  0.50000000  0.76707900  0.39858900  1
  Sb  Sb8  1  0.50000000  0.27111600  0.09351600  1
  Sb  Sb9  1  0.00000000  0.23046800  0.59895600  1
  Sb  Sb10  1  0.00000000  0.72357400  0.91088300  1
