# generated using pymatgen
data_NaAl(PS3)2
_symmetry_space_group_name_H-M   'P 1'
_cell_length_a   11.88454953
_cell_length_b   11.27200191
_cell_length_c   6.95262479
_cell_angle_alpha   77.41396003
_cell_angle_beta   67.76913691
_cell_angle_gamma   34.81690306
_symmetry_Int_Tables_number   1
_chemical_formula_structural   NaAl(PS3)2
_chemical_formula_sum   'Na2 Al2 P4 S12'
_cell_volume   484.62291031
_cell_formula_units_Z   2
loop_
 _symmetry_equiv_pos_site_id
 _symmetry_equiv_pos_as_xyz
  1  'x, y, z'
loop_
 _atom_site_type_symbol
 _atom_site_label
 _atom_site_symmetry_multiplicity
 _atom_site_fract_x
 _atom_site_fract_y
 _atom_site_fract_z
 _atom_site_occupancy
  Na  Na0  1  0.84306600  0.84306600  0.65693400  1
  Na  Na1  1  0.59306600  0.59306600  0.40693400  1
  Al  Al2  1  0.17748400  0.17748400  0.32251600  1
  Al  Al3  1  0.92748400  0.92748400  0.07251600  1
  P  P4  1  0.96691500  0.06767700  0.65232100  1
  P  P5  1  0.06767700  0.96691500  0.31308800  1
  P  P6  1  0.93691200  0.59767900  0.18232300  1
  P  P7  1  0.59767900  0.93691200  0.28308500  1
  S  S8  1  0.08244000  0.62109800  0.94144000  1
  S  S9  1  0.62109800  0.08244000  0.35502100  1
  S  S10  1  0.89497900  0.30856000  0.62890200  1
  S  S11  1  0.30856000  0.89497900  0.16756000  1
  S  S12  1  0.20678000  0.81070800  0.75650500  1
  S  S13  1  0.81070800  0.20678000  0.22600800  1
  S  S14  1  0.02399200  0.49349500  0.43929200  1
  S  S15  1  0.49349500  0.02399200  0.04322000  1
  S  S16  1  0.16578400  0.71601000  0.27310000  1
  S  S17  1  0.71601000  0.16578400  0.84510600  1
  S  S18  1  0.40489400  0.97690000  0.53399000  1
  S  S19  1  0.97690000  0.40489400  0.08421600  1
