# generated using pymatgen
data_GdIr3
_symmetry_space_group_name_H-M   'P 1'
_cell_length_a   5.34084999
_cell_length_b   5.34082479
_cell_length_c   9.31369077
_cell_angle_alpha   73.19963732
_cell_angle_beta   73.19835572
_cell_angle_gamma   59.99009785
_symmetry_Int_Tables_number   1
_chemical_formula_structural   GdIr3
_chemical_formula_sum   'Gd3 Ir9'
_cell_volume   216.86226360
_cell_formula_units_Z   3
loop_
 _symmetry_equiv_pos_site_id
 _symmetry_equiv_pos_as_xyz
  1  'x, y, z'
loop_
 _atom_site_type_symbol
 _atom_site_label
 _atom_site_symmetry_multiplicity
 _atom_site_fract_x
 _atom_site_fract_y
 _atom_site_fract_z
 _atom_site_occupancy
  Gd  Gd0  1  0.13973300  0.13972000  0.58148600  1
  Gd  Gd1  1  0.86027800  0.86028700  0.41848200  1
  Gd  Gd2  1  0.99999300  0.00000100  0.00001400  1
  Ir  Ir3  1  0.08409400  0.57941000  0.75530400  1
  Ir  Ir4  1  0.58130800  0.58130200  0.75488400  1
  Ir  Ir5  1  0.57941200  0.08409100  0.75529700  1
  Ir  Ir6  1  0.91591000  0.42057500  0.24471400  1
  Ir  Ir7  1  0.41868500  0.41868500  0.24513800  1
  Ir  Ir8  1  0.42057500  0.91590400  0.24472600  1
  Ir  Ir9  1  0.33213400  0.33211500  0.00322600  1
  Ir  Ir10  1  0.66789300  0.66791800  0.99669300  1
  Ir  Ir11  1  0.49998400  0.49999200  0.50003600  1
