# generated using pymatgen
data_FePH12(CBr)4
_symmetry_space_group_name_H-M   'P 1'
_cell_length_a   8.36488796
_cell_length_b   8.36488796
_cell_length_c   8.36488796
_cell_angle_alpha   60.00000000
_cell_angle_beta   60.00000000
_cell_angle_gamma   60.00000000
_symmetry_Int_Tables_number   1
_chemical_formula_structural   FePH12(CBr)4
_chemical_formula_sum   'Fe1 P1 H12 C4 Br4'
_cell_volume   413.87137240
_cell_formula_units_Z   1
loop_
 _symmetry_equiv_pos_site_id
 _symmetry_equiv_pos_as_xyz
  1  'x, y, z'
loop_
 _atom_site_type_symbol
 _atom_site_label
 _atom_site_symmetry_multiplicity
 _atom_site_fract_x
 _atom_site_fract_y
 _atom_site_fract_z
 _atom_site_occupancy
  Fe  Fe0  1  0.25000000  0.25000000  0.25000000  1
  P  P1  1  0.75000000  0.75000000  0.75000000  1
  H  H2  1  0.50139100  0.71641100  0.06578700  1
  H  H3  1  0.71641100  0.50139100  0.06578700  1
  H  H4  1  0.71641100  0.71641100  0.06578700  1
  H  H5  1  0.71641100  0.06578700  0.71641100  1
  H  H6  1  0.71641100  0.06578700  0.50139100  1
  H  H7  1  0.50139100  0.06578700  0.71641100  1
  H  H8  1  0.06578700  0.71641100  0.50139100  1
  H  H9  1  0.06578700  0.71641100  0.71641100  1
  H  H10  1  0.06578700  0.50139100  0.71641100  1
  H  H11  1  0.71641100  0.50139100  0.71641100  1
  H  H12  1  0.50139100  0.71641100  0.71641100  1
  H  H13  1  0.71641100  0.71641100  0.50139100  1
  C  C14  1  0.66239000  0.66239000  0.01283000  1
  C  C15  1  0.66239000  0.01283000  0.66239000  1
  C  C16  1  0.01283000  0.66239000  0.66239000  1
  C  C17  1  0.66239000  0.66239000  0.66239000  1
  Br  Br18  1  0.13459300  0.13459300  0.59622200  1
  Br  Br19  1  0.13459300  0.59622200  0.13459300  1
  Br  Br20  1  0.59622200  0.13459300  0.13459300  1
  Br  Br21  1  0.13459300  0.13459300  0.13459300  1
