# generated using pymatgen
data_LiUI6
_symmetry_space_group_name_H-M   'P 1'
_cell_length_a   7.61748358
_cell_length_b   7.61748358
_cell_length_c   7.41638487
_cell_angle_alpha   79.24666889
_cell_angle_beta   79.24666889
_cell_angle_gamma   117.39498769
_symmetry_Int_Tables_number   1
_chemical_formula_structural   LiUI6
_chemical_formula_sum   'Li1 U1 I6'
_cell_volume   356.59529700
_cell_formula_units_Z   1
loop_
 _symmetry_equiv_pos_site_id
 _symmetry_equiv_pos_as_xyz
  1  'x, y, z'
loop_
 _atom_site_type_symbol
 _atom_site_label
 _atom_site_symmetry_multiplicity
 _atom_site_fract_x
 _atom_site_fract_y
 _atom_site_fract_z
 _atom_site_occupancy
  Li  Li0  1  0.84552500  0.15447500  0.50000000  1
  U  U1  1  0.00094300  0.99905700  0.00000000  1
  I  I2  1  0.22603200  0.23417600  0.23532900  1
  I  I3  1  0.76582400  0.77396800  0.76467100  1
  I  I4  1  0.06323400  0.38399000  0.74513500  1
  I  I5  1  0.39269900  0.07626700  0.75757900  1
  I  I6  1  0.92373300  0.60730100  0.24242100  1
  I  I7  1  0.61601000  0.93676600  0.25486500  1
