# generated using pymatgen
data_Na3Co2SbO6
_symmetry_space_group_name_H-M   'P 1'
_cell_length_a   5.42599938
_cell_length_b   5.72327175
_cell_length_c   5.41621125
_cell_angle_alpha   99.52999307
_cell_angle_beta   119.75764504
_cell_angle_gamma   99.01660804
_symmetry_Int_Tables_number   1
_chemical_formula_structural   Na3Co2SbO6
_chemical_formula_sum   'Na3 Co2 Sb1 O6'
_cell_volume   138.28299540
_cell_formula_units_Z   1
loop_
 _symmetry_equiv_pos_site_id
 _symmetry_equiv_pos_as_xyz
  1  'x, y, z'
loop_
 _atom_site_type_symbol
 _atom_site_label
 _atom_site_symmetry_multiplicity
 _atom_site_fract_x
 _atom_site_fract_y
 _atom_site_fract_z
 _atom_site_occupancy
  Na  Na0  1  0.50082600  0.50051600  0.49937000  1
  Na  Na1  1  0.82605000  0.49989900  0.17402900  1
  Na  Na2  1  0.17309200  0.49952700  0.82683500  1
  Co  Co3  1  0.66508100  0.00016000  0.33312900  1
  Co  Co4  1  0.33383700  0.99994400  0.66643600  1
  Sb  Sb5  1  0.99949000  0.99991800  0.99926000  1
  O  O6  1  0.75523800  0.20407200  0.75372200  1
  O  O7  1  0.24775800  0.79749400  0.24738000  1
  O  O8  1  0.93053000  0.79339400  0.61507000  1
  O  O9  1  0.38325500  0.20473800  0.06781400  1
  O  O10  1  0.61692300  0.79470400  0.93212500  1
  O  O11  1  0.06792000  0.20563500  0.38483100  1
