# generated using pymatgen
data_DyCu2
_symmetry_space_group_name_H-M   'P 1'
_cell_length_a   5.41209110
_cell_length_b   5.41209110
_cell_length_c   5.41209110
_cell_angle_alpha   133.08027204
_cell_angle_beta   102.23009470
_cell_angle_gamma   96.03520485
_symmetry_Int_Tables_number   1
_chemical_formula_structural   DyCu2
_chemical_formula_sum   'Dy2 Cu4'
_cell_volume   106.00100887
_cell_formula_units_Z   2
loop_
 _symmetry_equiv_pos_site_id
 _symmetry_equiv_pos_as_xyz
  1  'x, y, z'
loop_
 _atom_site_type_symbol
 _atom_site_label
 _atom_site_symmetry_multiplicity
 _atom_site_fract_x
 _atom_site_fract_y
 _atom_site_fract_z
 _atom_site_occupancy
  Dy  Dy0  1  0.20848900  0.45848900  0.75000000  1
  Dy  Dy1  1  0.79151100  0.54151100  0.25000000  1
  Cu  Cu2  1  0.38446300  0.83458100  0.54988200  1
  Cu  Cu3  1  0.61553700  0.16541900  0.45011800  1
  Cu  Cu4  1  0.21530100  0.16541900  0.04988200  1
  Cu  Cu5  1  0.78469900  0.83458100  0.95011800  1
