# generated using pymatgen
data_Cs3Cr2Cl9
_symmetry_space_group_name_H-M   'P 1'
_cell_length_a   7.44357385
_cell_length_b   7.44357385
_cell_length_c   18.47537200
_cell_angle_alpha   90.00000000
_cell_angle_beta   90.00000000
_cell_angle_gamma   119.99999862
_symmetry_Int_Tables_number   1
_chemical_formula_structural   Cs3Cr2Cl9
_chemical_formula_sum   'Cs6 Cr4 Cl18'
_cell_volume   886.51651755
_cell_formula_units_Z   2
loop_
 _symmetry_equiv_pos_site_id
 _symmetry_equiv_pos_as_xyz
  1  'x, y, z'
loop_
 _atom_site_type_symbol
 _atom_site_label
 _atom_site_symmetry_multiplicity
 _atom_site_fract_x
 _atom_site_fract_y
 _atom_site_fract_z
 _atom_site_occupancy
  Cs  Cs0  1  0.00000000  0.00000000  0.25000000  1
  Cs  Cs1  1  0.00000000  0.00000000  0.75000000  1
  Cs  Cs2  1  0.33333300  0.66666700  0.42715800  1
  Cs  Cs3  1  0.66666700  0.33333300  0.57284200  1
  Cs  Cs4  1  0.66666700  0.33333300  0.92715800  1
  Cs  Cs5  1  0.33333300  0.66666700  0.07284200  1
  Cr  Cr6  1  0.33333300  0.66666700  0.66301700  1
  Cr  Cr7  1  0.66666700  0.33333300  0.33698300  1
  Cr  Cr8  1  0.66666700  0.33333300  0.16301700  1
  Cr  Cr9  1  0.33333300  0.66666700  0.83698300  1
  Cl  Cl10  1  0.52307200  0.47692800  0.25000000  1
  Cl  Cl11  1  0.52307200  0.04614400  0.25000000  1
  Cl  Cl12  1  0.95385600  0.47692800  0.25000000  1
  Cl  Cl13  1  0.47692800  0.52307200  0.75000000  1
  Cl  Cl14  1  0.47692800  0.95385600  0.75000000  1
  Cl  Cl15  1  0.04614400  0.52307200  0.75000000  1
  Cl  Cl16  1  0.81641600  0.18358400  0.40357600  1
  Cl  Cl17  1  0.81641600  0.63283100  0.40357600  1
  Cl  Cl18  1  0.36716900  0.18358400  0.40357600  1
  Cl  Cl19  1  0.18358400  0.81641600  0.59642400  1
  Cl  Cl20  1  0.18358400  0.36716900  0.59642400  1
  Cl  Cl21  1  0.63283100  0.81641600  0.59642400  1
  Cl  Cl22  1  0.18358400  0.81641600  0.90357600  1
  Cl  Cl23  1  0.18358400  0.36716900  0.90357600  1
  Cl  Cl24  1  0.63283100  0.81641600  0.90357600  1
  Cl  Cl25  1  0.81641600  0.18358400  0.09642400  1
  Cl  Cl26  1  0.81641600  0.63283100  0.09642400  1
  Cl  Cl27  1  0.36716900  0.18358400  0.09642400  1
