# generated using pymatgen
data_CsAlSiO4
_symmetry_space_group_name_H-M   'P 1'
_cell_length_a   5.49050900
_cell_length_b   9.12985200
_cell_length_c   9.54457300
_cell_angle_alpha   90.00000000
_cell_angle_beta   90.00000000
_cell_angle_gamma   90.00000000
_symmetry_Int_Tables_number   1
_chemical_formula_structural   CsAlSiO4
_chemical_formula_sum   'Cs4 Al4 Si4 O16'
_cell_volume   478.44591306
_cell_formula_units_Z   4
loop_
 _symmetry_equiv_pos_site_id
 _symmetry_equiv_pos_as_xyz
  1  'x, y, z'
loop_
 _atom_site_type_symbol
 _atom_site_label
 _atom_site_symmetry_multiplicity
 _atom_site_fract_x
 _atom_site_fract_y
 _atom_site_fract_z
 _atom_site_occupancy
  Cs  Cs0  1  0.49429400  0.99863300  0.30393300  1
  Cs  Cs1  1  0.99429400  0.00136700  0.69606700  1
  Cs  Cs2  1  0.99429400  0.50136700  0.80393300  1
  Cs  Cs3  1  0.49429400  0.49863300  0.19606700  1
  Al  Al4  1  0.99908900  0.82241900  0.09232400  1
  Al  Al5  1  0.49908900  0.17758100  0.90767600  1
  Al  Al6  1  0.49908900  0.67758100  0.59232400  1
  Al  Al7  1  0.99908900  0.32241900  0.40767600  1
  Si  Si8  1  0.99966400  0.69068700  0.42108900  1
  Si  Si9  1  0.49966400  0.30931300  0.57891100  1
  Si  Si10  1  0.49966400  0.80931300  0.92108900  1
  Si  Si11  1  0.99966400  0.19068700  0.07891100  1
  O  O12  1  0.99895500  0.51322200  0.40571500  1
  O  O13  1  0.49895500  0.48677800  0.59428500  1
  O  O14  1  0.49895500  0.98677800  0.90571500  1
  O  O15  1  0.99895500  0.01322200  0.09428500  1
  O  O16  1  0.74705100  0.74757100  0.49552900  1
  O  O17  1  0.24705100  0.25242900  0.50447100  1
  O  O18  1  0.24705100  0.75242900  0.99552900  1
  O  O19  1  0.74705100  0.24757100  0.00447100  1
  O  O20  1  0.22878300  0.74718400  0.51804500  1
  O  O21  1  0.72878300  0.25281600  0.48195500  1
  O  O22  1  0.72878300  0.75281600  0.01804500  1
  O  O23  1  0.22878300  0.24718400  0.98195500  1
  O  O24  1  0.02516400  0.76461800  0.26645700  1
  O  O25  1  0.52516400  0.23538200  0.73354300  1
  O  O26  1  0.52516400  0.73538200  0.76645700  1
  O  O27  1  0.02516400  0.26461800  0.23354300  1
