# generated using pymatgen
data_BaV2(CoO4)2
_symmetry_space_group_name_H-M   'P 1'
_cell_length_a   9.91269432
_cell_length_b   9.91269432
_cell_length_c   9.91269432
_cell_angle_alpha   100.61980302
_cell_angle_beta   100.61980302
_cell_angle_gamma   129.15480738
_symmetry_Int_Tables_number   1
_chemical_formula_structural   BaV2(CoO4)2
_chemical_formula_sum   'Ba4 V8 Co8 O32'
_cell_volume   682.16981672
_cell_formula_units_Z   4
loop_
 _symmetry_equiv_pos_site_id
 _symmetry_equiv_pos_as_xyz
  1  'x, y, z'
loop_
 _atom_site_type_symbol
 _atom_site_label
 _atom_site_symmetry_multiplicity
 _atom_site_fract_x
 _atom_site_fract_y
 _atom_site_fract_z
 _atom_site_occupancy
  Ba  Ba0  1  0.00000000  0.00000000  0.00000000  1
  Ba  Ba1  1  0.25000000  0.75000000  0.50000000  1
  Ba  Ba2  1  0.50000000  0.50000000  0.00000000  1
  Ba  Ba3  1  0.75000000  0.25000000  0.50000000  1
  V  V4  1  0.37500000  0.20433800  0.32933800  1
  V  V5  1  0.95433800  0.62500000  0.82933800  1
  V  V6  1  0.87500000  0.54566200  0.17066200  1
  V  V7  1  0.37500000  0.70433800  0.82933800  1
  V  V8  1  0.79566200  0.12500000  0.17066200  1
  V  V9  1  0.29566200  0.12500000  0.67066200  1
  V  V10  1  0.87500000  0.04566200  0.67066200  1
  V  V11  1  0.45433800  0.62500000  0.32933800  1
  Co  Co12  1  0.41848800  0.08151200  0.00000000  1
  Co  Co13  1  0.58151200  0.58151200  0.66302400  1
  Co  Co14  1  0.66848800  0.16848800  0.83697600  1
  Co  Co15  1  0.91848800  0.91848800  0.33697600  1
  Co  Co16  1  0.83151200  0.66848800  0.50000000  1
  Co  Co17  1  0.08151200  0.41848800  0.00000000  1
  Co  Co18  1  0.33151200  0.83151200  0.16302400  1
  Co  Co19  1  0.16848800  0.33151200  0.50000000  1
  O  O20  1  0.78194200  0.94085100  0.16507700  1
  O  O21  1  0.77577400  0.61686600  0.83492300  1
  O  O22  1  0.19085100  0.52577400  0.65890900  1
  O  O23  1  0.86686600  0.53194200  0.34109100  1
  O  O24  1  0.96805800  0.63313400  0.65890900  1
  O  O25  1  0.88313400  0.72422600  0.16507700  1
  O  O26  1  0.55914900  0.71805800  0.83492300  1
  O  O27  1  0.97422600  0.30914900  0.34109100  1
  O  O28  1  0.46805800  0.80914900  0.33492300  1
  O  O29  1  0.47422600  0.13313400  0.66507700  1
  O  O30  1  0.05914900  0.22422600  0.84109100  1
  O  O31  1  0.38313400  0.21805800  0.15890900  1
  O  O32  1  0.28194200  0.11686600  0.84109100  1
  O  O33  1  0.36686600  0.02577400  0.33492300  1
  O  O34  1  0.69085100  0.03194200  0.66507700  1
  O  O35  1  0.27577400  0.44085100  0.15890900  1
  O  O36  1  0.08263200  0.91756500  0.51921900  1
  O  O37  1  0.39834500  0.56341200  0.48078100  1
  O  O38  1  0.16756500  0.14834500  0.33493300  1
  O  O39  1  0.81341200  0.83263200  0.66506700  1
  O  O40  1  0.89834500  0.41756500  0.83493300  1
  O  O41  1  0.66756500  0.33263200  0.01921900  1
  O  O42  1  0.31341200  0.64834500  0.98078100  1
  O  O43  1  0.58263200  0.06341200  0.16506700  1
  O  O44  1  0.43658800  0.91736800  0.83493300  1
  O  O45  1  0.08243500  0.60165500  0.16506700  1
  O  O46  1  0.85165500  0.18658800  0.01921900  1
  O  O47  1  0.16736800  0.83243500  0.98078100  1
  O  O48  1  0.35165500  0.33243500  0.66506700  1
  O  O49  1  0.58243500  0.41736800  0.48078100  1
  O  O50  1  0.93658800  0.10165500  0.51921900  1
  O  O51  1  0.66736800  0.68658800  0.33493300  1
