# generated using pymatgen
data_CsYbI3
_symmetry_space_group_name_H-M   'P 1'
_cell_length_a   8.57107400
_cell_length_b   8.78458900
_cell_length_c   12.39946600
_cell_angle_alpha   90.00000000
_cell_angle_beta   90.00000000
_cell_angle_gamma   90.00000000
_symmetry_Int_Tables_number   1
_chemical_formula_structural   CsYbI3
_chemical_formula_sum   'Cs4 Yb4 I12'
_cell_volume   933.59748684
_cell_formula_units_Z   4
loop_
 _symmetry_equiv_pos_site_id
 _symmetry_equiv_pos_as_xyz
  1  'x, y, z'
loop_
 _atom_site_type_symbol
 _atom_site_label
 _atom_site_symmetry_multiplicity
 _atom_site_fract_x
 _atom_site_fract_y
 _atom_site_fract_z
 _atom_site_occupancy
  Cs  Cs0  1  0.47967800  0.95011300  0.25000000  1
  Cs  Cs1  1  0.97967800  0.54988700  0.75000000  1
  Cs  Cs2  1  0.02032200  0.45011300  0.25000000  1
  Cs  Cs3  1  0.52032200  0.04988700  0.75000000  1
  Yb  Yb4  1  0.00000000  0.00000000  0.00000000  1
  Yb  Yb5  1  0.50000000  0.50000000  0.00000000  1
  Yb  Yb6  1  0.50000000  0.50000000  0.50000000  1
  Yb  Yb7  1  0.00000000  0.00000000  0.50000000  1
  I  I8  1  0.55564000  0.50274200  0.25000000  1
  I  I9  1  0.05564000  0.99725800  0.75000000  1
  I  I10  1  0.94436000  0.00274200  0.25000000  1
  I  I11  1  0.44436000  0.49725800  0.75000000  1
  I  I12  1  0.29474100  0.20713000  0.02749200  1
  I  I13  1  0.79474100  0.29287000  0.97250800  1
  I  I14  1  0.20525900  0.70713000  0.47250800  1
  I  I15  1  0.70525900  0.79287000  0.52749200  1
  I  I16  1  0.70525900  0.79287000  0.97250800  1
  I  I17  1  0.20525900  0.70713000  0.02749200  1
  I  I18  1  0.79474100  0.29287000  0.52749200  1
  I  I19  1  0.29474100  0.20713000  0.47250800  1
