# generated using pymatgen
data_EuSi2Pt
_symmetry_space_group_name_H-M   'P 1'
_cell_length_a   8.78642771
_cell_length_b   8.78642771
_cell_length_c   4.18221900
_cell_angle_alpha   90.00000000
_cell_angle_beta   90.00000000
_cell_angle_gamma   151.23447848
_symmetry_Int_Tables_number   1
_chemical_formula_structural   EuSi2Pt
_chemical_formula_sum   'Eu2 Si4 Pt2'
_cell_volume   155.37486633
_cell_formula_units_Z   2
loop_
 _symmetry_equiv_pos_site_id
 _symmetry_equiv_pos_as_xyz
  1  'x, y, z'
loop_
 _atom_site_type_symbol
 _atom_site_label
 _atom_site_symmetry_multiplicity
 _atom_site_fract_x
 _atom_site_fract_y
 _atom_site_fract_z
 _atom_site_occupancy
  Eu  Eu0  1  0.60546900  0.39453100  0.25000000  1
  Eu  Eu1  1  0.39453100  0.60546900  0.75000000  1
  Si  Si2  1  0.25210600  0.74789400  0.25000000  1
  Si  Si3  1  0.74789400  0.25210600  0.75000000  1
  Si  Si4  1  0.96272000  0.03728000  0.25000000  1
  Si  Si5  1  0.03728000  0.96272000  0.75000000  1
  Pt  Pt6  1  0.82085300  0.17914700  0.25000000  1
  Pt  Pt7  1  0.17914700  0.82085300  0.75000000  1
