# generated using pymatgen
data_Na5SrNbP4
_symmetry_space_group_name_H-M   'P 1'
_cell_length_a   9.35374803
_cell_length_b   9.35374803
_cell_length_c   7.36444714
_cell_angle_alpha   89.96964409
_cell_angle_beta   89.96964409
_cell_angle_gamma   120.06330804
_symmetry_Int_Tables_number   1
_chemical_formula_structural   Na5SrNbP4
_chemical_formula_sum   'Na10 Sr2 Nb2 P8'
_cell_volume   557.65354330
_cell_formula_units_Z   2
loop_
 _symmetry_equiv_pos_site_id
 _symmetry_equiv_pos_as_xyz
  1  'x, y, z'
loop_
 _atom_site_type_symbol
 _atom_site_label
 _atom_site_symmetry_multiplicity
 _atom_site_fract_x
 _atom_site_fract_y
 _atom_site_fract_z
 _atom_site_occupancy
  Na  Na0  1  0.53401400  0.47211700  0.61332700  1
  Na  Na1  1  0.93762700  0.47103000  0.61329500  1
  Na  Na2  1  0.47211700  0.53401400  0.11332700  1
  Na  Na3  1  0.47103000  0.93762700  0.11329500  1
  Na  Na4  1  0.13829800  0.85325400  0.78410800  1
  Na  Na5  1  0.71155900  0.84928300  0.79008300  1
  Na  Na6  1  0.14667500  0.28924900  0.77994700  1
  Na  Na7  1  0.85325400  0.13829800  0.28410800  1
  Na  Na8  1  0.28924900  0.14667500  0.27994700  1
  Na  Na9  1  0.84928300  0.71155900  0.29008300  1
  Sr  Sr10  1  0.53258700  0.06240500  0.60897800  1
  Sr  Sr11  1  0.06240500  0.53258700  0.10897800  1
  Nb  Nb12  1  0.33292400  0.66240200  0.50092100  1
  Nb  Nb13  1  0.66240200  0.33292400  0.00092100  1
  P  P14  1  0.80829500  0.19415600  0.89680900  1
  P  P15  1  0.38355400  0.19061200  0.89377200  1
  P  P16  1  0.81041100  0.61564600  0.90107900  1
  P  P17  1  0.19415600  0.80829500  0.39680900  1
  P  P18  1  0.61564600  0.81041100  0.40107900  1
  P  P19  1  0.19061200  0.38355400  0.39377200  1
  P  P20  1  0.33384000  0.67006100  0.82788000  1
  P  P21  1  0.67006100  0.33384000  0.32788000  1
