# generated using pymatgen
data_LaGa4Fe9C
_symmetry_space_group_name_H-M   'P 1'
_cell_length_a   8.27611906
_cell_length_b   8.27611906
_cell_length_c   8.27611906
_cell_angle_alpha   119.42706307
_cell_angle_beta   119.42706307
_cell_angle_gamma   90.99525393
_symmetry_Int_Tables_number   1
_chemical_formula_structural   LaGa4Fe9C
_chemical_formula_sum   'La2 Ga8 Fe18 C2'
_cell_volume   404.23977412
_cell_formula_units_Z   2
loop_
 _symmetry_equiv_pos_site_id
 _symmetry_equiv_pos_as_xyz
  1  'x, y, z'
loop_
 _atom_site_type_symbol
 _atom_site_label
 _atom_site_symmetry_multiplicity
 _atom_site_fract_x
 _atom_site_fract_y
 _atom_site_fract_z
 _atom_site_occupancy
  La  La0  1  0.75000000  0.75000000  0.00000000  1
  La  La1  1  0.25000000  0.25000000  0.00000000  1
  Ga  Ga2  1  0.30547000  0.80547000  0.86625700  1
  Ga  Ga3  1  0.69453000  0.19453000  0.13374300  1
  Ga  Ga4  1  0.93921200  0.43921200  0.13374300  1
  Ga  Ga5  1  0.80547000  0.93921200  0.50000000  1
  Ga  Ga6  1  0.56078800  0.69453000  0.50000000  1
  Ga  Ga7  1  0.06078800  0.56078800  0.86625700  1
  Ga  Ga8  1  0.19453000  0.06078800  0.50000000  1
  Ga  Ga9  1  0.43921200  0.30547000  0.50000000  1
  Fe  Fe10  1  0.71187900  0.56481400  0.27669400  1
  Fe  Fe11  1  0.28812100  0.43518600  0.72330600  1
  Fe  Fe12  1  0.56481400  0.28812100  0.85293500  1
  Fe  Fe13  1  0.21187900  0.93518600  0.14706500  1
  Fe  Fe14  1  0.43518600  0.71187900  0.14706500  1
  Fe  Fe15  1  0.78812100  0.06481400  0.85293500  1
  Fe  Fe16  1  0.06481400  0.21187900  0.27669400  1
  Fe  Fe17  1  0.93518600  0.78812100  0.72330600  1
  Fe  Fe18  1  0.78251800  0.28251800  0.71655600  1
  Fe  Fe19  1  0.21748200  0.71748200  0.28344400  1
  Fe  Fe20  1  0.56596100  0.06596100  0.28344400  1
  Fe  Fe21  1  0.28251800  0.56596100  0.50000000  1
  Fe  Fe22  1  0.93403900  0.21748200  0.50000000  1
  Fe  Fe23  1  0.43403900  0.93403900  0.71655600  1
  Fe  Fe24  1  0.71748200  0.43403900  0.50000000  1
  Fe  Fe25  1  0.06596100  0.78251800  0.50000000  1
  Fe  Fe26  1  0.00000000  0.50000000  0.50000000  1
  Fe  Fe27  1  0.50000000  0.00000000  0.50000000  1
  C  C28  1  0.50000000  0.50000000  0.00000000  1
  C  C29  1  0.00000000  0.00000000  0.00000000  1
