# generated using pymatgen
data_W2N3
_symmetry_space_group_name_H-M   'P 1'
_cell_length_a   5.01437591
_cell_length_b   5.01437591
_cell_length_c   5.38021089
_cell_angle_alpha   80.88419557
_cell_angle_beta   80.88419557
_cell_angle_gamma   119.71887366
_symmetry_Int_Tables_number   1
_chemical_formula_structural   W2N3
_chemical_formula_sum   'W4 N6'
_cell_volume   111.48487983
_cell_formula_units_Z   2
loop_
 _symmetry_equiv_pos_site_id
 _symmetry_equiv_pos_as_xyz
  1  'x, y, z'
loop_
 _atom_site_type_symbol
 _atom_site_label
 _atom_site_symmetry_multiplicity
 _atom_site_fract_x
 _atom_site_fract_y
 _atom_site_fract_z
 _atom_site_occupancy
  W  W0  1  0.33104900  0.99392000  0.00837400  1
  W  W1  1  0.67705200  0.67705200  0.98427900  1
  W  W2  1  0.99392000  0.33104900  0.00837400  1
  W  W3  1  0.49116500  0.49116500  0.52302300  1
  N  N4  1  0.09250700  0.09250700  0.74983700  1
  N  N5  1  0.41231300  0.74621800  0.74761100  1
  N  N6  1  0.74621800  0.41231300  0.74761100  1
  N  N7  1  0.26428000  0.58037000  0.25048100  1
  N  N8  1  0.90378900  0.90378900  0.25192900  1
  N  N9  1  0.58037000  0.26428000  0.25048100  1
