# generated using pymatgen
data_Eu3(AlP2)2
_symmetry_space_group_name_H-M   'P 1'
_cell_length_a   8.23255810
_cell_length_b   8.23255810
_cell_length_c   6.57787093
_cell_angle_alpha   89.74331736
_cell_angle_beta   89.74331736
_cell_angle_gamma   75.74014959
_symmetry_Int_Tables_number   1
_chemical_formula_structural   Eu3(AlP2)2
_chemical_formula_sum   'Eu6 Al4 P8'
_cell_volume   432.07212528
_cell_formula_units_Z   2
loop_
 _symmetry_equiv_pos_site_id
 _symmetry_equiv_pos_as_xyz
  1  'x, y, z'
loop_
 _atom_site_type_symbol
 _atom_site_label
 _atom_site_symmetry_multiplicity
 _atom_site_fract_x
 _atom_site_fract_y
 _atom_site_fract_z
 _atom_site_occupancy
  Eu  Eu0  1  0.00839900  0.74950200  0.53944100  1
  Eu  Eu1  1  0.25049800  0.99160100  0.96055900  1
  Eu  Eu2  1  0.99160100  0.25049800  0.46055900  1
  Eu  Eu3  1  0.74950200  0.00839900  0.03944100  1
  Eu  Eu4  1  0.40130600  0.59869400  0.25000000  1
  Eu  Eu5  1  0.59869400  0.40130600  0.75000000  1
  Al  Al6  1  0.82828500  0.58072000  0.08149300  1
  Al  Al7  1  0.41928000  0.17171500  0.41850700  1
  Al  Al8  1  0.17171500  0.41928000  0.91850700  1
  Al  Al9  1  0.58072000  0.82828500  0.58149300  1
  P  P10  1  0.05995600  0.70996600  0.02552500  1
  P  P11  1  0.29003400  0.94004400  0.47447500  1
  P  P12  1  0.94004400  0.29003400  0.97447500  1
  P  P13  1  0.70996600  0.05995600  0.52552500  1
  P  P14  1  0.74124000  0.57571200  0.42760400  1
  P  P15  1  0.42428800  0.25876000  0.07239600  1
  P  P16  1  0.25876000  0.42428800  0.57239600  1
  P  P17  1  0.57571200  0.74124000  0.92760400  1
