# generated using pymatgen
data_RbSb3Se5
_symmetry_space_group_name_H-M   'P 1'
_cell_length_a   4.12598800
_cell_length_b   12.32992000
_cell_length_c   22.54599100
_cell_angle_alpha   90.00000000
_cell_angle_beta   90.00000000
_cell_angle_gamma   90.00000000
_symmetry_Int_Tables_number   1
_chemical_formula_structural   RbSb3Se5
_chemical_formula_sum   'Rb4 Sb12 Se20'
_cell_volume   1146.98449895
_cell_formula_units_Z   4
loop_
 _symmetry_equiv_pos_site_id
 _symmetry_equiv_pos_as_xyz
  1  'x, y, z'
loop_
 _atom_site_type_symbol
 _atom_site_label
 _atom_site_symmetry_multiplicity
 _atom_site_fract_x
 _atom_site_fract_y
 _atom_site_fract_z
 _atom_site_occupancy
  Rb  Rb0  1  0.25000000  0.65061700  0.58965900  1
  Rb  Rb1  1  0.25000000  0.84938300  0.08965900  1
  Rb  Rb2  1  0.75000000  0.34938300  0.41034100  1
  Rb  Rb3  1  0.75000000  0.15061700  0.91034100  1
  Sb  Sb4  1  0.25000000  0.94969400  0.69440500  1
  Sb  Sb5  1  0.25000000  0.55030600  0.19440500  1
  Sb  Sb6  1  0.75000000  0.05030600  0.30559500  1
  Sb  Sb7  1  0.75000000  0.44969400  0.80559500  1
  Sb  Sb8  1  0.75000000  0.80600300  0.83204000  1
  Sb  Sb9  1  0.75000000  0.69399700  0.33204000  1
  Sb  Sb10  1  0.25000000  0.19399700  0.16796000  1
  Sb  Sb11  1  0.25000000  0.30600300  0.66796000  1
  Sb  Sb12  1  0.75000000  0.10851100  0.56078200  1
  Sb  Sb13  1  0.75000000  0.39148900  0.06078200  1
  Sb  Sb14  1  0.25000000  0.89148900  0.43921800  1
  Sb  Sb15  1  0.25000000  0.60851100  0.93921800  1
  Se  Se16  1  0.75000000  0.79760300  0.69851600  1
  Se  Se17  1  0.75000000  0.70239700  0.19851600  1
  Se  Se18  1  0.25000000  0.20239700  0.30148400  1
  Se  Se19  1  0.25000000  0.29760300  0.80148400  1
  Se  Se20  1  0.75000000  0.13202300  0.68251100  1
  Se  Se21  1  0.75000000  0.36797700  0.18251100  1
  Se  Se22  1  0.25000000  0.86797700  0.31748900  1
  Se  Se23  1  0.25000000  0.63202300  0.81748900  1
  Se  Se24  1  0.25000000  0.96142400  0.82764600  1
  Se  Se25  1  0.25000000  0.53857600  0.32764600  1
  Se  Se26  1  0.75000000  0.03857600  0.17235400  1
  Se  Se27  1  0.75000000  0.46142400  0.67235400  1
  Se  Se28  1  0.75000000  0.77536800  0.95480200  1
  Se  Se29  1  0.75000000  0.72463200  0.45480200  1
  Se  Se30  1  0.25000000  0.22463200  0.04519800  1
  Se  Se31  1  0.25000000  0.27536800  0.54519800  1
  Se  Se32  1  0.25000000  0.94364800  0.57136200  1
  Se  Se33  1  0.25000000  0.55635200  0.07136200  1
  Se  Se34  1  0.75000000  0.05635200  0.42863800  1
  Se  Se35  1  0.75000000  0.44364800  0.92863800  1
