# generated using pymatgen
data_ScFe2BO5
_symmetry_space_group_name_H-M   'P 1'
_cell_length_a   3.17797800
_cell_length_b   9.65471800
_cell_length_c   12.71565100
_cell_angle_alpha   90.00000000
_cell_angle_beta   90.00000000
_cell_angle_gamma   90.00000000
_symmetry_Int_Tables_number   1
_chemical_formula_structural   ScFe2BO5
_chemical_formula_sum   'Sc4 Fe8 B4 O20'
_cell_volume   390.14772530
_cell_formula_units_Z   4
loop_
 _symmetry_equiv_pos_site_id
 _symmetry_equiv_pos_as_xyz
  1  'x, y, z'
loop_
 _atom_site_type_symbol
 _atom_site_label
 _atom_site_symmetry_multiplicity
 _atom_site_fract_x
 _atom_site_fract_y
 _atom_site_fract_z
 _atom_site_occupancy
  Sc  Sc0  1  0.00000000  0.74384000  0.38504600  1
  Sc  Sc1  1  0.00000000  0.25616000  0.61495400  1
  Sc  Sc2  1  0.00000000  0.24384000  0.11495400  1
  Sc  Sc3  1  0.00000000  0.75616000  0.88504600  1
  Fe  Fe4  1  0.50000000  0.50541000  0.21973300  1
  Fe  Fe5  1  0.50000000  0.49459000  0.78026700  1
  Fe  Fe6  1  0.50000000  0.00541000  0.28026700  1
  Fe  Fe7  1  0.50000000  0.99459000  0.71973300  1
  Fe  Fe8  1  0.50000000  0.50000000  0.50000000  1
  Fe  Fe9  1  0.50000000  0.00000000  0.00000000  1
  Fe  Fe10  1  0.00000000  0.00000000  0.50000000  1
  Fe  Fe11  1  0.00000000  0.50000000  0.00000000  1
  B  B12  1  0.00000000  0.77603100  0.13833000  1
  B  B13  1  0.00000000  0.22396900  0.86167000  1
  B  B14  1  0.00000000  0.27603100  0.36167000  1
  B  B15  1  0.00000000  0.72396900  0.63833000  1
  O  O16  1  0.00000000  0.84634900  0.04324200  1
  O  O17  1  0.00000000  0.15365100  0.95675800  1
  O  O18  1  0.00000000  0.34634900  0.45675800  1
  O  O19  1  0.00000000  0.65365100  0.54324200  1
  O  O20  1  0.50000000  0.61089600  0.35983400  1
  O  O21  1  0.50000000  0.38910400  0.64016600  1
  O  O22  1  0.50000000  0.11089600  0.14016600  1
  O  O23  1  0.50000000  0.88910400  0.85983400  1
  O  O24  1  0.00000000  0.63102800  0.14111300  1
  O  O25  1  0.00000000  0.36897200  0.85888700  1
  O  O26  1  0.00000000  0.13102800  0.35888700  1
  O  O27  1  0.00000000  0.86897200  0.64111300  1
  O  O28  1  0.50000000  0.88715800  0.42156100  1
  O  O29  1  0.50000000  0.11284200  0.57843900  1
  O  O30  1  0.50000000  0.38715800  0.07843900  1
  O  O31  1  0.50000000  0.61284200  0.92156100  1
  O  O32  1  0.00000000  0.84967700  0.23323600  1
  O  O33  1  0.00000000  0.15032300  0.76676400  1
  O  O34  1  0.00000000  0.34967700  0.26676400  1
  O  O35  1  0.00000000  0.65032300  0.73323600  1
