# generated using pymatgen
data_CsTm(NbBr3)6
_symmetry_space_group_name_H-M   'P 1'
_cell_length_a   9.89430930
_cell_length_b   9.89430930
_cell_length_c   18.47373800
_cell_angle_alpha   90.00000000
_cell_angle_beta   90.00000000
_cell_angle_gamma   119.99999529
_symmetry_Int_Tables_number   1
_chemical_formula_structural   CsTm(NbBr3)6
_chemical_formula_sum   'Cs2 Tm2 Nb12 Br36'
_cell_volume   1566.23309640
_cell_formula_units_Z   2
loop_
 _symmetry_equiv_pos_site_id
 _symmetry_equiv_pos_as_xyz
  1  'x, y, z'
loop_
 _atom_site_type_symbol
 _atom_site_label
 _atom_site_symmetry_multiplicity
 _atom_site_fract_x
 _atom_site_fract_y
 _atom_site_fract_z
 _atom_site_occupancy
  Cs  Cs0  1  0.33333300  0.66666700  0.75000000  1
  Cs  Cs1  1  0.66666700  0.33333300  0.25000000  1
  Tm  Tm2  1  0.66666700  0.33333300  0.75000000  1
  Tm  Tm3  1  0.33333300  0.66666700  0.25000000  1
  Nb  Nb4  1  0.84972800  0.03921700  0.56539100  1
  Nb  Nb5  1  0.15027200  0.96078300  0.43460900  1
  Nb  Nb6  1  0.96078300  0.81051100  0.56539100  1
  Nb  Nb7  1  0.84972800  0.81051100  0.93460900  1
  Nb  Nb8  1  0.03921700  0.18948900  0.43460900  1
  Nb  Nb9  1  0.15027200  0.18948900  0.06539100  1
  Nb  Nb10  1  0.18948900  0.15027200  0.56539100  1
  Nb  Nb11  1  0.96078300  0.15027200  0.93460900  1
  Nb  Nb12  1  0.81051100  0.84972800  0.43460900  1
  Nb  Nb13  1  0.03921700  0.84972800  0.06539100  1
  Nb  Nb14  1  0.18948900  0.03921700  0.93460900  1
  Nb  Nb15  1  0.81051100  0.96078300  0.06539100  1
  Br  Br16  1  0.63622100  0.08743600  0.66223800  1
  Br  Br17  1  0.36377900  0.91256400  0.33776200  1
  Br  Br18  1  0.91256400  0.54878500  0.66223800  1
  Br  Br19  1  0.63622100  0.54878500  0.83776200  1
  Br  Br20  1  0.08743600  0.45121500  0.33776200  1
  Br  Br21  1  0.36377900  0.45121500  0.16223800  1
  Br  Br22  1  0.45121500  0.36377900  0.66223800  1
  Br  Br23  1  0.91256400  0.36377900  0.83776200  1
  Br  Br24  1  0.54878500  0.63622100  0.33776200  1
  Br  Br25  1  0.08743600  0.63622100  0.16223800  1
  Br  Br26  1  0.45121500  0.08743600  0.83776200  1
  Br  Br27  1  0.54878500  0.91256400  0.16223800  1
  Br  Br28  1  0.04700500  0.23354000  0.66014600  1
  Br  Br29  1  0.95299500  0.76646000  0.33985400  1
  Br  Br30  1  0.76646000  0.81346500  0.66014600  1
  Br  Br31  1  0.04700500  0.81346500  0.83985400  1
  Br  Br32  1  0.23354000  0.18653500  0.33985400  1
  Br  Br33  1  0.95299500  0.18653500  0.16014600  1
  Br  Br34  1  0.18653500  0.95299500  0.66014600  1
  Br  Br35  1  0.76646000  0.95299500  0.83985400  1
  Br  Br36  1  0.81346500  0.04700500  0.33985400  1
  Br  Br37  1  0.23354000  0.04700500  0.16014600  1
  Br  Br38  1  0.18653500  0.23354000  0.83985400  1
  Br  Br39  1  0.81346500  0.76646000  0.16014600  1
  Br  Br40  1  0.27795300  0.41804900  0.50125000  1
  Br  Br41  1  0.72204700  0.58195100  0.49875000  1
  Br  Br42  1  0.58195100  0.85990400  0.50125000  1
  Br  Br43  1  0.27795300  0.85990400  0.99875000  1
  Br  Br44  1  0.41804900  0.14009600  0.49875000  1
  Br  Br45  1  0.72204700  0.14009600  0.00125000  1
  Br  Br46  1  0.14009600  0.72204700  0.50125000  1
  Br  Br47  1  0.58195100  0.72204700  0.99875000  1
  Br  Br48  1  0.85990400  0.27795300  0.49875000  1
  Br  Br49  1  0.41804900  0.27795300  0.00125000  1
  Br  Br50  1  0.14009600  0.41804900  0.99875000  1
  Br  Br51  1  0.85990400  0.58195100  0.00125000  1
