# generated using pymatgen
data_ZrGeMo
_symmetry_space_group_name_H-M   'P 1'
_cell_length_a   3.59590700
_cell_length_b   7.07210200
_cell_length_c   8.35923800
_cell_angle_alpha   90.00000000
_cell_angle_beta   90.00000000
_cell_angle_gamma   90.00000000
_symmetry_Int_Tables_number   1
_chemical_formula_structural   ZrGeMo
_chemical_formula_sum   'Zr4 Ge4 Mo4'
_cell_volume   212.58061415
_cell_formula_units_Z   4
loop_
 _symmetry_equiv_pos_site_id
 _symmetry_equiv_pos_as_xyz
  1  'x, y, z'
loop_
 _atom_site_type_symbol
 _atom_site_label
 _atom_site_symmetry_multiplicity
 _atom_site_fract_x
 _atom_site_fract_y
 _atom_site_fract_z
 _atom_site_occupancy
  Zr  Zr0  1  0.25000000  0.54655700  0.83225500  1
  Zr  Zr1  1  0.25000000  0.04655700  0.66774500  1
  Zr  Zr2  1  0.75000000  0.45344300  0.16774500  1
  Zr  Zr3  1  0.75000000  0.95344300  0.33225500  1
  Ge  Ge4  1  0.25000000  0.75244700  0.13954400  1
  Ge  Ge5  1  0.25000000  0.25244700  0.36045600  1
  Ge  Ge6  1  0.75000000  0.24755300  0.86045600  1
  Ge  Ge7  1  0.75000000  0.74755300  0.63954400  1
  Mo  Mo8  1  0.25000000  0.62807300  0.43996500  1
  Mo  Mo9  1  0.25000000  0.12807300  0.06003500  1
  Mo  Mo10  1  0.75000000  0.37192700  0.56003500  1
  Mo  Mo11  1  0.75000000  0.87192700  0.93996500  1
