# generated using pymatgen
data_Er2WO6
_symmetry_space_group_name_H-M   'P 1'
_cell_length_a   5.35860600
_cell_length_b   7.66299200
_cell_length_c   11.40306617
_cell_angle_alpha   75.33718845
_cell_angle_beta   90.00000000
_cell_angle_gamma   90.00000000
_symmetry_Int_Tables_number   1
_chemical_formula_structural   Er2WO6
_chemical_formula_sum   'Er8 W4 O24'
_cell_volume   452.99395329
_cell_formula_units_Z   4
loop_
 _symmetry_equiv_pos_site_id
 _symmetry_equiv_pos_as_xyz
  1  'x, y, z'
loop_
 _atom_site_type_symbol
 _atom_site_label
 _atom_site_symmetry_multiplicity
 _atom_site_fract_x
 _atom_site_fract_y
 _atom_site_fract_z
 _atom_site_occupancy
  Er  Er0  1  0.18352300  0.20575800  0.42174300  1
  Er  Er1  1  0.18352300  0.79424200  0.07825700  1
  Er  Er2  1  0.81647700  0.79424200  0.57825700  1
  Er  Er3  1  0.81647700  0.20575800  0.92174300  1
  Er  Er4  1  0.68415000  0.50000000  0.25000000  1
  Er  Er5  1  0.31585000  0.50000000  0.75000000  1
  Er  Er6  1  0.74017600  0.00000000  0.25000000  1
  Er  Er7  1  0.25982400  0.00000000  0.75000000  1
  W  W8  1  0.25606400  0.27655700  0.11479600  1
  W  W9  1  0.25606400  0.72344300  0.38520400  1
  W  W10  1  0.74393600  0.72344300  0.88520400  1
  W  W11  1  0.74393600  0.27655700  0.61479600  1
  O  O12  1  0.45909000  0.20836300  0.27376000  1
  O  O13  1  0.45909000  0.79163700  0.22624000  1
  O  O14  1  0.54091000  0.79163700  0.72624000  1
  O  O15  1  0.54091000  0.20836300  0.77376000  1
  O  O16  1  0.04350100  0.05952300  0.10460900  1
  O  O17  1  0.04350100  0.94047700  0.39539100  1
  O  O18  1  0.95649900  0.94047700  0.89539100  1
  O  O19  1  0.95649900  0.05952300  0.60460900  1
  O  O20  1  0.97909100  0.28974500  0.22894000  1
  O  O21  1  0.97909100  0.71025500  0.27106000  1
  O  O22  1  0.02090900  0.71025500  0.77106000  1
  O  O23  1  0.02090900  0.28974500  0.72894000  1
  O  O24  1  0.84871900  0.36601800  0.45078800  1
  O  O25  1  0.84871900  0.63398200  0.04921200  1
  O  O26  1  0.15128100  0.63398200  0.54921200  1
  O  O27  1  0.15128100  0.36601800  0.95078800  1
  O  O28  1  0.63799900  0.51113100  0.61490500  1
  O  O29  1  0.63799900  0.48886900  0.88509500  1
  O  O30  1  0.36200100  0.48886900  0.38509500  1
  O  O31  1  0.36200100  0.51113100  0.11490500  1
  O  O32  1  0.46376600  0.15279100  0.56940900  1
  O  O33  1  0.46376600  0.84720900  0.93059100  1
  O  O34  1  0.53623400  0.84720900  0.43059100  1
  O  O35  1  0.53623400  0.15279100  0.06940900  1
