# generated using pymatgen
data_Sr4Al6WO16
_symmetry_space_group_name_H-M   'P 1'
_cell_length_a   16.51293323
_cell_length_b   16.51293323
_cell_length_c   16.51293323
_cell_angle_alpha   109.85880443
_cell_angle_beta   109.27777704
_cell_angle_gamma   109.27777704
_symmetry_Int_Tables_number   1
_chemical_formula_structural   Sr4Al6WO16
_chemical_formula_sum   'Sr32 Al48 W8 O128'
_cell_volume   3466.05832415
_cell_formula_units_Z   8
loop_
 _symmetry_equiv_pos_site_id
 _symmetry_equiv_pos_as_xyz
  1  'x, y, z'
loop_
 _atom_site_type_symbol
 _atom_site_label
 _atom_site_symmetry_multiplicity
 _atom_site_fract_x
 _atom_site_fract_y
 _atom_site_fract_z
 _atom_site_occupancy
  Sr  Sr0  1  0.50580938  0.75290469  0.50290469  1
  Sr  Sr1  1  0.75000000  0.49709531  0.00290469  1
  Sr  Sr2  1  0.00580938  0.00290469  0.25290469  1
  Sr  Sr3  1  0.25000000  0.74709531  0.75290469  1
  Sr  Sr4  1  0.49419062  0.24709531  0.49709531  1
  Sr  Sr5  1  0.25000000  0.50290469  0.99709531  1
  Sr  Sr6  1  0.99419062  0.99709531  0.74709531  1
  Sr  Sr7  1  0.75000000  0.25290469  0.24709531  1
  Sr  Sr8  1  0.00933064  0.50466532  0.25466532  1
  Sr  Sr9  1  0.75000000  0.74533468  0.75466532  1
  Sr  Sr10  1  0.50933064  0.75466532  0.00466532  1
  Sr  Sr11  1  0.25000000  0.99533468  0.50466532  1
  Sr  Sr12  1  0.99066936  0.49533468  0.74533468  1
  Sr  Sr13  1  0.25000000  0.25466532  0.24533468  1
  Sr  Sr14  1  0.49066936  0.24533468  0.99533468  1
  Sr  Sr15  1  0.75000000  0.00466532  0.49533468  1
  Sr  Sr16  1  0.24493664  0.73809888  0.24043335  1
  Sr  Sr17  1  0.50233447  0.49549671  0.74043335  1
  Sr  Sr18  1  0.74493664  0.74043335  0.23809888  1
  Sr  Sr19  1  0.49766553  0.99316224  0.73809888  1
  Sr  Sr20  1  0.75506336  0.26190112  0.75956665  1
  Sr  Sr21  1  0.49766553  0.50450329  0.25956665  1
  Sr  Sr22  1  0.25506336  0.25956665  0.76190112  1
  Sr  Sr23  1  0.50233447  0.00683776  0.26190112  1
  Sr  Sr24  1  0.99766553  0.23809888  0.49316224  1
  Sr  Sr25  1  0.25506336  0.99549671  0.99316224  1
  Sr  Sr26  1  0.00233447  0.24043335  0.99549671  1
  Sr  Sr27  1  0.75506336  0.49316224  0.49549671  1
  Sr  Sr28  1  0.00233447  0.76190112  0.50683776  1
  Sr  Sr29  1  0.74493664  0.00450329  0.00683776  1
  Sr  Sr30  1  0.99766553  0.75956665  0.00450329  1
  Sr  Sr31  1  0.24493664  0.50683776  0.50450329  1
  Al  Al32  1  0.87870825  0.50772336  0.87912965  1
  Al  Al33  1  0.37140629  0.50042140  0.37912965  1
  Al  Al34  1  0.37870825  0.37912965  0.00772336  1
  Al  Al35  1  0.62859371  0.12901511  0.50772336  1
  Al  Al36  1  0.12129175  0.49227664  0.12087035  1
  Al  Al37  1  0.62859371  0.49957860  0.62087035  1
  Al  Al38  1  0.62129175  0.62087035  0.99227664  1
  Al  Al39  1  0.37140629  0.87098489  0.49227664  1
  Al  Al40  1  0.12859371  0.00772336  0.62901511  1
  Al  Al41  1  0.62129175  0.00042140  0.12901511  1
  Al  Al42  1  0.87140629  0.87912965  0.00042140  1
  Al  Al43  1  0.12129175  0.62901511  0.50042140  1
  Al  Al44  1  0.87140629  0.99227664  0.37098489  1
  Al  Al45  1  0.37870825  0.99957860  0.87098489  1
  Al  Al46  1  0.12859371  0.12087035  0.99957860  1
  Al  Al47  1  0.87870825  0.37098489  0.49957860  1
  Al  Al48  1  0.87907148  0.37520864  0.00234968  1
  Al  Al49  1  0.62714104  0.62327820  0.50234968  1
  Al  Al50  1  0.37907148  0.50234968  0.87520864  1
  Al  Al51  1  0.37285896  0.99613716  0.37520864  1
  Al  Al52  1  0.12092852  0.62479136  0.99765032  1
  Al  Al53  1  0.37285896  0.37672180  0.49765032  1
  Al  Al54  1  0.62092852  0.49765032  0.12479136  1
  Al  Al55  1  0.62714104  0.00386284  0.62479136  1
  Al  Al56  1  0.87285896  0.87520864  0.49613716  1
  Al  Al57  1  0.62092852  0.12327820  0.99613716  1
  Al  Al58  1  0.12714104  0.00234968  0.12327820  1
  Al  Al59  1  0.12092852  0.49613716  0.62327820  1
  Al  Al60  1  0.12714104  0.12479136  0.50386284  1
  Al  Al61  1  0.37907148  0.87672180  0.00386284  1
  Al  Al62  1  0.87285896  0.99765032  0.87672180  1
  Al  Al63  1  0.87907148  0.50386284  0.37672180  1
  Al  Al64  1  0.25666657  0.62833328  0.37833328  1
  Al  Al65  1  0.75000000  0.62166672  0.87833328  1
  Al  Al66  1  0.75666657  0.87833328  0.12833328  1
  Al  Al67  1  0.25000000  0.87166672  0.62833328  1
  Al  Al68  1  0.74333343  0.37166672  0.62166672  1
  Al  Al69  1  0.25000000  0.37833328  0.12166672  1
  Al  Al70  1  0.24333343  0.12166672  0.87166672  1
  Al  Al71  1  0.75000000  0.12833328  0.37166672  1
  Al  Al72  1  0.75000000  0.87500000  0.62500000  1
  Al  Al73  1  0.75000000  0.37500000  0.12500000  1
  Al  Al74  1  0.25000000  0.12500000  0.37500000  1
  Al  Al75  1  0.25000000  0.62500000  0.87500000  1
  Al  Al76  1  0.75000000  0.12500000  0.87500000  1
  Al  Al77  1  0.75000000  0.62500000  0.37500000  1
  Al  Al78  1  0.25000000  0.37500000  0.62500000  1
  Al  Al79  1  0.25000000  0.87500000  0.12500000  1
  W  W80  1  0.50171042  0.75171042  0.25000000  1
  W  W81  1  0.49828958  0.24828958  0.75000000  1
  W  W82  1  0.00171042  0.75000000  0.25171042  1
  W  W83  1  0.50171042  0.75000000  0.75171042  1
  W  W84  1  0.99828958  0.25000000  0.74828958  1
  W  W85  1  0.49828958  0.25000000  0.24828958  1
  W  W86  1  0.00171042  0.25171042  0.25000000  1
  W  W87  1  0.99828958  0.74828958  0.75000000  1
  O  O88  1  0.99996327  0.58906647  0.91375543  1
  O  O89  1  0.32468897  0.41379216  0.41375543  1
  O  O90  1  0.49996327  0.41375543  0.08906647  1
  O  O91  1  0.67531103  0.08910320  0.58906647  1
  O  O92  1  0.00003673  0.41093353  0.08624457  1
  O  O93  1  0.67531103  0.58620784  0.58624457  1
  O  O94  1  0.50003673  0.58624457  0.91093353  1
  O  O95  1  0.32468897  0.91089680  0.41093353  1
  O  O96  1  0.17531103  0.08906647  0.58910320  1
  O  O97  1  0.50003673  0.91379216  0.08910320  1
  O  O98  1  0.82468897  0.91375543  0.91379216  1
  O  O99  1  0.00003673  0.58910320  0.41379216  1
  O  O100  1  0.82468897  0.91093353  0.41089680  1
  O  O101  1  0.49996327  0.08620784  0.91089680  1
  O  O102  1  0.17531103  0.08624457  0.08620784  1
  O  O103  1  0.99996327  0.41089680  0.58620784  1
  O  O104  1  0.85810573  0.42895686  0.92831994  1
  O  O105  1  0.49936309  0.57021422  0.42831994  1
  O  O106  1  0.35810573  0.42831994  0.92895686  1
  O  O107  1  0.50063691  0.07085113  0.42895686  1
  O  O108  1  0.14189427  0.57104314  0.07168006  1
  O  O109  1  0.50063691  0.42978578  0.57168006  1
  O  O110  1  0.64189427  0.57168006  0.07104314  1
  O  O111  1  0.49936309  0.92914887  0.57104314  1
  O  O112  1  0.00063691  0.92895686  0.57085113  1
  O  O113  1  0.64189427  0.07021422  0.07085113  1
  O  O114  1  0.99936309  0.92831994  0.07021422  1
  O  O115  1  0.14189427  0.57085113  0.57021422  1
  O  O116  1  0.99936309  0.07104314  0.42914887  1
  O  O117  1  0.35810573  0.92978578  0.92914887  1
  O  O118  1  0.00063691  0.07168006  0.92978578  1
  O  O119  1  0.85810573  0.42914887  0.42978578  1
  O  O120  1  0.83757290  0.58850763  0.92748546  1
  O  O121  1  0.33897783  0.58991256  0.42748546  1
  O  O122  1  0.33757290  0.42748546  0.08850763  1
  O  O123  1  0.66102217  0.25093472  0.58850763  1
  O  O124  1  0.16242710  0.41149237  0.07251454  1
  O  O125  1  0.66102217  0.41008744  0.57251454  1
  O  O126  1  0.66242710  0.57251454  0.91149237  1
  O  O127  1  0.33897783  0.74906528  0.41149237  1
  O  O128  1  0.16102217  0.08850763  0.75093472  1
  O  O129  1  0.66242710  0.08991256  0.25093472  1
  O  O130  1  0.83897783  0.92748546  0.08991256  1
  O  O131  1  0.16242710  0.75093472  0.58991256  1
  O  O132  1  0.83897783  0.91149237  0.24906528  1
  O  O133  1  0.33757290  0.91008744  0.74906528  1
  O  O134  1  0.16102217  0.07251454  0.91008744  1
  O  O135  1  0.83757290  0.24906528  0.41008744  1
  O  O136  1  0.82968601  0.40949728  0.07902346  1
  O  O137  1  0.66952618  0.74933745  0.57902346  1
  O  O138  1  0.32968601  0.57902346  0.90949728  1
  O  O139  1  0.33047382  0.07981127  0.40949728  1
  O  O140  1  0.17031399  0.59050272  0.92097654  1
  O  O141  1  0.33047382  0.25066255  0.42097654  1
  O  O142  1  0.67031399  0.42097654  0.09050272  1
  O  O143  1  0.66952618  0.92018873  0.59050272  1
  O  O144  1  0.83047382  0.90949728  0.57981127  1
  O  O145  1  0.67031399  0.24933745  0.07981127  1
  O  O146  1  0.16952618  0.07902346  0.24933745  1
  O  O147  1  0.17031399  0.57981127  0.74933745  1
  O  O148  1  0.16952618  0.09050272  0.42018873  1
  O  O149  1  0.32968601  0.75066255  0.92018873  1
  O  O150  1  0.83047382  0.92097654  0.75066255  1
  O  O151  1  0.82968601  0.42018873  0.25066255  1
  O  O152  1  0.17042940  0.75034614  0.08314305  1
  O  O153  1  0.33279691  0.41271366  0.58314305  1
  O  O154  1  0.67042940  0.58314305  0.25034614  1
  O  O155  1  0.66720309  0.07991674  0.75034614  1
  O  O156  1  0.82957060  0.24965386  0.91685695  1
  O  O157  1  0.66720309  0.58728634  0.41685695  1
  O  O158  1  0.32957060  0.41685695  0.74965386  1
  O  O159  1  0.33279691  0.92008326  0.24965386  1
  O  O160  1  0.16720309  0.25034614  0.57991674  1
  O  O161  1  0.32957060  0.91271366  0.07991674  1
  O  O162  1  0.83279691  0.08314305  0.91271366  1
  O  O163  1  0.82957060  0.57991674  0.41271366  1
  O  O164  1  0.83279691  0.74965386  0.42008326  1
  O  O165  1  0.67042940  0.08728634  0.92008326  1
  O  O166  1  0.16720309  0.91685695  0.08728634  1
  O  O167  1  0.17042940  0.42008326  0.58728634  1
  O  O168  1  0.17875000  0.56891198  0.24992674  1
  O  O169  1  0.68101476  0.57117674  0.74992674  1
  O  O170  1  0.67875000  0.74992674  0.06891198  1
  O  O171  1  0.31898524  0.89016199  0.56891198  1
  O  O172  1  0.82125000  0.43108802  0.75007326  1
  O  O173  1  0.31898524  0.42882326  0.25007326  1
  O  O174  1  0.32125000  0.25007326  0.93108802  1
  O  O175  1  0.68101476  0.10983801  0.43108802  1
  O  O176  1  0.81898524  0.06891198  0.39016199  1
  O  O177  1  0.32125000  0.07117674  0.89016199  1
  O  O178  1  0.18101476  0.24992674  0.07117674  1
  O  O179  1  0.82125000  0.39016199  0.57117674  1
  O  O180  1  0.18101476  0.93108802  0.60983801  1
  O  O181  1  0.67875000  0.92882326  0.10983801  1
  O  O182  1  0.81898524  0.75007326  0.92882326  1
  O  O183  1  0.17875000  0.60983801  0.42882326  1
  O  O184  1  0.55811870  0.88536215  0.32829381  1
  O  O185  1  0.44293166  0.27017512  0.82829381  1
  O  O186  1  0.05811870  0.82829381  0.38536215  1
  O  O187  1  0.55706834  0.82724346  0.88536215  1
  O  O188  1  0.44188130  0.11463785  0.67170619  1
  O  O189  1  0.55706834  0.72982488  0.17170619  1
  O  O190  1  0.94188130  0.17170619  0.61463785  1
  O  O191  1  0.44293166  0.17275654  0.11463785  1
  O  O192  1  0.05706834  0.38536215  0.32724346  1
  O  O193  1  0.94188130  0.77017512  0.82724346  1
  O  O194  1  0.94293166  0.32829381  0.77017512  1
  O  O195  1  0.44188130  0.32724346  0.27017512  1
  O  O196  1  0.94293166  0.61463785  0.67275654  1
  O  O197  1  0.05811870  0.22982488  0.17275654  1
  O  O198  1  0.05706834  0.67170619  0.22982488  1
  O  O199  1  0.55811870  0.67275654  0.72982488  1
  O  O200  1  0.36879058  0.69578269  0.17223229  1
  O  O201  1  0.47644960  0.30344171  0.67223229  1
  O  O202  1  0.86879058  0.67223229  0.19578269  1
  O  O203  1  0.52355040  0.82699211  0.69578269  1
  O  O204  1  0.63120942  0.30421731  0.82776771  1
  O  O205  1  0.52355040  0.69655829  0.32776771  1
  O  O206  1  0.13120942  0.32776771  0.80421731  1
  O  O207  1  0.47644960  0.17300789  0.30421731  1
  O  O208  1  0.02355040  0.19578269  0.32699211  1
  O  O209  1  0.13120942  0.80344171  0.82699211  1
  O  O210  1  0.97644960  0.17223229  0.80344171  1
  O  O211  1  0.63120942  0.32699211  0.30344171  1
  O  O212  1  0.97644960  0.80421731  0.67300789  1
  O  O213  1  0.86879058  0.19655829  0.17300789  1
  O  O214  1  0.02355040  0.82776771  0.19655829  1
  O  O215  1  0.36879058  0.67300789  0.69655829  1
