# generated using pymatgen
data_K3Hf4Ag2F23
_symmetry_space_group_name_H-M   'P 1'
_cell_length_a   11.42632300
_cell_length_b   7.95628900
_cell_length_c   10.31568485
_cell_angle_alpha   82.65035911
_cell_angle_beta   90.00000000
_cell_angle_gamma   90.00000000
_symmetry_Int_Tables_number   1
_chemical_formula_structural   K3Hf4Ag2F23
_chemical_formula_sum   'K6 Hf8 Ag4 F46'
_cell_volume   930.10547765
_cell_formula_units_Z   2
loop_
 _symmetry_equiv_pos_site_id
 _symmetry_equiv_pos_as_xyz
  1  'x, y, z'
loop_
 _atom_site_type_symbol
 _atom_site_label
 _atom_site_symmetry_multiplicity
 _atom_site_fract_x
 _atom_site_fract_y
 _atom_site_fract_z
 _atom_site_occupancy
  K  K0  1  0.97977600  0.78914700  0.63649700  1
  K  K1  1  0.02022400  0.21085300  0.36350300  1
  K  K2  1  0.47977600  0.21085300  0.86350300  1
  K  K3  1  0.52022400  0.78914700  0.13649700  1
  K  K4  1  0.50000000  0.50000000  0.50000000  1
  K  K5  1  0.00000000  0.50000000  0.00000000  1
  Hf  Hf6  1  0.31861500  0.97330100  0.54205900  1
  Hf  Hf7  1  0.68138500  0.02669900  0.45794100  1
  Hf  Hf8  1  0.81861500  0.02669900  0.95794100  1
  Hf  Hf9  1  0.18138500  0.97330100  0.04205900  1
  Hf  Hf10  1  0.30617000  0.66790800  0.83805300  1
  Hf  Hf11  1  0.69383000  0.33209200  0.16194700  1
  Hf  Hf12  1  0.80617000  0.33209200  0.66194700  1
  Hf  Hf13  1  0.19383000  0.66790800  0.33805300  1
  Ag  Ag14  1  0.16144700  0.31846200  0.68669600  1
  Ag  Ag15  1  0.83855300  0.68153800  0.31330400  1
  Ag  Ag16  1  0.66144700  0.68153800  0.81330400  1
  Ag  Ag17  1  0.33855300  0.31846200  0.18669600  1
  F  F18  1  0.35994400  0.48239500  0.73753700  1
  F  F19  1  0.64005600  0.51760500  0.26246300  1
  F  F20  1  0.85994400  0.51760500  0.76246300  1
  F  F21  1  0.14005600  0.48239500  0.23753700  1
  F  F22  1  0.86537800  0.84952100  0.84845000  1
  F  F23  1  0.13462200  0.15047900  0.15155000  1
  F  F24  1  0.36537800  0.15047900  0.65155000  1
  F  F25  1  0.63462200  0.84952100  0.34845000  1
  F  F26  1  0.68409900  0.85698700  0.62086200  1
  F  F27  1  0.31590100  0.14301300  0.37913800  1
  F  F28  1  0.18409900  0.14301300  0.87913800  1
  F  F29  1  0.81590100  0.85698700  0.12086200  1
  F  F30  1  0.33609700  0.88912400  0.93128900  1
  F  F31  1  0.66390300  0.11087600  0.06871100  1
  F  F32  1  0.83609700  0.11087600  0.56871100  1
  F  F33  1  0.16390300  0.88912400  0.43128900  1
  F  F34  1  0.47298900  0.63940800  0.90727700  1
  F  F35  1  0.52701100  0.36059200  0.09272300  1
  F  F36  1  0.97298900  0.36059200  0.59272300  1
  F  F37  1  0.02701100  0.63940800  0.40727700  1
  F  F38  1  0.41405000  0.81145600  0.69018300  1
  F  F39  1  0.58595000  0.18854400  0.30981700  1
  F  F40  1  0.91405000  0.18854400  0.80981700  1
  F  F41  1  0.08595000  0.81145600  0.19018300  1
  F  F42  1  0.21090100  0.82177400  0.68470100  1
  F  F43  1  0.78909900  0.17822600  0.31529900  1
  F  F44  1  0.71090100  0.17822600  0.81529900  1
  F  F45  1  0.28909900  0.82177400  0.18470100  1
  F  F46  1  0.14794600  0.76435000  0.93882100  1
  F  F47  1  0.85205400  0.23565000  0.06117900  1
  F  F48  1  0.64794600  0.23565000  0.56117900  1
  F  F49  1  0.35205400  0.76435000  0.43882100  1
  F  F50  1  0.15997500  0.11640700  0.57432000  1
  F  F51  1  0.84002500  0.88359300  0.42568000  1
  F  F52  1  0.65997500  0.88359300  0.92568000  1
  F  F53  1  0.34002500  0.11640700  0.07432000  1
  F  F54  1  0.14660700  0.52691300  0.79232900  1
  F  F55  1  0.85339300  0.47308700  0.20767100  1
  F  F56  1  0.64660700  0.47308700  0.70767100  1
  F  F57  1  0.35339300  0.52691300  0.29232900  1
  F  F58  1  0.50000000  0.00000000  0.50000000  1
  F  F59  1  0.00000000  0.00000000  0.00000000  1
  F  F60  1  0.21588600  0.49910700  0.50004200  1
  F  F61  1  0.78411400  0.50089300  0.49995800  1
  F  F62  1  0.71588600  0.50089300  0.99995800  1
  F  F63  1  0.28411400  0.49910700  0.00004200  1
