# generated using pymatgen
data_MoP4
_symmetry_space_group_name_H-M   'P 1'
_cell_length_a   6.21235373
_cell_length_b   6.21235373
_cell_length_c   5.86178945
_cell_angle_alpha   81.25755365
_cell_angle_beta   81.25755365
_cell_angle_gamma   129.09180844
_symmetry_Int_Tables_number   1
_chemical_formula_structural   MoP4
_chemical_formula_sum   'Mo2 P8'
_cell_volume   164.23599549
_cell_formula_units_Z   2
loop_
 _symmetry_equiv_pos_site_id
 _symmetry_equiv_pos_as_xyz
  1  'x, y, z'
loop_
 _atom_site_type_symbol
 _atom_site_label
 _atom_site_symmetry_multiplicity
 _atom_site_fract_x
 _atom_site_fract_y
 _atom_site_fract_z
 _atom_site_occupancy
  Mo  Mo0  1  0.05909700  0.94090300  0.75000000  1
  Mo  Mo1  1  0.94090300  0.05909700  0.25000000  1
  P  P2  1  0.94490500  0.50019200  0.68924200  1
  P  P3  1  0.49980800  0.05509500  0.81075800  1
  P  P4  1  0.62651900  0.81542600  0.68330100  1
  P  P5  1  0.18457400  0.37348100  0.81669900  1
  P  P6  1  0.37348100  0.18457400  0.31669900  1
  P  P7  1  0.81542600  0.62651900  0.18330100  1
  P  P8  1  0.50019200  0.94490500  0.18924200  1
  P  P9  1  0.05509500  0.49980800  0.31075800  1
