# generated using pymatgen
data_EuGa4Au3
_symmetry_space_group_name_H-M   'P 1'
_cell_length_a   4.41092800
_cell_length_b   4.41092800
_cell_length_c   8.72048500
_cell_angle_alpha   90.00000000
_cell_angle_beta   90.00000000
_cell_angle_gamma   90.00000000
_symmetry_Int_Tables_number   1
_chemical_formula_structural   EuGa4Au3
_chemical_formula_sum   'Eu1 Ga4 Au3'
_cell_volume   169.66824866
_cell_formula_units_Z   1
loop_
 _symmetry_equiv_pos_site_id
 _symmetry_equiv_pos_as_xyz
  1  'x, y, z'
loop_
 _atom_site_type_symbol
 _atom_site_label
 _atom_site_symmetry_multiplicity
 _atom_site_fract_x
 _atom_site_fract_y
 _atom_site_fract_z
 _atom_site_occupancy
  Eu  Eu0  1  0.00000000  0.00000000  0.50000000  1
  Ga  Ga1  1  0.00000000  0.50000000  0.17536800  1
  Ga  Ga2  1  0.00000000  0.50000000  0.82463200  1
  Ga  Ga3  1  0.50000000  0.00000000  0.17536800  1
  Ga  Ga4  1  0.50000000  0.00000000  0.82463200  1
  Au  Au5  1  0.50000000  0.50000000  0.34210600  1
  Au  Au6  1  0.50000000  0.50000000  0.65789400  1
  Au  Au7  1  0.00000000  0.00000000  0.00000000  1
