# generated using pymatgen
data_RbZr6BCl15
_symmetry_space_group_name_H-M   'P 1'
_cell_length_a   9.97208000
_cell_length_b   14.27661300
_cell_length_c   18.97663800
_cell_angle_alpha   90.00000000
_cell_angle_beta   90.00000000
_cell_angle_gamma   90.00000000
_symmetry_Int_Tables_number   1
_chemical_formula_structural   RbZr6BCl15
_chemical_formula_sum   'Rb4 Zr24 B4 Cl60'
_cell_volume   2701.65702217
_cell_formula_units_Z   4
loop_
 _symmetry_equiv_pos_site_id
 _symmetry_equiv_pos_as_xyz
  1  'x, y, z'
loop_
 _atom_site_type_symbol
 _atom_site_label
 _atom_site_symmetry_multiplicity
 _atom_site_fract_x
 _atom_site_fract_y
 _atom_site_fract_z
 _atom_site_occupancy
  Rb  Rb0  1  0.83090100  0.24696900  0.75000000  1
  Rb  Rb1  1  0.16909900  0.75303100  0.25000000  1
  Rb  Rb2  1  0.83090100  0.75303100  0.75000000  1
  Rb  Rb3  1  0.16909900  0.24696900  0.25000000  1
  Zr  Zr4  1  0.11098000  0.50000000  0.75000000  1
  Zr  Zr5  1  0.88902000  0.50000000  0.25000000  1
  Zr  Zr6  1  0.08317500  0.00000000  0.11440000  1
  Zr  Zr7  1  0.91682500  0.00000000  0.88560000  1
  Zr  Zr8  1  0.08317500  0.00000000  0.38560000  1
  Zr  Zr9  1  0.91682500  0.00000000  0.61440000  1
  Zr  Zr10  1  0.34221100  0.38251700  0.66187400  1
  Zr  Zr11  1  0.65778900  0.61748300  0.33812600  1
  Zr  Zr12  1  0.34221100  0.61748300  0.83812600  1
  Zr  Zr13  1  0.65778900  0.38251700  0.33812600  1
  Zr  Zr14  1  0.65778900  0.38251700  0.16187400  1
  Zr  Zr15  1  0.34221100  0.61748300  0.66187400  1
  Zr  Zr16  1  0.65778900  0.61748300  0.16187400  1
  Zr  Zr17  1  0.34221100  0.38251700  0.83812600  1
  Zr  Zr18  1  0.57558300  0.50000000  0.75000000  1
  Zr  Zr19  1  0.42441700  0.50000000  0.25000000  1
  Zr  Zr20  1  0.15873800  0.11709800  0.52942100  1
  Zr  Zr21  1  0.84126200  0.88290200  0.47057900  1
  Zr  Zr22  1  0.15873800  0.88290200  0.97057900  1
  Zr  Zr23  1  0.84126200  0.11709800  0.47057900  1
  Zr  Zr24  1  0.84126200  0.11709800  0.02942100  1
  Zr  Zr25  1  0.15873800  0.88290200  0.52942100  1
  Zr  Zr26  1  0.84126200  0.88290200  0.02942100  1
  Zr  Zr27  1  0.15873800  0.11709800  0.97057900  1
  B  B28  1  0.00000000  0.00000000  0.50000000  1
  B  B29  1  0.00000000  0.00000000  0.00000000  1
  B  B30  1  0.34351600  0.50000000  0.75000000  1
  B  B31  1  0.65648400  0.50000000  0.25000000  1
  Cl  Cl32  1  0.81653700  0.00000000  0.75000000  1
  Cl  Cl33  1  0.18346300  0.00000000  0.25000000  1
  Cl  Cl34  1  0.84279900  0.50000000  0.75000000  1
  Cl  Cl35  1  0.15720100  0.50000000  0.25000000  1
  Cl  Cl36  1  0.34230300  0.50000000  0.56041300  1
  Cl  Cl37  1  0.65769700  0.50000000  0.43958700  1
  Cl  Cl38  1  0.34230300  0.50000000  0.93958700  1
  Cl  Cl39  1  0.65769700  0.50000000  0.06041300  1
  Cl  Cl40  1  0.00000000  0.25146900  0.50000000  1
  Cl  Cl41  1  0.00000000  0.74853100  0.50000000  1
  Cl  Cl42  1  0.00000000  0.74853100  0.00000000  1
  Cl  Cl43  1  0.00000000  0.25146900  0.00000000  1
  Cl  Cl44  1  0.34984200  0.24745200  0.75000000  1
  Cl  Cl45  1  0.65015800  0.75254800  0.25000000  1
  Cl  Cl46  1  0.34984200  0.75254800  0.75000000  1
  Cl  Cl47  1  0.65015800  0.24745200  0.25000000  1
  Cl  Cl48  1  0.33883400  0.24917300  0.56277300  1
  Cl  Cl49  1  0.66116600  0.75082700  0.43722700  1
  Cl  Cl50  1  0.33883400  0.75082700  0.93722700  1
  Cl  Cl51  1  0.66116600  0.24917300  0.43722700  1
  Cl  Cl52  1  0.66116600  0.24917300  0.06277300  1
  Cl  Cl53  1  0.33883400  0.75082700  0.56277300  1
  Cl  Cl54  1  0.66116600  0.75082700  0.06277300  1
  Cl  Cl55  1  0.33883400  0.24917300  0.93722700  1
  Cl  Cl56  1  0.08143300  0.12419200  0.65809600  1
  Cl  Cl57  1  0.91856700  0.87580800  0.34190400  1
  Cl  Cl58  1  0.08143300  0.87580800  0.84190400  1
  Cl  Cl59  1  0.91856700  0.12419200  0.34190400  1
  Cl  Cl60  1  0.91856700  0.12419200  0.15809600  1
  Cl  Cl61  1  0.08143300  0.87580800  0.65809600  1
  Cl  Cl62  1  0.91856700  0.87580800  0.15809600  1
  Cl  Cl63  1  0.08143300  0.12419200  0.84190400  1
  Cl  Cl64  1  0.08549700  0.37452300  0.65513100  1
  Cl  Cl65  1  0.91450300  0.62547700  0.34486900  1
  Cl  Cl66  1  0.08549700  0.62547700  0.84486900  1
  Cl  Cl67  1  0.91450300  0.37452300  0.34486900  1
  Cl  Cl68  1  0.91450300  0.37452300  0.15513100  1
  Cl  Cl69  1  0.08549700  0.62547700  0.65513100  1
  Cl  Cl70  1  0.91450300  0.62547700  0.15513100  1
  Cl  Cl71  1  0.08549700  0.37452300  0.84486900  1
  Cl  Cl72  1  0.33952500  0.00000000  0.56559100  1
  Cl  Cl73  1  0.66047500  0.00000000  0.43440900  1
  Cl  Cl74  1  0.33952500  0.00000000  0.93440900  1
  Cl  Cl75  1  0.66047500  0.00000000  0.06559100  1
  Cl  Cl76  1  0.60006400  0.37427600  0.65371900  1
  Cl  Cl77  1  0.39993600  0.62572400  0.34628100  1
  Cl  Cl78  1  0.60006400  0.62572400  0.84628100  1
  Cl  Cl79  1  0.39993600  0.37427600  0.34628100  1
  Cl  Cl80  1  0.39993600  0.37427600  0.15371900  1
  Cl  Cl81  1  0.60006400  0.62572400  0.65371900  1
  Cl  Cl82  1  0.39993600  0.62572400  0.15371900  1
  Cl  Cl83  1  0.60006400  0.37427600  0.84628100  1
  Cl  Cl84  1  0.26137000  0.12724900  0.09492800  1
  Cl  Cl85  1  0.73863000  0.87275100  0.90507200  1
  Cl  Cl86  1  0.26137000  0.87275100  0.40507200  1
  Cl  Cl87  1  0.73863000  0.12724900  0.90507200  1
  Cl  Cl88  1  0.73863000  0.12724900  0.59492800  1
  Cl  Cl89  1  0.26137000  0.87275100  0.09492800  1
  Cl  Cl90  1  0.73863000  0.87275100  0.59492800  1
  Cl  Cl91  1  0.26137000  0.12724900  0.40507200  1
