# generated using pymatgen
data_K2Mg2(MoO4)3
_symmetry_space_group_name_H-M   'P 1'
_cell_length_a   9.19847900
_cell_length_b   7.10193000
_cell_length_c   20.64255879
_cell_angle_alpha   71.22799444
_cell_angle_beta   90.00000000
_cell_angle_gamma   90.00000000
_symmetry_Int_Tables_number   1
_chemical_formula_structural   K2Mg2(MoO4)3
_chemical_formula_sum   'K8 Mg8 Mo12 O48'
_cell_volume   1276.78337036
_cell_formula_units_Z   4
loop_
 _symmetry_equiv_pos_site_id
 _symmetry_equiv_pos_as_xyz
  1  'x, y, z'
loop_
 _atom_site_type_symbol
 _atom_site_label
 _atom_site_symmetry_multiplicity
 _atom_site_fract_x
 _atom_site_fract_y
 _atom_site_fract_z
 _atom_site_occupancy
  K  K0  1  0.03081700  0.80058600  0.90625900  1
  K  K1  1  0.96918300  0.19941400  0.09374100  1
  K  K2  1  0.53081700  0.19941400  0.59374100  1
  K  K3  1  0.46918300  0.80058600  0.40625900  1
  K  K4  1  0.11653100  0.40424200  0.78720400  1
  K  K5  1  0.88346900  0.59575800  0.21279600  1
  K  K6  1  0.61653100  0.59575800  0.71279600  1
  K  K7  1  0.38346900  0.40424200  0.28720400  1
  Mg  Mg8  1  0.40984700  0.93722500  0.93751600  1
  Mg  Mg9  1  0.59015300  0.06277500  0.06248400  1
  Mg  Mg10  1  0.90984700  0.06277500  0.56248400  1
  Mg  Mg11  1  0.09015300  0.93722500  0.43751600  1
  Mg  Mg12  1  0.14423100  0.27155000  0.63498300  1
  Mg  Mg13  1  0.85576900  0.72845000  0.36501700  1
  Mg  Mg14  1  0.64423100  0.72845000  0.86501700  1
  Mg  Mg15  1  0.35576900  0.27155000  0.13498300  1
  Mo  Mo16  1  0.22697400  0.80186600  0.59935500  1
  Mo  Mo17  1  0.77302600  0.19813400  0.40064500  1
  Mo  Mo18  1  0.72697400  0.19813400  0.90064500  1
  Mo  Mo19  1  0.27302600  0.80186600  0.09935500  1
  Mo  Mo20  1  0.32693300  0.94903900  0.77352400  1
  Mo  Mo21  1  0.67306700  0.05096100  0.22647600  1
  Mo  Mo22  1  0.82693300  0.05096100  0.72647600  1
  Mo  Mo23  1  0.17306700  0.94903900  0.27352400  1
  Mo  Mo24  1  0.33961600  0.41670100  0.96375100  1
  Mo  Mo25  1  0.66038400  0.58329900  0.03624900  1
  Mo  Mo26  1  0.83961600  0.58329900  0.53624900  1
  Mo  Mo27  1  0.16038400  0.41670100  0.46375100  1
  O  O28  1  0.78620400  0.98418400  0.64993700  1
  O  O29  1  0.21379600  0.01581600  0.35006300  1
  O  O30  1  0.28620400  0.01581600  0.85006300  1
  O  O31  1  0.71379600  0.98418400  0.14993700  1
  O  O32  1  0.50010000  0.82327800  0.78447200  1
  O  O33  1  0.49990000  0.17672200  0.21552800  1
  O  O34  1  0.00010000  0.17672200  0.71552800  1
  O  O35  1  0.99990000  0.82327800  0.28447200  1
  O  O36  1  0.82121700  0.83123300  0.80195000  1
  O  O37  1  0.17878300  0.16876700  0.19805000  1
  O  O38  1  0.32121700  0.16876700  0.69805000  1
  O  O39  1  0.67878300  0.83123300  0.30195000  1
  O  O40  1  0.19057900  0.78479100  0.76587400  1
  O  O41  1  0.80942100  0.21520900  0.23412600  1
  O  O42  1  0.69057900  0.21520900  0.73412600  1
  O  O43  1  0.30942100  0.78479100  0.26587400  1
  O  O44  1  0.16061100  0.55483900  0.64333400  1
  O  O45  1  0.83938900  0.44516100  0.35666600  1
  O  O46  1  0.66061100  0.44516100  0.85666600  1
  O  O47  1  0.33938900  0.55483900  0.14333400  1
  O  O48  1  0.25873500  0.36797300  0.54268500  1
  O  O49  1  0.74126500  0.63202700  0.45731500  1
  O  O50  1  0.75873500  0.63202700  0.95731500  1
  O  O51  1  0.24126500  0.36797300  0.04268500  1
  O  O52  1  0.20162300  0.46499800  0.90246000  1
  O  O53  1  0.79837700  0.53500200  0.09754000  1
  O  O54  1  0.70162300  0.53500200  0.59754000  1
  O  O55  1  0.29837700  0.46499800  0.40246000  1
  O  O56  1  0.40018900  0.82557500  0.63213500  1
  O  O57  1  0.59981100  0.17442500  0.36786500  1
  O  O58  1  0.90018900  0.17442500  0.86786500  1
  O  O59  1  0.09981100  0.82557500  0.13213500  1
  O  O60  1  0.93677100  0.80389400  0.53931100  1
  O  O61  1  0.06322900  0.19610600  0.46068900  1
  O  O62  1  0.43677100  0.19610600  0.96068900  1
  O  O63  1  0.56322900  0.80389400  0.03931100  1
  O  O64  1  0.11073100  0.99900500  0.61111700  1
  O  O65  1  0.88926900  0.00099500  0.38888300  1
  O  O66  1  0.61073100  0.00099500  0.88888300  1
  O  O67  1  0.38926900  0.99900500  0.11111700  1
  O  O68  1  0.25210500  0.84205700  0.50884200  1
  O  O69  1  0.74789500  0.15794300  0.49115800  1
  O  O70  1  0.75210500  0.15794300  0.99115800  1
  O  O71  1  0.24789500  0.84205700  0.00884200  1
  O  O72  1  0.45484400  0.64421200  0.93839000  1
  O  O73  1  0.54515600  0.35578800  0.06161000  1
  O  O74  1  0.95484400  0.35578800  0.56161000  1
  O  O75  1  0.04515600  0.64421200  0.43839000  1
