# generated using pymatgen
data_Cr2(SO4)3
_symmetry_space_group_name_H-M   'P 1'
_cell_length_a   8.28338088
_cell_length_b   8.28337424
_cell_length_c   8.86868581
_cell_angle_alpha   62.16032744
_cell_angle_beta   117.83971973
_cell_angle_gamma   119.99981376
_symmetry_Int_Tables_number   1
_chemical_formula_structural   Cr2(SO4)3
_chemical_formula_sum   'Cr4 S6 O24'
_cell_volume   443.80741037
_cell_formula_units_Z   2
loop_
 _symmetry_equiv_pos_site_id
 _symmetry_equiv_pos_as_xyz
  1  'x, y, z'
loop_
 _atom_site_type_symbol
 _atom_site_label
 _atom_site_symmetry_multiplicity
 _atom_site_fract_x
 _atom_site_fract_y
 _atom_site_fract_z
 _atom_site_occupancy
  Cr  Cr0  1  0.34839200  0.65161200  0.04517500  1
  Cr  Cr1  1  0.85535800  0.14464300  0.56607900  1
  Cr  Cr2  1  0.65161600  0.34839000  0.95484000  1
  Cr  Cr3  1  0.14464600  0.85535200  0.43393100  1
  S  S4  1  0.45863000  0.96159200  0.24858600  1
  S  S5  1  0.75154800  0.54136900  0.24858800  1
  S  S6  1  0.03840600  0.24845000  0.24858800  1
  S  S7  1  0.54136800  0.03840900  0.75141100  1
  S  S8  1  0.24845200  0.45863400  0.75140900  1
  S  S9  1  0.96159300  0.75155000  0.75141000  1
  O  O10  1  0.82688800  0.54591000  0.79776700  1
  O  O11  1  0.51678900  0.17311100  0.79776600  1
  O  O12  1  0.45409000  0.48321100  0.79776800  1
  O  O13  1  0.17311300  0.45409300  0.20222700  1
  O  O14  1  0.48320700  0.82688800  0.20222800  1
  O  O15  1  0.54590700  0.51679200  0.20222700  1
  O  O16  1  0.87729600  0.88353700  0.73209900  1
  O  O17  1  0.73834000  0.12270300  0.73209900  1
  O  O18  1  0.11646400  0.26166000  0.73210000  1
  O  O19  1  0.12270200  0.11646400  0.26789600  1
  O  O20  1  0.88353500  0.73834200  0.26789500  1
  O  O21  1  0.26165700  0.87729900  0.26789600  1
  O  O22  1  0.79661000  0.39033700  0.42099800  1
  O  O23  1  0.60966300  0.98527500  0.42099800  1
  O  O24  1  0.01472600  0.20339000  0.42099800  1
  O  O25  1  0.20339200  0.60965900  0.57900400  1
  O  O26  1  0.39034000  0.01472800  0.57900400  1
  O  O27  1  0.98527100  0.79660700  0.57900300  1
  O  O28  1  0.78470000  0.52472600  0.10567400  1
  O  O29  1  0.47527300  0.15429700  0.10567500  1
  O  O30  1  0.84570200  0.21529900  0.10567500  1
  O  O31  1  0.21530400  0.47527800  0.89432900  1
  O  O32  1  0.52472200  0.84570000  0.89432800  1
  O  O33  1  0.15430000  0.78469600  0.89432800  1
