# generated using pymatgen
data_K3Tm(PO4)2
_symmetry_space_group_name_H-M   'P 1'
_cell_length_a   5.65178300
_cell_length_b   7.45266800
_cell_length_c   9.38546959
_cell_angle_alpha   89.00943952
_cell_angle_beta   90.00000000
_cell_angle_gamma   90.00000000
_symmetry_Int_Tables_number   1
_chemical_formula_structural   K3Tm(PO4)2
_chemical_formula_sum   'K6 Tm2 P4 O16'
_cell_volume   395.26499399
_cell_formula_units_Z   2
loop_
 _symmetry_equiv_pos_site_id
 _symmetry_equiv_pos_as_xyz
  1  'x, y, z'
loop_
 _atom_site_type_symbol
 _atom_site_label
 _atom_site_symmetry_multiplicity
 _atom_site_fract_x
 _atom_site_fract_y
 _atom_site_fract_z
 _atom_site_occupancy
  K  K0  1  0.25000000  0.20554700  0.91933400  1
  K  K1  1  0.75000000  0.79445300  0.08066600  1
  K  K2  1  0.25000000  0.63680000  0.58732500  1
  K  K3  1  0.75000000  0.36320000  0.41267500  1
  K  K4  1  0.25000000  0.49703900  0.19261700  1
  K  K5  1  0.75000000  0.50296100  0.80738300  1
  Tm  Tm6  1  0.25000000  0.99215700  0.28703900  1
  Tm  Tm7  1  0.75000000  0.00784300  0.71296100  1
  P  P8  1  0.25000000  0.18435400  0.57182000  1
  P  P9  1  0.75000000  0.81564600  0.42818000  1
  P  P10  1  0.75000000  0.22638100  0.09106600  1
  P  P11  1  0.25000000  0.77361900  0.90893400  1
  O  O12  1  0.25000000  0.98326800  0.53405700  1
  O  O13  1  0.75000000  0.01673200  0.46594300  1
  O  O14  1  0.25000000  0.28790900  0.42574600  1
  O  O15  1  0.75000000  0.71209100  0.57425400  1
  O  O16  1  0.02513400  0.23282200  0.66042800  1
  O  O17  1  0.52513400  0.76717800  0.33957200  1
  O  O18  1  0.97486600  0.76717800  0.33957200  1
  O  O19  1  0.47486600  0.23282200  0.66042800  1
  O  O20  1  0.97530600  0.14808500  0.16700700  1
  O  O21  1  0.47530600  0.85191500  0.83299300  1
  O  O22  1  0.02469400  0.85191500  0.83299300  1
  O  O23  1  0.52469400  0.14808500  0.16700700  1
  O  O24  1  0.75000000  0.16875700  0.93169400  1
  O  O25  1  0.25000000  0.83124300  0.06830600  1
  O  O26  1  0.75000000  0.43171400  0.10284500  1
  O  O27  1  0.25000000  0.56828600  0.89715500  1
