# generated using pymatgen
data_Na3Eu2(GeS4)2
_symmetry_space_group_name_H-M   'P 1'
_cell_length_a   6.88557448
_cell_length_b   13.87617217
_cell_length_c   13.87695940
_cell_angle_alpha   117.47463417
_cell_angle_beta   99.51532987
_cell_angle_gamma   99.27880908
_symmetry_Int_Tables_number   1
_chemical_formula_structural   Na3Eu2(GeS4)2
_chemical_formula_sum   'Na9 Eu6 Ge6 S24'
_cell_volume   1116.60055892
_cell_formula_units_Z   3
loop_
 _symmetry_equiv_pos_site_id
 _symmetry_equiv_pos_as_xyz
  1  'x, y, z'
loop_
 _atom_site_type_symbol
 _atom_site_label
 _atom_site_symmetry_multiplicity
 _atom_site_fract_x
 _atom_site_fract_y
 _atom_site_fract_z
 _atom_site_occupancy
  Na  Na0  1  0.02564294  0.53580843  0.45454582  1
  Na  Na1  1  0.57487104  0.54593588  0.07830708  1
  Na  Na2  1  0.49372426  0.91572143  0.46554424  1
  Na  Na3  1  0.52806079  0.45885297  0.53122139  1
  Na  Na4  1  0.99277219  0.46664457  0.92159025  1
  Na  Na5  1  0.07376711  0.07489095  0.54493402  1
  Na  Na6  1  0.64462135  0.23292383  0.59105948  1
  Na  Na7  1  0.08830361  0.41560239  0.65188675  1
  Na  Na8  1  0.16407075  0.59438179  0.24199728  1
  Eu  Eu9  1  0.38032051  0.12354237  0.27666350  1
  Eu  Eu10  1  0.10454045  0.72275726  0.84618306  1
  Eu  Eu11  1  0.25887395  0.15431234  0.87150164  1
  Eu  Eu12  1  0.88154702  0.27974009  0.12362719  1
  Eu  Eu13  1  0.75785185  0.87151307  0.15693050  1
  Eu  Eu14  1  0.60278834  0.84311975  0.71434872  1
  Ge  Ge15  1  0.93698487  0.18846957  0.37167085  1
  Ge  Ge16  1  0.56542963  0.62509987  0.81710954  1
  Ge  Ge17  1  0.74619300  0.18354076  0.81004399  1
  Ge  Ge18  1  0.43903629  0.37356397  0.19138885  1
  Ge  Ge19  1  0.24602966  0.81064210  0.18221654  1
  Ge  Ge20  1  0.06141504  0.81669441  0.62454573  1
  S  S21  1  0.24762127  0.24937720  0.49239012  1
  S  S22  1  0.76200543  0.50780798  0.75467865  1
  S  S23  1  0.99546436  0.24478318  0.75003237  1
  S  S24  1  0.75076964  0.48630469  0.24497932  1
  S  S25  1  0.49669671  0.75254889  0.24231809  1
  S  S26  1  0.26061372  0.75611962  0.51116838  1
  S  S27  1  0.71934053  0.05689657  0.38193454  1
  S  S28  1  0.33886968  0.61778542  0.67488353  1
  S  S29  1  0.66777143  0.32357924  0.94807229  1
  S  S30  1  0.22003206  0.38138355  0.05642598  1
  S  S31  1  0.16835262  0.94932939  0.32332478  1
  S  S32  1  0.84624371  0.67685292  0.62490547  1
  S  S33  1  0.77957961  0.32441969  0.41616453  1
  S  S34  1  0.36333511  0.59259921  0.91293784  1
  S  S35  1  0.45465007  0.08476115  0.67541725  1
  S  S36  1  0.26899696  0.40570534  0.32006436  1
  S  S37  1  0.95405967  0.67643182  0.08413305  1
  S  S38  1  0.86925785  0.92102177  0.60088867  1
  S  S39  1  0.94841872  0.10407684  0.19158177  1
  S  S40  1  0.75624370  0.80578750  0.91219483  1
  S  S41  1  0.84842985  0.08764847  0.89394402  1
  S  S42  1  0.45031563  0.19183702  0.10504819  1
  S  S43  1  0.34769173  0.89557379  0.08679208  1
  S  S44  1  0.26023529  0.91251092  0.80620350  1
