# generated using pymatgen
data_Hf3Ni3Sb4
_symmetry_space_group_name_H-M   'P 1'
_cell_length_a   7.86748226
_cell_length_b   7.86748226
_cell_length_c   7.86748226
_cell_angle_alpha   109.47122063
_cell_angle_beta   109.47122063
_cell_angle_gamma   109.47122063
_symmetry_Int_Tables_number   1
_chemical_formula_structural   Hf3Ni3Sb4
_chemical_formula_sum   'Hf6 Ni6 Sb8'
_cell_volume   374.87409128
_cell_formula_units_Z   2
loop_
 _symmetry_equiv_pos_site_id
 _symmetry_equiv_pos_as_xyz
  1  'x, y, z'
loop_
 _atom_site_type_symbol
 _atom_site_label
 _atom_site_symmetry_multiplicity
 _atom_site_fract_x
 _atom_site_fract_y
 _atom_site_fract_z
 _atom_site_occupancy
  Hf  Hf0  1  0.62500000  0.37500000  0.25000000  1
  Hf  Hf1  1  0.87500000  0.12500000  0.75000000  1
  Hf  Hf2  1  0.37500000  0.25000000  0.62500000  1
  Hf  Hf3  1  0.12500000  0.75000000  0.87500000  1
  Hf  Hf4  1  0.25000000  0.62500000  0.37500000  1
  Hf  Hf5  1  0.75000000  0.87500000  0.12500000  1
  Ni  Ni6  1  0.12500000  0.87500000  0.25000000  1
  Ni  Ni7  1  0.37500000  0.62500000  0.75000000  1
  Ni  Ni8  1  0.87500000  0.25000000  0.12500000  1
  Ni  Ni9  1  0.62500000  0.75000000  0.37500000  1
  Ni  Ni10  1  0.25000000  0.12500000  0.87500000  1
  Ni  Ni11  1  0.75000000  0.37500000  0.62500000  1
  Sb  Sb12  1  0.16655800  0.16655800  0.16655800  1
  Sb  Sb13  1  0.33344200  0.50000000  0.00000000  1
  Sb  Sb14  1  0.00000000  0.33344200  0.50000000  1
  Sb  Sb15  1  0.66655800  0.66655800  0.66655800  1
  Sb  Sb16  1  0.50000000  0.00000000  0.33344200  1
  Sb  Sb17  1  0.83344200  0.50000000  0.00000000  1
  Sb  Sb18  1  0.50000000  0.00000000  0.83344200  1
  Sb  Sb19  1  0.00000000  0.83344200  0.50000000  1
