# generated using pymatgen
data_Lu(Ni2As)2
_symmetry_space_group_name_H-M   'P 1'
_cell_length_a   3.76507300
_cell_length_b   7.19029200
_cell_length_c   7.19029200
_cell_angle_alpha   90.00000000
_cell_angle_beta   90.00000000
_cell_angle_gamma   90.00000000
_symmetry_Int_Tables_number   1
_chemical_formula_structural   Lu(Ni2As)2
_chemical_formula_sum   'Lu2 Ni8 As4'
_cell_volume   194.65540003
_cell_formula_units_Z   2
loop_
 _symmetry_equiv_pos_site_id
 _symmetry_equiv_pos_as_xyz
  1  'x, y, z'
loop_
 _atom_site_type_symbol
 _atom_site_label
 _atom_site_symmetry_multiplicity
 _atom_site_fract_x
 _atom_site_fract_y
 _atom_site_fract_z
 _atom_site_occupancy
  Lu  Lu0  1  0.00000000  0.50000000  0.50000000  1
  Lu  Lu1  1  0.50000000  0.00000000  0.00000000  1
  Ni  Ni2  1  0.50000000  0.15421000  0.58956600  1
  Ni  Ni3  1  0.50000000  0.84579000  0.41043400  1
  Ni  Ni4  1  0.00000000  0.34579000  0.08956600  1
  Ni  Ni5  1  0.00000000  0.65421000  0.91043400  1
  Ni  Ni6  1  0.50000000  0.58956600  0.15421000  1
  Ni  Ni7  1  0.50000000  0.41043400  0.84579000  1
  Ni  Ni8  1  0.00000000  0.08956600  0.34579000  1
  Ni  Ni9  1  0.00000000  0.91043400  0.65421000  1
  As  As10  1  0.50000000  0.71694500  0.71694500  1
  As  As11  1  0.50000000  0.28305500  0.28305500  1
  As  As12  1  0.00000000  0.78305500  0.21694500  1
  As  As13  1  0.00000000  0.21694500  0.78305500  1
