# generated using pymatgen
data_Ag2SeO4
_symmetry_space_group_name_H-M   'P 1'
_cell_length_a   8.58941069
_cell_length_b   7.07717802
_cell_length_c   6.45798591
_cell_angle_alpha   78.63422780
_cell_angle_beta   53.87997827
_cell_angle_gamma   47.48579393
_symmetry_Int_Tables_number   1
_chemical_formula_structural   Ag2SeO4
_chemical_formula_sum   'Ag4 Se2 O8'
_cell_volume   219.98707909
_cell_formula_units_Z   2
loop_
 _symmetry_equiv_pos_site_id
 _symmetry_equiv_pos_as_xyz
  1  'x, y, z'
loop_
 _atom_site_type_symbol
 _atom_site_label
 _atom_site_symmetry_multiplicity
 _atom_site_fract_x
 _atom_site_fract_y
 _atom_site_fract_z
 _atom_site_occupancy
  Ag  Ag0  1  0.19839200  0.80160800  0.19839200  1
  Ag  Ag1  1  0.80160800  0.19839200  0.80160800  1
  Ag  Ag2  1  0.05160800  0.44839200  0.05160800  1
  Ag  Ag3  1  0.44839200  0.05160800  0.44839200  1
  Se  Se4  1  0.50000000  0.50000000  0.50000000  1
  Se  Se5  1  0.75000000  0.75000000  0.75000000  1
  O  O6  1  0.35532300  0.49425600  0.82187600  1
  O  O7  1  0.32854400  0.82187600  0.49425600  1
  O  O8  1  0.82187600  0.32854400  0.35532300  1
  O  O9  1  0.49425600  0.35532300  0.32854400  1
  O  O10  1  0.89467700  0.75574400  0.42812400  1
  O  O11  1  0.92145600  0.42812400  0.75574400  1
  O  O12  1  0.75574400  0.89467700  0.92145600  1
  O  O13  1  0.42812400  0.92145600  0.89467700  1
