# generated using pymatgen
data_SmY(MnGe)4
_symmetry_space_group_name_H-M   'P 1'
_cell_length_a   3.96785300
_cell_length_b   3.96785300
_cell_length_c   10.87382100
_cell_angle_alpha   90.00000000
_cell_angle_beta   90.00000000
_cell_angle_gamma   90.00000000
_symmetry_Int_Tables_number   1
_chemical_formula_structural   SmY(MnGe)4
_chemical_formula_sum   'Sm1 Y1 Mn4 Ge4'
_cell_volume   171.19588754
_cell_formula_units_Z   1
loop_
 _symmetry_equiv_pos_site_id
 _symmetry_equiv_pos_as_xyz
  1  'x, y, z'
loop_
 _atom_site_type_symbol
 _atom_site_label
 _atom_site_symmetry_multiplicity
 _atom_site_fract_x
 _atom_site_fract_y
 _atom_site_fract_z
 _atom_site_occupancy
  Sm  Sm0  1  0.00000000  0.00000000  0.00000000  1
  Y  Y1  1  0.50000000  0.50000000  0.50000000  1
  Mn  Mn2  1  0.00000000  0.50000000  0.25103500  1
  Mn  Mn3  1  0.50000000  0.00000000  0.74896500  1
  Mn  Mn4  1  0.50000000  0.00000000  0.25103500  1
  Mn  Mn5  1  0.00000000  0.50000000  0.74896500  1
  Ge  Ge6  1  0.50000000  0.50000000  0.12190700  1
  Ge  Ge7  1  0.00000000  0.00000000  0.62009300  1
  Ge  Ge8  1  0.00000000  0.00000000  0.37990700  1
  Ge  Ge9  1  0.50000000  0.50000000  0.87809300  1
