# generated using pymatgen
data_Rb2MoS4
_symmetry_space_group_name_H-M   'P 1'
_cell_length_a   7.15339100
_cell_length_b   9.93311400
_cell_length_c   12.75021600
_cell_angle_alpha   90.00000000
_cell_angle_beta   90.00000000
_cell_angle_gamma   90.00000000
_symmetry_Int_Tables_number   1
_chemical_formula_structural   Rb2MoS4
_chemical_formula_sum   'Rb8 Mo4 S16'
_cell_volume   905.97231367
_cell_formula_units_Z   4
loop_
 _symmetry_equiv_pos_site_id
 _symmetry_equiv_pos_as_xyz
  1  'x, y, z'
loop_
 _atom_site_type_symbol
 _atom_site_label
 _atom_site_symmetry_multiplicity
 _atom_site_fract_x
 _atom_site_fract_y
 _atom_site_fract_z
 _atom_site_occupancy
  Rb  Rb0  1  0.75000000  0.46256200  0.33232900  1
  Rb  Rb1  1  0.25000000  0.34674300  0.10388900  1
  Rb  Rb2  1  0.75000000  0.65325700  0.89611100  1
  Rb  Rb3  1  0.25000000  0.84674300  0.39611100  1
  Rb  Rb4  1  0.25000000  0.03743800  0.83232900  1
  Rb  Rb5  1  0.75000000  0.96256200  0.16767100  1
  Rb  Rb6  1  0.75000000  0.15325700  0.60388900  1
  Rb  Rb7  1  0.25000000  0.53743800  0.66767100  1
  Mo  Mo8  1  0.75000000  0.74529400  0.57311000  1
  Mo  Mo9  1  0.25000000  0.25470600  0.42689000  1
  Mo  Mo10  1  0.75000000  0.24529400  0.92689000  1
  Mo  Mo11  1  0.25000000  0.75470600  0.07311000  1
  S  S12  1  0.49913400  0.16204200  0.35648700  1
  S  S13  1  0.00086600  0.16204200  0.35648700  1
  S  S14  1  0.50086600  0.83795800  0.64351300  1
  S  S15  1  0.49913400  0.66204200  0.14351300  1
  S  S16  1  0.25000000  0.97342600  0.10472200  1
  S  S17  1  0.75000000  0.02657400  0.89527800  1
  S  S18  1  0.25000000  0.47342600  0.39527800  1
  S  S19  1  0.75000000  0.52657400  0.60472200  1
  S  S20  1  0.25000000  0.71415100  0.90303800  1
  S  S21  1  0.75000000  0.28584900  0.09696200  1
  S  S22  1  0.25000000  0.21415100  0.59696200  1
  S  S23  1  0.99913400  0.83795800  0.64351300  1
  S  S24  1  0.00086600  0.66204200  0.14351300  1
  S  S25  1  0.50086600  0.33795800  0.85648700  1
  S  S26  1  0.75000000  0.78584900  0.40303800  1
  S  S27  1  0.99913400  0.33795800  0.85648700  1
