# generated using pymatgen
data_RbEr2Cl7
_symmetry_space_group_name_H-M   'P 1'
_cell_length_a   6.94828100
_cell_length_b   12.61534300
_cell_length_c   13.26466000
_cell_angle_alpha   90.00000000
_cell_angle_beta   90.00000000
_cell_angle_gamma   90.00000000
_symmetry_Int_Tables_number   1
_chemical_formula_structural   RbEr2Cl7
_chemical_formula_sum   'Rb4 Er8 Cl28'
_cell_volume   1162.71308354
_cell_formula_units_Z   4
loop_
 _symmetry_equiv_pos_site_id
 _symmetry_equiv_pos_as_xyz
  1  'x, y, z'
loop_
 _atom_site_type_symbol
 _atom_site_label
 _atom_site_symmetry_multiplicity
 _atom_site_fract_x
 _atom_site_fract_y
 _atom_site_fract_z
 _atom_site_occupancy
  Rb  Rb0  1  0.25000000  0.80463500  0.04224800  1
  Rb  Rb1  1  0.75000000  0.19536500  0.95775200  1
  Rb  Rb2  1  0.75000000  0.30463500  0.45775200  1
  Rb  Rb3  1  0.25000000  0.69536500  0.54224800  1
  Er  Er4  1  0.25000000  0.45989900  0.23656500  1
  Er  Er5  1  0.75000000  0.54010100  0.76343500  1
  Er  Er6  1  0.75000000  0.95989900  0.26343500  1
  Er  Er7  1  0.25000000  0.04010100  0.73656500  1
  Er  Er8  1  0.25000000  0.15771700  0.25000100  1
  Er  Er9  1  0.75000000  0.84228300  0.74999900  1
  Er  Er10  1  0.75000000  0.65771700  0.24999900  1
  Er  Er11  1  0.25000000  0.34228300  0.75000100  1
  Cl  Cl12  1  0.01091500  0.30670300  0.17489200  1
  Cl  Cl13  1  0.98908500  0.69329700  0.82510800  1
  Cl  Cl14  1  0.98908500  0.80670300  0.32510800  1
  Cl  Cl15  1  0.51091500  0.69329700  0.82510800  1
  Cl  Cl16  1  0.01091500  0.19329700  0.67489200  1
  Cl  Cl17  1  0.48908500  0.30670300  0.17489200  1
  Cl  Cl18  1  0.48908500  0.19329700  0.67489200  1
  Cl  Cl19  1  0.51091500  0.80670300  0.32510800  1
  Cl  Cl20  1  0.00964800  0.57743300  0.12131800  1
  Cl  Cl21  1  0.99035200  0.42256700  0.87868200  1
  Cl  Cl22  1  0.99035200  0.07743300  0.37868200  1
  Cl  Cl23  1  0.50964800  0.42256700  0.87868200  1
  Cl  Cl24  1  0.00964800  0.92256700  0.62131800  1
  Cl  Cl25  1  0.49035200  0.57743300  0.12131800  1
  Cl  Cl26  1  0.49035200  0.92256700  0.62131800  1
  Cl  Cl27  1  0.50964800  0.07743300  0.37868200  1
  Cl  Cl28  1  0.00993300  0.03959800  0.13302800  1
  Cl  Cl29  1  0.99006700  0.96040200  0.86697200  1
  Cl  Cl30  1  0.99006700  0.53959800  0.36697200  1
  Cl  Cl31  1  0.50993300  0.96040200  0.86697200  1
  Cl  Cl32  1  0.00993300  0.46040200  0.63302800  1
  Cl  Cl33  1  0.49006700  0.03959800  0.13302800  1
  Cl  Cl34  1  0.49006700  0.46040200  0.63302800  1
  Cl  Cl35  1  0.50993300  0.53959800  0.36697200  1
  Cl  Cl36  1  0.25000000  0.31183400  0.39235600  1
  Cl  Cl37  1  0.75000000  0.68816600  0.60764400  1
  Cl  Cl38  1  0.75000000  0.81183400  0.10764400  1
  Cl  Cl39  1  0.25000000  0.18816600  0.89235600  1
