# generated using pymatgen
data_Ta2Se8Br
_symmetry_space_group_name_H-M   'P 1'
_cell_length_a   14.56456800
_cell_length_b   13.00017300
_cell_length_c   16.43414952
_cell_angle_alpha   53.73031062
_cell_angle_beta   90.00000000
_cell_angle_gamma   90.00000000
_symmetry_Int_Tables_number   1
_chemical_formula_structural   Ta2Se8Br
_chemical_formula_sum   'Ta16 Se64 Br8'
_cell_volume   2508.75958536
_cell_formula_units_Z   8
loop_
 _symmetry_equiv_pos_site_id
 _symmetry_equiv_pos_as_xyz
  1  'x, y, z'
loop_
 _atom_site_type_symbol
 _atom_site_label
 _atom_site_symmetry_multiplicity
 _atom_site_fract_x
 _atom_site_fract_y
 _atom_site_fract_z
 _atom_site_occupancy
  Ta  Ta0  1  0.88266700  0.21966000  0.80405600  1
  Ta  Ta1  1  0.38266700  0.78034000  0.69594400  1
  Ta  Ta2  1  0.11733300  0.78034000  0.19594400  1
  Ta  Ta3  1  0.61733300  0.21966000  0.30405600  1
  Ta  Ta4  1  0.85785600  0.00983300  0.72588500  1
  Ta  Ta5  1  0.35785600  0.99016700  0.77411500  1
  Ta  Ta6  1  0.14214400  0.99016700  0.27411500  1
  Ta  Ta7  1  0.64214400  0.00983300  0.22588500  1
  Ta  Ta8  1  0.88891000  0.48930600  0.77078400  1
  Ta  Ta9  1  0.38891000  0.51069400  0.72921600  1
  Ta  Ta10  1  0.11109000  0.51069400  0.22921600  1
  Ta  Ta11  1  0.61109000  0.48930600  0.27078400  1
  Ta  Ta12  1  0.87912100  0.74766700  0.74593900  1
  Ta  Ta13  1  0.37912100  0.25233300  0.75406100  1
  Ta  Ta14  1  0.12087900  0.25233300  0.25406100  1
  Ta  Ta15  1  0.62087900  0.74766700  0.24593900  1
  Se  Se16  1  0.93065100  0.71207400  0.60389900  1
  Se  Se17  1  0.43065100  0.28792600  0.89610100  1
  Se  Se18  1  0.06934900  0.28792600  0.39610100  1
  Se  Se19  1  0.56934900  0.71207400  0.10389900  1
  Se  Se20  1  0.86324800  0.78082300  0.89483500  1
  Se  Se21  1  0.36324800  0.21917700  0.60516500  1
  Se  Se22  1  0.13675200  0.21917700  0.10516500  1
  Se  Se23  1  0.63675200  0.78082300  0.39483500  1
  Se  Se24  1  0.00497200  0.92614400  0.67834800  1
  Se  Se25  1  0.50497200  0.07385600  0.82165200  1
  Se  Se26  1  0.99502800  0.07385600  0.32165200  1
  Se  Se27  1  0.49502800  0.92614400  0.17834800  1
  Se  Se28  1  0.32010500  0.98977900  0.52142800  1
  Se  Se29  1  0.82010500  0.01022100  0.97857200  1
  Se  Se30  1  0.67989500  0.01022100  0.47857200  1
  Se  Se31  1  0.17989500  0.98977900  0.02142800  1
  Se  Se32  1  0.74279100  0.34557500  0.82135200  1
  Se  Se33  1  0.24279100  0.65442500  0.67864800  1
  Se  Se34  1  0.25720900  0.65442500  0.17864800  1
  Se  Se35  1  0.75720900  0.34557500  0.32135200  1
  Se  Se36  1  0.96648300  0.25937900  0.92045200  1
  Se  Se37  1  0.46648300  0.74062100  0.57954800  1
  Se  Se38  1  0.03351700  0.74062100  0.07954800  1
  Se  Se39  1  0.53351700  0.25937900  0.42045200  1
  Se  Se40  1  0.77402500  0.68772600  0.65219500  1
  Se  Se41  1  0.27402500  0.31227400  0.84780500  1
  Se  Se42  1  0.22597500  0.31227400  0.34780500  1
  Se  Se43  1  0.72597500  0.68772600  0.15219500  1
  Se  Se44  1  0.80085500  0.42375900  0.65799600  1
  Se  Se45  1  0.30085500  0.57624100  0.84200400  1
  Se  Se46  1  0.19914500  0.57624100  0.34200400  1
  Se  Se47  1  0.69914500  0.42375900  0.15799600  1
  Se  Se48  1  0.86740600  0.99367100  0.57449100  1
  Se  Se49  1  0.36740600  0.00632900  0.92550900  1
  Se  Se50  1  0.13259400  0.00632900  0.42550900  1
  Se  Se51  1  0.63259400  0.99367100  0.07449100  1
  Se  Se52  1  0.84290600  0.50872900  0.91360000  1
  Se  Se53  1  0.34290600  0.49127100  0.58640000  1
  Se  Se54  1  0.15709400  0.49127100  0.08640000  1
  Se  Se55  1  0.65709400  0.50872900  0.41360000  1
  Se  Se56  1  0.95125200  0.22853900  0.64640900  1
  Se  Se57  1  0.45125200  0.77146100  0.85359100  1
  Se  Se58  1  0.04874800  0.77146100  0.35359100  1
  Se  Se59  1  0.54874800  0.22853900  0.14640900  1
  Se  Se60  1  0.00013500  0.56779100  0.85629700  1
  Se  Se61  1  0.50013500  0.43220900  0.64370300  1
  Se  Se62  1  0.99986500  0.43220900  0.14370300  1
  Se  Se63  1  0.49986500  0.56779100  0.35629700  1
  Se  Se64  1  0.03432400  0.37818200  0.75521900  1
  Se  Se65  1  0.53432400  0.62181800  0.74478100  1
  Se  Se66  1  0.96567600  0.62181800  0.24478100  1
  Se  Se67  1  0.46567600  0.37818200  0.25521900  1
  Se  Se68  1  0.99664700  0.05295900  0.81405000  1
  Se  Se69  1  0.49664700  0.94704100  0.68595000  1
  Se  Se70  1  0.00335300  0.94704100  0.18595000  1
  Se  Se71  1  0.50335300  0.05295900  0.31405000  1
  Se  Se72  1  0.73220900  0.81738900  0.79685300  1
  Se  Se73  1  0.23220900  0.18261100  0.70314700  1
  Se  Se74  1  0.26779100  0.18261100  0.20314700  1
  Se  Se75  1  0.76779100  0.81738900  0.29685300  1
  Se  Se76  1  0.74845800  0.06901300  0.82538600  1
  Se  Se77  1  0.24845800  0.93098700  0.67461400  1
  Se  Se78  1  0.25154200  0.93098700  0.17461400  1
  Se  Se79  1  0.75154200  0.06901300  0.32538600  1
  Br  Br80  1  0.21841100  0.83843100  0.88579000  1
  Br  Br81  1  0.71841100  0.16156900  0.61421000  1
  Br  Br82  1  0.78158900  0.16156900  0.11421000  1
  Br  Br83  1  0.28158900  0.83843100  0.38579000  1
  Br  Br84  1  0.13237000  0.52873900  0.54471600  1
  Br  Br85  1  0.63237000  0.47126100  0.95528400  1
  Br  Br86  1  0.86763000  0.47126100  0.45528400  1
  Br  Br87  1  0.36763000  0.52873900  0.04471600  1
