# generated using pymatgen
data_PrAl4Ni
_symmetry_space_group_name_H-M   'P 1'
_cell_length_a   8.20223806
_cell_length_b   8.20223806
_cell_length_c   6.57185900
_cell_angle_alpha   90.00000000
_cell_angle_beta   90.00000000
_cell_angle_gamma   150.57147411
_symmetry_Int_Tables_number   1
_chemical_formula_structural   PrAl4Ni
_chemical_formula_sum   'Pr2 Al8 Ni2'
_cell_volume   217.23652137
_cell_formula_units_Z   2
loop_
 _symmetry_equiv_pos_site_id
 _symmetry_equiv_pos_as_xyz
  1  'x, y, z'
loop_
 _atom_site_type_symbol
 _atom_site_label
 _atom_site_symmetry_multiplicity
 _atom_site_fract_x
 _atom_site_fract_y
 _atom_site_fract_z
 _atom_site_occupancy
  Pr  Pr0  1  0.88559200  0.11440800  0.75000000  1
  Pr  Pr1  1  0.11440800  0.88559200  0.25000000  1
  Al  Al2  1  0.50000000  0.50000000  0.00000000  1
  Al  Al3  1  0.50000000  0.50000000  0.50000000  1
  Al  Al4  1  0.07716500  0.92283500  0.75000000  1
  Al  Al5  1  0.92283500  0.07716500  0.25000000  1
  Al  Al6  1  0.69191900  0.30808100  0.94793100  1
  Al  Al7  1  0.30808100  0.69191900  0.05206900  1
  Al  Al8  1  0.69191900  0.30808100  0.55206900  1
  Al  Al9  1  0.30808100  0.69191900  0.44793100  1
  Ni  Ni10  1  0.22303700  0.77696300  0.75000000  1
  Ni  Ni11  1  0.77696300  0.22303700  0.25000000  1
