# generated using pymatgen
data_BaCoO3
_symmetry_space_group_name_H-M   'P 1'
_cell_length_a   4.77591760
_cell_length_b   5.74328212
_cell_length_c   9.95567316
_cell_angle_alpha   89.74006035
_cell_angle_beta   90.03345761
_cell_angle_gamma   89.65090019
_symmetry_Int_Tables_number   1
_chemical_formula_structural   BaCoO3
_chemical_formula_sum   'Ba4 Co4 O12'
_cell_volume   273.07063059
_cell_formula_units_Z   4
loop_
 _symmetry_equiv_pos_site_id
 _symmetry_equiv_pos_as_xyz
  1  'x, y, z'
loop_
 _atom_site_type_symbol
 _atom_site_label
 _atom_site_symmetry_multiplicity
 _atom_site_fract_x
 _atom_site_fract_y
 _atom_site_fract_z
 _atom_site_occupancy
  Ba  Ba0  1  0.00045600  0.49867500  0.16730700  1
  Ba  Ba1  1  0.00129200  0.99836400  0.66675100  1
  Ba  Ba2  1  0.49871000  0.00163800  0.33324400  1
  Ba  Ba3  1  0.49954100  0.50132500  0.83270400  1
  Co  Co4  1  0.25015500  0.99999800  0.99999900  1
  Co  Co5  1  0.74984800  0.99999900  0.99999900  1
  Co  Co6  1  0.25002500  0.50000900  0.49998700  1
  Co  Co7  1  0.74997600  0.50001000  0.49999300  1
  O  O8  1  0.00261200  0.27614700  0.42538900  1
  O  O9  1  0.00079000  0.78068300  0.92652700  1
  O  O10  1  0.50122600  0.77981000  0.07406700  1
  O  O11  1  0.49525100  0.28168600  0.57289800  1
  O  O12  1  0.00475000  0.71829200  0.42710800  1
  O  O13  1  0.99877200  0.22022000  0.92591800  1
  O  O14  1  0.00034500  0.99920100  0.14910000  1
  O  O15  1  0.00238300  0.50040400  0.64854900  1
  O  O16  1  0.49761100  0.49959600  0.35145700  1
  O  O17  1  0.49965600  0.00079800  0.85092400  1
  O  O18  1  0.49921000  0.21928400  0.07345900  1
  O  O19  1  0.49738700  0.72385900  0.57461900  1
