# generated using pymatgen
data_Rb2UBr5
_symmetry_space_group_name_H-M   'P 1'
_cell_length_a   8.82025300
_cell_length_b   9.36554700
_cell_length_c   14.17374600
_cell_angle_alpha   90.00000000
_cell_angle_beta   90.00000000
_cell_angle_gamma   90.00000000
_symmetry_Int_Tables_number   1
_chemical_formula_structural   Rb2UBr5
_chemical_formula_sum   'Rb8 U4 Br20'
_cell_volume   1170.84346424
_cell_formula_units_Z   4
loop_
 _symmetry_equiv_pos_site_id
 _symmetry_equiv_pos_as_xyz
  1  'x, y, z'
loop_
 _atom_site_type_symbol
 _atom_site_label
 _atom_site_symmetry_multiplicity
 _atom_site_fract_x
 _atom_site_fract_y
 _atom_site_fract_z
 _atom_site_occupancy
  Rb  Rb0  1  0.53686800  0.50025200  0.82591900  1
  Rb  Rb1  1  0.46313200  0.49974800  0.17408100  1
  Rb  Rb2  1  0.03686800  0.49974800  0.67408100  1
  Rb  Rb3  1  0.46313200  0.00025200  0.17408100  1
  Rb  Rb4  1  0.96313200  0.50025200  0.32591900  1
  Rb  Rb5  1  0.53686800  0.99974800  0.82591900  1
  Rb  Rb6  1  0.96313200  0.99974800  0.32591900  1
  Rb  Rb7  1  0.03686800  0.00025200  0.67408100  1
  U  U8  1  0.56973400  0.75000000  0.50113200  1
  U  U9  1  0.43026600  0.25000000  0.49886800  1
  U  U10  1  0.06973400  0.25000000  0.99886800  1
  U  U11  1  0.93026600  0.75000000  0.00113200  1
  Br  Br12  1  0.83090000  0.75000000  0.80414900  1
  Br  Br13  1  0.16910000  0.25000000  0.19585100  1
  Br  Br14  1  0.33090000  0.25000000  0.69585100  1
  Br  Br15  1  0.66910000  0.75000000  0.30414900  1
  Br  Br16  1  0.36847700  0.75000000  0.66652600  1
  Br  Br17  1  0.63152300  0.25000000  0.33347400  1
  Br  Br18  1  0.86847700  0.25000000  0.83347400  1
  Br  Br19  1  0.13152300  0.75000000  0.16652600  1
  Br  Br20  1  0.90884100  0.75000000  0.51188600  1
  Br  Br21  1  0.09115900  0.25000000  0.48811400  1
  Br  Br22  1  0.40884100  0.25000000  0.98811400  1
  Br  Br23  1  0.59115900  0.75000000  0.01188600  1
  Br  Br24  1  0.65366800  0.04059300  0.58086300  1
  Br  Br25  1  0.34633200  0.95940700  0.41913700  1
  Br  Br26  1  0.15366800  0.95940700  0.91913700  1
  Br  Br27  1  0.34633200  0.54059300  0.41913700  1
  Br  Br28  1  0.84633200  0.04059300  0.08086300  1
  Br  Br29  1  0.65366800  0.45940700  0.58086300  1
  Br  Br30  1  0.84633200  0.45940700  0.08086300  1
  Br  Br31  1  0.15366800  0.54059300  0.91913700  1
