# generated using pymatgen
data_Lu5Ni2Bi
_symmetry_space_group_name_H-M   'P 1'
_cell_length_a   8.68233850
_cell_length_b   8.68233850
_cell_length_c   8.68233850
_cell_angle_alpha   129.49416576
_cell_angle_beta   129.49416576
_cell_angle_gamma   74.21672904
_symmetry_Int_Tables_number   1
_chemical_formula_structural   Lu5Ni2Bi
_chemical_formula_sum   'Lu10 Ni4 Bi2'
_cell_volume   379.98843652
_cell_formula_units_Z   2
loop_
 _symmetry_equiv_pos_site_id
 _symmetry_equiv_pos_as_xyz
  1  'x, y, z'
loop_
 _atom_site_type_symbol
 _atom_site_label
 _atom_site_symmetry_multiplicity
 _atom_site_fract_x
 _atom_site_fract_y
 _atom_site_fract_z
 _atom_site_occupancy
  Lu  Lu0  1  0.00000000  0.00000000  0.00000000  1
  Lu  Lu1  1  0.50000000  0.50000000  0.00000000  1
  Lu  Lu2  1  0.79068800  0.29068800  0.81651400  1
  Lu  Lu3  1  0.20931200  0.70931200  0.18348600  1
  Lu  Lu4  1  0.47417500  0.97417500  0.18348600  1
  Lu  Lu5  1  0.29068800  0.47417500  0.50000000  1
  Lu  Lu6  1  0.02582500  0.20931200  0.50000000  1
  Lu  Lu7  1  0.52582500  0.02582500  0.81651400  1
  Lu  Lu8  1  0.70931200  0.52582500  0.50000000  1
  Lu  Lu9  1  0.97417500  0.79068800  0.50000000  1
  Ni  Ni10  1  0.13030600  0.63030600  0.76061300  1
  Ni  Ni11  1  0.86969400  0.36969400  0.23938700  1
  Ni  Ni12  1  0.63030600  0.86969400  0.50000000  1
  Ni  Ni13  1  0.36969400  0.13030600  0.50000000  1
  Bi  Bi14  1  0.25000000  0.25000000  0.00000000  1
  Bi  Bi15  1  0.75000000  0.75000000  0.00000000  1
