# generated using pymatgen
data_K2LaI5
_symmetry_space_group_name_H-M   'P 1'
_cell_length_a   9.33151700
_cell_length_b   9.98369200
_cell_length_c   14.71103600
_cell_angle_alpha   90.00000000
_cell_angle_beta   90.00000000
_cell_angle_gamma   90.00000000
_symmetry_Int_Tables_number   1
_chemical_formula_structural   K2LaI5
_chemical_formula_sum   'K8 La4 I20'
_cell_volume   1370.52412360
_cell_formula_units_Z   4
loop_
 _symmetry_equiv_pos_site_id
 _symmetry_equiv_pos_as_xyz
  1  'x, y, z'
loop_
 _atom_site_type_symbol
 _atom_site_label
 _atom_site_symmetry_multiplicity
 _atom_site_fract_x
 _atom_site_fract_y
 _atom_site_fract_z
 _atom_site_occupancy
  K  K0  1  0.94968200  0.00509500  0.82874000  1
  K  K1  1  0.05031800  0.99490500  0.17126000  1
  K  K2  1  0.44968200  0.99490500  0.67126000  1
  K  K3  1  0.05031800  0.50509500  0.17126000  1
  K  K4  1  0.55031800  0.00509500  0.32874000  1
  K  K5  1  0.94968200  0.49490500  0.82874000  1
  K  K6  1  0.55031800  0.49490500  0.32874000  1
  K  K7  1  0.44968200  0.50509500  0.67126000  1
  La  La8  1  0.92257500  0.75000000  0.50554200  1
  La  La9  1  0.07742500  0.25000000  0.49445800  1
  La  La10  1  0.42257500  0.25000000  0.99445800  1
  La  La11  1  0.57742500  0.75000000  0.00554200  1
  I  I12  1  0.12895600  0.75000000  0.68201400  1
  I  I13  1  0.87104400  0.25000000  0.31798600  1
  I  I14  1  0.62895600  0.25000000  0.81798600  1
  I  I15  1  0.37104400  0.75000000  0.18201400  1
  I  I16  1  0.83371100  0.04455300  0.57833700  1
  I  I17  1  0.16628900  0.95544700  0.42166300  1
  I  I18  1  0.33371100  0.95544700  0.92166300  1
  I  I19  1  0.16628900  0.54455300  0.42166300  1
  I  I20  1  0.66628900  0.04455300  0.07833700  1
  I  I21  1  0.83371100  0.45544700  0.57833700  1
  I  I22  1  0.66628900  0.45544700  0.07833700  1
  I  I23  1  0.33371100  0.54455300  0.92166300  1
  I  I24  1  0.57133700  0.75000000  0.50691500  1
  I  I25  1  0.42866300  0.25000000  0.49308500  1
  I  I26  1  0.07133700  0.25000000  0.99308500  1
  I  I27  1  0.92866300  0.75000000  0.00691500  1
  I  I28  1  0.66507900  0.75000000  0.79317600  1
  I  I29  1  0.33492100  0.25000000  0.20682400  1
  I  I30  1  0.16507900  0.25000000  0.70682400  1
  I  I31  1  0.83492100  0.75000000  0.29317600  1
