# generated using pymatgen
data_Ba6Y2Al4O15
_symmetry_space_group_name_H-M   'P 1'
_cell_length_a   5.97011700
_cell_length_b   7.95398700
_cell_length_c   18.55933872
_cell_angle_alpha   88.30291517
_cell_angle_beta   90.00000000
_cell_angle_gamma   90.00000000
_symmetry_Int_Tables_number   1
_chemical_formula_structural   Ba6Y2Al4O15
_chemical_formula_sum   'Ba12 Y4 Al8 O30'
_cell_volume   880.92651078
_cell_formula_units_Z   2
loop_
 _symmetry_equiv_pos_site_id
 _symmetry_equiv_pos_as_xyz
  1  'x, y, z'
loop_
 _atom_site_type_symbol
 _atom_site_label
 _atom_site_symmetry_multiplicity
 _atom_site_fract_x
 _atom_site_fract_y
 _atom_site_fract_z
 _atom_site_occupancy
  Ba  Ba0  1  0.75822100  0.50199000  0.08234600  1
  Ba  Ba1  1  0.24177900  0.49801000  0.91765400  1
  Ba  Ba2  1  0.75822100  0.49801000  0.41765400  1
  Ba  Ba3  1  0.24177900  0.50199000  0.58234600  1
  Ba  Ba4  1  0.74535900  0.96937200  0.08952700  1
  Ba  Ba5  1  0.25464100  0.03062800  0.91047300  1
  Ba  Ba6  1  0.74535900  0.03062800  0.41047300  1
  Ba  Ba7  1  0.25464100  0.96937200  0.58952700  1
  Ba  Ba8  1  0.72604800  0.00000000  0.75000000  1
  Ba  Ba9  1  0.27395200  0.00000000  0.25000000  1
  Ba  Ba10  1  0.67058400  0.50000000  0.75000000  1
  Ba  Ba11  1  0.32941600  0.50000000  0.25000000  1
  Y  Y12  1  0.74688100  0.75175400  0.91033800  1
  Y  Y13  1  0.25311900  0.24824600  0.08966200  1
  Y  Y14  1  0.74688100  0.24824600  0.58966200  1
  Y  Y15  1  0.25311900  0.75175400  0.41033800  1
  Al  Al16  1  0.74937300  0.75229400  0.55590600  1
  Al  Al17  1  0.25062700  0.24770600  0.44409400  1
  Al  Al18  1  0.74937300  0.24770600  0.94409400  1
  Al  Al19  1  0.25062700  0.75229400  0.05590600  1
  Al  Al20  1  0.77117600  0.77968900  0.26799500  1
  Al  Al21  1  0.22882400  0.22031100  0.73200500  1
  Al  Al22  1  0.77117600  0.22031100  0.23200500  1
  Al  Al23  1  0.22882400  0.77968900  0.76799500  1
  O  O24  1  0.20885200  0.00000000  0.75000000  1
  O  O25  1  0.79114800  0.00000000  0.25000000  1
  O  O26  1  0.49758800  0.76394900  0.00071300  1
  O  O27  1  0.50241200  0.23605100  0.99928700  1
  O  O28  1  0.49758800  0.23605100  0.49928700  1
  O  O29  1  0.50241200  0.76394900  0.50071300  1
  O  O30  1  0.76016200  0.94293000  0.60600000  1
  O  O31  1  0.23983800  0.05707000  0.39400000  1
  O  O32  1  0.76016200  0.05707000  0.89400000  1
  O  O33  1  0.23983800  0.94293000  0.10600000  1
  O  O34  1  0.01244200  0.76216100  0.99584300  1
  O  O35  1  0.98755800  0.23783900  0.00415700  1
  O  O36  1  0.01244200  0.23783900  0.50415700  1
  O  O37  1  0.98755800  0.76216100  0.49584300  1
  O  O38  1  0.31390900  0.69251000  0.68702400  1
  O  O39  1  0.68609100  0.30749000  0.31297600  1
  O  O40  1  0.31390900  0.30749000  0.81297600  1
  O  O41  1  0.68609100  0.69251000  0.18702400  1
  O  O42  1  0.45048400  0.75339700  0.83301600  1
  O  O43  1  0.54951600  0.24660300  0.16698400  1
  O  O44  1  0.45048400  0.24660300  0.66698400  1
  O  O45  1  0.54951600  0.75339700  0.33301600  1
  O  O46  1  0.97121900  0.72978800  0.81137400  1
  O  O47  1  0.02878100  0.27021200  0.18862600  1
  O  O48  1  0.97121900  0.27021200  0.68862600  1
  O  O49  1  0.02878100  0.72978800  0.31137400  1
  O  O50  1  0.75371700  0.54007700  0.59220500  1
  O  O51  1  0.24628300  0.45992300  0.40779500  1
  O  O52  1  0.75371700  0.45992300  0.90779500  1
  O  O53  1  0.24628300  0.54007700  0.09220500  1
