# generated using pymatgen
data_La5Ir3
_symmetry_space_group_name_H-M   'P 1'
_cell_length_a   11.41231700
_cell_length_b   11.41231700
_cell_length_c   6.69133100
_cell_angle_alpha   90.00000000
_cell_angle_beta   90.00000000
_cell_angle_gamma   90.00000000
_symmetry_Int_Tables_number   1
_chemical_formula_structural   La5Ir3
_chemical_formula_sum   'La20 Ir12'
_cell_volume   871.48550232
_cell_formula_units_Z   4
loop_
 _symmetry_equiv_pos_site_id
 _symmetry_equiv_pos_as_xyz
  1  'x, y, z'
loop_
 _atom_site_type_symbol
 _atom_site_label
 _atom_site_symmetry_multiplicity
 _atom_site_fract_x
 _atom_site_fract_y
 _atom_site_fract_z
 _atom_site_occupancy
  La  La0  1  0.29150700  0.08966400  0.38286300  1
  La  La1  1  0.29150700  0.91033600  0.88286300  1
  La  La2  1  0.70849300  0.08966400  0.88286300  1
  La  La3  1  0.70849300  0.91033600  0.38286300  1
  La  La4  1  0.58966400  0.79150700  0.88286300  1
  La  La5  1  0.58966400  0.20849300  0.38286300  1
  La  La6  1  0.41033600  0.79150700  0.38286300  1
  La  La7  1  0.41033600  0.20849300  0.88286300  1
  La  La8  1  0.20849300  0.41033600  0.61713700  1
  La  La9  1  0.20849300  0.58966400  0.11713700  1
  La  La10  1  0.79150700  0.41033600  0.11713700  1
  La  La11  1  0.79150700  0.58966400  0.61713700  1
  La  La12  1  0.91033600  0.70849300  0.11713700  1
  La  La13  1  0.91033600  0.29150700  0.61713700  1
  La  La14  1  0.08966400  0.70849300  0.61713700  1
  La  La15  1  0.08966400  0.29150700  0.11713700  1
  La  La16  1  0.00000000  0.00000000  0.50000000  1
  La  La17  1  0.00000000  0.00000000  0.00000000  1
  La  La18  1  0.50000000  0.50000000  0.00000000  1
  La  La19  1  0.50000000  0.50000000  0.50000000  1
  Ir  Ir20  1  0.84612900  0.15387100  0.25000000  1
  Ir  Ir21  1  0.84612900  0.84612900  0.75000000  1
  Ir  Ir22  1  0.15387100  0.15387100  0.75000000  1
  Ir  Ir23  1  0.15387100  0.84612900  0.25000000  1
  Ir  Ir24  1  0.65387100  0.34612900  0.75000000  1
  Ir  Ir25  1  0.65387100  0.65387100  0.25000000  1
  Ir  Ir26  1  0.34612900  0.34612900  0.25000000  1
  Ir  Ir27  1  0.34612900  0.65387100  0.75000000  1
  Ir  Ir28  1  0.50000000  0.00000000  0.11374600  1
  Ir  Ir29  1  0.50000000  0.00000000  0.61374600  1
  Ir  Ir30  1  0.00000000  0.50000000  0.88625400  1
  Ir  Ir31  1  0.00000000  0.50000000  0.38625400  1
