# generated using pymatgen
data_LiSmGe2
_symmetry_space_group_name_H-M   'P 1'
_cell_length_a   3.95848500
_cell_length_b   7.81168200
_cell_length_c   10.55481800
_cell_angle_alpha   90.00000000
_cell_angle_beta   90.00000000
_cell_angle_gamma   90.00000000
_symmetry_Int_Tables_number   1
_chemical_formula_structural   LiSmGe2
_chemical_formula_sum   'Li4 Sm4 Ge8'
_cell_volume   326.38057878
_cell_formula_units_Z   4
loop_
 _symmetry_equiv_pos_site_id
 _symmetry_equiv_pos_as_xyz
  1  'x, y, z'
loop_
 _atom_site_type_symbol
 _atom_site_label
 _atom_site_symmetry_multiplicity
 _atom_site_fract_x
 _atom_site_fract_y
 _atom_site_fract_z
 _atom_site_occupancy
  Li  Li0  1  0.25000000  0.48745100  0.39238400  1
  Li  Li1  1  0.25000000  0.98745100  0.10761600  1
  Li  Li2  1  0.75000000  0.51254900  0.60761600  1
  Li  Li3  1  0.75000000  0.01254900  0.89238400  1
  Sm  Sm4  1  0.25000000  0.13918900  0.63606500  1
  Sm  Sm5  1  0.25000000  0.63918900  0.86393500  1
  Sm  Sm6  1  0.75000000  0.86081100  0.36393500  1
  Sm  Sm7  1  0.75000000  0.36081100  0.13606500  1
  Ge  Ge8  1  0.25000000  0.22674500  0.93461400  1
  Ge  Ge9  1  0.25000000  0.72674500  0.56538600  1
  Ge  Ge10  1  0.75000000  0.77325500  0.06538600  1
  Ge  Ge11  1  0.75000000  0.27325500  0.43461400  1
  Ge  Ge12  1  0.25000000  0.15279400  0.31431000  1
  Ge  Ge13  1  0.25000000  0.65279400  0.18569000  1
  Ge  Ge14  1  0.75000000  0.84720600  0.68569000  1
  Ge  Ge15  1  0.75000000  0.34720600  0.81431000  1
