# generated using pymatgen
data_YbMgAu
_symmetry_space_group_name_H-M   'P 1'
_cell_length_a   4.43107800
_cell_length_b   7.29539700
_cell_length_c   8.70539000
_cell_angle_alpha   90.00000000
_cell_angle_beta   90.00000000
_cell_angle_gamma   90.00000000
_symmetry_Int_Tables_number   1
_chemical_formula_structural   YbMgAu
_chemical_formula_sum   'Yb4 Mg4 Au4'
_cell_volume   281.41455608
_cell_formula_units_Z   4
loop_
 _symmetry_equiv_pos_site_id
 _symmetry_equiv_pos_as_xyz
  1  'x, y, z'
loop_
 _atom_site_type_symbol
 _atom_site_label
 _atom_site_symmetry_multiplicity
 _atom_site_fract_x
 _atom_site_fract_y
 _atom_site_fract_z
 _atom_site_occupancy
  Yb  Yb0  1  0.75000000  0.96254000  0.67507100  1
  Yb  Yb1  1  0.25000000  0.53746000  0.17507100  1
  Yb  Yb2  1  0.75000000  0.46254000  0.82492900  1
  Yb  Yb3  1  0.25000000  0.03746000  0.32492900  1
  Mg  Mg4  1  0.25000000  0.13766400  0.94032800  1
  Mg  Mg5  1  0.25000000  0.63766400  0.55967200  1
  Mg  Mg6  1  0.75000000  0.86233600  0.05967200  1
  Mg  Mg7  1  0.75000000  0.36233600  0.44032800  1
  Au  Au8  1  0.25000000  0.25925300  0.62876000  1
  Au  Au9  1  0.25000000  0.75925300  0.87124000  1
  Au  Au10  1  0.75000000  0.24074700  0.12876000  1
  Au  Au11  1  0.75000000  0.74074700  0.37124000  1
