# generated using pymatgen
data_Rb2LaCl5
_symmetry_space_group_name_H-M   'P 1'
_cell_length_a   8.41417000
_cell_length_b   9.02051300
_cell_length_c   13.69701600
_cell_angle_alpha   90.00000000
_cell_angle_beta   90.00000000
_cell_angle_gamma   90.00000000
_symmetry_Int_Tables_number   1
_chemical_formula_structural   Rb2LaCl5
_chemical_formula_sum   'Rb8 La4 Cl20'
_cell_volume   1039.60529322
_cell_formula_units_Z   4
loop_
 _symmetry_equiv_pos_site_id
 _symmetry_equiv_pos_as_xyz
  1  'x, y, z'
loop_
 _atom_site_type_symbol
 _atom_site_label
 _atom_site_symmetry_multiplicity
 _atom_site_fract_x
 _atom_site_fract_y
 _atom_site_fract_z
 _atom_site_occupancy
  Rb  Rb0  1  0.53301000  0.49969600  0.82611400  1
  Rb  Rb1  1  0.46699000  0.50030400  0.17388600  1
  Rb  Rb2  1  0.03301000  0.50030400  0.67388600  1
  Rb  Rb3  1  0.46699000  0.99969600  0.17388600  1
  Rb  Rb4  1  0.96699000  0.49969600  0.32611400  1
  Rb  Rb5  1  0.53301000  0.00030400  0.82611400  1
  Rb  Rb6  1  0.96699000  0.00030400  0.32611400  1
  Rb  Rb7  1  0.03301000  0.99969600  0.67388600  1
  La  La8  1  0.57138700  0.75000000  0.50226700  1
  La  La9  1  0.42861300  0.25000000  0.49773300  1
  La  La10  1  0.07138700  0.25000000  0.99773300  1
  La  La11  1  0.92861300  0.75000000  0.00226700  1
  Cl  Cl12  1  0.83056900  0.75000000  0.80408400  1
  Cl  Cl13  1  0.16943100  0.25000000  0.19591600  1
  Cl  Cl14  1  0.33056900  0.25000000  0.69591600  1
  Cl  Cl15  1  0.66943100  0.75000000  0.30408400  1
  Cl  Cl16  1  0.36434000  0.75000000  0.66489000  1
  Cl  Cl17  1  0.63566000  0.25000000  0.33511000  1
  Cl  Cl18  1  0.86434000  0.25000000  0.83511000  1
  Cl  Cl19  1  0.13566000  0.75000000  0.16489000  1
  Cl  Cl20  1  0.90910700  0.75000000  0.51199100  1
  Cl  Cl21  1  0.09089300  0.25000000  0.48800900  1
  Cl  Cl22  1  0.40910700  0.25000000  0.98800900  1
  Cl  Cl23  1  0.59089300  0.75000000  0.01199100  1
  Cl  Cl24  1  0.65258800  0.03866600  0.58166400  1
  Cl  Cl25  1  0.34741200  0.96133400  0.41833600  1
  Cl  Cl26  1  0.15258800  0.96133400  0.91833600  1
  Cl  Cl27  1  0.34741200  0.53866600  0.41833600  1
  Cl  Cl28  1  0.84741200  0.03866600  0.08166400  1
  Cl  Cl29  1  0.65258800  0.46133400  0.58166400  1
  Cl  Cl30  1  0.84741200  0.46133400  0.08166400  1
  Cl  Cl31  1  0.15258800  0.53866600  0.91833600  1
