# generated using pymatgen
data_K2ThF6
_symmetry_space_group_name_H-M   'P 1'
_cell_length_a   7.35631819
_cell_length_b   7.35631819
_cell_length_c   7.35631819
_cell_angle_alpha   146.73906476
_cell_angle_beta   130.21542856
_cell_angle_gamma   61.19403948
_symmetry_Int_Tables_number   1
_chemical_formula_structural   K2ThF6
_chemical_formula_sum   'K2 Th1 F6'
_cell_volume   165.11533241
_cell_formula_units_Z   1
loop_
 _symmetry_equiv_pos_site_id
 _symmetry_equiv_pos_as_xyz
  1  'x, y, z'
loop_
 _atom_site_type_symbol
 _atom_site_label
 _atom_site_symmetry_multiplicity
 _atom_site_fract_x
 _atom_site_fract_y
 _atom_site_fract_z
 _atom_site_occupancy
  K  K0  1  0.66984700  0.66984700  0.00000000  1
  K  K1  1  0.33015300  0.33015300  0.00000000  1
  Th  Th2  1  0.00000000  0.00000000  0.00000000  1
  F  F3  1  0.79570900  0.50000000  0.29570900  1
  F  F4  1  0.36803000  0.14199600  0.22603400  1
  F  F5  1  0.08403900  0.85800400  0.22603400  1
  F  F6  1  0.20429100  0.50000000  0.70429100  1
  F  F7  1  0.91596100  0.14199600  0.77396600  1
  F  F8  1  0.63197000  0.85800400  0.77396600  1
