# generated using pymatgen
data_Ba3NaEu3(Si3O10)2
_symmetry_space_group_name_H-M   'P 1'
_cell_length_a   5.64803584
_cell_length_b   12.48655582
_cell_length_c   14.99474606
_cell_angle_alpha   90.00000000
_cell_angle_beta   90.00000000
_cell_angle_gamma   103.07409919
_symmetry_Int_Tables_number   1
_chemical_formula_structural   Ba3NaEu3(Si3O10)2
_chemical_formula_sum   'Ba6 Na2 Eu6 Si12 O40'
_cell_volume   1030.08509348
_cell_formula_units_Z   2
loop_
 _symmetry_equiv_pos_site_id
 _symmetry_equiv_pos_as_xyz
  1  'x, y, z'
loop_
 _atom_site_type_symbol
 _atom_site_label
 _atom_site_symmetry_multiplicity
 _atom_site_fract_x
 _atom_site_fract_y
 _atom_site_fract_z
 _atom_site_occupancy
  Ba  Ba0  1  0.82545482  0.83712470  0.75000000  1
  Ba  Ba1  1  0.98825797  0.16285748  0.25000000  1
  Ba  Ba2  1  0.14952876  0.48652026  0.11303524  1
  Ba  Ba3  1  0.66299418  0.51334151  0.88697879  1
  Ba  Ba4  1  0.14952876  0.48652026  0.38696476  1
  Ba  Ba5  1  0.66299418  0.51334151  0.61302121  1
  Na  Na6  1  0.44600699  0.22469319  0.75000000  1
  Na  Na7  1  0.22118347  0.77530313  0.25000000  1
  Eu  Eu8  1  0.36327379  0.77935127  0.96806378  1
  Eu  Eu9  1  0.58417971  0.22063826  0.03192172  1
  Eu  Eu10  1  0.36327379  0.77935127  0.53193622  1
  Eu  Eu11  1  0.58417971  0.22063826  0.46807828  1
  Eu  Eu12  1  0.97296440  0.99999104  0.00002420  1
  Eu  Eu13  1  0.97296440  0.99999104  0.49997580  1
  Si  Si14  1  0.78669200  0.69729569  0.05729499  1
  Si  Si15  1  0.08951783  0.30273137  0.94269407  1
  Si  Si16  1  0.78669200  0.69729569  0.44270501  1
  Si  Si17  1  0.08951783  0.30273137  0.55730593  1
  Si  Si18  1  0.25564292  0.63833075  0.75000000  1
  Si  Si19  1  0.61729130  0.36166357  0.25000000  1
  Si  Si20  1  0.42031394  0.00161747  0.85934208  1
  Si  Si21  1  0.41856510  0.99839839  0.14066017  1
  Si  Si22  1  0.42031394  0.00161747  0.64065792  1
  Si  Si23  1  0.41856510  0.99839839  0.35933983  1
  Si  Si24  1  0.06840457  0.37899865  0.75000000  1
  Si  Si25  1  0.68928836  0.62098751  0.25000000  1
  O  O26  1  0.43197037  0.02983271  0.75000000  1
  O  O27  1  0.40183888  0.97020049  0.25000000  1
  O  O28  1  0.84830944  0.68574010  0.16549338  1
  O  O29  1  0.16274456  0.31425836  0.83452034  1
  O  O30  1  0.84830944  0.68574010  0.33450662  1
  O  O31  1  0.16274456  0.31425836  0.66547966  1
  O  O32  1  0.26198567  0.50208777  0.75000000  1
  O  O33  1  0.75978352  0.49792337  0.25000000  1
  O  O34  1  0.51695096  0.62275601  0.03173308  1
  O  O35  1  0.89447163  0.37731963  0.96824614  1
  O  O36  1  0.51695096  0.62275601  0.46826692  1
  O  O37  1  0.89447163  0.37731963  0.53175386  1
  O  O38  1  0.42100011  0.68891987  0.83701042  1
  O  O39  1  0.73210574  0.31112395  0.16299974  1
  O  O40  1  0.42100011  0.68891987  0.66298958  1
  O  O41  1  0.73210574  0.31112395  0.33700026  1
  O  O42  1  0.99636496  0.65243037  0.00320478  1
  O  O43  1  0.34401734  0.34754435  0.99678997  1
  O  O44  1  0.99636496  0.65243037  0.49679522  1
  O  O45  1  0.34401734  0.34754435  0.50321003  1
  O  O46  1  0.17179392  0.90693940  0.88306078  1
  O  O47  1  0.26469901  0.09307292  0.11693931  1
  O  O48  1  0.17179392  0.90693940  0.61693922  1
  O  O49  1  0.26469901  0.09307292  0.38306069  1
  O  O50  1  0.39911373  0.11310516  0.91184265  1
  O  O51  1  0.28595996  0.88694356  0.08811331  1
  O  O52  1  0.39911373  0.11310516  0.58815735  1
  O  O53  1  0.28595996  0.88694356  0.41188669  1
  O  O54  1  0.76677731  0.82159960  0.03147756  1
  O  O55  1  0.94522364  0.17839740  0.96848532  1
  O  O56  1  0.76677731  0.82159960  0.46852244  1
  O  O57  1  0.94522364  0.17839740  0.53151468  1
  O  O58  1  0.64618155  0.94693001  0.88828258  1
  O  O59  1  0.69915322  0.05309237  0.11172192  1
  O  O60  1  0.64618155  0.94693001  0.61171742  1
  O  O61  1  0.69915322  0.05309237  0.38827808  1
  O  O62  1  0.97331202  0.64657079  0.75000000  1
  O  O63  1  0.32662070  0.35338769  0.25000000  1
  O  O64  1  0.40446037  0.61766146  0.25000000  1
  O  O65  1  0.78692047  0.38226010  0.75000000  1
