# generated using pymatgen
data_Ce2SiGe
_symmetry_space_group_name_H-M   'P 1'
_cell_length_a   3.95412700
_cell_length_b   5.89159100
_cell_length_c   8.20955900
_cell_angle_alpha   90.00000000
_cell_angle_beta   90.00000000
_cell_angle_gamma   90.00000000
_symmetry_Int_Tables_number   1
_chemical_formula_structural   Ce2SiGe
_chemical_formula_sum   'Ce4 Si2 Ge2'
_cell_volume   191.25069959
_cell_formula_units_Z   2
loop_
 _symmetry_equiv_pos_site_id
 _symmetry_equiv_pos_as_xyz
  1  'x, y, z'
loop_
 _atom_site_type_symbol
 _atom_site_label
 _atom_site_symmetry_multiplicity
 _atom_site_fract_x
 _atom_site_fract_y
 _atom_site_fract_z
 _atom_site_occupancy
  Ce  Ce0  1  0.00000000  0.13367100  0.68103500  1
  Ce  Ce1  1  0.00000000  0.86632900  0.18103500  1
  Ce  Ce2  1  0.50000000  0.36259900  0.31972400  1
  Ce  Ce3  1  0.50000000  0.63740100  0.81972400  1
  Si  Si4  1  0.50000000  0.88007500  0.46273100  1
  Si  Si5  1  0.50000000  0.11992500  0.96273100  1
  Ge  Ge6  1  0.00000000  0.62209200  0.53651000  1
  Ge  Ge7  1  0.00000000  0.37790800  0.03651000  1
