# generated using pymatgen
data_NiH12(NO6)2
_symmetry_space_group_name_H-M   'P 1'
_cell_length_a   5.88779400
_cell_length_b   7.68001486
_cell_length_c   11.86805826
_cell_angle_alpha   105.48482039
_cell_angle_beta   98.56207282
_cell_angle_gamma   101.68040212
_symmetry_Int_Tables_number   1
_chemical_formula_structural   NiH12(NO6)2
_chemical_formula_sum   'Ni2 H24 N4 O24'
_cell_volume   494.61715209
_cell_formula_units_Z   2
loop_
 _symmetry_equiv_pos_site_id
 _symmetry_equiv_pos_as_xyz
  1  'x, y, z'
loop_
 _atom_site_type_symbol
 _atom_site_label
 _atom_site_symmetry_multiplicity
 _atom_site_fract_x
 _atom_site_fract_y
 _atom_site_fract_z
 _atom_site_occupancy
  Ni  Ni0  1  0.32417100  0.85470700  0.76843100  1
  Ni  Ni1  1  0.67582900  0.14529300  0.23156900  1
  H  H2  1  0.29964600  0.51464900  0.62610800  1
  H  H3  1  0.70035400  0.48535100  0.37389200  1
  H  H4  1  0.34217300  0.65920800  0.55531800  1
  H  H5  1  0.65782700  0.34079200  0.44468200  1
  H  H6  1  0.79156600  0.89920000  0.81322700  1
  H  H7  1  0.20843400  0.10080000  0.18677300  1
  H  H8  1  0.73628300  0.09537000  0.86580200  1
  H  H9  1  0.26371700  0.90463000  0.13419800  1
  H  H10  1  0.28144000  0.06620000  0.97862500  1
  H  H11  1  0.71856000  0.93380000  0.02137500  1
  H  H12  1  0.33856600  0.19079600  0.89343200  1
  H  H13  1  0.66143400  0.80920400  0.10656800  1
  H  H14  1  0.52923700  0.05525000  0.64117300  1
  H  H15  1  0.47076300  0.94475000  0.35882700  1
  H  H16  1  0.27985900  0.10606000  0.63991900  1
  H  H17  1  0.72014100  0.89394000  0.36008100  1
  H  H18  1  0.89096300  0.62384600  0.66520100  1
  H  H19  1  0.10903700  0.37615400  0.33479900  1
  H  H20  1  0.91105800  0.79724800  0.61701900  1
  H  H21  1  0.08894200  0.20275200  0.38298100  1
  H  H22  1  0.35084000  0.58159600  0.86937800  1
  H  H23  1  0.64916000  0.41840400  0.13062200  1
  H  H24  1  0.10476000  0.64114800  0.88017300  1
  H  H25  1  0.89524000  0.35885200  0.11982700  1
  N  N26  1  0.70452400  0.44276500  0.87274900  1
  N  N27  1  0.29547600  0.55723500  0.12725100  1
  N  N28  1  0.91632200  0.23918100  0.60778600  1
  N  N29  1  0.08367800  0.76081900  0.39221400  1
  O  O30  1  0.39132700  0.64209200  0.63390500  1
  O  O31  1  0.60867300  0.35790800  0.36609500  1
  O  O32  1  0.68331200  0.95923200  0.85615600  1
  O  O33  1  0.31668800  0.04076800  0.14384400  1
  O  O34  1  0.25100700  0.06668800  0.89474200  1
  O  O35  1  0.74899300  0.93331200  0.10525800  1
  O  O36  1  0.36441700  0.01038700  0.64987300  1
  O  O37  1  0.63558300  0.98961300  0.35012700  1
  O  O38  1  0.95438900  0.76054600  0.68856300  1
  O  O39  1  0.04561100  0.23945400  0.31143700  1
  O  O40  1  0.27142200  0.68501700  0.87315300  1
  O  O41  1  0.72857800  0.31498300  0.12684700  1
  O  O42  1  0.79885600  0.60721800  0.87579900  1
  O  O43  1  0.20114400  0.39278200  0.12420100  1
  O  O44  1  0.48021700  0.39529800  0.86687900  1
  O  O45  1  0.51978300  0.60470200  0.13312100  1
  O  O46  1  0.82898800  0.32767400  0.87511500  1
  O  O47  1  0.17101200  0.67232600  0.12488500  1
  O  O48  1  0.79296500  0.35526800  0.60018900  1
  O  O49  1  0.20703500  0.64473200  0.39981100  1
  O  O50  1  0.82822100  0.08846300  0.62547900  1
  O  O51  1  0.17177900  0.91153700  0.37452100  1
  O  O52  1  0.13217400  0.27494500  0.59642500  1
  O  O53  1  0.86782600  0.72505500  0.40357500  1
