# generated using pymatgen
data_Tm3Ir
_symmetry_space_group_name_H-M   'P 1'
_cell_length_a   6.27389000
_cell_length_b   7.20912500
_cell_length_c   9.11461300
_cell_angle_alpha   90.00000000
_cell_angle_beta   90.00000000
_cell_angle_gamma   90.00000000
_symmetry_Int_Tables_number   1
_chemical_formula_structural   Tm3Ir
_chemical_formula_sum   'Tm12 Ir4'
_cell_volume   412.24717608
_cell_formula_units_Z   4
loop_
 _symmetry_equiv_pos_site_id
 _symmetry_equiv_pos_as_xyz
  1  'x, y, z'
loop_
 _atom_site_type_symbol
 _atom_site_label
 _atom_site_symmetry_multiplicity
 _atom_site_fract_x
 _atom_site_fract_y
 _atom_site_fract_z
 _atom_site_occupancy
  Tm  Tm0  1  0.32862500  0.67685900  0.06231100  1
  Tm  Tm1  1  0.17137500  0.17685900  0.43768900  1
  Tm  Tm2  1  0.67137500  0.32314100  0.56231100  1
  Tm  Tm3  1  0.82862500  0.82314100  0.93768900  1
  Tm  Tm4  1  0.67137500  0.32314100  0.93768900  1
  Tm  Tm5  1  0.82862500  0.82314100  0.56231100  1
  Tm  Tm6  1  0.32862500  0.67685900  0.43768900  1
  Tm  Tm7  1  0.17137500  0.17685900  0.06231100  1
  Tm  Tm8  1  0.86668800  0.53473500  0.25000000  1
  Tm  Tm9  1  0.63331200  0.03473500  0.25000000  1
  Tm  Tm10  1  0.13331200  0.46526500  0.75000000  1
  Tm  Tm11  1  0.36668800  0.96526500  0.75000000  1
  Ir  Ir12  1  0.04622300  0.88201200  0.25000000  1
  Ir  Ir13  1  0.45377700  0.38201200  0.25000000  1
  Ir  Ir14  1  0.95377700  0.11798800  0.75000000  1
  Ir  Ir15  1  0.54622300  0.61798800  0.75000000  1
