# generated using pymatgen
data_TiMo3
_symmetry_space_group_name_H-M   'P 1'
_cell_length_a   5.25553369
_cell_length_b   5.25553369
_cell_length_c   5.25553369
_cell_angle_alpha   144.81448282
_cell_angle_beta   129.93738133
_cell_angle_gamma   62.66188479
_symmetry_Int_Tables_number   1
_chemical_formula_structural   TiMo3
_chemical_formula_sum   'Ti1 Mo3'
_cell_volume   63.42803022
_cell_formula_units_Z   1
loop_
 _symmetry_equiv_pos_site_id
 _symmetry_equiv_pos_as_xyz
  1  'x, y, z'
loop_
 _atom_site_type_symbol
 _atom_site_label
 _atom_site_symmetry_multiplicity
 _atom_site_fract_x
 _atom_site_fract_y
 _atom_site_fract_z
 _atom_site_occupancy
  Ti  Ti0  1  0.50000000  0.00000000  0.50000000  1
  Mo  Mo1  1  0.75596800  0.75596800  0.00000000  1
  Mo  Mo2  1  0.24403200  0.24403200  0.00000000  1
  Mo  Mo3  1  0.00000000  0.50000000  0.50000000  1
