# generated using pymatgen
data_Pr(Ni2B)6
_symmetry_space_group_name_H-M   'P 1'
_cell_length_a   6.06396711
_cell_length_b   6.06396711
_cell_length_c   11.03842500
_cell_angle_alpha   90.00000000
_cell_angle_beta   90.00000000
_cell_angle_gamma   104.68005621
_symmetry_Int_Tables_number   1
_chemical_formula_structural   Pr(Ni2B)6
_chemical_formula_sum   'Pr2 Ni24 B12'
_cell_volume   392.65137833
_cell_formula_units_Z   2
loop_
 _symmetry_equiv_pos_site_id
 _symmetry_equiv_pos_as_xyz
  1  'x, y, z'
loop_
 _atom_site_type_symbol
 _atom_site_label
 _atom_site_symmetry_multiplicity
 _atom_site_fract_x
 _atom_site_fract_y
 _atom_site_fract_z
 _atom_site_occupancy
  Pr  Pr0  1  0.83483800  0.83483800  0.49858900  1
  Pr  Pr1  1  0.16516200  0.16516200  0.99858900  1
  Ni  Ni2  1  0.56698300  0.56698300  0.91787500  1
  Ni  Ni3  1  0.43301700  0.43301700  0.41787500  1
  Ni  Ni4  1  0.77892600  0.77892600  0.09819800  1
  Ni  Ni5  1  0.22107400  0.22107400  0.59819800  1
  Ni  Ni6  1  0.54139200  0.80464200  0.73486400  1
  Ni  Ni7  1  0.80464200  0.54139200  0.73486400  1
  Ni  Ni8  1  0.45860800  0.19535800  0.23486400  1
  Ni  Ni9  1  0.19535800  0.45860800  0.23486400  1
  Ni  Ni10  1  0.14632000  0.87976700  0.75602400  1
  Ni  Ni11  1  0.87976700  0.14632000  0.75602400  1
  Ni  Ni12  1  0.85368000  0.12023300  0.25602400  1
  Ni  Ni13  1  0.12023300  0.85368000  0.25602400  1
  Ni  Ni14  1  0.65942800  0.27394900  0.56743800  1
  Ni  Ni15  1  0.27394900  0.65942800  0.56743800  1
  Ni  Ni16  1  0.34057200  0.72605100  0.06743800  1
  Ni  Ni17  1  0.72605100  0.34057200  0.06743800  1
  Ni  Ni18  1  0.62947500  0.99432200  0.93664400  1
  Ni  Ni19  1  0.99432200  0.62947500  0.93664400  1
  Ni  Ni20  1  0.37052500  0.00567800  0.43664400  1
  Ni  Ni21  1  0.00567800  0.37052500  0.43664400  1
  Ni  Ni22  1  0.47515900  0.21155000  0.77447300  1
  Ni  Ni23  1  0.21155000  0.47515900  0.77447300  1
  Ni  Ni24  1  0.52484100  0.78845000  0.27447300  1
  Ni  Ni25  1  0.78845000  0.52484100  0.27447300  1
  B  B26  1  0.83542800  0.83542800  0.83455400  1
  B  B27  1  0.16457200  0.16457200  0.33455400  1
  B  B28  1  0.48523300  0.48523300  0.65823900  1
  B  B29  1  0.51476700  0.51476700  0.15823900  1
  B  B30  1  0.32462000  0.75275400  0.88569200  1
  B  B31  1  0.75275400  0.32462000  0.88569200  1
  B  B32  1  0.67538000  0.24724600  0.38569200  1
  B  B33  1  0.24724600  0.67538000  0.38569200  1
  B  B34  1  0.39958200  0.98820600  0.62263800  1
  B  B35  1  0.98820600  0.39958200  0.62263800  1
  B  B36  1  0.60041800  0.01179400  0.12263800  1
  B  B37  1  0.01179400  0.60041800  0.12263800  1
