# generated using pymatgen
data_K4Nb8Si(P2O17)2
_symmetry_space_group_name_H-M   'P 1'
_cell_length_a   10.78115900
_cell_length_b   10.78115900
_cell_length_c   6.52508000
_cell_angle_alpha   90.00000000
_cell_angle_beta   90.00000000
_cell_angle_gamma   90.00000000
_symmetry_Int_Tables_number   1
_chemical_formula_structural   K4Nb8Si(P2O17)2
_chemical_formula_sum   'K4 Nb8 Si1 P4 O34'
_cell_volume   758.43216440
_cell_formula_units_Z   1
loop_
 _symmetry_equiv_pos_site_id
 _symmetry_equiv_pos_as_xyz
  1  'x, y, z'
loop_
 _atom_site_type_symbol
 _atom_site_label
 _atom_site_symmetry_multiplicity
 _atom_site_fract_x
 _atom_site_fract_y
 _atom_site_fract_z
 _atom_site_occupancy
  K  K0  1  0.50000000  0.50000000  0.50000000  1
  K  K1  1  0.00000000  0.50000000  0.30017100  1
  K  K2  1  0.50000000  0.00000000  0.69982900  1
  K  K3  1  0.00000000  0.00000000  0.50000000  1
  Nb  Nb4  1  0.17795400  0.17795400  0.00000000  1
  Nb  Nb5  1  0.82204600  0.82204600  0.00000000  1
  Nb  Nb6  1  0.82204600  0.17795400  0.00000000  1
  Nb  Nb7  1  0.17795400  0.82204600  0.00000000  1
  Nb  Nb8  1  0.50000000  0.18661000  0.20218200  1
  Nb  Nb9  1  0.81339000  0.50000000  0.79781800  1
  Nb  Nb10  1  0.18661000  0.50000000  0.79781800  1
  Nb  Nb11  1  0.50000000  0.81339000  0.20218200  1
  Si  Si12  1  0.50000000  0.50000000  0.00000000  1
  P  P13  1  0.24016300  0.24016300  0.50000000  1
  P  P14  1  0.24016300  0.75983700  0.50000000  1
  P  P15  1  0.75983700  0.75983700  0.50000000  1
  P  P16  1  0.75983700  0.24016300  0.50000000  1
  O  O17  1  0.16112600  0.19636600  0.31323000  1
  O  O18  1  0.83887400  0.80363400  0.31323000  1
  O  O19  1  0.80363400  0.16112600  0.68677000  1
  O  O20  1  0.19636600  0.83887400  0.68677000  1
  O  O21  1  0.83887400  0.19636600  0.31323000  1
  O  O22  1  0.80363400  0.83887400  0.68677000  1
  O  O23  1  0.19636600  0.16112600  0.68677000  1
  O  O24  1  0.16112600  0.80363400  0.31323000  1
  O  O25  1  0.82455600  0.00000000  0.02817800  1
  O  O26  1  0.00000000  0.82455600  0.97182200  1
  O  O27  1  0.00000000  0.17544400  0.97182200  1
  O  O28  1  0.17544400  0.00000000  0.02817800  1
  O  O29  1  0.50000000  0.37460500  0.14864400  1
  O  O30  1  0.62539500  0.50000000  0.85135600  1
  O  O31  1  0.37460500  0.50000000  0.85135600  1
  O  O32  1  0.50000000  0.62539500  0.14864400  1
  O  O33  1  0.37805600  0.21439500  0.45924100  1
  O  O34  1  0.50000000  0.00000000  0.25363600  1
  O  O35  1  0.00000000  0.50000000  0.74636400  1
  O  O36  1  0.36306200  0.82752400  0.02160600  1
  O  O37  1  0.17247600  0.36306200  0.97839400  1
  O  O38  1  0.82752400  0.63693800  0.97839400  1
  O  O39  1  0.63693800  0.17247600  0.02160600  1
  O  O40  1  0.17247600  0.63693800  0.97839400  1
  O  O41  1  0.82752400  0.36306200  0.97839400  1
  O  O42  1  0.63693800  0.82752400  0.02160600  1
  O  O43  1  0.36306200  0.17247600  0.02160600  1
  O  O44  1  0.37805600  0.78560500  0.45924100  1
  O  O45  1  0.21439500  0.37805600  0.54075900  1
  O  O46  1  0.78560500  0.62194400  0.54075900  1
  O  O47  1  0.62194400  0.21439500  0.45924100  1
  O  O48  1  0.21439500  0.62194400  0.54075900  1
  O  O49  1  0.78560500  0.37805600  0.54075900  1
  O  O50  1  0.62194400  0.78560500  0.45924100  1
