# generated using pymatgen
data_K2PdSe2
_symmetry_space_group_name_H-M   'P 1'
_cell_length_a   6.47318937
_cell_length_b   6.47318937
_cell_length_c   6.47318937
_cell_angle_alpha   145.63261735
_cell_angle_beta   109.08278585
_cell_angle_gamma   81.23576315
_symmetry_Int_Tables_number   1
_chemical_formula_structural   K2PdSe2
_chemical_formula_sum   'K2 Pd1 Se2'
_cell_volume   141.14748517
_cell_formula_units_Z   1
loop_
 _symmetry_equiv_pos_site_id
 _symmetry_equiv_pos_as_xyz
  1  'x, y, z'
loop_
 _atom_site_type_symbol
 _atom_site_label
 _atom_site_symmetry_multiplicity
 _atom_site_fract_x
 _atom_site_fract_y
 _atom_site_fract_z
 _atom_site_occupancy
  K  K0  1  0.69462700  0.19462700  0.50000000  1
  K  K1  1  0.30537300  0.80537300  0.50000000  1
  Pd  Pd2  1  0.00000000  0.00000000  0.00000000  1
  Se  Se3  1  0.21708900  0.50000000  0.71708900  1
  Se  Se4  1  0.78291100  0.50000000  0.28291100  1
