# generated using pymatgen
data_LaB5H5NO14
_symmetry_space_group_name_H-M   'P 1'
_cell_length_a   15.66309800
_cell_length_b   6.57336200
_cell_length_c   12.45339242
_cell_angle_alpha   58.70642008
_cell_angle_beta   90.00000000
_cell_angle_gamma   90.00000000
_symmetry_Int_Tables_number   1
_chemical_formula_structural   LaB5H5NO14
_chemical_formula_sum   'La4 B20 H20 N4 O56'
_cell_volume   1095.65446967
_cell_formula_units_Z   4
loop_
 _symmetry_equiv_pos_site_id
 _symmetry_equiv_pos_as_xyz
  1  'x, y, z'
loop_
 _atom_site_type_symbol
 _atom_site_label
 _atom_site_symmetry_multiplicity
 _atom_site_fract_x
 _atom_site_fract_y
 _atom_site_fract_z
 _atom_site_occupancy
  La  La0  1  0.69729400  0.82064100  0.33090100  1
  La  La1  1  0.80270600  0.82064100  0.83090100  1
  La  La2  1  0.30270600  0.17935900  0.66909900  1
  La  La3  1  0.19729400  0.17935900  0.16909900  1
  B  B4  1  0.96477300  0.17202300  0.08922500  1
  B  B5  1  0.53522700  0.17202300  0.58922500  1
  B  B6  1  0.03522700  0.82797700  0.91077500  1
  B  B7  1  0.46477300  0.82797700  0.41077500  1
  B  B8  1  0.84139100  0.37464500  0.11567600  1
  B  B9  1  0.65860900  0.37464500  0.61567600  1
  B  B10  1  0.15860900  0.62535500  0.88432400  1
  B  B11  1  0.34139100  0.62535500  0.38432400  1
  B  B12  1  0.82390600  0.14150300  0.01351000  1
  B  B13  1  0.67609400  0.14150300  0.51351000  1
  B  B14  1  0.17609400  0.85849700  0.98649000  1
  B  B15  1  0.32390600  0.85849700  0.48649000  1
  B  B16  1  0.79815100  0.69985200  0.15465900  1
  B  B17  1  0.70184900  0.69985200  0.65465900  1
  B  B18  1  0.20184900  0.30014800  0.84534100  1
  B  B19  1  0.29815100  0.30014800  0.34534100  1
  B  B20  1  0.75762400  0.29518500  0.30616600  1
  B  B21  1  0.74237600  0.29518500  0.80616600  1
  B  B22  1  0.24237600  0.70481500  0.69383400  1
  B  B23  1  0.25762400  0.70481500  0.19383400  1
  H  H24  1  0.06076800  0.01221800  0.06580800  1
  H  H25  1  0.43923200  0.01221800  0.56580800  1
  H  H26  1  0.93923200  0.98778200  0.93419200  1
  H  H27  1  0.56076800  0.98778200  0.43419200  1
  H  H28  1  0.67044600  0.29837900  0.07331700  1
  H  H29  1  0.82955400  0.29837900  0.57331700  1
  H  H30  1  0.32955400  0.70162100  0.92668300  1
  H  H31  1  0.17044600  0.70162100  0.42668300  1
  H  H32  1  0.57427600  0.20314300  0.10279300  1
  H  H33  1  0.92572400  0.20314300  0.60279300  1
  H  H34  1  0.42572400  0.79685700  0.89720700  1
  H  H35  1  0.07427600  0.79685700  0.39720700  1
  H  H36  1  0.52267800  0.65720800  0.27822700  1
  H  H37  1  0.97732200  0.65720800  0.77822700  1
  H  H38  1  0.47732200  0.34279200  0.72177300  1
  H  H39  1  0.02267800  0.34279200  0.22177300  1
  H  H40  1  0.57352400  0.68734700  0.16086500  1
  H  H41  1  0.92647600  0.68734700  0.66086500  1
  H  H42  1  0.42647600  0.31265300  0.83913500  1
  H  H43  1  0.07352400  0.31265300  0.33913500  1
  N  N44  1  0.91211000  0.74612700  0.42611700  1
  N  N45  1  0.58789000  0.74612700  0.92611700  1
  N  N46  1  0.08789000  0.25387300  0.57388300  1
  N  N47  1  0.41211000  0.25387300  0.07388300  1
  O  O48  1  0.04957300  0.10189600  0.10999200  1
  O  O49  1  0.45042700  0.10189600  0.60999200  1
  O  O50  1  0.95042700  0.89810400  0.89000800  1
  O  O51  1  0.54957300  0.89810400  0.39000800  1
  O  O52  1  0.93257500  0.30850000  0.13363900  1
  O  O53  1  0.56742500  0.30850000  0.63363900  1
  O  O54  1  0.06742500  0.69150000  0.86636100  1
  O  O55  1  0.43257500  0.69150000  0.36636100  1
  O  O56  1  0.91664900  0.10561900  0.01984200  1
  O  O57  1  0.58335100  0.10561900  0.51984200  1
  O  O58  1  0.08335100  0.89438100  0.98015800  1
  O  O59  1  0.41664900  0.89438100  0.48015800  1
  O  O60  1  0.80285200  0.35796600  0.01290400  1
  O  O61  1  0.69714800  0.35796600  0.51290400  1
  O  O62  1  0.19714800  0.64203400  0.98709600  1
  O  O63  1  0.30285200  0.64203400  0.48709600  1
  O  O64  1  0.79443100  0.21566800  0.23553300  1
  O  O65  1  0.70556900  0.21566800  0.73553300  1
  O  O66  1  0.20556900  0.78433200  0.76446700  1
  O  O67  1  0.29443100  0.78433200  0.26446700  1
  O  O68  1  0.78474200  0.92674100  0.12692100  1
  O  O69  1  0.71525800  0.92674100  0.62692100  1
  O  O70  1  0.21525800  0.07325900  0.87307900  1
  O  O71  1  0.28474200  0.07325900  0.37307900  1
  O  O72  1  0.83155400  0.62917300  0.07843000  1
  O  O73  1  0.66844600  0.62917300  0.57843000  1
  O  O74  1  0.16844600  0.37082700  0.92157000  1
  O  O75  1  0.33155400  0.37082700  0.42157000  1
  O  O76  1  0.76784100  0.52955500  0.27521200  1
  O  O77  1  0.73215900  0.52955500  0.77521200  1
  O  O78  1  0.23215900  0.47044500  0.72478800  1
  O  O79  1  0.26784100  0.47044500  0.22478800  1
  O  O80  1  0.70807900  0.13683300  0.40339400  1
  O  O81  1  0.79192100  0.13683300  0.90339400  1
  O  O82  1  0.29192100  0.86316700  0.59660600  1
  O  O83  1  0.20807900  0.86316700  0.09660600  1
  O  O84  1  0.83488200  0.72321100  0.46771100  1
  O  O85  1  0.66511800  0.72321100  0.96771100  1
  O  O86  1  0.16511800  0.27678900  0.53228900  1
  O  O87  1  0.33488200  0.27678900  0.03228900  1
  O  O88  1  0.92652000  0.75532900  0.32552100  1
  O  O89  1  0.57348000  0.75532900  0.82552100  1
  O  O90  1  0.07348000  0.24467100  0.67447900  1
  O  O91  1  0.42652000  0.24467100  0.17447900  1
  O  O92  1  0.97212300  0.75597400  0.49217000  1
  O  O93  1  0.52787700  0.75597400  0.99217000  1
  O  O94  1  0.02787700  0.24402600  0.50783000  1
  O  O95  1  0.47212300  0.24402600  0.00783000  1
  O  O96  1  0.58089800  0.66353600  0.24528000  1
  O  O97  1  0.91910200  0.66353600  0.74528000  1
  O  O98  1  0.41910200  0.33646400  0.75472000  1
  O  O99  1  0.08089800  0.33646400  0.25472000  1
  O  O100  1  0.63196400  0.18421900  0.13930000  1
  O  O101  1  0.86803600  0.18421900  0.63930000  1
  O  O102  1  0.36803600  0.81578100  0.86070000  1
  O  O103  1  0.13196400  0.81578100  0.36070000  1
