# generated using pymatgen
data_Rb2CeBr5
_symmetry_space_group_name_H-M   'P 1'
_cell_length_a   8.79279600
_cell_length_b   9.47326100
_cell_length_c   14.11578600
_cell_angle_alpha   90.00000000
_cell_angle_beta   90.00000000
_cell_angle_gamma   90.00000000
_symmetry_Int_Tables_number   1
_chemical_formula_structural   Rb2CeBr5
_chemical_formula_sum   'Rb8 Ce4 Br20'
_cell_volume   1175.79488291
_cell_formula_units_Z   4
loop_
 _symmetry_equiv_pos_site_id
 _symmetry_equiv_pos_as_xyz
  1  'x, y, z'
loop_
 _atom_site_type_symbol
 _atom_site_label
 _atom_site_symmetry_multiplicity
 _atom_site_fract_x
 _atom_site_fract_y
 _atom_site_fract_z
 _atom_site_occupancy
  Rb  Rb0  1  0.94704000  0.00504400  0.82805400  1
  Rb  Rb1  1  0.05296000  0.99495600  0.17194600  1
  Rb  Rb2  1  0.44704000  0.99495600  0.67194600  1
  Rb  Rb3  1  0.05296000  0.50504400  0.17194600  1
  Rb  Rb4  1  0.55296000  0.00504400  0.32805400  1
  Rb  Rb5  1  0.94704000  0.49495600  0.82805400  1
  Rb  Rb6  1  0.55296000  0.49495600  0.32805400  1
  Rb  Rb7  1  0.44704000  0.50504400  0.67194600  1
  Ce  Ce8  1  0.92617800  0.75000000  0.50402600  1
  Ce  Ce9  1  0.07382200  0.25000000  0.49597400  1
  Ce  Ce10  1  0.42617800  0.25000000  0.99597400  1
  Ce  Ce11  1  0.57382200  0.75000000  0.00402600  1
  Br  Br12  1  0.12075800  0.75000000  0.67506400  1
  Br  Br13  1  0.87924200  0.25000000  0.32493600  1
  Br  Br14  1  0.62075800  0.25000000  0.82493600  1
  Br  Br15  1  0.37924200  0.75000000  0.17506400  1
  Br  Br16  1  0.83855300  0.04261900  0.57420600  1
  Br  Br17  1  0.16144700  0.95738100  0.42579400  1
  Br  Br18  1  0.33855300  0.95738100  0.92579400  1
  Br  Br19  1  0.16144700  0.54261900  0.42579400  1
  Br  Br20  1  0.66144700  0.04261900  0.07420600  1
  Br  Br21  1  0.83855300  0.45738100  0.57420600  1
  Br  Br22  1  0.66144700  0.45738100  0.07420600  1
  Br  Br23  1  0.33855300  0.54261900  0.92579400  1
  Br  Br24  1  0.58578900  0.75000000  0.50951600  1
  Br  Br25  1  0.41421100  0.25000000  0.49048400  1
  Br  Br26  1  0.08578900  0.25000000  0.99048400  1
  Br  Br27  1  0.91421100  0.75000000  0.00951600  1
  Br  Br28  1  0.65995700  0.75000000  0.80145300  1
  Br  Br29  1  0.34004300  0.25000000  0.19854700  1
  Br  Br30  1  0.15995700  0.25000000  0.69854700  1
  Br  Br31  1  0.84004300  0.75000000  0.30145300  1
