# generated using pymatgen
data_Cs4Zr6BBr17
_symmetry_space_group_name_H-M   'P 1'
_cell_length_a   12.86440000
_cell_length_b   12.86440000
_cell_length_c   11.82046100
_cell_angle_alpha   90.00000000
_cell_angle_beta   90.00000000
_cell_angle_gamma   90.00000000
_symmetry_Int_Tables_number   1
_chemical_formula_structural   Cs4Zr6BBr17
_chemical_formula_sum   'Cs8 Zr12 B2 Br34'
_cell_volume   1956.20103877
_cell_formula_units_Z   2
loop_
 _symmetry_equiv_pos_site_id
 _symmetry_equiv_pos_as_xyz
  1  'x, y, z'
loop_
 _atom_site_type_symbol
 _atom_site_label
 _atom_site_symmetry_multiplicity
 _atom_site_fract_x
 _atom_site_fract_y
 _atom_site_fract_z
 _atom_site_occupancy
  Cs  Cs0  1  0.47903100  0.71937200  0.33919200  1
  Cs  Cs1  1  0.02096900  0.21937200  0.66080800  1
  Cs  Cs2  1  0.52096900  0.28062800  0.33919200  1
  Cs  Cs3  1  0.97903100  0.78062800  0.66080800  1
  Cs  Cs4  1  0.71937200  0.52096900  0.66080800  1
  Cs  Cs5  1  0.78062800  0.02096900  0.33919200  1
  Cs  Cs6  1  0.28062800  0.47903100  0.66080800  1
  Cs  Cs7  1  0.21937200  0.97903100  0.33919200  1
  Zr  Zr8  1  0.59204900  0.90795100  0.69733000  1
  Zr  Zr9  1  0.90795100  0.40795100  0.30267000  1
  Zr  Zr10  1  0.40795100  0.09204900  0.69733000  1
  Zr  Zr11  1  0.09204900  0.59204900  0.30267000  1
  Zr  Zr12  1  0.59195000  0.90805000  0.97822300  1
  Zr  Zr13  1  0.90805000  0.40805000  0.02177700  1
  Zr  Zr14  1  0.40805000  0.09195000  0.97822300  1
  Zr  Zr15  1  0.09195000  0.59195000  0.02177700  1
  Zr  Zr16  1  0.87114800  0.62885200  0.15926900  1
  Zr  Zr17  1  0.62885200  0.12885200  0.84073100  1
  Zr  Zr18  1  0.12885200  0.37114800  0.15926900  1
  Zr  Zr19  1  0.37114800  0.87114800  0.84073100  1
  B  B20  1  0.00000000  0.50000000  0.16169200  1
  B  B21  1  0.50000000  0.00000000  0.83830800  1
  Br  Br22  1  0.00000000  0.50000000  0.83670200  1
  Br  Br23  1  0.50000000  0.00000000  0.16329800  1
  Br  Br24  1  0.70546400  0.79453600  0.15980200  1
  Br  Br25  1  0.79453600  0.29453600  0.84019800  1
  Br  Br26  1  0.29453600  0.20546400  0.15980200  1
  Br  Br27  1  0.20546400  0.70546400  0.84019800  1
  Br  Br28  1  0.45573000  0.74787000  0.67967500  1
  Br  Br29  1  0.04427000  0.24787000  0.32032500  1
  Br  Br30  1  0.54427000  0.25213000  0.67967500  1
  Br  Br31  1  0.95573000  0.75213000  0.32032500  1
  Br  Br32  1  0.74787000  0.54427000  0.32032500  1
  Br  Br33  1  0.75213000  0.04427000  0.67967500  1
  Br  Br34  1  0.25213000  0.45573000  0.32032500  1
  Br  Br35  1  0.24787000  0.95573000  0.67967500  1
  Br  Br36  1  0.70477200  0.79522800  0.52849500  1
  Br  Br37  1  0.79522800  0.29522800  0.47150500  1
  Br  Br38  1  0.29522800  0.20477200  0.52849500  1
  Br  Br39  1  0.20477200  0.70477200  0.47150500  1
  Br  Br40  1  0.00000000  0.50000000  0.48779600  1
  Br  Br41  1  0.50000000  0.00000000  0.51220400  1
  Br  Br42  1  0.45939300  0.74605500  0.99835800  1
  Br  Br43  1  0.04060700  0.24605500  0.00164200  1
  Br  Br44  1  0.54060700  0.25394500  0.99835800  1
  Br  Br45  1  0.95939300  0.75394500  0.00164200  1
  Br  Br46  1  0.74605500  0.54060700  0.00164200  1
  Br  Br47  1  0.75394500  0.04060700  0.99835800  1
  Br  Br48  1  0.25394500  0.45939300  0.00164200  1
  Br  Br49  1  0.24605500  0.95939300  0.99835800  1
  Br  Br50  1  0.70884800  0.79115200  0.83750500  1
  Br  Br51  1  0.79115200  0.29115200  0.16249500  1
  Br  Br52  1  0.29115200  0.20884800  0.83750500  1
  Br  Br53  1  0.20884800  0.70884800  0.16249500  1
  Br  Br54  1  0.50000000  0.50000000  0.50000000  1
  Br  Br55  1  0.00000000  0.00000000  0.50000000  1
