# generated using pymatgen
data_Co9Te5(PbO5)6
_symmetry_space_group_name_H-M   'P 1'
_cell_length_a   10.54788220
_cell_length_b   10.54788220
_cell_length_c   13.82225000
_cell_angle_alpha   90.00000000
_cell_angle_beta   90.00000000
_cell_angle_gamma   120.00000126
_symmetry_Int_Tables_number   1
_chemical_formula_structural   Co9Te5(PbO5)6
_chemical_formula_sum   'Co18 Te10 Pb12 O60'
_cell_volume   1331.80276354
_cell_formula_units_Z   2
loop_
 _symmetry_equiv_pos_site_id
 _symmetry_equiv_pos_as_xyz
  1  'x, y, z'
loop_
 _atom_site_type_symbol
 _atom_site_label
 _atom_site_symmetry_multiplicity
 _atom_site_fract_x
 _atom_site_fract_y
 _atom_site_fract_z
 _atom_site_occupancy
  Co  Co0  1  0.33333300  0.66666700  0.38088800  1
  Co  Co1  1  0.66666700  0.33333300  0.61911200  1
  Co  Co2  1  0.66666700  0.33333300  0.88088800  1
  Co  Co3  1  0.33333300  0.66666700  0.11911200  1
  Co  Co4  1  0.16925500  0.83074500  0.75000000  1
  Co  Co5  1  0.16925500  0.33850900  0.75000000  1
  Co  Co6  1  0.66149100  0.83074500  0.75000000  1
  Co  Co7  1  0.83074500  0.16925500  0.25000000  1
  Co  Co8  1  0.33850900  0.16925500  0.25000000  1
  Co  Co9  1  0.83074500  0.66149100  0.25000000  1
  Co  Co10  1  0.00000000  0.00000000  0.25000000  1
  Co  Co11  1  0.00000000  0.00000000  0.75000000  1
  Co  Co12  1  0.00781300  0.50390700  0.75000000  1
  Co  Co13  1  0.49609300  0.50390700  0.75000000  1
  Co  Co14  1  0.49609300  0.99218700  0.75000000  1
  Co  Co15  1  0.50390700  0.00781300  0.25000000  1
  Co  Co16  1  0.50390700  0.49609300  0.25000000  1
  Co  Co17  1  0.99218700  0.49609300  0.25000000  1
  Te  Te18  1  0.33333300  0.66666700  0.59669600  1
  Te  Te19  1  0.66666700  0.33333300  0.40330400  1
  Te  Te20  1  0.66666700  0.33333300  0.09669600  1
  Te  Te21  1  0.33333300  0.66666700  0.90330400  1
  Te  Te22  1  0.16671600  0.83328400  0.25000000  1
  Te  Te23  1  0.16671600  0.33343200  0.25000000  1
  Te  Te24  1  0.66656800  0.83328400  0.25000000  1
  Te  Te25  1  0.83328400  0.16671600  0.75000000  1
  Te  Te26  1  0.33343200  0.16671600  0.75000000  1
  Te  Te27  1  0.83328400  0.66656800  0.75000000  1
  Pb  Pb28  1  0.26667200  0.00000000  0.50000000  1
  Pb  Pb29  1  0.00000000  0.26667200  0.50000000  1
  Pb  Pb30  1  0.73332800  0.73332800  0.50000000  1
  Pb  Pb31  1  0.73332800  0.00000000  0.00000000  1
  Pb  Pb32  1  0.00000000  0.73332800  0.00000000  1
  Pb  Pb33  1  0.26667200  0.26667200  0.00000000  1
  Pb  Pb34  1  0.38940200  0.38940200  0.50000000  1
  Pb  Pb35  1  0.61059800  0.00000000  0.50000000  1
  Pb  Pb36  1  0.00000000  0.61059800  0.50000000  1
  Pb  Pb37  1  0.61059800  0.61059800  0.00000000  1
  Pb  Pb38  1  0.38940200  0.00000000  0.00000000  1
  Pb  Pb39  1  0.00000000  0.38940200  0.00000000  1
  O  O40  1  0.33482600  0.00982000  0.67173400  1
  O  O41  1  0.99018000  0.32500600  0.67173400  1
  O  O42  1  0.67499400  0.66517400  0.67173400  1
  O  O43  1  0.00982000  0.33482600  0.32826600  1
  O  O44  1  0.32500600  0.99018000  0.32826600  1
  O  O45  1  0.66517400  0.67499400  0.32826600  1
  O  O46  1  0.66517400  0.99018000  0.17173400  1
  O  O47  1  0.00982000  0.67499400  0.17173400  1
  O  O48  1  0.32500600  0.33482600  0.17173400  1
  O  O49  1  0.99018000  0.66517400  0.82826600  1
  O  O50  1  0.67499400  0.00982000  0.82826600  1
  O  O51  1  0.33482600  0.32500600  0.82826600  1
  O  O52  1  0.17063200  0.66907100  0.66200000  1
  O  O53  1  0.33092900  0.50156100  0.66200000  1
  O  O54  1  0.49843900  0.82936800  0.66200000  1
  O  O55  1  0.66907100  0.17063200  0.33800000  1
  O  O56  1  0.50156100  0.33092900  0.33800000  1
  O  O57  1  0.82936800  0.49843900  0.33800000  1
  O  O58  1  0.82936800  0.33092900  0.16200000  1
  O  O59  1  0.66907100  0.49843900  0.16200000  1
  O  O60  1  0.50156100  0.17063200  0.16200000  1
  O  O61  1  0.33092900  0.82936800  0.83800000  1
  O  O62  1  0.49843900  0.66907100  0.83800000  1
  O  O63  1  0.17063200  0.50156100  0.83800000  1
  O  O64  1  0.16898200  0.98955600  0.17228000  1
  O  O65  1  0.01044400  0.17942600  0.17228000  1
  O  O66  1  0.82057400  0.83101800  0.17228000  1
  O  O67  1  0.98955600  0.16898200  0.82772000  1
  O  O68  1  0.17942600  0.01044400  0.82772000  1
  O  O69  1  0.83101800  0.82057400  0.82772000  1
  O  O70  1  0.83101800  0.01044400  0.67228000  1
  O  O71  1  0.98955600  0.82057400  0.67228000  1
  O  O72  1  0.17942600  0.16898200  0.67228000  1
  O  O73  1  0.01044400  0.83101800  0.32772000  1
  O  O74  1  0.82057400  0.98955600  0.32772000  1
  O  O75  1  0.16898200  0.17942600  0.32772000  1
  O  O76  1  0.32634300  0.84337800  0.17046000  1
  O  O77  1  0.15662200  0.48296500  0.17046000  1
  O  O78  1  0.51703500  0.67365700  0.17046000  1
  O  O79  1  0.84337800  0.32634300  0.82954000  1
  O  O80  1  0.48296500  0.15662200  0.82954000  1
  O  O81  1  0.67365700  0.51703500  0.82954000  1
  O  O82  1  0.67365700  0.15662200  0.67046000  1
  O  O83  1  0.84337800  0.51703500  0.67046000  1
  O  O84  1  0.48296500  0.32634300  0.67046000  1
  O  O85  1  0.15662200  0.67365700  0.32954000  1
  O  O86  1  0.51703500  0.84337800  0.32954000  1
  O  O87  1  0.32634300  0.48296500  0.32954000  1
  O  O88  1  0.34736000  0.82044200  0.50253900  1
  O  O89  1  0.17955800  0.52691800  0.50253900  1
  O  O90  1  0.47308200  0.65264000  0.50253900  1
  O  O91  1  0.82044200  0.34736000  0.49746100  1
  O  O92  1  0.52691800  0.17955800  0.49746100  1
  O  O93  1  0.65264000  0.47308200  0.49746100  1
  O  O94  1  0.65264000  0.17955800  0.00253900  1
  O  O95  1  0.82044200  0.47308200  0.00253900  1
  O  O96  1  0.52691800  0.34736000  0.00253900  1
  O  O97  1  0.17955800  0.65264000  0.99746100  1
  O  O98  1  0.47308200  0.82044200  0.99746100  1
  O  O99  1  0.34736000  0.52691800  0.99746100  1
