# generated using pymatgen
data_LiEuP
_symmetry_space_group_name_H-M   'P 1'
_cell_length_a   4.28538800
_cell_length_b   7.27762200
_cell_length_c   8.12447700
_cell_angle_alpha   90.00000000
_cell_angle_beta   90.00000000
_cell_angle_gamma   90.00000000
_symmetry_Int_Tables_number   1
_chemical_formula_structural   LiEuP
_chemical_formula_sum   'Li4 Eu4 P4'
_cell_volume   253.38159012
_cell_formula_units_Z   4
loop_
 _symmetry_equiv_pos_site_id
 _symmetry_equiv_pos_as_xyz
  1  'x, y, z'
loop_
 _atom_site_type_symbol
 _atom_site_label
 _atom_site_symmetry_multiplicity
 _atom_site_fract_x
 _atom_site_fract_y
 _atom_site_fract_z
 _atom_site_occupancy
  Li  Li0  1  0.25000000  0.63948800  0.55932100  1
  Li  Li1  1  0.75000000  0.36051200  0.44067900  1
  Li  Li2  1  0.75000000  0.86051200  0.05932100  1
  Li  Li3  1  0.25000000  0.13948800  0.94067900  1
  Eu  Eu4  1  0.25000000  0.52400900  0.18986100  1
  Eu  Eu5  1  0.75000000  0.47599100  0.81013900  1
  Eu  Eu6  1  0.75000000  0.97599100  0.68986100  1
  Eu  Eu7  1  0.25000000  0.02400900  0.31013900  1
  P  P8  1  0.25000000  0.77183000  0.89186700  1
  P  P9  1  0.75000000  0.22817000  0.10813300  1
  P  P10  1  0.75000000  0.72817000  0.39186700  1
  P  P11  1  0.25000000  0.27183000  0.60813300  1
