# generated using pymatgen
data_V2CrS4
_symmetry_space_group_name_H-M   'P 1'
_cell_length_a   6.44313482
_cell_length_b   6.44313482
_cell_length_c   5.84926183
_cell_angle_alpha   65.44663278
_cell_angle_beta   65.44663278
_cell_angle_gamma   29.49275986
_symmetry_Int_Tables_number   1
_chemical_formula_structural   V2CrS4
_chemical_formula_sum   'V2 Cr1 S4'
_cell_volume   107.94756655
_cell_formula_units_Z   1
loop_
 _symmetry_equiv_pos_site_id
 _symmetry_equiv_pos_as_xyz
  1  'x, y, z'
loop_
 _atom_site_type_symbol
 _atom_site_label
 _atom_site_symmetry_multiplicity
 _atom_site_fract_x
 _atom_site_fract_y
 _atom_site_fract_z
 _atom_site_occupancy
  V  V0  1  0.25820800  0.25820800  0.68291000  1
  V  V1  1  0.74179200  0.74179200  0.31709000  1
  Cr  Cr2  1  0.00000000  0.00000000  0.00000000  1
  S  S3  1  0.36095300  0.36095300  0.97979900  1
  S  S4  1  0.63904700  0.63904700  0.02020100  1
  S  S5  1  0.10906400  0.10906400  0.54939500  1
  S  S6  1  0.89093600  0.89093600  0.45060500  1
