# generated using pymatgen
data_HoAsSe
_symmetry_space_group_name_H-M   'P 1'
_cell_length_a   3.90157500
_cell_length_b   3.91798600
_cell_length_c   17.45881700
_cell_angle_alpha   90.00000000
_cell_angle_beta   90.00000000
_cell_angle_gamma   90.00000000
_symmetry_Int_Tables_number   1
_chemical_formula_structural   HoAsSe
_chemical_formula_sum   'Ho4 As4 Se4'
_cell_volume   266.88099763
_cell_formula_units_Z   4
loop_
 _symmetry_equiv_pos_site_id
 _symmetry_equiv_pos_as_xyz
  1  'x, y, z'
loop_
 _atom_site_type_symbol
 _atom_site_label
 _atom_site_symmetry_multiplicity
 _atom_site_fract_x
 _atom_site_fract_y
 _atom_site_fract_z
 _atom_site_occupancy
  Ho  Ho0  1  0.75000000  0.73056800  0.63913500  1
  Ho  Ho1  1  0.25000000  0.26943200  0.36086500  1
  Ho  Ho2  1  0.75000000  0.76943200  0.13913500  1
  Ho  Ho3  1  0.25000000  0.23056800  0.86086500  1
  As  As4  1  0.25000000  0.71614200  0.99812400  1
  As  As5  1  0.75000000  0.28385800  0.00187600  1
  As  As6  1  0.25000000  0.78385800  0.49812400  1
  As  As7  1  0.75000000  0.21614200  0.50187600  1
  Se  Se8  1  0.75000000  0.73177000  0.81231600  1
  Se  Se9  1  0.25000000  0.26823000  0.18768400  1
  Se  Se10  1  0.75000000  0.76823000  0.31231600  1
  Se  Se11  1  0.25000000  0.23177000  0.68768400  1
