# generated using pymatgen
data_EuInRh
_symmetry_space_group_name_H-M   'P 1'
_cell_length_a   4.40051400
_cell_length_b   7.47164300
_cell_length_c   8.54717800
_cell_angle_alpha   90.00000000
_cell_angle_beta   90.00000000
_cell_angle_gamma   90.00000000
_symmetry_Int_Tables_number   1
_chemical_formula_structural   EuInRh
_chemical_formula_sum   'Eu4 In4 Rh4'
_cell_volume   281.02326056
_cell_formula_units_Z   4
loop_
 _symmetry_equiv_pos_site_id
 _symmetry_equiv_pos_as_xyz
  1  'x, y, z'
loop_
 _atom_site_type_symbol
 _atom_site_label
 _atom_site_symmetry_multiplicity
 _atom_site_fract_x
 _atom_site_fract_y
 _atom_site_fract_z
 _atom_site_occupancy
  Eu  Eu0  1  0.25000000  0.02793800  0.32294700  1
  Eu  Eu1  1  0.25000000  0.52793800  0.17705300  1
  Eu  Eu2  1  0.75000000  0.97206200  0.67705300  1
  Eu  Eu3  1  0.75000000  0.47206200  0.82294700  1
  In  In4  1  0.25000000  0.14685300  0.93592900  1
  In  In5  1  0.25000000  0.64685300  0.56407100  1
  In  In6  1  0.75000000  0.85314700  0.06407100  1
  In  In7  1  0.75000000  0.35314700  0.43592900  1
  Rh  Rh8  1  0.25000000  0.27481000  0.62758000  1
  Rh  Rh9  1  0.25000000  0.77481000  0.87242000  1
  Rh  Rh10  1  0.75000000  0.72519000  0.37242000  1
  Rh  Rh11  1  0.75000000  0.22519000  0.12758000  1
