# generated using pymatgen
data_Yb2Si
_symmetry_space_group_name_H-M   'P 1'
_cell_length_a   4.79517300
_cell_length_b   7.46338600
_cell_length_c   8.96938900
_cell_angle_alpha   90.00000000
_cell_angle_beta   90.00000000
_cell_angle_gamma   90.00000000
_symmetry_Int_Tables_number   1
_chemical_formula_structural   Yb2Si
_chemical_formula_sum   'Yb8 Si4'
_cell_volume   320.99852990
_cell_formula_units_Z   4
loop_
 _symmetry_equiv_pos_site_id
 _symmetry_equiv_pos_as_xyz
  1  'x, y, z'
loop_
 _atom_site_type_symbol
 _atom_site_label
 _atom_site_symmetry_multiplicity
 _atom_site_fract_x
 _atom_site_fract_y
 _atom_site_fract_z
 _atom_site_occupancy
  Yb  Yb0  1  0.25000000  0.65493500  0.57473900  1
  Yb  Yb1  1  0.75000000  0.34506500  0.42526100  1
  Yb  Yb2  1  0.75000000  0.84506500  0.07473900  1
  Yb  Yb3  1  0.25000000  0.15493500  0.92526100  1
  Yb  Yb4  1  0.25000000  0.52008900  0.17985400  1
  Yb  Yb5  1  0.75000000  0.47991100  0.82014600  1
  Yb  Yb6  1  0.75000000  0.97991100  0.67985400  1
  Yb  Yb7  1  0.25000000  0.02008900  0.32014600  1
  Si  Si8  1  0.25000000  0.75205000  0.89450500  1
  Si  Si9  1  0.75000000  0.24795000  0.10549500  1
  Si  Si10  1  0.75000000  0.74795000  0.39450500  1
  Si  Si11  1  0.25000000  0.25205000  0.60549500  1
