# generated using pymatgen
data_Ca2MgPt2
_symmetry_space_group_name_H-M   'P 1'
_cell_length_a   5.72429713
_cell_length_b   5.72429713
_cell_length_c   5.72429713
_cell_angle_alpha   135.54230717
_cell_angle_beta   118.53138627
_cell_angle_gamma   78.96504068
_symmetry_Int_Tables_number   1
_chemical_formula_structural   Ca2MgPt2
_chemical_formula_sum   'Ca2 Mg1 Pt2'
_cell_volume   111.95819733
_cell_formula_units_Z   1
loop_
 _symmetry_equiv_pos_site_id
 _symmetry_equiv_pos_as_xyz
  1  'x, y, z'
loop_
 _atom_site_type_symbol
 _atom_site_label
 _atom_site_symmetry_multiplicity
 _atom_site_fract_x
 _atom_site_fract_y
 _atom_site_fract_z
 _atom_site_occupancy
  Ca  Ca0  1  0.69973600  0.19973600  0.50000000  1
  Ca  Ca1  1  0.30026400  0.80026400  0.50000000  1
  Mg  Mg2  1  0.00000000  0.00000000  0.00000000  1
  Pt  Pt3  1  0.73318100  0.50000000  0.23318100  1
  Pt  Pt4  1  0.26681900  0.50000000  0.76681900  1
