# generated using pymatgen
data_K3SbS3
_symmetry_space_group_name_H-M   'P 1'
_cell_length_a   9.60246200
_cell_length_b   9.60246200
_cell_length_c   9.60246200
_cell_angle_alpha   90.00000000
_cell_angle_beta   90.00000000
_cell_angle_gamma   90.00000000
_symmetry_Int_Tables_number   1
_chemical_formula_structural   K3SbS3
_chemical_formula_sum   'K12 Sb4 S12'
_cell_volume   885.41686834
_cell_formula_units_Z   4
loop_
 _symmetry_equiv_pos_site_id
 _symmetry_equiv_pos_as_xyz
  1  'x, y, z'
loop_
 _atom_site_type_symbol
 _atom_site_label
 _atom_site_symmetry_multiplicity
 _atom_site_fract_x
 _atom_site_fract_y
 _atom_site_fract_z
 _atom_site_occupancy
  K  K0  1  0.44039100  0.94039100  0.55960900  1
  K  K1  1  0.94039100  0.55960900  0.44039100  1
  K  K2  1  0.55960900  0.44039100  0.94039100  1
  K  K3  1  0.05960900  0.05960900  0.05960900  1
  K  K4  1  0.93561000  0.43561000  0.06439000  1
  K  K5  1  0.43561000  0.06439000  0.93561000  1
  K  K6  1  0.06439000  0.93561000  0.43561000  1
  K  K7  1  0.56439000  0.56439000  0.56439000  1
  K  K8  1  0.67742700  0.17742700  0.32257300  1
  K  K9  1  0.17742700  0.32257300  0.67742700  1
  K  K10  1  0.32257300  0.67742700  0.17742700  1
  K  K11  1  0.82257300  0.82257300  0.82257300  1
  Sb  Sb12  1  0.22150900  0.72150900  0.77849100  1
  Sb  Sb13  1  0.72150900  0.77849100  0.22150900  1
  Sb  Sb14  1  0.77849100  0.22150900  0.72150900  1
  Sb  Sb15  1  0.27849100  0.27849100  0.27849100  1
  S  S16  1  0.15121900  0.96630000  0.75394600  1
  S  S17  1  0.24605400  0.65121900  0.53370000  1
  S  S18  1  0.46630000  0.74605400  0.84878100  1
  S  S19  1  0.65121900  0.53370000  0.24605400  1
  S  S20  1  0.74605400  0.84878100  0.46630000  1
  S  S21  1  0.96630000  0.75394600  0.15121900  1
  S  S22  1  0.84878100  0.46630000  0.74605400  1
  S  S23  1  0.75394600  0.15121900  0.96630000  1
  S  S24  1  0.53370000  0.24605400  0.65121900  1
  S  S25  1  0.34878100  0.03370000  0.25394600  1
  S  S26  1  0.25394600  0.34878100  0.03370000  1
  S  S27  1  0.03370000  0.25394600  0.34878100  1
