# generated using pymatgen
data_Gd3Te2NO
_symmetry_space_group_name_H-M   'P 1'
_cell_length_a   13.55362200
_cell_length_b   4.11670200
_cell_length_c   12.20745100
_cell_angle_alpha   90.00000000
_cell_angle_beta   90.00000000
_cell_angle_gamma   90.00000000
_symmetry_Int_Tables_number   1
_chemical_formula_structural   Gd3Te2NO
_chemical_formula_sum   'Gd12 Te8 N4 O4'
_cell_volume   681.12965575
_cell_formula_units_Z   4
loop_
 _symmetry_equiv_pos_site_id
 _symmetry_equiv_pos_as_xyz
  1  'x, y, z'
loop_
 _atom_site_type_symbol
 _atom_site_label
 _atom_site_symmetry_multiplicity
 _atom_site_fract_x
 _atom_site_fract_y
 _atom_site_fract_z
 _atom_site_occupancy
  Gd  Gd0  1  0.52164300  0.25000000  0.62131100  1
  Gd  Gd1  1  0.02164300  0.25000000  0.87868900  1
  Gd  Gd2  1  0.47835700  0.75000000  0.37868900  1
  Gd  Gd3  1  0.97835700  0.75000000  0.12131100  1
  Gd  Gd4  1  0.68870600  0.25000000  0.35114900  1
  Gd  Gd5  1  0.18870600  0.25000000  0.14885100  1
  Gd  Gd6  1  0.31129400  0.75000000  0.64885100  1
  Gd  Gd7  1  0.81129400  0.75000000  0.85114900  1
  Gd  Gd8  1  0.89502000  0.25000000  0.61385000  1
  Gd  Gd9  1  0.39502000  0.25000000  0.88615000  1
  Gd  Gd10  1  0.10498000  0.75000000  0.38615000  1
  Gd  Gd11  1  0.60498000  0.75000000  0.11385000  1
  Te  Te12  1  0.77196100  0.25000000  0.07202500  1
  Te  Te13  1  0.27196100  0.25000000  0.42797500  1
  Te  Te14  1  0.22803900  0.75000000  0.92797500  1
  Te  Te15  1  0.72803900  0.75000000  0.57202500  1
  Te  Te16  1  0.93411900  0.25000000  0.34767200  1
  Te  Te17  1  0.43411900  0.25000000  0.15232800  1
  Te  Te18  1  0.06588100  0.75000000  0.65232800  1
  Te  Te19  1  0.56588100  0.75000000  0.84767200  1
  N  N20  1  0.86974100  0.25000000  0.78890900  1
  N  N21  1  0.36974100  0.25000000  0.71109100  1
  N  N22  1  0.13025900  0.75000000  0.21109100  1
  N  N23  1  0.63025900  0.75000000  0.28890900  1
  O  O24  1  0.54051700  0.25000000  0.43301600  1
  O  O25  1  0.04051700  0.25000000  0.06698400  1
  O  O26  1  0.45948300  0.75000000  0.56698400  1
  O  O27  1  0.95948300  0.75000000  0.93301600  1
