# generated using pymatgen
data_Li2Mg10B12Rh19
_symmetry_space_group_name_H-M   'P 1'
_cell_length_a   2.87906800
_cell_length_b   13.93290300
_cell_length_c   26.68494900
_cell_angle_alpha   90.00000000
_cell_angle_beta   90.00000000
_cell_angle_gamma   90.00000000
_symmetry_Int_Tables_number   1
_chemical_formula_structural   Li2Mg10B12Rh19
_chemical_formula_sum   'Li4 Mg20 B24 Rh38'
_cell_volume   1070.43404473
_cell_formula_units_Z   2
loop_
 _symmetry_equiv_pos_site_id
 _symmetry_equiv_pos_as_xyz
  1  'x, y, z'
loop_
 _atom_site_type_symbol
 _atom_site_label
 _atom_site_symmetry_multiplicity
 _atom_site_fract_x
 _atom_site_fract_y
 _atom_site_fract_z
 _atom_site_occupancy
  Li  Li0  1  0.00000000  0.01137700  0.04437900  1
  Li  Li1  1  0.00000000  0.98862300  0.95562100  1
  Li  Li2  1  0.00000000  0.48862300  0.54437900  1
  Li  Li3  1  0.00000000  0.51137700  0.45562100  1
  Mg  Mg4  1  0.00000000  0.03725600  0.22837100  1
  Mg  Mg5  1  0.00000000  0.96274400  0.77162900  1
  Mg  Mg6  1  0.00000000  0.46274400  0.72837100  1
  Mg  Mg7  1  0.00000000  0.53725600  0.27162900  1
  Mg  Mg8  1  0.00000000  0.34592100  0.03268400  1
  Mg  Mg9  1  0.00000000  0.65407900  0.96731600  1
  Mg  Mg10  1  0.00000000  0.15407900  0.53268400  1
  Mg  Mg11  1  0.00000000  0.84592100  0.46731600  1
  Mg  Mg12  1  0.00000000  0.06782200  0.32923300  1
  Mg  Mg13  1  0.00000000  0.93217800  0.67076700  1
  Mg  Mg14  1  0.00000000  0.43217800  0.82923300  1
  Mg  Mg15  1  0.00000000  0.56782200  0.17076700  1
  Mg  Mg16  1  0.00000000  0.25901200  0.35880000  1
  Mg  Mg17  1  0.00000000  0.74098800  0.64120000  1
  Mg  Mg18  1  0.00000000  0.24098800  0.85880000  1
  Mg  Mg19  1  0.00000000  0.75901200  0.14120000  1
  Mg  Mg20  1  0.00000000  0.21502600  0.18597400  1
  Mg  Mg21  1  0.00000000  0.78497400  0.81402600  1
  Mg  Mg22  1  0.00000000  0.28497400  0.68597400  1
  Mg  Mg23  1  0.00000000  0.71502600  0.31402600  1
  B  B24  1  0.00000000  0.32268300  0.26317900  1
  B  B25  1  0.00000000  0.67731700  0.73682100  1
  B  B26  1  0.00000000  0.17731700  0.76317900  1
  B  B27  1  0.00000000  0.82268300  0.23682100  1
  B  B28  1  0.00000000  0.38431200  0.14310900  1
  B  B29  1  0.00000000  0.61568800  0.85689100  1
  B  B30  1  0.00000000  0.11568800  0.64310900  1
  B  B31  1  0.00000000  0.88431200  0.35689100  1
  B  B32  1  0.00000000  0.16799900  0.08353400  1
  B  B33  1  0.00000000  0.83200100  0.91646600  1
  B  B34  1  0.00000000  0.33200100  0.58353400  1
  B  B35  1  0.00000000  0.66799900  0.41646600  1
  B  B36  1  0.00000000  0.45430100  0.36968200  1
  B  B37  1  0.00000000  0.54569900  0.63031800  1
  B  B38  1  0.00000000  0.04569900  0.86968200  1
  B  B39  1  0.00000000  0.95430100  0.13031800  1
  B  B40  1  0.00000000  0.05680700  0.44432200  1
  B  B41  1  0.00000000  0.94319300  0.55567800  1
  B  B42  1  0.00000000  0.44319300  0.94432200  1
  B  B43  1  0.00000000  0.55680700  0.05567800  1
  B  B44  1  0.00000000  0.29128500  0.46134100  1
  B  B45  1  0.00000000  0.70871500  0.53865900  1
  B  B46  1  0.00000000  0.20871500  0.96134100  1
  B  B47  1  0.00000000  0.79128500  0.03865900  1
  Rh  Rh48  1  0.50000000  0.27760300  0.11143800  1
  Rh  Rh49  1  0.50000000  0.72239700  0.88856200  1
  Rh  Rh50  1  0.50000000  0.22239700  0.61143800  1
  Rh  Rh51  1  0.50000000  0.77760300  0.38856200  1
  Rh  Rh52  1  0.50000000  0.07346300  0.12413200  1
  Rh  Rh53  1  0.50000000  0.92653700  0.87586800  1
  Rh  Rh54  1  0.50000000  0.42653700  0.62413200  1
  Rh  Rh55  1  0.50000000  0.57346300  0.37586800  1
  Rh  Rh56  1  0.50000000  0.17387800  0.43881600  1
  Rh  Rh57  1  0.50000000  0.82612200  0.56118400  1
  Rh  Rh58  1  0.50000000  0.32612200  0.93881600  1
  Rh  Rh59  1  0.50000000  0.67387800  0.06118400  1
  Rh  Rh60  1  0.50000000  0.37679200  0.41735400  1
  Rh  Rh61  1  0.50000000  0.62320800  0.58264600  1
  Rh  Rh62  1  0.50000000  0.12320800  0.91735400  1
  Rh  Rh63  1  0.50000000  0.87679200  0.08264600  1
  Rh  Rh64  1  0.50000000  0.17083000  0.02105400  1
  Rh  Rh65  1  0.50000000  0.82917000  0.97894600  1
  Rh  Rh66  1  0.50000000  0.32917000  0.52105400  1
  Rh  Rh67  1  0.50000000  0.67083000  0.47894600  1
  Rh  Rh68  1  0.50000000  0.47618200  0.10292900  1
  Rh  Rh69  1  0.50000000  0.52381800  0.89707100  1
  Rh  Rh70  1  0.50000000  0.02381800  0.60292900  1
  Rh  Rh71  1  0.50000000  0.97618200  0.39707100  1
  Rh  Rh72  1  0.50000000  0.00000000  0.50000000  1
  Rh  Rh73  1  0.50000000  0.50000000  0.00000000  1
  Rh  Rh74  1  0.50000000  0.20858700  0.27191400  1
  Rh  Rh75  1  0.50000000  0.79141300  0.72808600  1
  Rh  Rh76  1  0.50000000  0.29141300  0.77191400  1
  Rh  Rh77  1  0.50000000  0.70858700  0.22808600  1
  Rh  Rh78  1  0.50000000  0.40172100  0.31295200  1
  Rh  Rh79  1  0.50000000  0.59827900  0.68704800  1
  Rh  Rh80  1  0.50000000  0.09827900  0.81295200  1
  Rh  Rh81  1  0.50000000  0.90172100  0.18704800  1
  Rh  Rh82  1  0.50000000  0.39014800  0.20522800  1
  Rh  Rh83  1  0.50000000  0.60985200  0.79477200  1
  Rh  Rh84  1  0.50000000  0.10985200  0.70522800  1
  Rh  Rh85  1  0.50000000  0.89014800  0.29477200  1
