# generated using pymatgen
data_K3TiCl6
_symmetry_space_group_name_H-M   'P 1'
_cell_length_a   7.58664000
_cell_length_b   12.35409300
_cell_length_c   12.73076868
_cell_angle_alpha   70.82298892
_cell_angle_beta   90.00000000
_cell_angle_gamma   90.00000000
_symmetry_Int_Tables_number   1
_chemical_formula_structural   K3TiCl6
_chemical_formula_sum   'K12 Ti4 Cl24'
_cell_volume   1126.99171619
_cell_formula_units_Z   4
loop_
 _symmetry_equiv_pos_site_id
 _symmetry_equiv_pos_as_xyz
  1  'x, y, z'
loop_
 _atom_site_type_symbol
 _atom_site_label
 _atom_site_symmetry_multiplicity
 _atom_site_fract_x
 _atom_site_fract_y
 _atom_site_fract_z
 _atom_site_occupancy
  K  K0  1  0.43321000  0.38587600  0.82144100  1
  K  K1  1  0.93321000  0.11412400  0.17855900  1
  K  K2  1  0.56679000  0.61412400  0.17855900  1
  K  K3  1  0.06679000  0.88587600  0.82144100  1
  K  K4  1  0.56266300  0.73565100  0.81521500  1
  K  K5  1  0.06266300  0.76434900  0.18478500  1
  K  K6  1  0.43733700  0.26434900  0.18478500  1
  K  K7  1  0.93733700  0.23565100  0.81521500  1
  K  K8  1  0.52890200  0.86100000  0.40143500  1
  K  K9  1  0.02890200  0.63900000  0.59856500  1
  K  K10  1  0.47109800  0.13900000  0.59856500  1
  K  K11  1  0.97109800  0.36100000  0.40143500  1
  Ti  Ti12  1  0.00000000  0.50000000  0.00000000  1
  Ti  Ti13  1  0.50000000  0.00000000  0.00000000  1
  Ti  Ti14  1  0.00000000  0.00000000  0.50000000  1
  Ti  Ti15  1  0.50000000  0.50000000  0.50000000  1
  Cl  Cl16  1  0.20278600  0.50594600  0.14607100  1
  Cl  Cl17  1  0.70278600  0.99405400  0.85392900  1
  Cl  Cl18  1  0.79721400  0.49405400  0.85392900  1
  Cl  Cl19  1  0.29721400  0.00594600  0.14607100  1
  Cl  Cl20  1  0.20616500  0.60259500  0.85436700  1
  Cl  Cl21  1  0.70616500  0.89740500  0.14563300  1
  Cl  Cl22  1  0.79383500  0.39740500  0.14563300  1
  Cl  Cl23  1  0.29383500  0.10259500  0.85436700  1
  Cl  Cl24  1  0.86896900  0.68174100  0.99923600  1
  Cl  Cl25  1  0.36896900  0.81825900  0.00076400  1
  Cl  Cl26  1  0.13103100  0.31825900  0.00076400  1
  Cl  Cl27  1  0.63103100  0.18174100  0.99923600  1
  Cl  Cl28  1  0.27181000  0.90564100  0.59885200  1
  Cl  Cl29  1  0.77181000  0.59435900  0.40114800  1
  Cl  Cl30  1  0.72819000  0.09435900  0.40114800  1
  Cl  Cl31  1  0.22819000  0.40564100  0.59885200  1
  Cl  Cl32  1  0.00897500  0.87942300  0.38508000  1
  Cl  Cl33  1  0.50897500  0.62057700  0.61492000  1
  Cl  Cl34  1  0.99102500  0.12057700  0.61492000  1
  Cl  Cl35  1  0.49102500  0.37942300  0.38508000  1
  Cl  Cl36  1  0.68114500  0.35604800  0.62911900  1
  Cl  Cl37  1  0.18114500  0.14395200  0.37088100  1
  Cl  Cl38  1  0.31885500  0.64395200  0.37088100  1
  Cl  Cl39  1  0.81885500  0.85604800  0.62911900  1
