# generated using pymatgen
data_KSrB(PO4)2
_symmetry_space_group_name_H-M   'P 1'
_cell_length_a   7.11340462
_cell_length_b   7.11340462
_cell_length_c   8.72396611
_cell_angle_alpha   67.26168132
_cell_angle_beta   67.26168132
_cell_angle_gamma   89.81371225
_symmetry_Int_Tables_number   1
_chemical_formula_structural   KSrB(PO4)2
_chemical_formula_sum   'K2 Sr2 B2 P4 O16'
_cell_volume   369.90255920
_cell_formula_units_Z   2
loop_
 _symmetry_equiv_pos_site_id
 _symmetry_equiv_pos_as_xyz
  1  'x, y, z'
loop_
 _atom_site_type_symbol
 _atom_site_label
 _atom_site_symmetry_multiplicity
 _atom_site_fract_x
 _atom_site_fract_y
 _atom_site_fract_z
 _atom_site_occupancy
  K  K0  1  0.51944900  0.37698600  0.24125700  1
  K  K1  1  0.37698600  0.51944900  0.74125600  1
  Sr  Sr2  1  0.23043300  0.86045700  0.26318600  1
  Sr  Sr3  1  0.86045700  0.23043300  0.76318600  1
  B  B4  1  0.73364600  0.01412300  0.50125600  1
  B  B5  1  0.01412300  0.73364600  0.00125600  1
  P  P6  1  0.02843200  0.36498700  0.26046400  1
  P  P7  1  0.72595400  0.88157400  0.23779500  1
  P  P8  1  0.36498700  0.02843200  0.76046400  1
  P  P9  1  0.88157400  0.72595400  0.73779500  1
  O  O10  1  0.10117800  0.49064100  0.34104300  1
  O  O11  1  0.17667900  0.22586100  0.20293900  1
  O  O12  1  0.54805300  0.70377300  0.32401700  1
  O  O13  1  0.68128800  0.08362200  0.11951100  1
  O  O14  1  0.22586100  0.17667900  0.70293900  1
  O  O15  1  0.70377300  0.54805300  0.82401700  1
  O  O16  1  0.08362200  0.68128800  0.61951100  1
  O  O17  1  0.49064100  0.10117800  0.84104300  1
  O  O18  1  0.80234500  0.24000000  0.40287500  1
  O  O19  1  0.97770200  0.50767200  0.09437000  1
  O  O20  1  0.79249500  0.90036000  0.38623400  1
  O  O21  1  0.94448800  0.83780200  0.12505300  1
  O  O22  1  0.50767200  0.97770200  0.59437000  1
  O  O23  1  0.90036000  0.79249500  0.88623400  1
  O  O24  1  0.83780200  0.94448800  0.62505300  1
  O  O25  1  0.24000000  0.80234500  0.90287500  1
