# generated using pymatgen
data_Ta5S8
_symmetry_space_group_name_H-M   'P 1'
_cell_length_a   13.17639928
_cell_length_b   13.17639928
_cell_length_c   5.79293189
_cell_angle_alpha   78.54724599
_cell_angle_beta   78.54724599
_cell_angle_gamma   14.25637651
_symmetry_Int_Tables_number   1
_chemical_formula_structural   Ta5S8
_chemical_formula_sum   'Ta5 S8'
_cell_volume   242.66872956
_cell_formula_units_Z   1
loop_
 _symmetry_equiv_pos_site_id
 _symmetry_equiv_pos_as_xyz
  1  'x, y, z'
loop_
 _atom_site_type_symbol
 _atom_site_label
 _atom_site_symmetry_multiplicity
 _atom_site_fract_x
 _atom_site_fract_y
 _atom_site_fract_z
 _atom_site_occupancy
  Ta  Ta0  1  0.37400000  0.37400000  0.63258500  1
  Ta  Ta1  1  0.87284100  0.87284100  0.12381000  1
  Ta  Ta2  1  0.62600000  0.62600000  0.36741500  1
  Ta  Ta3  1  0.12715900  0.12715900  0.87619000  1
  Ta  Ta4  1  0.00000000  0.00000000  0.00000000  1
  S  S5  1  0.93712000  0.93712000  0.73737700  1
  S  S6  1  0.43739900  0.43739900  0.24128300  1
  S  S7  1  0.56260100  0.56260100  0.75871700  1
  S  S8  1  0.06288000  0.06288000  0.26262300  1
  S  S9  1  0.68688100  0.68688100  0.64820200  1
  S  S10  1  0.18781700  0.18781700  0.14925800  1
  S  S11  1  0.81218300  0.81218300  0.85074200  1
  S  S12  1  0.31311900  0.31311900  0.35179800  1
