# generated using pymatgen
data_ZrSiOs
_symmetry_space_group_name_H-M   'P 1'
_cell_length_a   4.08040600
_cell_length_b   6.43995800
_cell_length_c   7.50722100
_cell_angle_alpha   90.00000000
_cell_angle_beta   90.00000000
_cell_angle_gamma   90.00000000
_symmetry_Int_Tables_number   1
_chemical_formula_structural   ZrSiOs
_chemical_formula_sum   'Zr4 Si4 Os4'
_cell_volume   197.27207533
_cell_formula_units_Z   4
loop_
 _symmetry_equiv_pos_site_id
 _symmetry_equiv_pos_as_xyz
  1  'x, y, z'
loop_
 _atom_site_type_symbol
 _atom_site_label
 _atom_site_symmetry_multiplicity
 _atom_site_fract_x
 _atom_site_fract_y
 _atom_site_fract_z
 _atom_site_occupancy
  Zr  Zr0  1  0.25000000  0.01465000  0.81576900  1
  Zr  Zr1  1  0.25000000  0.51465000  0.68423100  1
  Zr  Zr2  1  0.75000000  0.98535000  0.18423100  1
  Zr  Zr3  1  0.75000000  0.48535000  0.31576900  1
  Si  Si4  1  0.25000000  0.78759700  0.37843500  1
  Si  Si5  1  0.25000000  0.28759700  0.12156500  1
  Si  Si6  1  0.75000000  0.21240300  0.62156500  1
  Si  Si7  1  0.75000000  0.71240300  0.87843500  1
  Os  Os8  1  0.25000000  0.16267900  0.44145000  1
  Os  Os9  1  0.25000000  0.66267900  0.05855000  1
  Os  Os10  1  0.75000000  0.83732100  0.55855000  1
  Os  Os11  1  0.75000000  0.33732100  0.94145000  1
