# generated using pymatgen
data_Ba4Ir3O10
_symmetry_space_group_name_H-M   'P 1'
_cell_length_a   13.36581200
_cell_length_b   5.82780200
_cell_length_c   7.36315135
_cell_angle_alpha   67.58611090
_cell_angle_beta   90.00000000
_cell_angle_gamma   90.00000000
_symmetry_Int_Tables_number   1
_chemical_formula_structural   Ba4Ir3O10
_chemical_formula_sum   'Ba8 Ir6 O20'
_cell_volume   530.21132082
_cell_formula_units_Z   2
loop_
 _symmetry_equiv_pos_site_id
 _symmetry_equiv_pos_as_xyz
  1  'x, y, z'
loop_
 _atom_site_type_symbol
 _atom_site_label
 _atom_site_symmetry_multiplicity
 _atom_site_fract_x
 _atom_site_fract_y
 _atom_site_fract_z
 _atom_site_occupancy
  Ba  Ba0  1  0.63709100  0.03657200  0.91379700  1
  Ba  Ba1  1  0.13709100  0.46342800  0.08620300  1
  Ba  Ba2  1  0.36290900  0.96342800  0.08620300  1
  Ba  Ba3  1  0.86290900  0.53657200  0.91379700  1
  Ba  Ba4  1  0.61318500  0.73941700  0.51457100  1
  Ba  Ba5  1  0.11318500  0.76058300  0.48542900  1
  Ba  Ba6  1  0.88681500  0.23941700  0.51457100  1
  Ba  Ba7  1  0.38681500  0.26058300  0.48542900  1
  Ir  Ir8  1  0.00000000  0.00000000  0.00000000  1
  Ir  Ir9  1  0.50000000  0.50000000  0.00000000  1
  Ir  Ir10  1  0.84905100  0.86887600  0.24011000  1
  Ir  Ir11  1  0.34905100  0.63112400  0.75989000  1
  Ir  Ir12  1  0.15094900  0.13112400  0.75989000  1
  Ir  Ir13  1  0.65094900  0.36887600  0.24011000  1
  O  O14  1  0.27461400  0.93229100  0.77082000  1
  O  O15  1  0.77461400  0.56770900  0.22918000  1
  O  O16  1  0.72538600  0.06770900  0.22918000  1
  O  O17  1  0.22538600  0.43229100  0.77082000  1
  O  O18  1  0.34563100  0.76991700  0.46978200  1
  O  O19  1  0.84563100  0.73008300  0.53021800  1
  O  O20  1  0.65436900  0.23008300  0.53021800  1
  O  O21  1  0.15436900  0.26991700  0.46978200  1
  O  O22  1  0.45755800  0.36549300  0.78975600  1
  O  O23  1  0.95755800  0.13450700  0.21024400  1
  O  O24  1  0.54244200  0.63450700  0.21024400  1
  O  O25  1  0.04244200  0.86549300  0.78975600  1
  O  O26  1  0.47482000  0.83593400  0.77385900  1
  O  O27  1  0.97482000  0.66406600  0.22614100  1
  O  O28  1  0.14997400  0.97429000  0.07517300  1
  O  O29  1  0.64997400  0.52571000  0.92482700  1
  O  O30  1  0.85002600  0.02571000  0.92482700  1
  O  O31  1  0.35002600  0.47429000  0.07517300  1
  O  O32  1  0.02518000  0.33593400  0.77385900  1
  O  O33  1  0.52518000  0.16406600  0.22614100  1
