# generated using pymatgen
data_Sr4U2O9
_symmetry_space_group_name_H-M   'P 1'
_cell_length_a   6.23811000
_cell_length_b   8.66662727
_cell_length_c   18.16610105
_cell_angle_alpha   90.05694129
_cell_angle_beta   90.00000000
_cell_angle_gamma   90.00000000
_symmetry_Int_Tables_number   1
_chemical_formula_structural   Sr4U2O9
_chemical_formula_sum   'Sr16 U8 O36'
_cell_volume   982.12023417
_cell_formula_units_Z   4
loop_
 _symmetry_equiv_pos_site_id
 _symmetry_equiv_pos_as_xyz
  1  'x, y, z'
loop_
 _atom_site_type_symbol
 _atom_site_label
 _atom_site_symmetry_multiplicity
 _atom_site_fract_x
 _atom_site_fract_y
 _atom_site_fract_z
 _atom_site_occupancy
  Sr  Sr0  1  0.49870300  0.49913800  0.99917500  1
  Sr  Sr1  1  0.50129700  0.50086200  0.33415800  1
  Sr  Sr2  1  0.00129700  0.99913800  0.49917500  1
  Sr  Sr3  1  0.99870300  0.00086200  0.83415800  1
  Sr  Sr4  1  0.04964900  0.25704700  0.33104600  1
  Sr  Sr5  1  0.04426800  0.24607500  0.66268000  1
  Sr  Sr6  1  0.05073400  0.25226100  0.99326100  1
  Sr  Sr7  1  0.45573200  0.74607500  0.16268000  1
  Sr  Sr8  1  0.44926600  0.75226100  0.49326100  1
  Sr  Sr9  1  0.45035100  0.75704700  0.83104600  1
  Sr  Sr10  1  0.95035100  0.74295300  0.00228700  1
  Sr  Sr11  1  0.94926600  0.74773900  0.34007300  1
  Sr  Sr12  1  0.95573200  0.75392500  0.67065300  1
  Sr  Sr13  1  0.54426800  0.25392500  0.17065300  1
  Sr  Sr14  1  0.54964900  0.24295300  0.50228700  1
  Sr  Sr15  1  0.55073400  0.24773900  0.84007300  1
  U  U16  1  0.00000000  0.50000000  0.16666700  1
  U  U17  1  0.99572100  0.50265800  0.50213100  1
  U  U18  1  0.00427900  0.49734200  0.83120200  1
  U  U19  1  0.50427900  0.00265800  0.00213100  1
  U  U20  1  0.49572100  0.99734200  0.33120200  1
  U  U21  1  0.50000000  0.00000000  0.66666700  1
  U  U22  1  0.50000000  0.50000000  0.66666700  1
  U  U23  1  0.00000000  0.00000000  0.16666700  1
  O  O24  1  0.17543700  0.55553500  0.07267400  1
  O  O25  1  0.17932900  0.55334800  0.40747100  1
  O  O26  1  0.20814400  0.55530700  0.72955800  1
  O  O27  1  0.29185600  0.05530700  0.22955800  1
  O  O28  1  0.32456300  0.05553500  0.57267400  1
  O  O29  1  0.32067100  0.05334800  0.90747100  1
  O  O30  1  0.82456300  0.44446500  0.26065900  1
  O  O31  1  0.79185600  0.44469300  0.60377600  1
  O  O32  1  0.82067100  0.44665200  0.92586200  1
  O  O33  1  0.70814400  0.94469300  0.10377600  1
  O  O34  1  0.67932900  0.94665200  0.42586200  1
  O  O35  1  0.67543700  0.94446500  0.76065900  1
  O  O36  1  0.44897900  0.22752300  0.03960300  1
  O  O37  1  0.44845500  0.22526100  0.36799400  1
  O  O38  1  0.45765000  0.26187800  0.70200200  1
  O  O39  1  0.04235000  0.76187800  0.20200200  1
  O  O40  1  0.05102100  0.72752300  0.53960300  1
  O  O41  1  0.05154500  0.72526100  0.86799400  1
  O  O42  1  0.55102100  0.77247700  0.29373000  1
  O  O43  1  0.54235000  0.73812200  0.63133100  1
  O  O44  1  0.55154500  0.77473900  0.96534000  1
  O  O45  1  0.95765000  0.23812200  0.13133100  1
  O  O46  1  0.94845500  0.27473900  0.46534000  1
  O  O47  1  0.94897900  0.27247700  0.79373000  1
  O  O48  1  0.71852900  0.55844100  0.10946300  1
  O  O49  1  0.71660900  0.56947800  0.44326900  1
  O  O50  1  0.69508700  0.56026500  0.76210100  1
  O  O51  1  0.80491300  0.06026500  0.26210100  1
  O  O52  1  0.78147100  0.05844100  0.60946300  1
  O  O53  1  0.78339100  0.06947800  0.94326900  1
  O  O54  1  0.28147100  0.44155900  0.22387000  1
  O  O55  1  0.30491300  0.43973500  0.57123200  1
  O  O56  1  0.28339100  0.43052200  0.89006500  1
  O  O57  1  0.19508700  0.93973500  0.07123200  1
  O  O58  1  0.21660900  0.93052200  0.39006400  1
  O  O59  1  0.21852900  0.94155900  0.72387000  1
