# generated using pymatgen
data_CdB4O7
_symmetry_space_group_name_H-M   'P 1'
_cell_length_a   8.42086900
_cell_length_b   8.91336500
_cell_length_c   14.35463900
_cell_angle_alpha   90.00000000
_cell_angle_beta   90.00000000
_cell_angle_gamma   90.00000000
_symmetry_Int_Tables_number   1
_chemical_formula_structural   CdB4O7
_chemical_formula_sum   'Cd8 B32 O56'
_cell_volume   1077.43449921
_cell_formula_units_Z   8
loop_
 _symmetry_equiv_pos_site_id
 _symmetry_equiv_pos_as_xyz
  1  'x, y, z'
loop_
 _atom_site_type_symbol
 _atom_site_label
 _atom_site_symmetry_multiplicity
 _atom_site_fract_x
 _atom_site_fract_y
 _atom_site_fract_z
 _atom_site_occupancy
  Cd  Cd0  1  0.62613100  0.11066500  0.38608700  1
  Cd  Cd1  1  0.12613100  0.38933500  0.61391300  1
  Cd  Cd2  1  0.37386900  0.61066500  0.11391300  1
  Cd  Cd3  1  0.87386900  0.88933500  0.88608700  1
  Cd  Cd4  1  0.37386900  0.88933500  0.61391300  1
  Cd  Cd5  1  0.87386900  0.61066500  0.38608700  1
  Cd  Cd6  1  0.62613100  0.38933500  0.88608700  1
  Cd  Cd7  1  0.12613100  0.11066500  0.11391300  1
  B  B8  1  0.20433000  0.14803600  0.45514800  1
  B  B9  1  0.70433000  0.35196400  0.54485200  1
  B  B10  1  0.79567000  0.64803600  0.04485200  1
  B  B11  1  0.29567000  0.85196400  0.95514800  1
  B  B12  1  0.79567000  0.85196400  0.54485200  1
  B  B13  1  0.29567000  0.64803600  0.45514800  1
  B  B14  1  0.20433000  0.35196400  0.95514800  1
  B  B15  1  0.70433000  0.14803600  0.04485200  1
  B  B16  1  0.00924500  0.06892000  0.33752300  1
  B  B17  1  0.50924500  0.43108000  0.66247700  1
  B  B18  1  0.99075500  0.56892000  0.16247700  1
  B  B19  1  0.49075500  0.93108000  0.83752300  1
  B  B20  1  0.99075500  0.93108000  0.66247700  1
  B  B21  1  0.49075500  0.56892000  0.33752300  1
  B  B22  1  0.00924500  0.43108000  0.83752300  1
  B  B23  1  0.50924500  0.06892000  0.16247700  1
  B  B24  1  0.01551000  0.33229400  0.26592000  1
  B  B25  1  0.51551000  0.16770600  0.73408000  1
  B  B26  1  0.98449000  0.83229400  0.23408000  1
  B  B27  1  0.48449000  0.66770600  0.76592000  1
  B  B28  1  0.98449000  0.66770600  0.73408000  1
  B  B29  1  0.48449000  0.83229400  0.26592000  1
  B  B30  1  0.01551000  0.16770600  0.76592000  1
  B  B31  1  0.51551000  0.33229400  0.23408000  1
  B  B32  1  0.94481800  0.28311500  0.43513800  1
  B  B33  1  0.44481800  0.21688500  0.56486200  1
  B  B34  1  0.05518200  0.78311500  0.06486200  1
  B  B35  1  0.55518200  0.71688500  0.93513800  1
  B  B36  1  0.05518200  0.71688500  0.56486200  1
  B  B37  1  0.55518200  0.78311500  0.43513800  1
  B  B38  1  0.94481800  0.21688500  0.93513800  1
  B  B39  1  0.44481800  0.28311500  0.06486200  1
  O  O40  1  0.16322000  0.05544000  0.38423400  1
  O  O41  1  0.66322000  0.44456000  0.61576600  1
  O  O42  1  0.83678000  0.55544000  0.11576600  1
  O  O43  1  0.33678000  0.94456000  0.88423400  1
  O  O44  1  0.83678000  0.94456000  0.61576600  1
  O  O45  1  0.33678000  0.55544000  0.38423400  1
  O  O46  1  0.16322000  0.44456000  0.88423400  1
  O  O47  1  0.66322000  0.05544000  0.11576600  1
  O  O48  1  0.10094700  0.26129400  0.48326500  1
  O  O49  1  0.60094700  0.23870600  0.51673500  1
  O  O50  1  0.89905300  0.76129400  0.01673500  1
  O  O51  1  0.39905300  0.73870600  0.98326500  1
  O  O52  1  0.89905300  0.73870600  0.51673500  1
  O  O53  1  0.39905300  0.76129400  0.48326500  1
  O  O54  1  0.10094700  0.23870600  0.98326500  1
  O  O55  1  0.60094700  0.26129400  0.01673500  1
  O  O56  1  0.03242500  0.17806300  0.25451600  1
  O  O57  1  0.53242500  0.32193700  0.74548400  1
  O  O58  1  0.96757500  0.67806300  0.24548400  1
  O  O59  1  0.46757500  0.82193700  0.75451600  1
  O  O60  1  0.96757500  0.82193700  0.74548400  1
  O  O61  1  0.46757500  0.67806300  0.25451600  1
  O  O62  1  0.03242500  0.32193700  0.75451600  1
  O  O63  1  0.53242500  0.17806300  0.24548400  1
  O  O64  1  0.96915000  0.38575100  0.35230000  1
  O  O65  1  0.46915000  0.11424900  0.64770000  1
  O  O66  1  0.03085000  0.88575100  0.14770000  1
  O  O67  1  0.53085000  0.61424900  0.85230000  1
  O  O68  1  0.03085000  0.61424900  0.64770000  1
  O  O69  1  0.53085000  0.88575100  0.35230000  1
  O  O70  1  0.96915000  0.11424900  0.85230000  1
  O  O71  1  0.46915000  0.38575100  0.14770000  1
  O  O72  1  0.84800400  0.36874200  0.50002700  1
  O  O73  1  0.34800400  0.13125800  0.49997300  1
  O  O74  1  0.15199600  0.86874200  0.99997300  1
  O  O75  1  0.65199600  0.63125800  0.00002700  1
  O  O76  1  0.15199600  0.63125800  0.49997300  1
  O  O77  1  0.65199600  0.86874200  0.50002700  1
  O  O78  1  0.84800400  0.13125800  0.00002700  1
  O  O79  1  0.34800400  0.36874200  0.99997300  1
  O  O80  1  0.88889000  0.13898700  0.40023300  1
  O  O81  1  0.38889000  0.36101300  0.59976700  1
  O  O82  1  0.11111000  0.63898700  0.09976700  1
  O  O83  1  0.61111000  0.86101300  0.90023300  1
  O  O84  1  0.11111000  0.86101300  0.59976700  1
  O  O85  1  0.61111000  0.63898700  0.40023300  1
  O  O86  1  0.88889000  0.36101300  0.90023300  1
  O  O87  1  0.38889000  0.13898700  0.09976700  1
  O  O88  1  0.54735200  0.42317600  0.30764300  1
  O  O89  1  0.04735200  0.07682400  0.69235700  1
  O  O90  1  0.45264800  0.92317600  0.19235700  1
  O  O91  1  0.95264800  0.57682400  0.80764300  1
  O  O92  1  0.45264800  0.57682400  0.69235700  1
  O  O93  1  0.95264800  0.92317600  0.30764300  1
  O  O94  1  0.54735200  0.07682400  0.80764300  1
  O  O95  1  0.04735200  0.42317600  0.19235700  1
