# generated using pymatgen
data_Er7(AgTe)2
_symmetry_space_group_name_H-M   'P 1'
_cell_length_a   9.33978639
_cell_length_b   9.33978639
_cell_length_c   9.33978639
_cell_angle_alpha   154.84293491
_cell_angle_beta   117.74838038
_cell_angle_gamma   68.23902389
_symmetry_Int_Tables_number   1
_chemical_formula_structural   Er7(AgTe)2
_chemical_formula_sum   'Er7 Ag2 Te2'
_cell_volume   303.71642225
_cell_formula_units_Z   1
loop_
 _symmetry_equiv_pos_site_id
 _symmetry_equiv_pos_as_xyz
  1  'x, y, z'
loop_
 _atom_site_type_symbol
 _atom_site_label
 _atom_site_symmetry_multiplicity
 _atom_site_fract_x
 _atom_site_fract_y
 _atom_site_fract_z
 _atom_site_occupancy
  Er  Er0  1  0.11927900  0.86052500  0.25875400  1
  Er  Er1  1  0.39822800  0.13947500  0.25875400  1
  Er  Er2  1  0.50391000  0.50000000  0.00391000  1
  Er  Er3  1  0.03864700  0.62426300  0.41438400  1
  Er  Er4  1  0.79012000  0.37573700  0.41438400  1
  Er  Er5  1  0.44374300  0.81724200  0.62650200  1
  Er  Er6  1  0.80926000  0.18275800  0.62650200  1
  Ag  Ag7  1  0.66538200  0.73635300  0.92902900  1
  Ag  Ag8  1  0.19267500  0.26364700  0.92902900  1
  Te  Te9  1  0.76548900  0.00000000  0.76548900  1
  Te  Te10  1  0.16412500  0.50000000  0.66412500  1
