# generated using pymatgen
data_ThInNi
_symmetry_space_group_name_H-M   'P 1'
_cell_length_a   7.39753145
_cell_length_b   7.39753145
_cell_length_c   4.13607800
_cell_angle_alpha   90.00000000
_cell_angle_beta   90.00000000
_cell_angle_gamma   119.99999506
_symmetry_Int_Tables_number   1
_chemical_formula_structural   ThInNi
_chemical_formula_sum   'Th3 In3 Ni3'
_cell_volume   196.01667306
_cell_formula_units_Z   3
loop_
 _symmetry_equiv_pos_site_id
 _symmetry_equiv_pos_as_xyz
  1  'x, y, z'
loop_
 _atom_site_type_symbol
 _atom_site_label
 _atom_site_symmetry_multiplicity
 _atom_site_fract_x
 _atom_site_fract_y
 _atom_site_fract_z
 _atom_site_occupancy
  Th  Th0  1  0.41655500  0.00000000  0.50000000  1
  Th  Th1  1  0.00000000  0.41655500  0.50000000  1
  Th  Th2  1  0.58344500  0.58344500  0.50000000  1
  In  In3  1  0.75477300  0.00000000  0.00000000  1
  In  In4  1  0.00000000  0.75477300  0.00000000  1
  In  In5  1  0.24522700  0.24522700  0.00000000  1
  Ni  Ni6  1  0.33333300  0.66666700  0.00000000  1
  Ni  Ni7  1  0.66666700  0.33333300  0.00000000  1
  Ni  Ni8  1  0.00000000  0.00000000  0.50000000  1
