# generated using pymatgen
data_KEr2CuSe4
_symmetry_space_group_name_H-M   'P 1'
_cell_length_a   7.28608858
_cell_length_b   7.28608858
_cell_length_c   14.30799600
_cell_angle_alpha   90.00000000
_cell_angle_beta   90.00000000
_cell_angle_gamma   147.41208461
_symmetry_Int_Tables_number   1
_chemical_formula_structural   KEr2CuSe4
_chemical_formula_sum   'K2 Er4 Cu2 Se8'
_cell_volume   409.09905695
_cell_formula_units_Z   2
loop_
 _symmetry_equiv_pos_site_id
 _symmetry_equiv_pos_as_xyz
  1  'x, y, z'
loop_
 _atom_site_type_symbol
 _atom_site_label
 _atom_site_symmetry_multiplicity
 _atom_site_fract_x
 _atom_site_fract_y
 _atom_site_fract_z
 _atom_site_occupancy
  K  K0  1  0.11284600  0.88715400  0.25000000  1
  K  K1  1  0.88715400  0.11284600  0.75000000  1
  Er  Er2  1  0.36592300  0.63407700  0.43486500  1
  Er  Er3  1  0.63407700  0.36592300  0.56513500  1
  Er  Er4  1  0.63407700  0.36592300  0.93486500  1
  Er  Er5  1  0.36592300  0.63407700  0.06513500  1
  Cu  Cu6  1  0.83946800  0.16053200  0.25000000  1
  Cu  Cu7  1  0.16053200  0.83946800  0.75000000  1
  Se  Se8  1  0.56385200  0.43614800  0.75000000  1
  Se  Se9  1  0.43614800  0.56385200  0.25000000  1
  Se  Se10  1  0.26477400  0.73522600  0.88946800  1
  Se  Se11  1  0.73522600  0.26477400  0.11053200  1
  Se  Se12  1  0.73522600  0.26477400  0.38946800  1
  Se  Se13  1  0.26477400  0.73522600  0.61053200  1
  Se  Se14  1  0.00000000  0.00000000  0.00000000  1
  Se  Se15  1  0.00000000  0.00000000  0.50000000  1
