# generated using pymatgen
data_KSm(PO3)4
_symmetry_space_group_name_H-M   'P 1'
_cell_length_a   7.53055772
_cell_length_b   7.53055772
_cell_length_c   10.70902437
_cell_angle_alpha   79.04050612
_cell_angle_beta   79.04050612
_cell_angle_gamma   115.51496769
_symmetry_Int_Tables_number   1
_chemical_formula_structural   KSm(PO3)4
_chemical_formula_sum   'K2 Sm2 P8 O24'
_cell_volume   512.09296677
_cell_formula_units_Z   2
loop_
 _symmetry_equiv_pos_site_id
 _symmetry_equiv_pos_as_xyz
  1  'x, y, z'
loop_
 _atom_site_type_symbol
 _atom_site_label
 _atom_site_symmetry_multiplicity
 _atom_site_fract_x
 _atom_site_fract_y
 _atom_site_fract_z
 _atom_site_occupancy
  K  K0  1  0.31060400  0.68939600  0.25000000  1
  K  K1  1  0.68939600  0.31060400  0.75000000  1
  Sm  Sm2  1  0.62068700  0.37931300  0.25000000  1
  Sm  Sm3  1  0.37931300  0.62068700  0.75000000  1
  P  P4  1  0.12175300  0.78685200  0.99553000  1
  P  P5  1  0.21314800  0.87824700  0.50447000  1
  P  P6  1  0.87824700  0.21314800  0.00447000  1
  P  P7  1  0.78685200  0.12175300  0.49553000  1
  P  P8  1  0.75162700  0.80476000  0.94964400  1
  P  P9  1  0.19524000  0.24837300  0.55035600  1
  P  P10  1  0.24837300  0.19524000  0.05035600  1
  P  P11  1  0.80476000  0.75162700  0.44964400  1
  O  O12  1  0.99118100  0.85445700  0.91392500  1
  O  O13  1  0.14554300  0.00881900  0.58607500  1
  O  O14  1  0.00881900  0.14554300  0.08607500  1
  O  O15  1  0.85445700  0.99118100  0.41392500  1
  O  O16  1  0.77729900  0.03188100  0.93726300  1
  O  O17  1  0.96811900  0.22270100  0.56273700  1
  O  O18  1  0.22270100  0.96811900  0.06273700  1
  O  O19  1  0.03188100  0.77729900  0.43726300  1
  O  O20  1  0.67272000  0.74302600  0.83888900  1
  O  O21  1  0.25697400  0.32728000  0.66111100  1
  O  O22  1  0.32728000  0.25697400  0.16111100  1
  O  O23  1  0.74302600  0.67272000  0.33888900  1
  O  O24  1  0.66906600  0.63804800  0.59225800  1
  O  O25  1  0.36195200  0.33093400  0.90774200  1
  O  O26  1  0.33093400  0.36195200  0.40774200  1
  O  O27  1  0.63804800  0.66906600  0.09225800  1
  O  O28  1  0.80080700  0.30022200  0.39544300  1
  O  O29  1  0.69977800  0.19919300  0.10455700  1
  O  O30  1  0.19919300  0.69977800  0.60455700  1
  O  O31  1  0.30022200  0.80080700  0.89544300  1
  O  O32  1  0.59418900  0.98752800  0.61217100  1
  O  O33  1  0.01247200  0.40581100  0.88782900  1
  O  O34  1  0.40581100  0.01247200  0.38782900  1
  O  O35  1  0.98752800  0.59418900  0.11217100  1
