# generated using pymatgen
data_Eu(SeO4)2
_symmetry_space_group_name_H-M   'P 1'
_cell_length_a   9.54724400
_cell_length_b   14.05531000
_cell_length_c   10.27500600
_cell_angle_alpha   90.00000000
_cell_angle_beta   90.00000000
_cell_angle_gamma   90.00000000
_symmetry_Int_Tables_number   1
_chemical_formula_structural   Eu(SeO4)2
_chemical_formula_sum   'Eu8 Se16 O64'
_cell_volume   1378.79765116
_cell_formula_units_Z   8
loop_
 _symmetry_equiv_pos_site_id
 _symmetry_equiv_pos_as_xyz
  1  'x, y, z'
loop_
 _atom_site_type_symbol
 _atom_site_label
 _atom_site_symmetry_multiplicity
 _atom_site_fract_x
 _atom_site_fract_y
 _atom_site_fract_z
 _atom_site_occupancy
  Eu  Eu0  1  0.72095300  0.60512800  0.45281400  1
  Eu  Eu1  1  0.22095300  0.89487200  0.54718600  1
  Eu  Eu2  1  0.27904700  0.10512800  0.04718600  1
  Eu  Eu3  1  0.77904700  0.39487200  0.95281400  1
  Eu  Eu4  1  0.27904700  0.39487200  0.54718600  1
  Eu  Eu5  1  0.77904700  0.10512800  0.45281400  1
  Eu  Eu6  1  0.72095300  0.89487200  0.95281400  1
  Eu  Eu7  1  0.22095300  0.60512800  0.04718600  1
  Se  Se8  1  0.31579000  0.85005000  0.90054100  1
  Se  Se9  1  0.81579000  0.64995000  0.09945900  1
  Se  Se10  1  0.68421000  0.35005000  0.59945900  1
  Se  Se11  1  0.18421000  0.14995000  0.40054100  1
  Se  Se12  1  0.68421000  0.14995000  0.09945900  1
  Se  Se13  1  0.18421000  0.35005000  0.90054100  1
  Se  Se14  1  0.31579000  0.64995000  0.40054100  1
  Se  Se15  1  0.81579000  0.85005000  0.59945900  1
  Se  Se16  1  0.99980500  0.93515300  0.22013800  1
  Se  Se17  1  0.49980500  0.56484700  0.77986200  1
  Se  Se18  1  0.00019500  0.43515300  0.27986200  1
  Se  Se19  1  0.50019500  0.06484700  0.72013800  1
  Se  Se20  1  0.00019500  0.06484700  0.77986200  1
  Se  Se21  1  0.50019500  0.43515300  0.22013800  1
  Se  Se22  1  0.99980500  0.56484700  0.72013800  1
  Se  Se23  1  0.49980500  0.93515300  0.27986200  1
  O  O24  1  0.24163100  0.77620900  0.00592100  1
  O  O25  1  0.74163100  0.72379100  0.99407900  1
  O  O26  1  0.75836900  0.27620900  0.49407900  1
  O  O27  1  0.25836900  0.22379100  0.50592100  1
  O  O28  1  0.75836900  0.22379100  0.99407900  1
  O  O29  1  0.25836900  0.27620900  0.00592100  1
  O  O30  1  0.24163100  0.72379100  0.50592100  1
  O  O31  1  0.74163100  0.77620900  0.49407900  1
  O  O32  1  0.26358200  0.81925200  0.75147800  1
  O  O33  1  0.76358200  0.68074800  0.24852200  1
  O  O34  1  0.73641800  0.31925200  0.74852200  1
  O  O35  1  0.23641800  0.18074800  0.25147800  1
  O  O36  1  0.73641800  0.18074800  0.24852200  1
  O  O37  1  0.23641800  0.31925200  0.75147800  1
  O  O38  1  0.26358200  0.68074800  0.25147800  1
  O  O39  1  0.76358200  0.81925200  0.74852200  1
  O  O40  1  0.48909600  0.84304500  0.91573500  1
  O  O41  1  0.98909600  0.65695500  0.08426500  1
  O  O42  1  0.51090400  0.34304500  0.58426500  1
  O  O43  1  0.01090400  0.15695500  0.41573500  1
  O  O44  1  0.51090400  0.15695500  0.08426500  1
  O  O45  1  0.01090400  0.34304500  0.91573500  1
  O  O46  1  0.48909600  0.65695500  0.41573500  1
  O  O47  1  0.98909600  0.84304500  0.58426500  1
  O  O48  1  0.26347000  0.96153400  0.92524400  1
  O  O49  1  0.76347000  0.53846600  0.07475600  1
  O  O50  1  0.73653000  0.46153400  0.57475600  1
  O  O51  1  0.23653000  0.03846600  0.42524400  1
  O  O52  1  0.73653000  0.03846600  0.07475600  1
  O  O53  1  0.23653000  0.46153400  0.92524400  1
  O  O54  1  0.26347000  0.53846600  0.42524400  1
  O  O55  1  0.76347000  0.96153400  0.57475600  1
  O  O56  1  0.91364200  0.87276100  0.10784800  1
  O  O57  1  0.41364200  0.62723900  0.89215200  1
  O  O58  1  0.08635800  0.37276100  0.39215200  1
  O  O59  1  0.58635800  0.12723900  0.60784800  1
  O  O60  1  0.08635800  0.12723900  0.89215200  1
  O  O61  1  0.58635800  0.37276100  0.10784800  1
  O  O62  1  0.91364200  0.62723900  0.60784800  1
  O  O63  1  0.41364200  0.87276100  0.39215200  1
  O  O64  1  0.07997100  0.02652400  0.14837000  1
  O  O65  1  0.57997100  0.47347600  0.85163000  1
  O  O66  1  0.92002900  0.52652400  0.35163000  1
  O  O67  1  0.42002900  0.97347600  0.64837000  1
  O  O68  1  0.92002900  0.97347600  0.85163000  1
  O  O69  1  0.42002900  0.52652400  0.14837000  1
  O  O70  1  0.07997100  0.47347600  0.64837000  1
  O  O71  1  0.57997100  0.02652400  0.35163000  1
  O  O72  1  0.10850800  0.86429300  0.30173000  1
  O  O73  1  0.60850800  0.63570700  0.69827000  1
  O  O74  1  0.89149200  0.36429300  0.19827000  1
  O  O75  1  0.39149200  0.13570700  0.80173000  1
  O  O76  1  0.89149200  0.13570700  0.69827000  1
  O  O77  1  0.39149200  0.36429300  0.30173000  1
  O  O78  1  0.10850800  0.63570700  0.80173000  1
  O  O79  1  0.60850800  0.86429300  0.19827000  1
  O  O80  1  0.88631800  0.97743200  0.32995100  1
  O  O81  1  0.38631800  0.52256800  0.67004900  1
  O  O82  1  0.11368200  0.47743200  0.17004900  1
  O  O83  1  0.61368200  0.02256800  0.82995100  1
  O  O84  1  0.11368200  0.02256800  0.67004900  1
  O  O85  1  0.61368200  0.47743200  0.32995100  1
  O  O86  1  0.88631800  0.52256800  0.82995100  1
  O  O87  1  0.38631800  0.97743200  0.17004900  1
