# generated using pymatgen
data_ErMn2O5
_symmetry_space_group_name_H-M   'P 1'
_cell_length_a   5.77864100
_cell_length_b   7.30190000
_cell_length_c   8.52602300
_cell_angle_alpha   90.00000000
_cell_angle_beta   90.00000000
_cell_angle_gamma   90.00000000
_symmetry_Int_Tables_number   1
_chemical_formula_structural   ErMn2O5
_chemical_formula_sum   'Er4 Mn8 O20'
_cell_volume   359.75604112
_cell_formula_units_Z   4
loop_
 _symmetry_equiv_pos_site_id
 _symmetry_equiv_pos_as_xyz
  1  'x, y, z'
loop_
 _atom_site_type_symbol
 _atom_site_label
 _atom_site_symmetry_multiplicity
 _atom_site_fract_x
 _atom_site_fract_y
 _atom_site_fract_z
 _atom_site_occupancy
  Er  Er0  1  0.00000000  0.36299500  0.67008800  1
  Er  Er1  1  0.00000000  0.63700500  0.32991200  1
  Er  Er2  1  0.00000000  0.86299500  0.82991200  1
  Er  Er3  1  0.00000000  0.13700500  0.17008800  1
  Mn  Mn4  1  0.50000000  0.08803600  0.84777300  1
  Mn  Mn5  1  0.50000000  0.91196400  0.15222700  1
  Mn  Mn6  1  0.50000000  0.58803600  0.65222700  1
  Mn  Mn7  1  0.50000000  0.41196400  0.34777300  1
  Mn  Mn8  1  0.25292100  0.50000000  0.00000000  1
  Mn  Mn9  1  0.74707900  0.00000000  0.50000000  1
  Mn  Mn10  1  0.74707900  0.50000000  0.00000000  1
  Mn  Mn11  1  0.25292100  0.00000000  0.50000000  1
  O  O12  1  0.23861400  0.89068400  0.29321700  1
  O  O13  1  0.23861400  0.10931600  0.70678300  1
  O  O14  1  0.76138600  0.39068400  0.20678300  1
  O  O15  1  0.76138600  0.60931600  0.79321700  1
  O  O16  1  0.76138600  0.10931600  0.70678300  1
  O  O17  1  0.76138600  0.89068400  0.29321700  1
  O  O18  1  0.23861400  0.60931600  0.79321700  1
  O  O19  1  0.23861400  0.39068400  0.20678300  1
  O  O20  1  0.50000000  0.34990100  0.92815600  1
  O  O21  1  0.50000000  0.65009900  0.07184400  1
  O  O22  1  0.50000000  0.84990100  0.57184400  1
  O  O23  1  0.50000000  0.15009900  0.42815600  1
  O  O24  1  0.26870200  0.00000000  0.00000000  1
  O  O25  1  0.73129800  0.50000000  0.50000000  1
  O  O26  1  0.73129800  0.00000000  0.00000000  1
  O  O27  1  0.26870200  0.50000000  0.50000000  1
  O  O28  1  0.00000000  0.16467200  0.44126500  1
  O  O29  1  0.00000000  0.83532800  0.55873500  1
  O  O30  1  0.00000000  0.66467200  0.05873500  1
  O  O31  1  0.00000000  0.33532800  0.94126500  1
