# generated using pymatgen
data_CsSm2Cl7
_symmetry_space_group_name_H-M   'P 1'
_cell_length_a   7.18252700
_cell_length_b   13.01753600
_cell_length_c   14.12769600
_cell_angle_alpha   90.00000000
_cell_angle_beta   90.00000000
_cell_angle_gamma   90.00000000
_symmetry_Int_Tables_number   1
_chemical_formula_structural   CsSm2Cl7
_chemical_formula_sum   'Cs4 Sm8 Cl28'
_cell_volume   1320.92267636
_cell_formula_units_Z   4
loop_
 _symmetry_equiv_pos_site_id
 _symmetry_equiv_pos_as_xyz
  1  'x, y, z'
loop_
 _atom_site_type_symbol
 _atom_site_label
 _atom_site_symmetry_multiplicity
 _atom_site_fract_x
 _atom_site_fract_y
 _atom_site_fract_z
 _atom_site_occupancy
  Cs  Cs0  1  0.25000000  0.80372300  0.04101500  1
  Cs  Cs1  1  0.75000000  0.19627700  0.95898500  1
  Cs  Cs2  1  0.75000000  0.30372300  0.45898500  1
  Cs  Cs3  1  0.25000000  0.69627700  0.54101500  1
  Sm  Sm4  1  0.25000000  0.45992700  0.23665300  1
  Sm  Sm5  1  0.75000000  0.54007300  0.76334700  1
  Sm  Sm6  1  0.75000000  0.95992700  0.26334700  1
  Sm  Sm7  1  0.25000000  0.04007300  0.73665300  1
  Sm  Sm8  1  0.25000000  0.15552200  0.24920900  1
  Sm  Sm9  1  0.75000000  0.84447800  0.75079100  1
  Sm  Sm10  1  0.75000000  0.65552200  0.25079100  1
  Sm  Sm11  1  0.25000000  0.34447800  0.74920900  1
  Cl  Cl12  1  0.01217800  0.30572100  0.17744600  1
  Cl  Cl13  1  0.98782200  0.69427900  0.82255400  1
  Cl  Cl14  1  0.98782200  0.80572100  0.32255400  1
  Cl  Cl15  1  0.51217800  0.69427900  0.82255400  1
  Cl  Cl16  1  0.01217800  0.19427900  0.67744600  1
  Cl  Cl17  1  0.48782200  0.30572100  0.17744600  1
  Cl  Cl18  1  0.48782200  0.19427900  0.67744600  1
  Cl  Cl19  1  0.51217800  0.80572100  0.32255400  1
  Cl  Cl20  1  0.00942600  0.57597500  0.12641400  1
  Cl  Cl21  1  0.99057400  0.42402500  0.87358600  1
  Cl  Cl22  1  0.99057400  0.07597500  0.37358600  1
  Cl  Cl23  1  0.50942600  0.42402500  0.87358600  1
  Cl  Cl24  1  0.00942600  0.92402500  0.62641400  1
  Cl  Cl25  1  0.49057400  0.57597500  0.12641400  1
  Cl  Cl26  1  0.49057400  0.92402500  0.62641400  1
  Cl  Cl27  1  0.50942600  0.07597500  0.37358600  1
  Cl  Cl28  1  0.00846900  0.03982700  0.13676500  1
  Cl  Cl29  1  0.99153100  0.96017300  0.86323500  1
  Cl  Cl30  1  0.99153100  0.53982700  0.36323500  1
  Cl  Cl31  1  0.50846900  0.96017300  0.86323500  1
  Cl  Cl32  1  0.00846900  0.46017300  0.63676500  1
  Cl  Cl33  1  0.49153100  0.03982700  0.13676500  1
  Cl  Cl34  1  0.49153100  0.46017300  0.63676500  1
  Cl  Cl35  1  0.50846900  0.53982700  0.36323500  1
  Cl  Cl36  1  0.25000000  0.31143500  0.38495400  1
  Cl  Cl37  1  0.75000000  0.68856500  0.61504600  1
  Cl  Cl38  1  0.75000000  0.81143500  0.11504600  1
  Cl  Cl39  1  0.25000000  0.18856500  0.88495400  1
