# generated using pymatgen
data_Na2BSO4F3
_symmetry_space_group_name_H-M   'P 1'
_cell_length_a   6.70726500
_cell_length_b   6.72521604
_cell_length_c   6.73699542
_cell_angle_alpha   84.35842550
_cell_angle_beta   66.33330549
_cell_angle_gamma   84.24912968
_symmetry_Int_Tables_number   1
_chemical_formula_structural   Na2BSO4F3
_chemical_formula_sum   'Na4 B2 S2 O8 F6'
_cell_volume   276.36874215
_cell_formula_units_Z   2
loop_
 _symmetry_equiv_pos_site_id
 _symmetry_equiv_pos_as_xyz
  1  'x, y, z'
loop_
 _atom_site_type_symbol
 _atom_site_label
 _atom_site_symmetry_multiplicity
 _atom_site_fract_x
 _atom_site_fract_y
 _atom_site_fract_z
 _atom_site_occupancy
  Na  Na0  1  0.72986400  0.84564800  0.38475400  1
  Na  Na1  1  0.27013600  0.15435200  0.61524600  1
  Na  Na2  1  0.72301700  0.40416000  0.76585700  1
  Na  Na3  1  0.27698300  0.59584000  0.23414300  1
  B  B4  1  0.83792900  0.87530000  0.85546500  1
  B  B5  1  0.16207100  0.12470000  0.14453500  1
  S  S6  1  0.22966500  0.65063800  0.72656100  1
  S  S7  1  0.77033500  0.34936200  0.27343900  1
  O  O8  1  0.02212000  0.76127300  0.89344700  1
  O  O9  1  0.97788000  0.23872700  0.10655300  1
  O  O10  1  0.34847600  0.56338200  0.85836400  1
  O  O11  1  0.65152400  0.43661800  0.14163600  1
  O  O12  1  0.15661100  0.49972000  0.63011700  1
  O  O13  1  0.84338900  0.50028000  0.36988300  1
  O  O14  1  0.34995200  0.80145700  0.55682500  1
  O  O15  1  0.65004800  0.19854300  0.44317500  1
  F  F16  1  0.76569800  0.77312500  0.72511900  1
  F  F17  1  0.23430200  0.22687500  0.27488100  1
  F  F18  1  0.90229200  0.06756200  0.74954200  1
  F  F19  1  0.09770800  0.93243800  0.25045800  1
  F  F20  1  0.67205900  0.89885700  0.06265800  1
  F  F21  1  0.32794100  0.10114300  0.93734200  1
