# generated using pymatgen
data_Sr(GaSe2)2
_symmetry_space_group_name_H-M   'P 1'
_cell_length_a   6.37339106
_cell_length_b   6.37339106
_cell_length_c   11.19242200
_cell_angle_alpha   90.00000000
_cell_angle_beta   90.00000000
_cell_angle_gamma   120.35292795
_symmetry_Int_Tables_number   1
_chemical_formula_structural   Sr(GaSe2)2
_chemical_formula_sum   'Sr2 Ga4 Se8'
_cell_volume   392.31989507
_cell_formula_units_Z   2
loop_
 _symmetry_equiv_pos_site_id
 _symmetry_equiv_pos_as_xyz
  1  'x, y, z'
loop_
 _atom_site_type_symbol
 _atom_site_label
 _atom_site_symmetry_multiplicity
 _atom_site_fract_x
 _atom_site_fract_y
 _atom_site_fract_z
 _atom_site_occupancy
  Sr  Sr0  1  0.50000000  0.50000000  0.75000000  1
  Sr  Sr1  1  0.50000000  0.50000000  0.25000000  1
  Ga  Ga2  1  0.76202200  0.24002700  0.50000000  1
  Ga  Ga3  1  0.23797800  0.75997300  0.50000000  1
  Ga  Ga4  1  0.75997300  0.23797800  0.00000000  1
  Ga  Ga5  1  0.24002700  0.76202200  0.00000000  1
  Se  Se6  1  0.34948500  0.18604300  0.50000000  1
  Se  Se7  1  0.65051500  0.81395700  0.50000000  1
  Se  Se8  1  0.81395700  0.65051500  0.00000000  1
  Se  Se9  1  0.18604300  0.34948500  0.00000000  1
  Se  Se10  1  0.50000000  0.00000000  0.83270400  1
  Se  Se11  1  0.00000000  0.50000000  0.66729600  1
  Se  Se12  1  0.50000000  0.00000000  0.16729600  1
  Se  Se13  1  0.00000000  0.50000000  0.33270400  1
