# generated using pymatgen
data_CeGa
_symmetry_space_group_name_H-M   'P 1'
_cell_length_a   5.98933507
_cell_length_b   5.98933507
_cell_length_c   4.13452400
_cell_angle_alpha   90.00000000
_cell_angle_beta   90.00000000
_cell_angle_gamma   136.68876250
_symmetry_Int_Tables_number   1
_chemical_formula_structural   CeGa
_chemical_formula_sum   'Ce2 Ga2'
_cell_volume   101.73776943
_cell_formula_units_Z   2
loop_
 _symmetry_equiv_pos_site_id
 _symmetry_equiv_pos_as_xyz
  1  'x, y, z'
loop_
 _atom_site_type_symbol
 _atom_site_label
 _atom_site_symmetry_multiplicity
 _atom_site_fract_x
 _atom_site_fract_y
 _atom_site_fract_z
 _atom_site_occupancy
  Ce  Ce0  1  0.85752900  0.14247100  0.25000000  1
  Ce  Ce1  1  0.14247100  0.85752900  0.75000000  1
  Ga  Ga2  1  0.57207900  0.42792100  0.25000000  1
  Ga  Ga3  1  0.42792100  0.57207900  0.75000000  1
