# generated using pymatgen
data_Ba3GeS5
_symmetry_space_group_name_H-M   'P 1'
_cell_length_a   8.74250000
_cell_length_b   9.66842100
_cell_length_c   12.21012500
_cell_angle_alpha   90.00000000
_cell_angle_beta   90.00000000
_cell_angle_gamma   90.00000000
_symmetry_Int_Tables_number   1
_chemical_formula_structural   Ba3GeS5
_chemical_formula_sum   'Ba12 Ge4 S20'
_cell_volume   1032.07510871
_cell_formula_units_Z   4
loop_
 _symmetry_equiv_pos_site_id
 _symmetry_equiv_pos_as_xyz
  1  'x, y, z'
loop_
 _atom_site_type_symbol
 _atom_site_label
 _atom_site_symmetry_multiplicity
 _atom_site_fract_x
 _atom_site_fract_y
 _atom_site_fract_z
 _atom_site_occupancy
  Ba  Ba0  1  0.92264200  0.51886100  0.31844100  1
  Ba  Ba1  1  0.57735800  0.98113900  0.81844100  1
  Ba  Ba2  1  0.07735800  0.01886100  0.68155900  1
  Ba  Ba3  1  0.42264200  0.48113900  0.18155900  1
  Ba  Ba4  1  0.07735800  0.48113900  0.68155900  1
  Ba  Ba5  1  0.42264200  0.01886100  0.18155900  1
  Ba  Ba6  1  0.92264200  0.98113900  0.31844100  1
  Ba  Ba7  1  0.57735800  0.51886100  0.81844100  1
  Ba  Ba8  1  0.38803700  0.75000000  0.47979700  1
  Ba  Ba9  1  0.11196300  0.75000000  0.97979700  1
  Ba  Ba10  1  0.61196300  0.25000000  0.52020300  1
  Ba  Ba11  1  0.88803700  0.25000000  0.02020300  1
  Ge  Ge12  1  0.69361700  0.75000000  0.09972100  1
  Ge  Ge13  1  0.80638300  0.75000000  0.59972100  1
  Ge  Ge14  1  0.30638300  0.25000000  0.90027900  1
  Ge  Ge15  1  0.19361700  0.25000000  0.40027900  1
  S  S16  1  0.82017300  0.55955900  0.05680300  1
  S  S17  1  0.67982700  0.94044100  0.55680300  1
  S  S18  1  0.17982700  0.05955900  0.94319700  1
  S  S19  1  0.32017300  0.44044100  0.44319700  1
  S  S20  1  0.17982700  0.44044100  0.94319700  1
  S  S21  1  0.32017300  0.05955900  0.44319700  1
  S  S22  1  0.82017300  0.94044100  0.05680300  1
  S  S23  1  0.67982700  0.55955900  0.55680300  1
  S  S24  1  0.48017800  0.75000000  0.00217200  1
  S  S25  1  0.01982200  0.75000000  0.50217200  1
  S  S26  1  0.51982200  0.25000000  0.99782800  1
  S  S27  1  0.98017800  0.25000000  0.49782800  1
  S  S28  1  0.65000500  0.75000000  0.27999000  1
  S  S29  1  0.84999500  0.75000000  0.77999000  1
  S  S30  1  0.34999500  0.25000000  0.72001000  1
  S  S31  1  0.15000500  0.25000000  0.22001000  1
  S  S32  1  0.18101100  0.75000000  0.23347800  1
  S  S33  1  0.31898900  0.75000000  0.73347800  1
  S  S34  1  0.81898900  0.25000000  0.76652200  1
  S  S35  1  0.68101100  0.25000000  0.26652200  1
