# generated using pymatgen
data_Al4Ge2W3
_symmetry_space_group_name_H-M   'P 1'
_cell_length_a   4.86057448
_cell_length_b   4.86057448
_cell_length_c   6.72284598
_cell_angle_alpha   89.79235257
_cell_angle_beta   89.79235257
_cell_angle_gamma   120.07071901
_symmetry_Int_Tables_number   1
_chemical_formula_structural   Al4Ge2W3
_chemical_formula_sum   'Al4 Ge2 W3'
_cell_volume   137.44775165
_cell_formula_units_Z   1
loop_
 _symmetry_equiv_pos_site_id
 _symmetry_equiv_pos_as_xyz
  1  'x, y, z'
loop_
 _atom_site_type_symbol
 _atom_site_label
 _atom_site_symmetry_multiplicity
 _atom_site_fract_x
 _atom_site_fract_y
 _atom_site_fract_z
 _atom_site_occupancy
  Al  Al0  1  0.16328800  0.83671200  0.50000000  1
  Al  Al1  1  0.32895400  0.16473000  0.16944100  1
  Al  Al2  1  0.83527000  0.67104600  0.83055900  1
  Al  Al3  1  0.83049600  0.16950400  0.50000000  1
  Ge  Ge4  1  0.67723000  0.83651700  0.17046500  1
  Ge  Ge5  1  0.16348300  0.32277000  0.82953500  1
  W  W6  1  0.01135000  0.50553300  0.15927000  1
  W  W7  1  0.49446700  0.98865000  0.84073000  1
  W  W8  1  0.49584900  0.50415100  0.50000000  1
