# generated using pymatgen
data_KZnAs3F18
_symmetry_space_group_name_H-M   'P 1'
_cell_length_a   9.72328500
_cell_length_b   10.67050100
_cell_length_c   14.30829300
_cell_angle_alpha   90.00000000
_cell_angle_beta   90.00000000
_cell_angle_gamma   90.00000000
_symmetry_Int_Tables_number   1
_chemical_formula_structural   KZnAs3F18
_chemical_formula_sum   'K4 Zn4 As12 F72'
_cell_volume   1484.51862712
_cell_formula_units_Z   4
loop_
 _symmetry_equiv_pos_site_id
 _symmetry_equiv_pos_as_xyz
  1  'x, y, z'
loop_
 _atom_site_type_symbol
 _atom_site_label
 _atom_site_symmetry_multiplicity
 _atom_site_fract_x
 _atom_site_fract_y
 _atom_site_fract_z
 _atom_site_occupancy
  K  K0  1  0.52483200  0.92272800  0.75000000  1
  K  K1  1  0.97516800  0.42272800  0.75000000  1
  K  K2  1  0.47516800  0.07727200  0.25000000  1
  K  K3  1  0.02483200  0.57727200  0.25000000  1
  Zn  Zn4  1  0.00000000  0.00000000  0.50000000  1
  Zn  Zn5  1  0.50000000  0.50000000  0.00000000  1
  Zn  Zn6  1  0.00000000  0.00000000  0.00000000  1
  Zn  Zn7  1  0.50000000  0.50000000  0.50000000  1
  As  As8  1  0.10668600  0.02284900  0.75000000  1
  As  As9  1  0.39331400  0.52284900  0.75000000  1
  As  As10  1  0.89331400  0.97715100  0.25000000  1
  As  As11  1  0.60668600  0.47715100  0.25000000  1
  As  As12  1  0.69437200  0.20356200  0.54920300  1
  As  As13  1  0.80562800  0.70356200  0.95079700  1
  As  As14  1  0.30562800  0.79643800  0.04920300  1
  As  As15  1  0.19437200  0.29643800  0.45079700  1
  As  As16  1  0.30562800  0.79643800  0.45079700  1
  As  As17  1  0.19437200  0.29643800  0.04920300  1
  As  As18  1  0.69437200  0.20356200  0.95079700  1
  As  As19  1  0.80562800  0.70356200  0.54920300  1
  F  F20  1  0.10662500  0.02467200  0.62208500  1
  F  F21  1  0.39337500  0.52467200  0.87791500  1
  F  F22  1  0.89337500  0.97532800  0.12208500  1
  F  F23  1  0.60662500  0.47532800  0.37791500  1
  F  F24  1  0.89337500  0.97532800  0.37791500  1
  F  F25  1  0.60662500  0.47532800  0.12208500  1
  F  F26  1  0.10662500  0.02467200  0.87791500  1
  F  F27  1  0.39337500  0.52467200  0.62208500  1
  F  F28  1  0.15618700  0.86601900  0.75000000  1
  F  F29  1  0.34381300  0.36601900  0.75000000  1
  F  F30  1  0.84381300  0.13398100  0.25000000  1
  F  F31  1  0.65618700  0.63398100  0.25000000  1
  F  F32  1  0.28100200  0.06641700  0.75000000  1
  F  F33  1  0.21899800  0.56641700  0.75000000  1
  F  F34  1  0.71899800  0.93358300  0.25000000  1
  F  F35  1  0.78100200  0.43358300  0.25000000  1
  F  F36  1  0.06134900  0.18271800  0.75000000  1
  F  F37  1  0.43865100  0.68271800  0.75000000  1
  F  F38  1  0.93865100  0.81728200  0.25000000  1
  F  F39  1  0.56134900  0.31728200  0.25000000  1
  F  F40  1  0.93326200  0.98138700  0.75000000  1
  F  F41  1  0.56673800  0.48138700  0.75000000  1
  F  F42  1  0.06673800  0.01861300  0.25000000  1
  F  F43  1  0.43326200  0.51861300  0.25000000  1
  F  F44  1  0.82421700  0.07865400  0.55466800  1
  F  F45  1  0.67578300  0.57865400  0.94533200  1
  F  F46  1  0.17578300  0.92134600  0.05466800  1
  F  F47  1  0.32421700  0.42134600  0.44533200  1
  F  F48  1  0.17578300  0.92134600  0.44533200  1
  F  F49  1  0.32421700  0.42134600  0.05466800  1
  F  F50  1  0.82421700  0.07865400  0.94533200  1
  F  F51  1  0.67578300  0.57865400  0.55466800  1
  F  F52  1  0.79158700  0.28387700  0.46672500  1
  F  F53  1  0.70841300  0.78387700  0.03327500  1
  F  F54  1  0.20841300  0.71612300  0.96672500  1
  F  F55  1  0.29158700  0.21612300  0.53327500  1
  F  F56  1  0.20841300  0.71612300  0.53327500  1
  F  F57  1  0.29158700  0.21612300  0.96672500  1
  F  F58  1  0.79158700  0.28387700  0.03327500  1
  F  F59  1  0.70841300  0.78387700  0.46672500  1
  F  F60  1  0.60701300  0.12384500  0.46010300  1
  F  F61  1  0.89298700  0.62384500  0.03989700  1
  F  F62  1  0.39298700  0.87615500  0.96010300  1
  F  F63  1  0.10701300  0.37615500  0.53989700  1
  F  F64  1  0.39298700  0.87615500  0.53989700  1
  F  F65  1  0.10701300  0.37615500  0.96010300  1
  F  F66  1  0.60701300  0.12384500  0.03989700  1
  F  F67  1  0.89298700  0.62384500  0.46010300  1
  F  F68  1  0.56493500  0.32770100  0.54800400  1
  F  F69  1  0.93506500  0.82770100  0.95199600  1
  F  F70  1  0.43506500  0.67229900  0.04800400  1
  F  F71  1  0.06493500  0.17229900  0.45199600  1
  F  F72  1  0.43506500  0.67229900  0.45199600  1
  F  F73  1  0.06493500  0.17229900  0.04800400  1
  F  F74  1  0.56493500  0.32770100  0.95199600  1
  F  F75  1  0.93506500  0.82770100  0.54800400  1
  F  F76  1  0.59753400  0.12177200  0.63288500  1
  F  F77  1  0.90246600  0.62177200  0.86711500  1
  F  F78  1  0.40246600  0.87822800  0.13288500  1
  F  F79  1  0.09753400  0.37822800  0.36711500  1
  F  F80  1  0.40246600  0.87822800  0.36711500  1
  F  F81  1  0.09753400  0.37822800  0.13288500  1
  F  F82  1  0.59753400  0.12177200  0.86711500  1
  F  F83  1  0.90246600  0.62177200  0.63288500  1
  F  F84  1  0.78080200  0.28210500  0.63999800  1
  F  F85  1  0.71919800  0.78210500  0.86000200  1
  F  F86  1  0.21919800  0.71789500  0.13999800  1
  F  F87  1  0.28080200  0.21789500  0.36000200  1
  F  F88  1  0.21919800  0.71789500  0.36000200  1
  F  F89  1  0.28080200  0.21789500  0.13999800  1
  F  F90  1  0.78080200  0.28210500  0.86000200  1
  F  F91  1  0.71919800  0.78210500  0.63999800  1
