# generated using pymatgen
data_CrAgO2
_symmetry_space_group_name_H-M   'P 1'
_cell_length_a   3.06222236
_cell_length_b   3.06222266
_cell_length_c   12.61712460
_cell_angle_alpha   96.97012749
_cell_angle_beta   89.99999756
_cell_angle_gamma   119.99999930
_symmetry_Int_Tables_number   1
_chemical_formula_structural   CrAgO2
_chemical_formula_sum   'Cr2 Ag2 O4'
_cell_volume   101.45148545
_cell_formula_units_Z   2
loop_
 _symmetry_equiv_pos_site_id
 _symmetry_equiv_pos_as_xyz
  1  'x, y, z'
loop_
 _atom_site_type_symbol
 _atom_site_label
 _atom_site_symmetry_multiplicity
 _atom_site_fract_x
 _atom_site_fract_y
 _atom_site_fract_z
 _atom_site_occupancy
  Cr  Cr0  1  0.75000000  0.50000000  0.25000000  1
  Cr  Cr1  1  0.25000000  0.50000000  0.75000000  1
  Ag  Ag2  1  0.00000000  0.00000000  0.00000000  1
  Ag  Ag3  1  0.50000000  0.00000000  0.50000000  1
  O  O4  1  0.44339200  0.88678400  0.33017700  1
  O  O5  1  0.94339200  0.88678400  0.83017700  1
  O  O6  1  0.05660800  0.11321600  0.16982300  1
  O  O7  1  0.55660800  0.11321600  0.66982300  1
