# generated using pymatgen
data_CeH8(SO6)2
_symmetry_space_group_name_H-M   'P 1'
_cell_length_a   5.75322100
_cell_length_b   11.21638000
_cell_length_c   14.84279500
_cell_angle_alpha   90.00000000
_cell_angle_beta   90.00000000
_cell_angle_gamma   90.00000000
_symmetry_Int_Tables_number   1
_chemical_formula_structural   CeH8(SO6)2
_chemical_formula_sum   'Ce4 H32 S8 O48'
_cell_volume   957.81020655
_cell_formula_units_Z   4
loop_
 _symmetry_equiv_pos_site_id
 _symmetry_equiv_pos_as_xyz
  1  'x, y, z'
loop_
 _atom_site_type_symbol
 _atom_site_label
 _atom_site_symmetry_multiplicity
 _atom_site_fract_x
 _atom_site_fract_y
 _atom_site_fract_z
 _atom_site_occupancy
  Ce  Ce0  1  0.62482400  0.75000000  0.82880900  1
  Ce  Ce1  1  0.87517600  0.75000000  0.32880900  1
  Ce  Ce2  1  0.37517600  0.25000000  0.17119100  1
  Ce  Ce3  1  0.12482400  0.25000000  0.67119100  1
  H  H4  1  0.96098800  0.68036000  0.67564400  1
  H  H5  1  0.53901200  0.81964000  0.17564400  1
  H  H6  1  0.03901200  0.18036000  0.32435600  1
  H  H7  1  0.46098800  0.31964000  0.82435600  1
  H  H8  1  0.03901200  0.31964000  0.32435600  1
  H  H9  1  0.46098800  0.18036000  0.82435600  1
  H  H10  1  0.96098800  0.81964000  0.67564400  1
  H  H11  1  0.53901200  0.68036000  0.17564400  1
  H  H12  1  0.37483900  0.62381500  0.99121800  1
  H  H13  1  0.12516100  0.87618500  0.49121800  1
  H  H14  1  0.62516100  0.12381500  0.00878200  1
  H  H15  1  0.87483900  0.37618500  0.50878200  1
  H  H16  1  0.62516100  0.37618500  0.00878200  1
  H  H17  1  0.87483900  0.12381500  0.50878200  1
  H  H18  1  0.37483900  0.87618500  0.99121800  1
  H  H19  1  0.12516100  0.62381500  0.49121800  1
  H  H20  1  0.30368000  0.55260000  0.90376500  1
  H  H21  1  0.19632000  0.94740000  0.40376500  1
  H  H22  1  0.69632000  0.05260000  0.09623500  1
  H  H23  1  0.80368000  0.44740000  0.59623500  1
  H  H24  1  0.69632000  0.44740000  0.09623500  1
  H  H25  1  0.80368000  0.05260000  0.59623500  1
  H  H26  1  0.30368000  0.94740000  0.90376500  1
  H  H27  1  0.19632000  0.55260000  0.40376500  1
  H  H28  1  0.85655100  0.67929900  0.01126600  1
  H  H29  1  0.64344900  0.82070100  0.51126600  1
  H  H30  1  0.14344900  0.17929900  0.98873400  1
  H  H31  1  0.35655100  0.32070100  0.48873400  1
  H  H32  1  0.14344900  0.32070100  0.98873400  1
  H  H33  1  0.35655100  0.17929900  0.48873400  1
  H  H34  1  0.85655100  0.82070100  0.01126600  1
  H  H35  1  0.64344900  0.67929900  0.51126600  1
  S  S36  1  0.38140600  0.55495900  0.64901800  1
  S  S37  1  0.11859400  0.94504100  0.14901800  1
  S  S38  1  0.61859400  0.05495900  0.35098200  1
  S  S39  1  0.88140600  0.44504100  0.85098200  1
  S  S40  1  0.61859400  0.44504100  0.35098200  1
  S  S41  1  0.88140600  0.05495900  0.85098200  1
  S  S42  1  0.38140600  0.94504100  0.64901800  1
  S  S43  1  0.11859400  0.55495900  0.14901800  1
  O  O44  1  0.35081800  0.42451100  0.66866200  1
  O  O45  1  0.14918200  0.07548900  0.16866200  1
  O  O46  1  0.64918200  0.92451100  0.33133800  1
  O  O47  1  0.85081800  0.57548900  0.83133800  1
  O  O48  1  0.64918200  0.57548900  0.33133800  1
  O  O49  1  0.85081800  0.92451100  0.83133800  1
  O  O50  1  0.35081800  0.07548900  0.66866200  1
  O  O51  1  0.14918200  0.42451100  0.16866200  1
  O  O52  1  0.41533600  0.61763500  0.73787000  1
  O  O53  1  0.08466400  0.88236500  0.23787000  1
  O  O54  1  0.58466400  0.11763500  0.26213000  1
  O  O55  1  0.91533600  0.38236500  0.76213000  1
  O  O56  1  0.58466400  0.38236500  0.26213000  1
  O  O57  1  0.91533600  0.11763500  0.76213000  1
  O  O58  1  0.41533600  0.88236500  0.73787000  1
  O  O59  1  0.08466400  0.61763500  0.23787000  1
  O  O60  1  0.59102200  0.56917500  0.59221800  1
  O  O61  1  0.90897800  0.93082500  0.09221800  1
  O  O62  1  0.40897800  0.06917500  0.40778200  1
  O  O63  1  0.09102200  0.43082500  0.90778200  1
  O  O64  1  0.40897800  0.43082500  0.40778200  1
  O  O65  1  0.09102200  0.06917500  0.90778200  1
  O  O66  1  0.59102200  0.93082500  0.59221800  1
  O  O67  1  0.90897800  0.56917500  0.09221800  1
  O  O68  1  0.16975500  0.60378100  0.60592800  1
  O  O69  1  0.33024500  0.89621900  0.10592800  1
  O  O70  1  0.83024500  0.10378100  0.39407200  1
  O  O71  1  0.66975500  0.39621900  0.89407200  1
  O  O72  1  0.83024500  0.39621900  0.39407200  1
  O  O73  1  0.66975500  0.10378100  0.89407200  1
  O  O74  1  0.16975500  0.89621900  0.60592800  1
  O  O75  1  0.33024500  0.60378100  0.10592800  1
  O  O76  1  0.87752600  0.75000000  0.70114900  1
  O  O77  1  0.62247400  0.75000000  0.20114900  1
  O  O78  1  0.12247400  0.25000000  0.29885100  1
  O  O79  1  0.37752600  0.25000000  0.79885100  1
  O  O80  1  0.39266100  0.62313600  0.92450800  1
  O  O81  1  0.10733900  0.87686400  0.42450800  1
  O  O82  1  0.60733900  0.12313600  0.07549200  1
  O  O83  1  0.89266100  0.37686400  0.57549200  1
  O  O84  1  0.60733900  0.37686400  0.07549200  1
  O  O85  1  0.89266100  0.12313600  0.57549200  1
  O  O86  1  0.39266100  0.87686400  0.92450800  1
  O  O87  1  0.10733900  0.62313600  0.42450800  1
  O  O88  1  0.81881400  0.75000000  0.97342000  1
  O  O89  1  0.68118600  0.75000000  0.47342000  1
  O  O90  1  0.18118600  0.25000000  0.02658000  1
  O  O91  1  0.31881400  0.25000000  0.52658000  1
