# generated using pymatgen
data_LiAlSiO4
_symmetry_space_group_name_H-M   'P 1'
_cell_length_a   8.44578169
_cell_length_b   8.44578169
_cell_length_c   8.44578143
_cell_angle_alpha   107.84540110
_cell_angle_beta   107.84540110
_cell_angle_gamma   107.84539626
_symmetry_Int_Tables_number   1
_chemical_formula_structural   LiAlSiO4
_chemical_formula_sum   'Li6 Al6 Si6 O24'
_cell_volume   489.69334032
_cell_formula_units_Z   6
loop_
 _symmetry_equiv_pos_site_id
 _symmetry_equiv_pos_as_xyz
  1  'x, y, z'
loop_
 _atom_site_type_symbol
 _atom_site_label
 _atom_site_symmetry_multiplicity
 _atom_site_fract_x
 _atom_site_fract_y
 _atom_site_fract_z
 _atom_site_occupancy
  Li  Li0  1  0.94084700  0.76681100  0.54462300  1
  Li  Li1  1  0.54462300  0.94084700  0.76681100  1
  Li  Li2  1  0.76681100  0.54462300  0.94084700  1
  Li  Li3  1  0.05784200  0.22772900  0.45736400  1
  Li  Li4  1  0.45736400  0.05784200  0.22772900  1
  Li  Li5  1  0.22772900  0.45736400  0.05784200  1
  Al  Al6  1  0.78985700  0.38474000  0.57256600  1
  Al  Al7  1  0.86788800  0.27886200  0.10067600  1
  Al  Al8  1  0.38474000  0.57256600  0.78985700  1
  Al  Al9  1  0.57256600  0.78985700  0.38474000  1
  Al  Al10  1  0.10067600  0.86788800  0.27886200  1
  Al  Al11  1  0.27886200  0.10067600  0.86788800  1
  Si  Si12  1  0.42618200  0.20914100  0.61500200  1
  Si  Si13  1  0.61500200  0.42618200  0.20914100  1
  Si  Si14  1  0.20914100  0.61500200  0.42618200  1
  Si  Si15  1  0.12924600  0.72009000  0.89983100  1
  Si  Si16  1  0.72009000  0.89983100  0.12924600  1
  Si  Si17  1  0.89983100  0.12924600  0.72009000  1
  O  O18  1  0.26823100  0.93466000  0.95682100  1
  O  O19  1  0.59648000  0.90787700  0.24647600  1
  O  O20  1  0.90787700  0.24647600  0.59648000  1
  O  O21  1  0.24647600  0.59648000  0.90787700  1
  O  O22  1  0.41171400  0.09475100  0.74067700  1
  O  O23  1  0.09475100  0.74067700  0.41171400  1
  O  O24  1  0.74067700  0.41171400  0.09475100  1
  O  O25  1  0.95682100  0.26823100  0.93466000  1
  O  O26  1  0.31641100  0.33776700  0.64999600  1
  O  O27  1  0.93466000  0.95682100  0.26823100  1
  O  O28  1  0.04101500  0.72069900  0.04846300  1
  O  O29  1  0.72069900  0.04846300  0.04101500  1
  O  O30  1  0.68076800  0.64216400  0.34740300  1
  O  O31  1  0.34740300  0.68076800  0.64216400  1
  O  O32  1  0.64216400  0.34740300  0.68076800  1
  O  O33  1  0.39331500  0.32459900  0.06044900  1
  O  O34  1  0.64999600  0.31641100  0.33776700  1
  O  O35  1  0.33776700  0.64999600  0.31641100  1
  O  O36  1  0.69080700  0.95513500  0.62188300  1
  O  O37  1  0.06044900  0.39331500  0.32459900  1
  O  O38  1  0.32459900  0.06044900  0.39331500  1
  O  O39  1  0.62188300  0.69080700  0.95513500  1
  O  O40  1  0.95513500  0.62188300  0.69080700  1
  O  O41  1  0.04846300  0.04101500  0.72069900  1
