# generated using pymatgen
data_Y2B6Os
_symmetry_space_group_name_H-M   'P 1'
_cell_length_a   3.66455600
_cell_length_b   9.17379400
_cell_length_c   11.55741400
_cell_angle_alpha   90.00000000
_cell_angle_beta   90.00000000
_cell_angle_gamma   90.00000000
_symmetry_Int_Tables_number   1
_chemical_formula_structural   Y2B6Os
_chemical_formula_sum   'Y8 B24 Os4'
_cell_volume   388.53577829
_cell_formula_units_Z   4
loop_
 _symmetry_equiv_pos_site_id
 _symmetry_equiv_pos_as_xyz
  1  'x, y, z'
loop_
 _atom_site_type_symbol
 _atom_site_label
 _atom_site_symmetry_multiplicity
 _atom_site_fract_x
 _atom_site_fract_y
 _atom_site_fract_z
 _atom_site_occupancy
  Y  Y0  1  0.00000000  0.32221000  0.41350200  1
  Y  Y1  1  0.00000000  0.67779000  0.58649800  1
  Y  Y2  1  0.00000000  0.82221000  0.08649800  1
  Y  Y3  1  0.00000000  0.17779000  0.91350200  1
  Y  Y4  1  0.00000000  0.94482400  0.37361800  1
  Y  Y5  1  0.00000000  0.05517600  0.62638200  1
  Y  Y6  1  0.00000000  0.44482400  0.12638200  1
  Y  Y7  1  0.00000000  0.55517600  0.87361800  1
  B  B8  1  0.50000000  0.55406500  0.43276200  1
  B  B9  1  0.50000000  0.44593500  0.56723800  1
  B  B10  1  0.50000000  0.05406500  0.06723800  1
  B  B11  1  0.50000000  0.94593500  0.93276200  1
  B  B12  1  0.50000000  0.74783400  0.42042300  1
  B  B13  1  0.50000000  0.25216600  0.57957700  1
  B  B14  1  0.50000000  0.24783400  0.07957700  1
  B  B15  1  0.50000000  0.75216600  0.92042300  1
  B  B16  1  0.50000000  0.79124700  0.26760100  1
  B  B17  1  0.50000000  0.20875300  0.73239900  1
  B  B18  1  0.50000000  0.29124700  0.23239900  1
  B  B19  1  0.50000000  0.70875300  0.76760100  1
  B  B20  1  0.50000000  0.63270000  0.18578000  1
  B  B21  1  0.50000000  0.36730000  0.81422000  1
  B  B22  1  0.50000000  0.13270000  0.31422000  1
  B  B23  1  0.50000000  0.86730000  0.68578000  1
  B  B24  1  0.50000000  0.98415600  0.21323600  1
  B  B25  1  0.50000000  0.01584400  0.78676400  1
  B  B26  1  0.50000000  0.48415600  0.28676400  1
  B  B27  1  0.50000000  0.51584400  0.71323600  1
  B  B28  1  0.50000000  0.61169200  0.03087300  1
  B  B29  1  0.50000000  0.38830800  0.96912700  1
  B  B30  1  0.50000000  0.11169200  0.46912700  1
  B  B31  1  0.50000000  0.88830800  0.53087300  1
  Os  Os32  1  0.00000000  0.63808700  0.32144500  1
  Os  Os33  1  0.00000000  0.36191300  0.67855500  1
  Os  Os34  1  0.00000000  0.13808700  0.17855500  1
  Os  Os35  1  0.00000000  0.86191300  0.82144500  1
