# generated using pymatgen
data_HgSeO4
_symmetry_space_group_name_H-M   'P 1'
_cell_length_a   5.09085500
_cell_length_b   5.17040400
_cell_length_c   6.83950100
_cell_angle_alpha   90.00000000
_cell_angle_beta   90.00000000
_cell_angle_gamma   90.00000000
_symmetry_Int_Tables_number   1
_chemical_formula_structural   HgSeO4
_chemical_formula_sum   'Hg2 Se2 O8'
_cell_volume   180.02782049
_cell_formula_units_Z   2
loop_
 _symmetry_equiv_pos_site_id
 _symmetry_equiv_pos_as_xyz
  1  'x, y, z'
loop_
 _atom_site_type_symbol
 _atom_site_label
 _atom_site_symmetry_multiplicity
 _atom_site_fract_x
 _atom_site_fract_y
 _atom_site_fract_z
 _atom_site_occupancy
  Hg  Hg0  1  0.13968600  0.50800700  0.50000000  1
  Hg  Hg1  1  0.86031400  0.00800700  0.00000000  1
  Se  Se2  1  0.66503200  0.97931800  0.50000000  1
  Se  Se3  1  0.33496800  0.47931800  0.00000000  1
  O  O4  1  0.70186300  0.30008800  0.50000000  1
  O  O5  1  0.29813700  0.80008800  0.00000000  1
  O  O6  1  0.34293100  0.91594700  0.50000000  1
  O  O7  1  0.65706900  0.41594700  0.00000000  1
  O  O8  1  0.81612100  0.83422000  0.69238100  1
  O  O9  1  0.18387900  0.33422000  0.80761900  1
  O  O10  1  0.18387900  0.33422000  0.19238100  1
  O  O11  1  0.81612100  0.83422000  0.30761900  1
