# generated using pymatgen
data_TaCoGe
_symmetry_space_group_name_H-M   'P 1'
_cell_length_a   3.74312200
_cell_length_b   6.32793600
_cell_length_c   7.16439900
_cell_angle_alpha   90.00000000
_cell_angle_beta   90.00000000
_cell_angle_gamma   90.00000000
_symmetry_Int_Tables_number   1
_chemical_formula_structural   TaCoGe
_chemical_formula_sum   'Ta4 Co4 Ge4'
_cell_volume   169.69764878
_cell_formula_units_Z   4
loop_
 _symmetry_equiv_pos_site_id
 _symmetry_equiv_pos_as_xyz
  1  'x, y, z'
loop_
 _atom_site_type_symbol
 _atom_site_label
 _atom_site_symmetry_multiplicity
 _atom_site_fract_x
 _atom_site_fract_y
 _atom_site_fract_z
 _atom_site_occupancy
  Ta  Ta0  1  0.25000000  0.02041900  0.18103600  1
  Ta  Ta1  1  0.25000000  0.52041900  0.31896400  1
  Ta  Ta2  1  0.75000000  0.97958100  0.81896400  1
  Ta  Ta3  1  0.75000000  0.47958100  0.68103600  1
  Co  Co4  1  0.25000000  0.14233000  0.56380700  1
  Co  Co5  1  0.25000000  0.64233000  0.93619300  1
  Co  Co6  1  0.75000000  0.85767000  0.43619300  1
  Co  Co7  1  0.75000000  0.35767000  0.06380700  1
  Ge  Ge8  1  0.25000000  0.77171000  0.61942200  1
  Ge  Ge9  1  0.25000000  0.27171000  0.88057800  1
  Ge  Ge10  1  0.75000000  0.22829000  0.38057800  1
  Ge  Ge11  1  0.75000000  0.72829000  0.11942200  1
