# generated using pymatgen
data_Na4Ca2SiP4
_symmetry_space_group_name_H-M   'P 1'
_cell_length_a   9.15326153
_cell_length_b   9.15326153
_cell_length_c   6.98564003
_cell_angle_alpha   88.96896085
_cell_angle_beta   88.96896085
_cell_angle_gamma   119.59287499
_symmetry_Int_Tables_number   1
_chemical_formula_structural   Na4Ca2SiP4
_chemical_formula_sum   'Na8 Ca4 Si2 P8'
_cell_volume   508.60155765
_cell_formula_units_Z   2
loop_
 _symmetry_equiv_pos_site_id
 _symmetry_equiv_pos_as_xyz
  1  'x, y, z'
loop_
 _atom_site_type_symbol
 _atom_site_label
 _atom_site_symmetry_multiplicity
 _atom_site_fract_x
 _atom_site_fract_y
 _atom_site_fract_z
 _atom_site_occupancy
  Na  Na0  1  0.47347100  0.94367400  0.38916700  1
  Na  Na1  1  0.94367400  0.47347100  0.88916700  1
  Na  Na2  1  0.86227000  0.71939000  0.18764000  1
  Na  Na3  1  0.28749900  0.13571000  0.21844700  1
  Na  Na4  1  0.84960200  0.13915400  0.20472100  1
  Na  Na5  1  0.13571000  0.28749900  0.71844700  1
  Na  Na6  1  0.71939000  0.86227000  0.68764000  1
  Na  Na7  1  0.13915400  0.84960200  0.70472100  1
  Ca  Ca8  1  0.05252900  0.52839900  0.38824900  1
  Ca  Ca9  1  0.47935600  0.53047600  0.38609200  1
  Ca  Ca10  1  0.52839900  0.05252900  0.88824900  1
  Ca  Ca11  1  0.53047600  0.47935600  0.88609200  1
  Si  Si12  1  0.66273300  0.32946900  0.50040000  1
  Si  Si13  1  0.32946900  0.66273300  0.00040000  1
  P  P14  1  0.66010600  0.33576900  0.17180200  1
  P  P15  1  0.33576900  0.66010600  0.67180200  1
  P  P16  1  0.20279800  0.39321200  0.12383800  1
  P  P17  1  0.60614100  0.80070400  0.08987600  1
  P  P18  1  0.20153100  0.80612400  0.10376200  1
  P  P19  1  0.80070400  0.60614100  0.58987600  1
  P  P20  1  0.39321200  0.20279800  0.62383800  1
  P  P21  1  0.80612400  0.20153100  0.60376200  1
