# generated using pymatgen
data_Nd4Si2S3O7
_symmetry_space_group_name_H-M   'P 1'
_cell_length_a   11.09115505
_cell_length_b   11.09115505
_cell_length_c   11.09115505
_cell_angle_alpha   114.26552661
_cell_angle_beta   114.26552661
_cell_angle_gamma   100.25725619
_symmetry_Int_Tables_number   1
_chemical_formula_structural   Nd4Si2S3O7
_chemical_formula_sum   'Nd16 Si8 S12 O28'
_cell_volume   1030.39478896
_cell_formula_units_Z   4
loop_
 _symmetry_equiv_pos_site_id
 _symmetry_equiv_pos_as_xyz
  1  'x, y, z'
loop_
 _atom_site_type_symbol
 _atom_site_label
 _atom_site_symmetry_multiplicity
 _atom_site_fract_x
 _atom_site_fract_y
 _atom_site_fract_z
 _atom_site_occupancy
  Nd  Nd0  1  0.42147700  0.92147700  0.84295400  1
  Nd  Nd1  1  0.67147700  0.32852300  0.00000000  1
  Nd  Nd2  1  0.32852300  0.67147700  0.00000000  1
  Nd  Nd3  1  0.07852300  0.57852300  0.15704600  1
  Nd  Nd4  1  0.32852300  0.32852300  0.65704600  1
  Nd  Nd5  1  0.07852300  0.92147700  0.50000000  1
  Nd  Nd6  1  0.42147700  0.57852300  0.50000000  1
  Nd  Nd7  1  0.67147700  0.67147700  0.34295400  1
  Nd  Nd8  1  0.03189000  0.79513900  0.76324800  1
  Nd  Nd9  1  0.03189000  0.26864200  0.23675200  1
  Nd  Nd10  1  0.20486100  0.96811000  0.23675200  1
  Nd  Nd11  1  0.01864200  0.28189000  0.73675200  1
  Nd  Nd12  1  0.54513900  0.28189000  0.26324800  1
  Nd  Nd13  1  0.71811000  0.98135800  0.26324800  1
  Nd  Nd14  1  0.71811000  0.45486100  0.73675200  1
  Nd  Nd15  1  0.73135800  0.96811000  0.76324800  1
  Si  Si16  1  0.27750500  0.40174700  0.12424200  1
  Si  Si17  1  0.27750500  0.15326300  0.87575800  1
  Si  Si18  1  0.59825300  0.72249500  0.87575800  1
  Si  Si19  1  0.90326300  0.52750500  0.37575800  1
  Si  Si20  1  0.15174700  0.52750500  0.62424200  1
  Si  Si21  1  0.47249500  0.09673700  0.62424200  1
  Si  Si22  1  0.47249500  0.84825300  0.37575800  1
  Si  Si23  1  0.84673700  0.72249500  0.12424200  1
  S  S24  1  0.50000000  0.50000000  0.00000000  1
  S  S25  1  0.25000000  0.75000000  0.50000000  1
  S  S26  1  0.75000000  0.25000000  0.50000000  1
  S  S27  1  0.00000000  0.00000000  0.00000000  1
  S  S28  1  0.87500000  0.97643400  0.60143400  1
  S  S29  1  0.72643400  0.62500000  0.60143400  1
  S  S30  1  0.02356600  0.12500000  0.39856600  1
  S  S31  1  0.37500000  0.27356600  0.39856600  1
  S  S32  1  0.87500000  0.27356600  0.89856600  1
  S  S33  1  0.02356600  0.62500000  0.89856600  1
  S  S34  1  0.72643400  0.12500000  0.10143400  1
  S  S35  1  0.37500000  0.97643400  0.10143400  1
  O  O36  1  0.77145100  0.77145100  0.00000000  1
  O  O37  1  0.52145100  0.02145100  0.50000000  1
  O  O38  1  0.97854900  0.47854900  0.50000000  1
  O  O39  1  0.22854900  0.22854900  0.00000000  1
  O  O40  1  0.20034700  0.97298000  0.77263300  1
  O  O41  1  0.20034700  0.42771300  0.22736700  1
  O  O42  1  0.02702000  0.79965300  0.22736700  1
  O  O43  1  0.17771300  0.45034700  0.72736700  1
  O  O44  1  0.72298000  0.45034700  0.27263300  1
  O  O45  1  0.54965300  0.82228700  0.27263300  1
  O  O46  1  0.54965300  0.27702000  0.72736700  1
  O  O47  1  0.57228700  0.79965300  0.77263300  1
  O  O48  1  0.29907900  0.05916300  0.52131900  1
  O  O49  1  0.53784400  0.77775900  0.47868100  1
  O  O50  1  0.94083700  0.70092100  0.47868100  1
  O  O51  1  0.52775900  0.54907900  0.73991500  1
  O  O52  1  0.80916300  0.78784400  0.26008500  1
  O  O53  1  0.45092100  0.47224100  0.26008500  1
  O  O54  1  0.21215600  0.19083700  0.73991500  1
  O  O55  1  0.22224100  0.46215600  0.52131900  1
  O  O56  1  0.45092100  0.19083700  0.97868100  1
  O  O57  1  0.21215600  0.47224100  0.02131900  1
  O  O58  1  0.80916300  0.54907900  0.02131900  1
  O  O59  1  0.22224100  0.70092100  0.76008500  1
  O  O60  1  0.94083700  0.46215600  0.23991500  1
  O  O61  1  0.29907900  0.77775900  0.23991500  1
  O  O62  1  0.53784400  0.05916300  0.76008500  1
  O  O63  1  0.52775900  0.78784400  0.97868100  1
