# generated using pymatgen
data_AgPO3
_symmetry_space_group_name_H-M   'P 1'
_cell_length_a   6.05356100
_cell_length_b   7.50292500
_cell_length_c   14.20412212
_cell_angle_alpha   60.84249566
_cell_angle_beta   90.00000000
_cell_angle_gamma   90.00000000
_symmetry_Int_Tables_number   1
_chemical_formula_structural   AgPO3
_chemical_formula_sum   'Ag8 P8 O24'
_cell_volume   563.39276894
_cell_formula_units_Z   8
loop_
 _symmetry_equiv_pos_site_id
 _symmetry_equiv_pos_as_xyz
  1  'x, y, z'
loop_
 _atom_site_type_symbol
 _atom_site_label
 _atom_site_symmetry_multiplicity
 _atom_site_fract_x
 _atom_site_fract_y
 _atom_site_fract_z
 _atom_site_occupancy
  Ag  Ag0  1  0.41126700  0.26525400  0.46649900  1
  Ag  Ag1  1  0.91126700  0.73474600  0.03350100  1
  Ag  Ag2  1  0.58873300  0.73474600  0.53350100  1
  Ag  Ag3  1  0.08873300  0.26525400  0.96649900  1
  Ag  Ag4  1  0.83960500  0.50091700  0.37566000  1
  Ag  Ag5  1  0.33960500  0.49908300  0.12434000  1
  Ag  Ag6  1  0.16039500  0.49908300  0.62434000  1
  Ag  Ag7  1  0.66039500  0.50091700  0.87566000  1
  P  P8  1  0.11381000  0.93265900  0.38872200  1
  P  P9  1  0.61381000  0.06734100  0.11127800  1
  P  P10  1  0.88619000  0.06734100  0.61127800  1
  P  P11  1  0.38619000  0.93265900  0.88872200  1
  P  P12  1  0.31995200  0.74104500  0.27524700  1
  P  P13  1  0.81995200  0.25895500  0.22475300  1
  P  P14  1  0.68004800  0.25895500  0.72475300  1
  P  P15  1  0.18004800  0.74104500  0.77524700  1
  O  O16  1  0.97320900  0.74537700  0.45443100  1
  O  O17  1  0.47320900  0.25462300  0.04556900  1
  O  O18  1  0.02679100  0.25462300  0.54556900  1
  O  O19  1  0.52679100  0.74537700  0.95443100  1
  O  O20  1  0.30040400  0.97847900  0.44330300  1
  O  O21  1  0.80040400  0.02152100  0.05669700  1
  O  O22  1  0.69959600  0.02152100  0.55669700  1
  O  O23  1  0.19959600  0.97847900  0.94330300  1
  O  O24  1  0.96267800  0.13512600  0.33331700  1
  O  O25  1  0.46267800  0.86487400  0.16668300  1
  O  O26  1  0.03732200  0.86487400  0.66668300  1
  O  O27  1  0.53732200  0.13512600  0.83331700  1
  O  O28  1  0.46951600  0.63008500  0.37238300  1
  O  O29  1  0.96951600  0.36991500  0.12761700  1
  O  O30  1  0.53048400  0.36991500  0.62761700  1
  O  O31  1  0.03048400  0.63008500  0.87238300  1
  O  O32  1  0.34696500  0.61816900  0.75241100  1
  O  O33  1  0.84696500  0.38183100  0.74758900  1
  O  O34  1  0.65303500  0.38183100  0.24758900  1
  O  O35  1  0.15303500  0.61816900  0.25241100  1
  O  O36  1  0.29873000  0.92867100  0.78146900  1
  O  O37  1  0.79873000  0.07132900  0.71853100  1
  O  O38  1  0.70127000  0.07132900  0.21853100  1
  O  O39  1  0.20127000  0.92867100  0.28146900  1
