# generated using pymatgen
data_La4MgRh
_symmetry_space_group_name_H-M   'P 1'
_cell_length_a   10.21630282
_cell_length_b   10.21630282
_cell_length_c   10.21630282
_cell_angle_alpha   60.00000000
_cell_angle_beta   60.00000000
_cell_angle_gamma   60.00000000
_symmetry_Int_Tables_number   1
_chemical_formula_structural   La4MgRh
_chemical_formula_sum   'La16 Mg4 Rh4'
_cell_volume   753.99119385
_cell_formula_units_Z   4
loop_
 _symmetry_equiv_pos_site_id
 _symmetry_equiv_pos_as_xyz
  1  'x, y, z'
loop_
 _atom_site_type_symbol
 _atom_site_label
 _atom_site_symmetry_multiplicity
 _atom_site_fract_x
 _atom_site_fract_y
 _atom_site_fract_z
 _atom_site_occupancy
  La  La0  1  0.34626900  0.34626900  0.34626900  1
  La  La1  1  0.34626900  0.34626900  0.96119300  1
  La  La2  1  0.34626900  0.96119300  0.34626900  1
  La  La3  1  0.96119300  0.34626900  0.34626900  1
  La  La4  1  0.81191300  0.18808700  0.18808700  1
  La  La5  1  0.18808700  0.81191300  0.81191300  1
  La  La6  1  0.18808700  0.81191200  0.18808700  1
  La  La7  1  0.81191300  0.18808800  0.81191300  1
  La  La8  1  0.18808700  0.18808700  0.81191300  1
  La  La9  1  0.81191200  0.81191300  0.18808800  1
  La  La10  1  0.93798700  0.56201300  0.56201300  1
  La  La11  1  0.56201300  0.93798700  0.93798700  1
  La  La12  1  0.56201300  0.93798700  0.56201300  1
  La  La13  1  0.93798700  0.56201300  0.93798700  1
  La  La14  1  0.56201300  0.56201300  0.93798700  1
  La  La15  1  0.93798700  0.93798700  0.56201300  1
  Mg  Mg16  1  0.57973800  0.57973800  0.57973800  1
  Mg  Mg17  1  0.57973800  0.57973800  0.26078700  1
  Mg  Mg18  1  0.57973800  0.26078700  0.57973800  1
  Mg  Mg19  1  0.26078700  0.57973800  0.57973800  1
  Rh  Rh20  1  0.14189900  0.14189900  0.14189900  1
  Rh  Rh21  1  0.14189900  0.14189900  0.57430400  1
  Rh  Rh22  1  0.14189900  0.57430400  0.14189900  1
  Rh  Rh23  1  0.57430400  0.14189900  0.14189900  1
