# generated using pymatgen
data_BaLa2ZnS5
_symmetry_space_group_name_H-M   'P 1'
_cell_length_a   8.91471465
_cell_length_b   8.91471465
_cell_length_c   8.91471465
_cell_angle_alpha   126.55322796
_cell_angle_beta   126.55322796
_cell_angle_gamma   78.98075914
_symmetry_Int_Tables_number   1
_chemical_formula_structural   BaLa2ZnS5
_chemical_formula_sum   'Ba2 La4 Zn2 S10'
_cell_volume   442.24465354
_cell_formula_units_Z   2
loop_
 _symmetry_equiv_pos_site_id
 _symmetry_equiv_pos_as_xyz
  1  'x, y, z'
loop_
 _atom_site_type_symbol
 _atom_site_label
 _atom_site_symmetry_multiplicity
 _atom_site_fract_x
 _atom_site_fract_y
 _atom_site_fract_z
 _atom_site_occupancy
  Ba  Ba0  1  0.25000000  0.25000000  0.00000000  1
  Ba  Ba1  1  0.75000000  0.75000000  0.00000000  1
  La  La2  1  0.33651800  0.16348200  0.50000000  1
  La  La3  1  0.16348200  0.66348200  0.82696400  1
  La  La4  1  0.83651800  0.33651800  0.17303600  1
  La  La5  1  0.66348200  0.83651800  0.50000000  1
  Zn  Zn6  1  0.75000000  0.25000000  0.50000000  1
  Zn  Zn7  1  0.25000000  0.75000000  0.50000000  1
  S  S8  1  0.48595700  0.98595700  0.20104200  1
  S  S9  1  0.21508500  0.71508500  0.20104200  1
  S  S10  1  0.51404300  0.01404300  0.79895800  1
  S  S11  1  0.01404300  0.21508500  0.50000000  1
  S  S12  1  0.71508500  0.51404300  0.50000000  1
  S  S13  1  0.98595700  0.78491500  0.50000000  1
  S  S14  1  0.28491500  0.48595700  0.50000000  1
  S  S15  1  0.78491500  0.28491500  0.79895800  1
  S  S16  1  0.50000000  0.50000000  0.00000000  1
  S  S17  1  0.00000000  0.00000000  0.00000000  1
