# generated using pymatgen
data_SrNiGe2
_symmetry_space_group_name_H-M   'P 1'
_cell_length_a   8.95593311
_cell_length_b   8.95593311
_cell_length_c   4.20605600
_cell_angle_alpha   90.00000000
_cell_angle_beta   90.00000000
_cell_angle_gamma   151.32988880
_symmetry_Int_Tables_number   1
_chemical_formula_structural   SrNiGe2
_chemical_formula_sum   'Sr2 Ni2 Ge4'
_cell_volume   161.85498319
_cell_formula_units_Z   2
loop_
 _symmetry_equiv_pos_site_id
 _symmetry_equiv_pos_as_xyz
  1  'x, y, z'
loop_
 _atom_site_type_symbol
 _atom_site_label
 _atom_site_symmetry_multiplicity
 _atom_site_fract_x
 _atom_site_fract_y
 _atom_site_fract_z
 _atom_site_occupancy
  Sr  Sr0  1  0.89210200  0.10789800  0.75000000  1
  Sr  Sr1  1  0.10789800  0.89210200  0.25000000  1
  Ni  Ni2  1  0.68131600  0.31868400  0.75000000  1
  Ni  Ni3  1  0.31868400  0.68131600  0.25000000  1
  Ge  Ge4  1  0.54361700  0.45638300  0.75000000  1
  Ge  Ge5  1  0.45638300  0.54361700  0.25000000  1
  Ge  Ge6  1  0.25040100  0.74959900  0.75000000  1
  Ge  Ge7  1  0.74959900  0.25040100  0.25000000  1
