# generated using pymatgen
data_Sr2CoO4
_symmetry_space_group_name_H-M   'P 1'
_cell_length_a   5.49380595
_cell_length_b   8.78286117
_cell_length_c   8.78389152
_cell_angle_alpha   89.58014662
_cell_angle_beta   71.25624625
_cell_angle_gamma   108.74794026
_symmetry_Int_Tables_number   1
_chemical_formula_structural   Sr2CoO4
_chemical_formula_sum   'Sr8 Co4 O16'
_cell_volume   377.15894624
_cell_formula_units_Z   4
loop_
 _symmetry_equiv_pos_site_id
 _symmetry_equiv_pos_as_xyz
  1  'x, y, z'
loop_
 _atom_site_type_symbol
 _atom_site_label
 _atom_site_symmetry_multiplicity
 _atom_site_fract_x
 _atom_site_fract_y
 _atom_site_fract_z
 _atom_site_occupancy
  Sr  Sr0  1  0.24973100  0.39533900  0.89074700  1
  Sr  Sr1  1  0.00054200  0.64415000  0.64330400  1
  Sr  Sr2  1  0.75159000  0.89003800  0.39519000  1
  Sr  Sr3  1  0.49939700  0.14079800  0.14146700  1
  Sr  Sr4  1  0.00057500  0.35666000  0.35576400  1
  Sr  Sr5  1  0.75167600  0.60496100  0.10995300  1
  Sr  Sr6  1  0.49899900  0.85827700  0.85950000  1
  Sr  Sr7  1  0.24977700  0.10924200  0.60453000  1
  Co  Co8  1  0.50113100  0.49972800  0.50022900  1
  Co  Co9  1  0.25171800  0.75126200  0.24888200  1
  Co  Co10  1  0.00178300  0.00050500  0.99943200  1
  Co  Co11  1  0.75103600  0.24815400  0.75168200  1
  O  O12  1  0.25063200  0.58939000  0.09213600  1
  O  O13  1  0.99960600  0.84998200  0.84691000  1
  O  O14  1  0.74822900  0.09131300  0.59093400  1
  O  O15  1  0.49950000  0.33961900  0.33972800  1
  O  O16  1  0.00038600  0.15356600  0.14961400  1
  O  O17  1  0.74809700  0.40886300  0.90874700  1
  O  O18  1  0.49952700  0.66030300  0.66029900  1
  O  O19  1  0.25060000  0.90759900  0.41105500  1
  O  O20  1  0.87534100  0.12072500  0.87891600  1
  O  O21  1  0.61147000  0.38523800  0.61474300  1
  O  O22  1  0.38764600  0.61401500  0.38585700  1
  O  O23  1  0.12359400  0.88120900  0.11948700  1
  O  O24  1  0.39718500  0.13585300  0.86383400  1
  O  O25  1  0.09153100  0.36879400  0.63119800  1
  O  O26  1  0.90569800  0.63142600  0.36852200  1
  O  O27  1  0.60300200  0.86299100  0.13733600  1
