# generated using pymatgen
data_CsGdZnTe3
_symmetry_space_group_name_H-M   'P 1'
_cell_length_a   8.78965562
_cell_length_b   8.78965562
_cell_length_c   11.84959500
_cell_angle_alpha   90.00000000
_cell_angle_beta   90.00000000
_cell_angle_gamma   150.18591143
_symmetry_Int_Tables_number   1
_chemical_formula_structural   CsGdZnTe3
_chemical_formula_sum   'Cs2 Gd2 Zn2 Te6'
_cell_volume   455.16333691
_cell_formula_units_Z   2
loop_
 _symmetry_equiv_pos_site_id
 _symmetry_equiv_pos_as_xyz
  1  'x, y, z'
loop_
 _atom_site_type_symbol
 _atom_site_label
 _atom_site_symmetry_multiplicity
 _atom_site_fract_x
 _atom_site_fract_y
 _atom_site_fract_z
 _atom_site_occupancy
  Cs  Cs0  1  0.25582900  0.74417100  0.25000000  1
  Cs  Cs1  1  0.74417100  0.25582900  0.75000000  1
  Gd  Gd2  1  0.00000000  0.00000000  0.50000000  1
  Gd  Gd3  1  0.00000000  0.00000000  0.00000000  1
  Zn  Zn4  1  0.54002000  0.45998000  0.25000000  1
  Zn  Zn5  1  0.45998000  0.54002000  0.75000000  1
  Te  Te6  1  0.62183800  0.37816200  0.44133000  1
  Te  Te7  1  0.37816200  0.62183800  0.55867000  1
  Te  Te8  1  0.62183800  0.37816200  0.05867000  1
  Te  Te9  1  0.37816200  0.62183800  0.94133000  1
  Te  Te10  1  0.94199700  0.05800300  0.25000000  1
  Te  Te11  1  0.05800300  0.94199700  0.75000000  1
