# generated using pymatgen
data_Ce2Re3Si5
_symmetry_space_group_name_H-M   'P 1'
_cell_length_a   11.01506900
_cell_length_b   11.01506900
_cell_length_c   5.63250600
_cell_angle_alpha   90.00000000
_cell_angle_beta   90.00000000
_cell_angle_gamma   90.00000000
_symmetry_Int_Tables_number   1
_chemical_formula_structural   Ce2Re3Si5
_chemical_formula_sum   'Ce8 Re12 Si20'
_cell_volume   683.40178212
_cell_formula_units_Z   4
loop_
 _symmetry_equiv_pos_site_id
 _symmetry_equiv_pos_as_xyz
  1  'x, y, z'
loop_
 _atom_site_type_symbol
 _atom_site_label
 _atom_site_symmetry_multiplicity
 _atom_site_fract_x
 _atom_site_fract_y
 _atom_site_fract_z
 _atom_site_occupancy
  Ce  Ce0  1  0.57498900  0.73744900  0.50000000  1
  Ce  Ce1  1  0.42501100  0.26255100  0.50000000  1
  Ce  Ce2  1  0.07498900  0.76255100  0.00000000  1
  Ce  Ce3  1  0.92501100  0.23744900  0.00000000  1
  Ce  Ce4  1  0.26255100  0.57498900  0.50000000  1
  Ce  Ce5  1  0.73744900  0.42501100  0.50000000  1
  Ce  Ce6  1  0.23744900  0.07498900  0.00000000  1
  Ce  Ce7  1  0.76255100  0.92501100  0.00000000  1
  Re  Re8  1  0.87601000  0.85557800  0.50000000  1
  Re  Re9  1  0.12399000  0.14442200  0.50000000  1
  Re  Re10  1  0.37601000  0.64442200  0.00000000  1
  Re  Re11  1  0.62399000  0.35557800  0.00000000  1
  Re  Re12  1  0.14442200  0.87601000  0.50000000  1
  Re  Re13  1  0.85557800  0.12399000  0.50000000  1
  Re  Re14  1  0.35557800  0.37601000  0.00000000  1
  Re  Re15  1  0.64442200  0.62399000  0.00000000  1
  Re  Re16  1  0.50000000  0.00000000  0.25000000  1
  Re  Re17  1  0.00000000  0.50000000  0.75000000  1
  Re  Re18  1  0.00000000  0.50000000  0.25000000  1
  Re  Re19  1  0.50000000  0.00000000  0.75000000  1
  Si  Si20  1  0.67330200  0.17330200  0.25000000  1
  Si  Si21  1  0.32669800  0.82669800  0.25000000  1
  Si  Si22  1  0.17330200  0.32669800  0.75000000  1
  Si  Si23  1  0.82669800  0.67330200  0.75000000  1
  Si  Si24  1  0.82669800  0.67330200  0.25000000  1
  Si  Si25  1  0.17330200  0.32669800  0.25000000  1
  Si  Si26  1  0.67330200  0.17330200  0.75000000  1
  Si  Si27  1  0.32669800  0.82669800  0.75000000  1
  Si  Si28  1  0.50000000  0.50000000  0.24920300  1
  Si  Si29  1  0.00000000  0.00000000  0.74920300  1
  Si  Si30  1  0.50000000  0.50000000  0.75079700  1
  Si  Si31  1  0.00000000  0.00000000  0.25079700  1
  Si  Si32  1  0.68386200  0.97522500  0.50000000  1
  Si  Si33  1  0.31613800  0.02477500  0.50000000  1
  Si  Si34  1  0.18386200  0.52477500  0.00000000  1
  Si  Si35  1  0.81613800  0.47522500  0.00000000  1
  Si  Si36  1  0.02477500  0.68386200  0.50000000  1
  Si  Si37  1  0.97522500  0.31613800  0.50000000  1
  Si  Si38  1  0.47522500  0.18386200  0.00000000  1
  Si  Si39  1  0.52477500  0.81613800  0.00000000  1
