# generated using pymatgen
data_RbAsOF4
_symmetry_space_group_name_H-M   'P 1'
_cell_length_a   6.10824900
_cell_length_b   5.50286300
_cell_length_c   15.02709745
_cell_angle_alpha   70.58190828
_cell_angle_beta   90.00000000
_cell_angle_gamma   90.00000000
_symmetry_Int_Tables_number   1
_chemical_formula_structural   RbAsOF4
_chemical_formula_sum   'Rb4 As4 O4 F16'
_cell_volume   476.37223865
_cell_formula_units_Z   4
loop_
 _symmetry_equiv_pos_site_id
 _symmetry_equiv_pos_as_xyz
  1  'x, y, z'
loop_
 _atom_site_type_symbol
 _atom_site_label
 _atom_site_symmetry_multiplicity
 _atom_site_fract_x
 _atom_site_fract_y
 _atom_site_fract_z
 _atom_site_occupancy
  Rb  Rb0  1  0.87322400  0.65058800  0.35098700  1
  Rb  Rb1  1  0.37322400  0.34941200  0.14901300  1
  Rb  Rb2  1  0.12677600  0.34941200  0.64901300  1
  Rb  Rb3  1  0.62677600  0.65058800  0.85098700  1
  As  As4  1  0.38656400  0.01994900  0.42017000  1
  As  As5  1  0.88656400  0.98005100  0.07983000  1
  As  As6  1  0.61343600  0.98005100  0.57983000  1
  As  As7  1  0.11343600  0.01994900  0.92017000  1
  O  O8  1  0.60681300  0.82053000  0.49082300  1
  O  O9  1  0.10681300  0.17947000  0.00917700  1
  O  O10  1  0.39318700  0.17947000  0.50917700  1
  O  O11  1  0.89318700  0.82053000  0.99082300  1
  F  F12  1  0.17325600  0.79659100  0.47822500  1
  F  F13  1  0.67325600  0.20340900  0.02177500  1
  F  F14  1  0.82674400  0.20340900  0.52177500  1
  F  F15  1  0.32674400  0.79659100  0.97822500  1
  F  F16  1  0.92248700  0.24493000  0.84209800  1
  F  F17  1  0.42248700  0.75507000  0.65790200  1
  F  F18  1  0.07751300  0.75507000  0.15790200  1
  F  F19  1  0.57751300  0.24493000  0.34209800  1
  F  F20  1  0.10350800  0.85272100  0.83562200  1
  F  F21  1  0.60350800  0.14727900  0.66437800  1
  F  F22  1  0.89649200  0.14727900  0.16437800  1
  F  F23  1  0.39649200  0.85272100  0.33562200  1
  F  F24  1  0.32588500  0.22519400  0.85314700  1
  F  F25  1  0.82588500  0.77480600  0.64685300  1
  F  F26  1  0.67411500  0.77480600  0.14685300  1
  F  F27  1  0.17411500  0.22519400  0.35314700  1
