# generated using pymatgen
data_ZnNiF6
_symmetry_space_group_name_H-M   'P 1'
_cell_length_a   5.30700445
_cell_length_b   5.30700445
_cell_length_c   5.30700434
_cell_angle_alpha   58.10615948
_cell_angle_beta   58.10615948
_cell_angle_gamma   58.10616509
_symmetry_Int_Tables_number   1
_chemical_formula_structural   ZnNiF6
_chemical_formula_sum   'Zn1 Ni1 F6'
_cell_volume   101.10107257
_cell_formula_units_Z   1
loop_
 _symmetry_equiv_pos_site_id
 _symmetry_equiv_pos_as_xyz
  1  'x, y, z'
loop_
 _atom_site_type_symbol
 _atom_site_label
 _atom_site_symmetry_multiplicity
 _atom_site_fract_x
 _atom_site_fract_y
 _atom_site_fract_z
 _atom_site_occupancy
  Zn  Zn0  1  0.50000000  0.50000000  0.50000000  1
  Ni  Ni1  1  0.00000000  0.00000000  0.00000000  1
  F  F2  1  0.86363600  0.23273000  0.66668600  1
  F  F3  1  0.23273000  0.66668600  0.86363600  1
  F  F4  1  0.33331400  0.13636400  0.76727000  1
  F  F5  1  0.76727000  0.33331400  0.13636400  1
  F  F6  1  0.13636400  0.76727000  0.33331400  1
  F  F7  1  0.66668600  0.86363600  0.23273000  1
