# generated using pymatgen
data_ScPRu
_symmetry_space_group_name_H-M   'P 1'
_cell_length_a   6.56636620
_cell_length_b   6.56636620
_cell_length_c   3.64181500
_cell_angle_alpha   90.00000000
_cell_angle_beta   90.00000000
_cell_angle_gamma   120.00000204
_symmetry_Int_Tables_number   1
_chemical_formula_structural   ScPRu
_chemical_formula_sum   'Sc3 P3 Ru3'
_cell_volume   135.98740988
_cell_formula_units_Z   3
loop_
 _symmetry_equiv_pos_site_id
 _symmetry_equiv_pos_as_xyz
  1  'x, y, z'
loop_
 _atom_site_type_symbol
 _atom_site_label
 _atom_site_symmetry_multiplicity
 _atom_site_fract_x
 _atom_site_fract_y
 _atom_site_fract_z
 _atom_site_occupancy
  Sc  Sc0  1  0.41049200  0.41049200  0.50000000  1
  Sc  Sc1  1  0.58950800  0.00000000  0.50000000  1
  Sc  Sc2  1  0.00000000  0.58950800  0.50000000  1
  P  P3  1  0.66666700  0.33333300  0.00000000  1
  P  P4  1  0.33333300  0.66666700  0.00000000  1
  P  P5  1  0.00000000  0.00000000  0.50000000  1
  Ru  Ru6  1  0.00000000  0.24409600  0.00000000  1
  Ru  Ru7  1  0.24409600  0.00000000  0.00000000  1
  Ru  Ru8  1  0.75590400  0.75590400  0.00000000  1
