# generated using pymatgen
data_KY(TeO3)2
_symmetry_space_group_name_H-M   'P 1'
_cell_length_a   6.09500700
_cell_length_b   8.74077600
_cell_length_c   13.85303900
_cell_angle_alpha   90.00000000
_cell_angle_beta   90.00000000
_cell_angle_gamma   90.00000000
_symmetry_Int_Tables_number   1
_chemical_formula_structural   KY(TeO3)2
_chemical_formula_sum   'K4 Y4 Te8 O24'
_cell_volume   738.02191204
_cell_formula_units_Z   4
loop_
 _symmetry_equiv_pos_site_id
 _symmetry_equiv_pos_as_xyz
  1  'x, y, z'
loop_
 _atom_site_type_symbol
 _atom_site_label
 _atom_site_symmetry_multiplicity
 _atom_site_fract_x
 _atom_site_fract_y
 _atom_site_fract_z
 _atom_site_occupancy
  K  K0  1  0.25000000  0.00370900  0.62902300  1
  K  K1  1  0.25000000  0.49629100  0.12902300  1
  K  K2  1  0.75000000  0.99629100  0.37097700  1
  K  K3  1  0.75000000  0.50370900  0.87097700  1
  Y  Y4  1  0.25000000  0.78868600  0.90850900  1
  Y  Y5  1  0.25000000  0.71131400  0.40850900  1
  Y  Y6  1  0.75000000  0.21131400  0.09149100  1
  Y  Y7  1  0.75000000  0.28868600  0.59149100  1
  Te  Te8  1  0.75000000  0.00396600  0.80280800  1
  Te  Te9  1  0.75000000  0.49603400  0.30280800  1
  Te  Te10  1  0.25000000  0.99603400  0.19719200  1
  Te  Te11  1  0.25000000  0.50396600  0.69719200  1
  Te  Te12  1  0.75000000  0.72061400  0.57856400  1
  Te  Te13  1  0.75000000  0.77938600  0.07856400  1
  Te  Te14  1  0.25000000  0.27938600  0.42143600  1
  Te  Te15  1  0.25000000  0.22061400  0.92143600  1
  O  O16  1  0.98981600  0.86706400  0.79962200  1
  O  O17  1  0.51018400  0.63293600  0.29962200  1
  O  O18  1  0.48981600  0.13293600  0.20037800  1
  O  O19  1  0.01018400  0.36706400  0.70037800  1
  O  O20  1  0.01018400  0.13293600  0.20037800  1
  O  O21  1  0.48981600  0.36706400  0.70037800  1
  O  O22  1  0.51018400  0.86706400  0.79962200  1
  O  O23  1  0.98981600  0.63293600  0.29962200  1
  O  O24  1  0.75000000  0.05483600  0.66937700  1
  O  O25  1  0.75000000  0.44516400  0.16937700  1
  O  O26  1  0.25000000  0.94516400  0.33062300  1
  O  O27  1  0.25000000  0.55483600  0.83062300  1
  O  O28  1  0.98819700  0.80524600  0.50948500  1
  O  O29  1  0.51180300  0.69475400  0.00948500  1
  O  O30  1  0.48819700  0.19475400  0.49051500  1
  O  O31  1  0.01180300  0.30524600  0.99051500  1
  O  O32  1  0.01180300  0.19475400  0.49051500  1
  O  O33  1  0.48819700  0.30524600  0.99051500  1
  O  O34  1  0.51180300  0.80524600  0.50948500  1
  O  O35  1  0.98819700  0.69475400  0.00948500  1
  O  O36  1  0.75000000  0.52307900  0.52278800  1
  O  O37  1  0.75000000  0.97692100  0.02278800  1
  O  O38  1  0.25000000  0.47692100  0.47721200  1
  O  O39  1  0.25000000  0.02307900  0.97721200  1
