# generated using pymatgen
data_Nd2Ga5Cu3
_symmetry_space_group_name_H-M   'P 1'
_cell_length_a   4.24053500
_cell_length_b   4.24053500
_cell_length_c   10.22291700
_cell_angle_alpha   90.00000000
_cell_angle_beta   90.00000000
_cell_angle_gamma   90.00000000
_symmetry_Int_Tables_number   1
_chemical_formula_structural   Nd2Ga5Cu3
_chemical_formula_sum   'Nd2 Ga5 Cu3'
_cell_volume   183.82989492
_cell_formula_units_Z   1
loop_
 _symmetry_equiv_pos_site_id
 _symmetry_equiv_pos_as_xyz
  1  'x, y, z'
loop_
 _atom_site_type_symbol
 _atom_site_label
 _atom_site_symmetry_multiplicity
 _atom_site_fract_x
 _atom_site_fract_y
 _atom_site_fract_z
 _atom_site_occupancy
  Nd  Nd0  1  0.50000000  0.00000000  0.74521600  1
  Nd  Nd1  1  0.00000000  0.50000000  0.25478400  1
  Ga  Ga2  1  0.00000000  0.50000000  0.86465000  1
  Ga  Ga3  1  0.50000000  0.00000000  0.37956900  1
  Ga  Ga4  1  0.50000000  0.00000000  0.13535000  1
  Ga  Ga5  1  0.00000000  0.50000000  0.62043100  1
  Ga  Ga6  1  0.50000000  0.50000000  0.00000000  1
  Cu  Cu7  1  0.00000000  0.00000000  0.50000000  1
  Cu  Cu8  1  0.00000000  0.00000000  0.00000000  1
  Cu  Cu9  1  0.50000000  0.50000000  0.50000000  1
