# generated using pymatgen
data_Sr9Mn5Co2O21
_symmetry_space_group_name_H-M   'P 1'
_cell_length_a   9.70608373
_cell_length_b   9.70608373
_cell_length_c   13.40520975
_cell_angle_alpha   68.77529463
_cell_angle_beta   68.77529463
_cell_angle_gamma   60.00000186
_symmetry_Int_Tables_number   1
_chemical_formula_structural   Sr9Mn5Co2O21
_chemical_formula_sum   'Sr18 Mn10 Co4 O42'
_cell_volume   993.53880305
_cell_formula_units_Z   2
loop_
 _symmetry_equiv_pos_site_id
 _symmetry_equiv_pos_as_xyz
  1  'x, y, z'
loop_
 _atom_site_type_symbol
 _atom_site_label
 _atom_site_symmetry_multiplicity
 _atom_site_fract_x
 _atom_site_fract_y
 _atom_site_fract_z
 _atom_site_occupancy
  Sr  Sr0  1  0.91972000  0.58028000  0.25000000  1
  Sr  Sr1  1  0.58028000  0.25000000  0.25000000  1
  Sr  Sr2  1  0.25000000  0.91972000  0.25000000  1
  Sr  Sr3  1  0.41972000  0.75000000  0.75000000  1
  Sr  Sr4  1  0.75000000  0.08028000  0.75000000  1
  Sr  Sr5  1  0.08028000  0.41972000  0.75000000  1
  Sr  Sr6  1  0.99429400  0.28527900  0.08399500  1
  Sr  Sr7  1  0.28527900  0.63643300  0.08399500  1
  Sr  Sr8  1  0.63643300  0.99429400  0.08399500  1
  Sr  Sr9  1  0.49429400  0.13643300  0.58399500  1
  Sr  Sr10  1  0.13643300  0.78527900  0.58399500  1
  Sr  Sr11  1  0.78527900  0.49429400  0.58399500  1
  Sr  Sr12  1  0.00570600  0.71472100  0.91600500  1
  Sr  Sr13  1  0.71472100  0.36356700  0.91600500  1
  Sr  Sr14  1  0.36356700  0.00570600  0.91600500  1
  Sr  Sr15  1  0.50570600  0.86356700  0.41600500  1
  Sr  Sr16  1  0.86356700  0.21472100  0.41600500  1
  Sr  Sr17  1  0.21472100  0.50570600  0.41600500  1
  Mn  Mn18  1  0.71436700  0.71436700  0.85689800  1
  Mn  Mn19  1  0.21436700  0.21436700  0.35689800  1
  Mn  Mn20  1  0.28563300  0.28563300  0.14310200  1
  Mn  Mn21  1  0.78563300  0.78563300  0.64310200  1
  Mn  Mn22  1  0.57066200  0.57066200  0.28801300  1
  Mn  Mn23  1  0.07066200  0.07066200  0.78801300  1
  Mn  Mn24  1  0.42933800  0.42933800  0.71198700  1
  Mn  Mn25  1  0.92933800  0.92933800  0.21198700  1
  Mn  Mn26  1  0.50000000  0.50000000  0.50000000  1
  Mn  Mn27  1  0.00000000  0.00000000  0.00000000  1
  Co  Co28  1  0.85794000  0.85794000  0.42618000  1
  Co  Co29  1  0.35794000  0.35794000  0.92618000  1
  Co  Co30  1  0.14206000  0.14206000  0.57382000  1
  Co  Co31  1  0.64206000  0.64206000  0.07382000  1
  O  O32  1  0.74872800  0.43665800  0.20052200  1
  O  O33  1  0.43665800  0.61409200  0.20052200  1
  O  O34  1  0.61409200  0.74872800  0.20052200  1
  O  O35  1  0.24872800  0.11409200  0.70052200  1
  O  O36  1  0.11409200  0.93665800  0.70052200  1
  O  O37  1  0.93665800  0.24872800  0.70052200  1
  O  O38  1  0.25127200  0.56334200  0.79947800  1
  O  O39  1  0.56334200  0.38590800  0.79947800  1
  O  O40  1  0.38590800  0.25127200  0.79947800  1
  O  O41  1  0.75127200  0.88590800  0.29947800  1
  O  O42  1  0.88590800  0.06334200  0.29947800  1
  O  O43  1  0.06334200  0.75127200  0.29947800  1
  O  O44  1  0.40353000  0.09647000  0.25000000  1
  O  O45  1  0.09647000  0.25000000  0.25000000  1
  O  O46  1  0.25000000  0.40353000  0.25000000  1
  O  O47  1  0.90353000  0.75000000  0.75000000  1
  O  O48  1  0.75000000  0.59647000  0.75000000  1
  O  O49  1  0.59647000  0.90353000  0.75000000  1
  O  O50  1  0.97119700  0.64937200  0.55308800  1
  O  O51  1  0.64937200  0.82634300  0.55308800  1
  O  O52  1  0.82634300  0.97119700  0.55308800  1
  O  O53  1  0.47119700  0.32634300  0.05308800  1
  O  O54  1  0.32634300  0.14937200  0.05308800  1
  O  O55  1  0.14937200  0.47119700  0.05308800  1
  O  O56  1  0.02880300  0.35062800  0.44691200  1
  O  O57  1  0.35062800  0.17365700  0.44691200  1
  O  O58  1  0.17365700  0.02880300  0.44691200  1
  O  O59  1  0.52880300  0.67365700  0.94691200  1
  O  O60  1  0.67365700  0.85062800  0.94691200  1
  O  O61  1  0.85062800  0.52880300  0.94691200  1
  O  O62  1  0.53518100  0.37677700  0.40105500  1
  O  O63  1  0.37677700  0.68698700  0.40105500  1
  O  O64  1  0.68698700  0.53518100  0.40105500  1
  O  O65  1  0.03518100  0.18698700  0.90105500  1
  O  O66  1  0.18698700  0.87677700  0.90105500  1
  O  O67  1  0.87677700  0.03518100  0.90105500  1
  O  O68  1  0.46481900  0.62322300  0.59894500  1
  O  O69  1  0.62322300  0.31301300  0.59894500  1
  O  O70  1  0.31301300  0.46481900  0.59894500  1
  O  O71  1  0.96481900  0.81301300  0.09894500  1
  O  O72  1  0.81301300  0.12322300  0.09894500  1
  O  O73  1  0.12322300  0.96481900  0.09894500  1
