# generated using pymatgen
data_Sr3(GeP2)2
_symmetry_space_group_name_H-M   'P 1'
_cell_length_a   18.27841500
_cell_length_b   7.31810500
_cell_length_c   7.50364748
_cell_angle_alpha   67.95461424
_cell_angle_beta   90.00000000
_cell_angle_gamma   90.00000000
_symmetry_Int_Tables_number   1
_chemical_formula_structural   Sr3(GeP2)2
_chemical_formula_sum   'Sr12 Ge8 P16'
_cell_volume   930.32845064
_cell_formula_units_Z   4
loop_
 _symmetry_equiv_pos_site_id
 _symmetry_equiv_pos_as_xyz
  1  'x, y, z'
loop_
 _atom_site_type_symbol
 _atom_site_label
 _atom_site_symmetry_multiplicity
 _atom_site_fract_x
 _atom_site_fract_y
 _atom_site_fract_z
 _atom_site_occupancy
  Sr  Sr0  1  0.31555900  0.01116000  0.78376600  1
  Sr  Sr1  1  0.81555900  0.48884000  0.21623400  1
  Sr  Sr2  1  0.68444100  0.98884000  0.21623400  1
  Sr  Sr3  1  0.18444100  0.51116000  0.78376600  1
  Sr  Sr4  1  0.44137900  0.99547000  0.26071600  1
  Sr  Sr5  1  0.94137900  0.50453000  0.73928400  1
  Sr  Sr6  1  0.55862100  0.00453000  0.73928400  1
  Sr  Sr7  1  0.05862100  0.49547000  0.26071600  1
  Sr  Sr8  1  0.43659800  0.51140800  0.74367800  1
  Sr  Sr9  1  0.93659800  0.98859200  0.25632200  1
  Sr  Sr10  1  0.56340200  0.48859200  0.25632200  1
  Sr  Sr11  1  0.06340200  0.01140800  0.74367800  1
  Ge  Ge12  1  0.62730400  0.52668600  0.78770200  1
  Ge  Ge13  1  0.12730400  0.97331400  0.21229800  1
  Ge  Ge14  1  0.37269600  0.47331400  0.21229800  1
  Ge  Ge15  1  0.87269600  0.02668600  0.78770200  1
  Ge  Ge16  1  0.74151800  0.40843500  0.68562900  1
  Ge  Ge17  1  0.75848200  0.90843500  0.68562900  1
  Ge  Ge18  1  0.25848200  0.59156500  0.31437100  1
  Ge  Ge19  1  0.24151800  0.09156500  0.31437100  1
  P  P20  1  0.43180500  0.26159400  0.49114500  1
  P  P21  1  0.93180500  0.23840600  0.50885500  1
  P  P22  1  0.56819500  0.73840600  0.50885500  1
  P  P23  1  0.06819500  0.76159400  0.49114500  1
  P  P24  1  0.43944500  0.74296600  0.00991700  1
  P  P25  1  0.93944500  0.75703400  0.99008300  1
  P  P26  1  0.56055500  0.25703400  0.99008300  1
  P  P27  1  0.06055500  0.24296600  0.00991700  1
  P  P28  1  0.18496300  0.78199900  0.04706900  1
  P  P29  1  0.68496300  0.71800100  0.95293100  1
  P  P30  1  0.81503700  0.21800100  0.95293100  1
  P  P31  1  0.31503700  0.28199900  0.04706900  1
  P  P32  1  0.79959400  0.71810200  0.50272900  1
  P  P33  1  0.70040600  0.21810200  0.50272900  1
  P  P34  1  0.20040600  0.28189800  0.49727100  1
  P  P35  1  0.29959400  0.78189800  0.49727100  1
