# generated using pymatgen
data_Rb(CrS2)2
_symmetry_space_group_name_H-M   'P 1'
_cell_length_a   6.00356000
_cell_length_b   6.94741200
_cell_length_c   15.97344200
_cell_angle_alpha   90.00000000
_cell_angle_beta   90.00000000
_cell_angle_gamma   90.00000000
_symmetry_Int_Tables_number   1
_chemical_formula_structural   Rb(CrS2)2
_chemical_formula_sum   'Rb4 Cr8 S16'
_cell_volume   666.23956353
_cell_formula_units_Z   4
loop_
 _symmetry_equiv_pos_site_id
 _symmetry_equiv_pos_as_xyz
  1  'x, y, z'
loop_
 _atom_site_type_symbol
 _atom_site_label
 _atom_site_symmetry_multiplicity
 _atom_site_fract_x
 _atom_site_fract_y
 _atom_site_fract_z
 _atom_site_occupancy
  Rb  Rb0  1  0.34148100  0.00000000  0.00000000  1
  Rb  Rb1  1  0.65851900  0.50000000  0.50000000  1
  Rb  Rb2  1  0.03810500  0.00000000  0.50000000  1
  Rb  Rb3  1  0.96189500  0.50000000  0.00000000  1
  Cr  Cr4  1  0.98392200  0.00000000  0.24775500  1
  Cr  Cr5  1  0.98392200  0.00000000  0.75224500  1
  Cr  Cr6  1  0.01607800  0.50000000  0.25224500  1
  Cr  Cr7  1  0.01607800  0.50000000  0.74775500  1
  Cr  Cr8  1  0.50000000  0.25000000  0.25000000  1
  Cr  Cr9  1  0.50000000  0.75000000  0.75000000  1
  Cr  Cr10  1  0.50000000  0.75000000  0.25000000  1
  Cr  Cr11  1  0.50000000  0.25000000  0.75000000  1
  S  S12  1  0.83635500  0.24976800  0.33263600  1
  S  S13  1  0.83635500  0.75023200  0.66736400  1
  S  S14  1  0.16364500  0.74976800  0.16736400  1
  S  S15  1  0.16364500  0.25023200  0.83263600  1
  S  S16  1  0.16364500  0.25023200  0.16736400  1
  S  S17  1  0.16364500  0.74976800  0.83263600  1
  S  S18  1  0.83635500  0.75023200  0.33263600  1
  S  S19  1  0.83635500  0.24976800  0.66736400  1
  S  S20  1  0.66762400  0.00000000  0.16600600  1
  S  S21  1  0.66762400  0.00000000  0.83399400  1
  S  S22  1  0.33237600  0.50000000  0.33399400  1
  S  S23  1  0.33237600  0.50000000  0.66600600  1
  S  S24  1  0.33189300  0.00000000  0.32944100  1
  S  S25  1  0.33189300  0.00000000  0.67055900  1
  S  S26  1  0.66810700  0.50000000  0.17055900  1
  S  S27  1  0.66810700  0.50000000  0.82944100  1
