# generated using pymatgen
data_Ho5P12Ru19
_symmetry_space_group_name_H-M   'P 1'
_cell_length_a   12.51268828
_cell_length_b   12.51268828
_cell_length_c   3.96697800
_cell_angle_alpha   90.00000000
_cell_angle_beta   90.00000000
_cell_angle_gamma   120.00000148
_symmetry_Int_Tables_number   1
_chemical_formula_structural   Ho5P12Ru19
_chemical_formula_sum   'Ho5 P12 Ru19'
_cell_volume   537.88776776
_cell_formula_units_Z   1
loop_
 _symmetry_equiv_pos_site_id
 _symmetry_equiv_pos_as_xyz
  1  'x, y, z'
loop_
 _atom_site_type_symbol
 _atom_site_label
 _atom_site_symmetry_multiplicity
 _atom_site_fract_x
 _atom_site_fract_y
 _atom_site_fract_z
 _atom_site_occupancy
  Ho  Ho0  1  0.00000000  0.18460000  0.50000000  1
  Ho  Ho1  1  0.81540000  0.81540000  0.50000000  1
  Ho  Ho2  1  0.18460000  0.00000000  0.50000000  1
  Ho  Ho3  1  0.66666700  0.33333300  0.00000000  1
  Ho  Ho4  1  0.33333300  0.66666700  0.00000000  1
  P  P5  1  0.00000000  0.81618600  0.00000000  1
  P  P6  1  0.18381400  0.18381400  0.00000000  1
  P  P7  1  0.81618600  0.00000000  0.00000000  1
  P  P8  1  0.69241100  0.17036600  0.50000000  1
  P  P9  1  0.82963400  0.52204500  0.50000000  1
  P  P10  1  0.47795500  0.30758900  0.50000000  1
  P  P11  1  0.17036600  0.69241100  0.50000000  1
  P  P12  1  0.52204500  0.82963400  0.50000000  1
  P  P13  1  0.30758900  0.47795500  0.50000000  1
  P  P14  1  0.00000000  0.37236000  0.00000000  1
  P  P15  1  0.62764000  0.62764000  0.00000000  1
  P  P16  1  0.37236000  0.00000000  0.00000000  1
  Ru  Ru17  1  0.00000000  0.55447000  0.00000000  1
  Ru  Ru18  1  0.44553000  0.44553000  0.00000000  1
  Ru  Ru19  1  0.55447000  0.00000000  0.00000000  1
  Ru  Ru20  1  0.00000000  0.71728200  0.50000000  1
  Ru  Ru21  1  0.28271800  0.28271800  0.50000000  1
  Ru  Ru22  1  0.71728200  0.00000000  0.50000000  1
  Ru  Ru23  1  0.80754800  0.18444400  0.00000000  1
  Ru  Ru24  1  0.81555600  0.62310400  0.00000000  1
  Ru  Ru25  1  0.37689600  0.19245200  0.00000000  1
  Ru  Ru26  1  0.18444400  0.80754800  0.00000000  1
  Ru  Ru27  1  0.62310400  0.81555600  0.00000000  1
  Ru  Ru28  1  0.19245200  0.37689600  0.00000000  1
  Ru  Ru29  1  0.87372300  0.36497500  0.50000000  1
  Ru  Ru30  1  0.63502500  0.50874800  0.50000000  1
  Ru  Ru31  1  0.49125200  0.12627700  0.50000000  1
  Ru  Ru32  1  0.36497500  0.87372300  0.50000000  1
  Ru  Ru33  1  0.50874800  0.63502500  0.50000000  1
  Ru  Ru34  1  0.12627700  0.49125200  0.50000000  1
  Ru  Ru35  1  0.00000000  0.00000000  0.00000000  1
