# generated using pymatgen
data_CsBi(MoO4)2
_symmetry_space_group_name_H-M   'P 1'
_cell_length_a   5.14658600
_cell_length_b   8.49703100
_cell_length_c   9.70677600
_cell_angle_alpha   90.00000000
_cell_angle_beta   90.00000000
_cell_angle_gamma   90.00000000
_symmetry_Int_Tables_number   1
_chemical_formula_structural   CsBi(MoO4)2
_chemical_formula_sum   'Cs2 Bi2 Mo4 O16'
_cell_volume   424.48411685
_cell_formula_units_Z   2
loop_
 _symmetry_equiv_pos_site_id
 _symmetry_equiv_pos_as_xyz
  1  'x, y, z'
loop_
 _atom_site_type_symbol
 _atom_site_label
 _atom_site_symmetry_multiplicity
 _atom_site_fract_x
 _atom_site_fract_y
 _atom_site_fract_z
 _atom_site_occupancy
  Cs  Cs0  1  0.00000000  0.25000000  0.50000000  1
  Cs  Cs1  1  0.00000000  0.75000000  0.50000000  1
  Bi  Bi2  1  0.00000000  0.25000000  0.00000000  1
  Bi  Bi3  1  0.00000000  0.75000000  0.00000000  1
  Mo  Mo4  1  0.52261800  0.00000000  0.19667200  1
  Mo  Mo5  1  0.47738200  0.00000000  0.80332800  1
  Mo  Mo6  1  0.47738200  0.50000000  0.19667200  1
  Mo  Mo7  1  0.52261800  0.50000000  0.80332800  1
  O  O8  1  0.25280000  0.00000000  0.06829300  1
  O  O9  1  0.74720000  0.00000000  0.93170700  1
  O  O10  1  0.74720000  0.50000000  0.06829300  1
  O  O11  1  0.25280000  0.50000000  0.93170700  1
  O  O12  1  0.26504000  0.32992600  0.18964900  1
  O  O13  1  0.73496000  0.67007400  0.81035100  1
  O  O14  1  0.73496000  0.32992600  0.81035100  1
  O  O15  1  0.73496000  0.17007400  0.18964900  1
  O  O16  1  0.26504000  0.67007400  0.18964900  1
  O  O17  1  0.26504000  0.82992600  0.81035100  1
  O  O18  1  0.26504000  0.17007400  0.81035100  1
  O  O19  1  0.73496000  0.82992600  0.18964900  1
  O  O20  1  0.38190900  0.00000000  0.36114900  1
  O  O21  1  0.61809100  0.00000000  0.63885100  1
  O  O22  1  0.61809100  0.50000000  0.36114900  1
  O  O23  1  0.38190900  0.50000000  0.63885100  1
