# generated using pymatgen
data_CsS3
_symmetry_space_group_name_H-M   'P 1'
_cell_length_a   4.83942700
_cell_length_b   9.50033325
_cell_length_c   11.82428631
_cell_angle_alpha   85.72807711
_cell_angle_beta   85.09081864
_cell_angle_gamma   89.50172488
_symmetry_Int_Tables_number   1
_chemical_formula_structural   CsS3
_chemical_formula_sum   'Cs4 S12'
_cell_volume   540.13482843
_cell_formula_units_Z   4
loop_
 _symmetry_equiv_pos_site_id
 _symmetry_equiv_pos_as_xyz
  1  'x, y, z'
loop_
 _atom_site_type_symbol
 _atom_site_label
 _atom_site_symmetry_multiplicity
 _atom_site_fract_x
 _atom_site_fract_y
 _atom_site_fract_z
 _atom_site_occupancy
  Cs  Cs0  1  0.95078200  0.67621600  0.09620900  1
  Cs  Cs1  1  0.04921800  0.32378400  0.90379100  1
  Cs  Cs2  1  0.89386900  0.31050700  0.38589700  1
  Cs  Cs3  1  0.10613100  0.68949300  0.61410300  1
  S  S4  1  0.47052800  0.34498800  0.14577200  1
  S  S5  1  0.52947200  0.65501200  0.85422800  1
  S  S6  1  0.42837700  0.61429800  0.32968000  1
  S  S7  1  0.57162300  0.38570200  0.67032000  1
  S  S8  1  0.48357300  0.13884600  0.10405600  1
  S  S9  1  0.51642700  0.86115400  0.89594400  1
  S  S10  1  0.20789500  0.01651600  0.21157600  1
  S  S11  1  0.79210500  0.98348400  0.78842400  1
  S  S12  1  0.36541100  0.96446200  0.36984600  1
  S  S13  1  0.63458900  0.03553800  0.63015400  1
  S  S14  1  0.63351500  0.79187300  0.36203500  1
  S  S15  1  0.36648500  0.20812700  0.63796500  1
