# generated using pymatgen
data_Pm3Hg
_symmetry_space_group_name_H-M   'P 1'
_cell_length_a   7.07053481
_cell_length_b   7.07053481
_cell_length_c   5.54140800
_cell_angle_alpha   90.00000000
_cell_angle_beta   90.00000000
_cell_angle_gamma   120.00000760
_symmetry_Int_Tables_number   1
_chemical_formula_structural   Pm3Hg
_chemical_formula_sum   'Pm6 Hg2'
_cell_volume   239.91381434
_cell_formula_units_Z   2
loop_
 _symmetry_equiv_pos_site_id
 _symmetry_equiv_pos_as_xyz
  1  'x, y, z'
loop_
 _atom_site_type_symbol
 _atom_site_label
 _atom_site_symmetry_multiplicity
 _atom_site_fract_x
 _atom_site_fract_y
 _atom_site_fract_z
 _atom_site_occupancy
  Pm  Pm0  1  0.17511900  0.35023700  0.25000000  1
  Pm  Pm1  1  0.64976300  0.82488100  0.25000000  1
  Pm  Pm2  1  0.17511900  0.82488100  0.25000000  1
  Pm  Pm3  1  0.82488100  0.64976300  0.75000000  1
  Pm  Pm4  1  0.35023700  0.17511900  0.75000000  1
  Pm  Pm5  1  0.82488100  0.17511900  0.75000000  1
  Hg  Hg6  1  0.33333300  0.66666700  0.75000000  1
  Hg  Hg7  1  0.66666700  0.33333300  0.25000000  1
