# generated using pymatgen
data_PrAgGe
_symmetry_space_group_name_H-M   'P 1'
_cell_length_a   4.58528003
_cell_length_b   4.58528003
_cell_length_c   7.74552400
_cell_angle_alpha   90.00000000
_cell_angle_beta   90.00000000
_cell_angle_gamma   120.00000046
_symmetry_Int_Tables_number   1
_chemical_formula_structural   PrAgGe
_chemical_formula_sum   'Pr2 Ag2 Ge2'
_cell_volume   141.03053768
_cell_formula_units_Z   2
loop_
 _symmetry_equiv_pos_site_id
 _symmetry_equiv_pos_as_xyz
  1  'x, y, z'
loop_
 _atom_site_type_symbol
 _atom_site_label
 _atom_site_symmetry_multiplicity
 _atom_site_fract_x
 _atom_site_fract_y
 _atom_site_fract_z
 _atom_site_occupancy
  Pr  Pr0  1  0.00000000  0.00000000  0.01396300  1
  Pr  Pr1  1  0.00000000  0.00000000  0.51396300  1
  Ag  Ag2  1  0.66666700  0.33333300  0.28274700  1
  Ag  Ag3  1  0.33333300  0.66666700  0.78274700  1
  Ge  Ge4  1  0.66666700  0.33333300  0.72609000  1
  Ge  Ge5  1  0.33333300  0.66666700  0.22609000  1
