# generated using pymatgen
data_Er2Ge2O7
_symmetry_space_group_name_H-M   'P 1'
_cell_length_a   6.82708000
_cell_length_b   6.82708000
_cell_length_c   12.43309600
_cell_angle_alpha   90.00000000
_cell_angle_beta   90.00000000
_cell_angle_gamma   90.00000000
_symmetry_Int_Tables_number   1
_chemical_formula_structural   Er2Ge2O7
_chemical_formula_sum   'Er8 Ge8 O28'
_cell_volume   579.49443662
_cell_formula_units_Z   4
loop_
 _symmetry_equiv_pos_site_id
 _symmetry_equiv_pos_as_xyz
  1  'x, y, z'
loop_
 _atom_site_type_symbol
 _atom_site_label
 _atom_site_symmetry_multiplicity
 _atom_site_fract_x
 _atom_site_fract_y
 _atom_site_fract_z
 _atom_site_occupancy
  Er  Er0  1  0.64602000  0.12579000  0.36497700  1
  Er  Er1  1  0.35398000  0.87421000  0.86497700  1
  Er  Er2  1  0.12579000  0.64602000  0.63502300  1
  Er  Er3  1  0.62579000  0.85398000  0.11497700  1
  Er  Er4  1  0.37421000  0.14602000  0.61497700  1
  Er  Er5  1  0.85398000  0.62579000  0.88502300  1
  Er  Er6  1  0.14602000  0.37421000  0.38502300  1
  Er  Er7  1  0.87421000  0.35398000  0.13502300  1
  Ge  Ge8  1  0.84895300  0.09969000  0.88149200  1
  Ge  Ge9  1  0.15104700  0.90031000  0.38149200  1
  Ge  Ge10  1  0.09969000  0.84895300  0.11850800  1
  Ge  Ge11  1  0.59969000  0.65104700  0.63149200  1
  Ge  Ge12  1  0.40031000  0.34895300  0.13149200  1
  Ge  Ge13  1  0.65104700  0.59969000  0.36850800  1
  Ge  Ge14  1  0.34895300  0.40031000  0.86850800  1
  Ge  Ge15  1  0.90031000  0.15104700  0.61850800  1
  O  O16  1  0.85691800  0.31902300  0.95555900  1
  O  O17  1  0.14308200  0.68097700  0.45555900  1
  O  O18  1  0.31902300  0.85691800  0.04444100  1
  O  O19  1  0.81902300  0.64308200  0.70555900  1
  O  O20  1  0.18097700  0.35691800  0.20555900  1
  O  O21  1  0.64308200  0.81902300  0.29444100  1
  O  O22  1  0.35691800  0.18097700  0.79444100  1
  O  O23  1  0.68097700  0.14308200  0.54444100  1
  O  O24  1  0.66171500  0.93452400  0.92923400  1
  O  O25  1  0.33828500  0.06547600  0.42923400  1
  O  O26  1  0.93452400  0.66171500  0.07076600  1
  O  O27  1  0.43452400  0.83828500  0.67923400  1
  O  O28  1  0.56547600  0.16171500  0.17923400  1
  O  O29  1  0.83828500  0.43452400  0.32076600  1
  O  O30  1  0.16171500  0.56547600  0.82076600  1
  O  O31  1  0.06547600  0.33828500  0.57076600  1
  O  O32  1  0.80358900  0.19641100  0.75000000  1
  O  O33  1  0.30358900  0.30358900  0.00000000  1
  O  O34  1  0.69641100  0.69641100  0.50000000  1
  O  O35  1  0.19641100  0.80358900  0.25000000  1
  O  O36  1  0.07927100  0.96645000  0.62218900  1
  O  O37  1  0.53355000  0.57927100  0.87218900  1
  O  O38  1  0.46645000  0.42072900  0.37218900  1
  O  O39  1  0.57927100  0.53355000  0.12781100  1
  O  O40  1  0.42072900  0.46645000  0.62781100  1
  O  O41  1  0.92072900  0.03355000  0.12218900  1
  O  O42  1  0.96645000  0.07927100  0.37781100  1
  O  O43  1  0.03355000  0.92072900  0.87781100  1
