# generated using pymatgen
data_SmSbS
_symmetry_space_group_name_H-M   'P 1'
_cell_length_a   4.14361267
_cell_length_b   4.12827315
_cell_length_c   17.67850800
_cell_angle_alpha   90.00000000
_cell_angle_beta   90.00000000
_cell_angle_gamma   90.00551035
_symmetry_Int_Tables_number   1
_chemical_formula_structural   SmSbS
_chemical_formula_sum   'Sm4 Sb4 S4'
_cell_volume   302.40793633
_cell_formula_units_Z   4
loop_
 _symmetry_equiv_pos_site_id
 _symmetry_equiv_pos_as_xyz
  1  'x, y, z'
loop_
 _atom_site_type_symbol
 _atom_site_label
 _atom_site_symmetry_multiplicity
 _atom_site_fract_x
 _atom_site_fract_y
 _atom_site_fract_z
 _atom_site_occupancy
  Sm  Sm0  1  0.77654800  0.25121300  0.15359200  1
  Sm  Sm1  1  0.72345200  0.24878700  0.65359200  1
  Sm  Sm2  1  0.22345200  0.74878700  0.84640800  1
  Sm  Sm3  1  0.27654800  0.75121300  0.34640800  1
  Sb  Sb4  1  0.75751400  0.74995900  0.49928300  1
  Sb  Sb5  1  0.74248600  0.75004100  0.99928300  1
  Sb  Sb6  1  0.24248600  0.25004100  0.50071700  1
  Sb  Sb7  1  0.25751400  0.24995900  0.00071700  1
  S  S8  1  0.77907200  0.25045300  0.31352800  1
  S  S9  1  0.72092800  0.24954700  0.81352800  1
  S  S10  1  0.22092800  0.74954700  0.68647200  1
  S  S11  1  0.27907200  0.75045300  0.18647200  1
