# generated using pymatgen
data_Y2InPd2
_symmetry_space_group_name_H-M   'P 1'
_cell_length_a   7.78761200
_cell_length_b   7.78761200
_cell_length_c   3.71424300
_cell_angle_alpha   90.00000000
_cell_angle_beta   90.00000000
_cell_angle_gamma   90.00000000
_symmetry_Int_Tables_number   1
_chemical_formula_structural   Y2InPd2
_chemical_formula_sum   'Y4 In2 Pd4'
_cell_volume   225.25732626
_cell_formula_units_Z   2
loop_
 _symmetry_equiv_pos_site_id
 _symmetry_equiv_pos_as_xyz
  1  'x, y, z'
loop_
 _atom_site_type_symbol
 _atom_site_label
 _atom_site_symmetry_multiplicity
 _atom_site_fract_x
 _atom_site_fract_y
 _atom_site_fract_z
 _atom_site_occupancy
  Y  Y0  1  0.67280900  0.17280900  0.50000000  1
  Y  Y1  1  0.32719100  0.82719100  0.50000000  1
  Y  Y2  1  0.17280900  0.32719100  0.50000000  1
  Y  Y3  1  0.82719100  0.67280900  0.50000000  1
  In  In4  1  0.50000000  0.50000000  0.00000000  1
  In  In5  1  0.00000000  0.00000000  0.00000000  1
  Pd  Pd6  1  0.12649800  0.62649800  0.00000000  1
  Pd  Pd7  1  0.87350200  0.37350200  0.00000000  1
  Pd  Pd8  1  0.62649800  0.87350200  0.00000000  1
  Pd  Pd9  1  0.37350200  0.12649800  0.00000000  1
