# generated using pymatgen
data_PrTaTiO6
_symmetry_space_group_name_H-M   'P 1'
_cell_length_a   5.42712000
_cell_length_b   7.57792400
_cell_length_c   11.09694100
_cell_angle_alpha   90.00000000
_cell_angle_beta   90.00000000
_cell_angle_gamma   90.00000000
_symmetry_Int_Tables_number   1
_chemical_formula_structural   PrTaTiO6
_chemical_formula_sum   'Pr4 Ta4 Ti4 O24'
_cell_volume   456.37615682
_cell_formula_units_Z   4
loop_
 _symmetry_equiv_pos_site_id
 _symmetry_equiv_pos_as_xyz
  1  'x, y, z'
loop_
 _atom_site_type_symbol
 _atom_site_label
 _atom_site_symmetry_multiplicity
 _atom_site_fract_x
 _atom_site_fract_y
 _atom_site_fract_z
 _atom_site_occupancy
  Pr  Pr0  1  0.45581300  0.74878500  0.95674800  1
  Pr  Pr1  1  0.04418700  0.74878500  0.45674800  1
  Pr  Pr2  1  0.54418700  0.24878500  0.04325200  1
  Pr  Pr3  1  0.95581300  0.24878500  0.54325200  1
  Ta  Ta4  1  0.46198000  0.50550300  0.64373700  1
  Ta  Ta5  1  0.53802000  0.00550300  0.35626300  1
  Ta  Ta6  1  0.96198000  0.00550300  0.85626300  1
  Ta  Ta7  1  0.03802000  0.50550300  0.14373700  1
  Ti  Ti8  1  0.03500600  0.99329100  0.14318100  1
  Ti  Ti9  1  0.96499400  0.49329100  0.85681900  1
  Ti  Ti10  1  0.53500600  0.49329100  0.35681900  1
  Ti  Ti11  1  0.46499400  0.99329100  0.64318100  1
  O  O12  1  0.04673400  0.74881300  0.85565200  1
  O  O13  1  0.45326600  0.74881300  0.35565200  1
  O  O14  1  0.95326600  0.24881300  0.14434800  1
  O  O15  1  0.54673400  0.24881300  0.64434800  1
  O  O16  1  0.15377000  0.75232500  0.12283500  1
  O  O17  1  0.34623000  0.75232500  0.62283500  1
  O  O18  1  0.84623000  0.25232500  0.87716500  1
  O  O19  1  0.65377000  0.25232500  0.37716500  1
  O  O20  1  0.63107200  0.55812100  0.79029700  1
  O  O21  1  0.87375800  0.94272700  0.28796500  1
  O  O22  1  0.36892800  0.05812100  0.20970300  1
  O  O23  1  0.12624200  0.44272700  0.71203500  1
  O  O24  1  0.37375800  0.44272700  0.21203500  1
  O  O25  1  0.13107200  0.05812100  0.70970300  1
  O  O26  1  0.62624200  0.94272700  0.78796500  1
  O  O27  1  0.86892800  0.55812100  0.29029700  1
  O  O28  1  0.23303600  0.03744500  0.97299900  1
  O  O29  1  0.27128400  0.46299000  0.47444800  1
  O  O30  1  0.76696400  0.53744500  0.02700100  1
  O  O31  1  0.72871600  0.96299000  0.52555200  1
  O  O32  1  0.77128400  0.96299000  0.02555200  1
  O  O33  1  0.73303600  0.53744500  0.52700100  1
  O  O34  1  0.22871600  0.46299000  0.97444800  1
  O  O35  1  0.26696400  0.03744500  0.47299900  1
