# generated using pymatgen
data_Cs2AgCl3
_symmetry_space_group_name_H-M   'P 1'
_cell_length_a   4.66225000
_cell_length_b   13.64063200
_cell_length_c   14.00481000
_cell_angle_alpha   90.00000000
_cell_angle_beta   90.00000000
_cell_angle_gamma   90.00000000
_symmetry_Int_Tables_number   1
_chemical_formula_structural   Cs2AgCl3
_chemical_formula_sum   'Cs8 Ag4 Cl12'
_cell_volume   890.65040852
_cell_formula_units_Z   4
loop_
 _symmetry_equiv_pos_site_id
 _symmetry_equiv_pos_as_xyz
  1  'x, y, z'
loop_
 _atom_site_type_symbol
 _atom_site_label
 _atom_site_symmetry_multiplicity
 _atom_site_fract_x
 _atom_site_fract_y
 _atom_site_fract_z
 _atom_site_occupancy
  Cs  Cs0  1  0.25000000  0.67233400  0.97992200  1
  Cs  Cs1  1  0.25000000  0.17233400  0.52007800  1
  Cs  Cs2  1  0.75000000  0.32766600  0.02007800  1
  Cs  Cs3  1  0.75000000  0.82766600  0.47992200  1
  Cs  Cs4  1  0.25000000  0.01167200  0.17389900  1
  Cs  Cs5  1  0.25000000  0.51167200  0.32610100  1
  Cs  Cs6  1  0.75000000  0.98832800  0.82610100  1
  Cs  Cs7  1  0.75000000  0.48832800  0.67389900  1
  Ag  Ag8  1  0.25000000  0.75219300  0.69851500  1
  Ag  Ag9  1  0.25000000  0.25219300  0.80148500  1
  Ag  Ag10  1  0.75000000  0.24780700  0.30148500  1
  Ag  Ag11  1  0.75000000  0.74780700  0.19851500  1
  Cl  Cl12  1  0.25000000  0.63381200  0.55331800  1
  Cl  Cl13  1  0.25000000  0.13381200  0.94668200  1
  Cl  Cl14  1  0.75000000  0.36618800  0.44668200  1
  Cl  Cl15  1  0.75000000  0.86618800  0.05331800  1
  Cl  Cl16  1  0.25000000  0.93430200  0.63987100  1
  Cl  Cl17  1  0.25000000  0.43430200  0.86012900  1
  Cl  Cl18  1  0.75000000  0.06569800  0.36012900  1
  Cl  Cl19  1  0.75000000  0.56569800  0.13987100  1
  Cl  Cl20  1  0.25000000  0.77546500  0.28773700  1
  Cl  Cl21  1  0.25000000  0.27546500  0.21226300  1
  Cl  Cl22  1  0.75000000  0.22453500  0.71226300  1
  Cl  Cl23  1  0.75000000  0.72453500  0.78773700  1
