# generated using pymatgen
data_Te8RuCl2
_symmetry_space_group_name_H-M   'P 1'
_cell_length_a   8.70057631
_cell_length_b   8.70057631
_cell_length_c   10.70154182
_cell_angle_alpha   77.73504102
_cell_angle_beta   77.73504102
_cell_angle_gamma   115.05449612
_symmetry_Int_Tables_number   1
_chemical_formula_structural   Te8RuCl2
_chemical_formula_sum   'Te16 Ru2 Cl4'
_cell_volume   673.99144193
_cell_formula_units_Z   2
loop_
 _symmetry_equiv_pos_site_id
 _symmetry_equiv_pos_as_xyz
  1  'x, y, z'
loop_
 _atom_site_type_symbol
 _atom_site_label
 _atom_site_symmetry_multiplicity
 _atom_site_fract_x
 _atom_site_fract_y
 _atom_site_fract_z
 _atom_site_occupancy
  Te  Te0  1  0.78488200  0.09128000  0.14657100  1
  Te  Te1  1  0.90872000  0.21511800  0.35342900  1
  Te  Te2  1  0.21511800  0.90872000  0.85342900  1
  Te  Te3  1  0.09128000  0.78488200  0.64657100  1
  Te  Te4  1  0.98117600  0.75617800  0.21091100  1
  Te  Te5  1  0.24382200  0.01882400  0.28908900  1
  Te  Te6  1  0.01882400  0.24382200  0.78908900  1
  Te  Te7  1  0.75617800  0.98117600  0.71091100  1
  Te  Te8  1  0.74862900  0.71074300  0.47103400  1
  Te  Te9  1  0.28925700  0.25137100  0.02896600  1
  Te  Te10  1  0.25137100  0.28925700  0.52896600  1
  Te  Te11  1  0.71074300  0.74862900  0.97103400  1
  Te  Te12  1  0.50961400  0.79218300  0.36773700  1
  Te  Te13  1  0.20781700  0.49038600  0.13226300  1
  Te  Te14  1  0.49038600  0.20781700  0.63226300  1
  Te  Te15  1  0.79218300  0.50961400  0.86773700  1
  Ru  Ru16  1  0.00000000  0.00000000  0.00000000  1
  Ru  Ru17  1  0.00000000  0.00000000  0.50000000  1
  Cl  Cl18  1  0.59203900  0.40796100  0.25000000  1
  Cl  Cl19  1  0.40796100  0.59203900  0.75000000  1
  Cl  Cl20  1  0.00000000  0.50000000  0.50000000  1
  Cl  Cl21  1  0.50000000  0.00000000  0.00000000  1
