# generated using pymatgen
data_PrPt
_symmetry_space_group_name_H-M   'P 1'
_cell_length_a   4.67726300
_cell_length_b   5.75131900
_cell_length_c   7.37516000
_cell_angle_alpha   90.00000000
_cell_angle_beta   90.00000000
_cell_angle_gamma   90.00000000
_symmetry_Int_Tables_number   1
_chemical_formula_structural   PrPt
_chemical_formula_sum   'Pr4 Pt4'
_cell_volume   198.39498682
_cell_formula_units_Z   4
loop_
 _symmetry_equiv_pos_site_id
 _symmetry_equiv_pos_as_xyz
  1  'x, y, z'
loop_
 _atom_site_type_symbol
 _atom_site_label
 _atom_site_symmetry_multiplicity
 _atom_site_fract_x
 _atom_site_fract_y
 _atom_site_fract_z
 _atom_site_occupancy
  Pr  Pr0  1  0.25000000  0.36359900  0.68123700  1
  Pr  Pr1  1  0.25000000  0.13640100  0.18123700  1
  Pr  Pr2  1  0.75000000  0.63640100  0.31876300  1
  Pr  Pr3  1  0.75000000  0.86359900  0.81876300  1
  Pt  Pt4  1  0.25000000  0.84968900  0.54441200  1
  Pt  Pt5  1  0.25000000  0.65031100  0.04441200  1
  Pt  Pt6  1  0.75000000  0.15031100  0.45558800  1
  Pt  Pt7  1  0.75000000  0.34968900  0.95558800  1
