# generated using pymatgen
data_Nd4MgNi
_symmetry_space_group_name_H-M   'P 1'
_cell_length_a   9.88852347
_cell_length_b   9.88852347
_cell_length_c   9.88852347
_cell_angle_alpha   60.00000000
_cell_angle_beta   60.00000000
_cell_angle_gamma   60.00000000
_symmetry_Int_Tables_number   1
_chemical_formula_structural   Nd4MgNi
_chemical_formula_sum   'Nd16 Mg4 Ni4'
_cell_volume   683.72167490
_cell_formula_units_Z   4
loop_
 _symmetry_equiv_pos_site_id
 _symmetry_equiv_pos_as_xyz
  1  'x, y, z'
loop_
 _atom_site_type_symbol
 _atom_site_label
 _atom_site_symmetry_multiplicity
 _atom_site_fract_x
 _atom_site_fract_y
 _atom_site_fract_z
 _atom_site_occupancy
  Nd  Nd0  1  0.81083100  0.18916900  0.18916900  1
  Nd  Nd1  1  0.18916900  0.81083100  0.81083100  1
  Nd  Nd2  1  0.18916900  0.81083100  0.18916900  1
  Nd  Nd3  1  0.81083100  0.18916900  0.81083100  1
  Nd  Nd4  1  0.18916900  0.18916900  0.81083100  1
  Nd  Nd5  1  0.81083100  0.81083100  0.18916900  1
  Nd  Nd6  1  0.93539000  0.56461000  0.56461000  1
  Nd  Nd7  1  0.56461000  0.93539000  0.93539000  1
  Nd  Nd8  1  0.56461000  0.93539000  0.56461000  1
  Nd  Nd9  1  0.93539000  0.56461000  0.93539000  1
  Nd  Nd10  1  0.56461000  0.56461000  0.93539000  1
  Nd  Nd11  1  0.93539000  0.93539000  0.56461000  1
  Nd  Nd12  1  0.34514200  0.34514200  0.34514200  1
  Nd  Nd13  1  0.34514200  0.34514200  0.96457500  1
  Nd  Nd14  1  0.34514200  0.96457500  0.34514200  1
  Nd  Nd15  1  0.96457500  0.34514200  0.34514200  1
  Mg  Mg16  1  0.57902100  0.57902100  0.57902100  1
  Mg  Mg17  1  0.57902100  0.57902100  0.26293800  1
  Mg  Mg18  1  0.57902100  0.26293800  0.57902100  1
  Mg  Mg19  1  0.26293800  0.57902100  0.57902100  1
  Ni  Ni20  1  0.14153900  0.14153900  0.14153900  1
  Ni  Ni21  1  0.14153900  0.14153900  0.57538300  1
  Ni  Ni22  1  0.14153900  0.57538300  0.14153900  1
  Ni  Ni23  1  0.57538300  0.14153900  0.14153900  1
