# generated using pymatgen
data_K2CoBr4
_symmetry_space_group_name_H-M   'P 1'
_cell_length_a   7.66752300
_cell_length_b   9.79135000
_cell_length_c   13.29910600
_cell_angle_alpha   90.00000000
_cell_angle_beta   90.00000000
_cell_angle_gamma   90.00000000
_symmetry_Int_Tables_number   1
_chemical_formula_structural   K2CoBr4
_chemical_formula_sum   'K8 Co4 Br16'
_cell_volume   998.43572023
_cell_formula_units_Z   4
loop_
 _symmetry_equiv_pos_site_id
 _symmetry_equiv_pos_as_xyz
  1  'x, y, z'
loop_
 _atom_site_type_symbol
 _atom_site_label
 _atom_site_symmetry_multiplicity
 _atom_site_fract_x
 _atom_site_fract_y
 _atom_site_fract_z
 _atom_site_occupancy
  K  K0  1  0.75000000  0.51502300  0.32129800  1
  K  K1  1  0.25000000  0.48497700  0.67870200  1
  K  K2  1  0.25000000  0.98497700  0.82129800  1
  K  K3  1  0.75000000  0.01502300  0.17870200  1
  K  K4  1  0.75000000  0.84569600  0.58250500  1
  K  K5  1  0.25000000  0.15430400  0.41749500  1
  K  K6  1  0.25000000  0.65430400  0.08250500  1
  K  K7  1  0.75000000  0.34569600  0.91749500  1
  Co  Co8  1  0.75000000  0.76991900  0.92359900  1
  Co  Co9  1  0.25000000  0.23008100  0.07640100  1
  Co  Co10  1  0.25000000  0.73008100  0.42359900  1
  Co  Co11  1  0.75000000  0.26991900  0.57640100  1
  Br  Br12  1  0.00556800  0.68499900  0.84251500  1
  Br  Br13  1  0.99443200  0.31500100  0.15748500  1
  Br  Br14  1  0.99443200  0.81500100  0.34251500  1
  Br  Br15  1  0.50556800  0.31500100  0.15748500  1
  Br  Br16  1  0.00556800  0.18499900  0.65748500  1
  Br  Br17  1  0.49443200  0.68499900  0.84251500  1
  Br  Br18  1  0.49443200  0.18499900  0.65748500  1
  Br  Br19  1  0.50556800  0.81500100  0.34251500  1
  Br  Br20  1  0.75000000  0.01433100  0.91891000  1
  Br  Br21  1  0.25000000  0.98566900  0.08109000  1
  Br  Br22  1  0.25000000  0.48566900  0.41891000  1
  Br  Br23  1  0.75000000  0.51433100  0.58109000  1
  Br  Br24  1  0.75000000  0.18628400  0.40684400  1
  Br  Br25  1  0.25000000  0.81371600  0.59315600  1
  Br  Br26  1  0.25000000  0.31371600  0.90684400  1
  Br  Br27  1  0.75000000  0.68628400  0.09315600  1
