# generated using pymatgen
data_Rb2LaF5
_symmetry_space_group_name_H-M   'P 1'
_cell_length_a   7.09292100
_cell_length_b   7.88426700
_cell_length_c   11.66997600
_cell_angle_alpha   90.00000000
_cell_angle_beta   90.00000000
_cell_angle_gamma   90.00000000
_symmetry_Int_Tables_number   1
_chemical_formula_structural   Rb2LaF5
_chemical_formula_sum   'Rb8 La4 F20'
_cell_volume   652.61403417
_cell_formula_units_Z   4
loop_
 _symmetry_equiv_pos_site_id
 _symmetry_equiv_pos_as_xyz
  1  'x, y, z'
loop_
 _atom_site_type_symbol
 _atom_site_label
 _atom_site_symmetry_multiplicity
 _atom_site_fract_x
 _atom_site_fract_y
 _atom_site_fract_z
 _atom_site_occupancy
  Rb  Rb0  1  0.53310400  0.02376400  0.17055500  1
  Rb  Rb1  1  0.46689600  0.52376400  0.82944500  1
  Rb  Rb2  1  0.96689600  0.02376400  0.67055500  1
  Rb  Rb3  1  0.03310400  0.52376400  0.32944500  1
  Rb  Rb4  1  0.02903600  0.01736300  0.32875400  1
  Rb  Rb5  1  0.97096400  0.51736300  0.67124600  1
  Rb  Rb6  1  0.47096400  0.01736300  0.82875400  1
  Rb  Rb7  1  0.52903600  0.51736300  0.17124600  1
  La  La8  1  0.43622900  0.26899200  0.50160100  1
  La  La9  1  0.56377100  0.76899200  0.49839900  1
  La  La10  1  0.06377100  0.26899200  0.00160100  1
  La  La11  1  0.93622900  0.76899200  0.99839900  1
  F  F12  1  0.14617900  0.98604700  0.07621000  1
  F  F13  1  0.85382100  0.48604700  0.92379000  1
  F  F14  1  0.35382100  0.98604700  0.57621000  1
  F  F15  1  0.64617900  0.48604700  0.42379000  1
  F  F16  1  0.39490600  0.26923100  0.01092400  1
  F  F17  1  0.60509400  0.76923100  0.98907600  1
  F  F18  1  0.10509400  0.26923100  0.51092400  1
  F  F19  1  0.89490600  0.76923100  0.48907600  1
  F  F20  1  0.14508800  0.55168500  0.07725900  1
  F  F21  1  0.85491200  0.05168500  0.92274100  1
  F  F22  1  0.35491200  0.55168500  0.57725900  1
  F  F23  1  0.64508800  0.05168500  0.42274100  1
  F  F24  1  0.33694000  0.26820400  0.30779700  1
  F  F25  1  0.66306000  0.76820400  0.69220300  1
  F  F26  1  0.16306000  0.26820400  0.80779700  1
  F  F27  1  0.83694000  0.76820400  0.19220300  1
  F  F28  1  0.37072600  0.76171600  0.33578100  1
  F  F29  1  0.62927400  0.26171600  0.66421900  1
  F  F30  1  0.12927400  0.76171600  0.83578100  1
  F  F31  1  0.87072600  0.26171600  0.16421900  1
