# generated using pymatgen
data_Cs4PbI6
_symmetry_space_group_name_H-M   'P 1'
_cell_length_a   10.61132630
_cell_length_b   10.61132630
_cell_length_c   10.61132606
_cell_angle_alpha   89.22572269
_cell_angle_beta   89.22572269
_cell_angle_gamma   89.22572298
_symmetry_Int_Tables_number   1
_chemical_formula_structural   Cs4PbI6
_chemical_formula_sum   'Cs8 Pb2 I12'
_cell_volume   1194.51354473
_cell_formula_units_Z   2
loop_
 _symmetry_equiv_pos_site_id
 _symmetry_equiv_pos_as_xyz
  1  'x, y, z'
loop_
 _atom_site_type_symbol
 _atom_site_label
 _atom_site_symmetry_multiplicity
 _atom_site_fract_x
 _atom_site_fract_y
 _atom_site_fract_z
 _atom_site_occupancy
  Cs  Cs0  1  0.25000000  0.25000000  0.25000000  1
  Cs  Cs1  1  0.75000000  0.75000000  0.75000000  1
  Cs  Cs2  1  0.25000000  0.62586600  0.87413400  1
  Cs  Cs3  1  0.87413400  0.25000000  0.62586600  1
  Cs  Cs4  1  0.62586600  0.87413400  0.25000000  1
  Cs  Cs5  1  0.75000000  0.37413400  0.12586600  1
  Cs  Cs6  1  0.12586600  0.75000000  0.37413400  1
  Cs  Cs7  1  0.37413400  0.12586600  0.75000000  1
  Pb  Pb8  1  0.00000000  0.00000000  0.00000000  1
  Pb  Pb9  1  0.50000000  0.50000000  0.50000000  1
  I  I10  1  0.56122900  0.20579200  0.42741000  1
  I  I11  1  0.42741000  0.56122900  0.20579200  1
  I  I12  1  0.20579200  0.42741000  0.56122900  1
  I  I13  1  0.93877100  0.07259000  0.29420800  1
  I  I14  1  0.29420800  0.93877100  0.07259000  1
  I  I15  1  0.07259000  0.29420800  0.93877100  1
  I  I16  1  0.43877100  0.79420800  0.57259000  1
  I  I17  1  0.57259000  0.43877100  0.79420800  1
  I  I18  1  0.79420800  0.57259000  0.43877100  1
  I  I19  1  0.06122900  0.92741000  0.70579200  1
  I  I20  1  0.92741000  0.70579200  0.06122900  1
  I  I21  1  0.70579200  0.06122900  0.92741000  1
