# generated using pymatgen
data_Rb5TiSb7O22
_symmetry_space_group_name_H-M   'P 1'
_cell_length_a   7.38764533
_cell_length_b   7.38764533
_cell_length_c   20.87946705
_cell_angle_alpha   83.80057862
_cell_angle_beta   83.80057862
_cell_angle_gamma   90.02384466
_symmetry_Int_Tables_number   1
_chemical_formula_structural   Rb5TiSb7O22
_chemical_formula_sum   'Rb10 Ti2 Sb14 O44'
_cell_volume   1126.17188961
_cell_formula_units_Z   2
loop_
 _symmetry_equiv_pos_site_id
 _symmetry_equiv_pos_as_xyz
  1  'x, y, z'
loop_
 _atom_site_type_symbol
 _atom_site_label
 _atom_site_symmetry_multiplicity
 _atom_site_fract_x
 _atom_site_fract_y
 _atom_site_fract_z
 _atom_site_occupancy
  Rb  Rb0  1  0.49203400  0.26738100  0.97536100  1
  Rb  Rb1  1  0.73248700  0.50740500  0.52517900  1
  Rb  Rb2  1  0.50740500  0.73248700  0.02517900  1
  Rb  Rb3  1  0.26738100  0.49203400  0.47536100  1
  Rb  Rb4  1  0.47172200  0.09458000  0.15329100  1
  Rb  Rb5  1  0.90595500  0.52926500  0.34660100  1
  Rb  Rb6  1  0.52926500  0.90595500  0.84660100  1
  Rb  Rb7  1  0.09458000  0.47172200  0.65329100  1
  Rb  Rb8  1  0.93761000  0.06270800  0.24933400  1
  Rb  Rb9  1  0.06270800  0.93761000  0.74933400  1
  Ti  Ti10  1  0.98756100  0.37201200  0.07462300  1
  Ti  Ti11  1  0.37201200  0.98756100  0.57462300  1
  Sb  Sb12  1  0.70389900  0.58686200  0.18834400  1
  Sb  Sb13  1  0.41141100  0.29853000  0.31062000  1
  Sb  Sb14  1  0.29853000  0.41141100  0.81062000  1
  Sb  Sb15  1  0.58686200  0.70389900  0.68834400  1
  Sb  Sb16  1  0.98909400  0.89618500  0.06753800  1
  Sb  Sb17  1  0.10437700  0.01066400  0.43226200  1
  Sb  Sb18  1  0.01066400  0.10437700  0.93226200  1
  Sb  Sb19  1  0.89618500  0.98909400  0.56753800  1
  Sb  Sb20  1  0.21211600  0.58854700  0.18390000  1
  Sb  Sb21  1  0.40990000  0.78501200  0.31457300  1
  Sb  Sb22  1  0.78501200  0.40990000  0.81457300  1
  Sb  Sb23  1  0.58854700  0.21211600  0.68390000  1
  Sb  Sb24  1  0.61635700  0.01137700  0.42902100  1
  Sb  Sb25  1  0.01137700  0.61635700  0.92902100  1
  O  O26  1  0.64207200  0.75043500  0.25841600  1
  O  O27  1  0.24839700  0.35570600  0.24106800  1
  O  O28  1  0.35570600  0.24839700  0.74106800  1
  O  O29  1  0.75043500  0.64207200  0.75841600  1
  O  O30  1  0.76871000  0.43108500  0.11491800  1
  O  O31  1  0.57402600  0.25132600  0.38700200  1
  O  O32  1  0.25132600  0.57402600  0.88700200  1
  O  O33  1  0.43108500  0.76871000  0.61491800  1
  O  O34  1  0.99098100  0.65355400  0.02132600  1
  O  O35  1  0.34950600  0.00826800  0.47853100  1
  O  O36  1  0.00826800  0.34950600  0.97853100  1
  O  O37  1  0.65355400  0.99098100  0.52132600  1
  O  O38  1  0.81774900  0.00239100  0.00304900  1
  O  O39  1  0.99804500  0.18202600  0.49583700  1
  O  O40  1  0.18202600  0.99804500  0.99583700  1
  O  O41  1  0.00239100  0.81774900  0.50304900  1
  O  O42  1  0.18511700  0.81020700  0.11935500  1
  O  O43  1  0.19195900  0.81581700  0.37982700  1
  O  O44  1  0.81581700  0.19195900  0.87982700  1
  O  O45  1  0.81020700  0.18511700  0.61935500  1
  O  O46  1  0.77341900  0.81356400  0.12705700  1
  O  O47  1  0.18782500  0.22631500  0.37248400  1
  O  O48  1  0.22631500  0.18782500  0.87248400  1
  O  O49  1  0.81356400  0.77341900  0.62705700  1
  O  O50  1  0.98690200  0.13094300  0.10445200  1
  O  O51  1  0.87042400  0.01350600  0.39104500  1
  O  O52  1  0.01350600  0.87042400  0.89104500  1
  O  O53  1  0.13094300  0.98690200  0.60445200  1
  O  O54  1  0.95098900  0.55434200  0.21594600  1
  O  O55  1  0.45163400  0.04780000  0.28735700  1
  O  O56  1  0.04780000  0.45163400  0.78735700  1
  O  O57  1  0.55434200  0.95098900  0.71594600  1
  O  O58  1  0.47116500  0.61545600  0.15085800  1
  O  O59  1  0.38300900  0.52846300  0.34923600  1
  O  O60  1  0.52846300  0.38300900  0.84923600  1
  O  O61  1  0.61545600  0.47116500  0.65085800  1
  O  O62  1  0.23409400  0.76524400  0.24963600  1
  O  O63  1  0.76524400  0.23409400  0.74963600  1
  O  O64  1  0.19047600  0.43888200  0.10877500  1
  O  O65  1  0.56562400  0.78899300  0.39319300  1
  O  O66  1  0.78899300  0.56562400  0.89319300  1
  O  O67  1  0.43888200  0.19047600  0.60877500  1
  O  O68  1  0.63678100  0.36172200  0.24998400  1
  O  O69  1  0.36172200  0.63678100  0.74998400  1
