# generated using pymatgen
data_NF2
_symmetry_space_group_name_H-M   'P 1'
_cell_length_a   3.37951100
_cell_length_b   8.01923842
_cell_length_c   8.44176884
_cell_angle_alpha   81.49183294
_cell_angle_beta   78.54604881
_cell_angle_gamma   77.96322285
_symmetry_Int_Tables_number   1
_chemical_formula_structural   NF2
_chemical_formula_sum   'N4 F8'
_cell_volume   217.93640986
_cell_formula_units_Z   4
loop_
 _symmetry_equiv_pos_site_id
 _symmetry_equiv_pos_as_xyz
  1  'x, y, z'
loop_
 _atom_site_type_symbol
 _atom_site_label
 _atom_site_symmetry_multiplicity
 _atom_site_fract_x
 _atom_site_fract_y
 _atom_site_fract_z
 _atom_site_occupancy
  N  N0  1  0.59635900  0.28598900  0.80156300  1
  N  N1  1  0.67622200  0.80583900  0.73119700  1
  N  N2  1  0.40572600  0.71627200  0.19415700  1
  N  N3  1  0.31333600  0.19462000  0.26902700  1
  F  F4  1  0.45112800  0.44544900  0.72430600  1
  F  F5  1  0.40430900  0.96082000  0.73772100  1
  F  F6  1  0.56388900  0.56381200  0.27963500  1
  F  F7  1  0.59193500  0.04153300  0.25944400  1
  F  F8  1  0.67569200  0.32434600  0.94547900  1
  F  F9  1  0.32573300  0.66382600  0.05646800  1
  F  F10  1  0.16699600  0.19560100  0.43422700  1
  F  F11  1  0.82867300  0.80189400  0.56677700  1
