# generated using pymatgen
data_IrI3
_symmetry_space_group_name_H-M   'P 1'
_cell_length_a   6.95261306
_cell_length_b   6.95261306
_cell_length_c   7.47261551
_cell_angle_alpha   81.77886860
_cell_angle_beta   81.77886860
_cell_angle_gamma   119.96630233
_symmetry_Int_Tables_number   1
_chemical_formula_structural   IrI3
_chemical_formula_sum   'Ir2 I6'
_cell_volume   299.87320783
_cell_formula_units_Z   2
loop_
 _symmetry_equiv_pos_site_id
 _symmetry_equiv_pos_as_xyz
  1  'x, y, z'
loop_
 _atom_site_type_symbol
 _atom_site_label
 _atom_site_symmetry_multiplicity
 _atom_site_fract_x
 _atom_site_fract_y
 _atom_site_fract_z
 _atom_site_occupancy
  Ir  Ir0  1  0.83331600  0.16668400  0.00000000  1
  Ir  Ir1  1  0.16668400  0.83331600  0.00000000  1
  I  I2  1  0.43628100  0.07963300  0.20797100  1
  I  I3  1  0.56371900  0.92036700  0.79202900  1
  I  I4  1  0.92036700  0.56371900  0.79202900  1
  I  I5  1  0.07963300  0.43628100  0.20797100  1
  I  I6  1  0.79227900  0.79227900  0.20798300  1
  I  I7  1  0.20772100  0.20772100  0.79201700  1
