# generated using pymatgen
data_Na5Dy4Si4O16F
_symmetry_space_group_name_H-M   'P 1'
_cell_length_a   8.69637464
_cell_length_b   8.69637464
_cell_length_c   8.69637464
_cell_angle_alpha   95.60702401
_cell_angle_beta   95.60702401
_cell_angle_gamma   143.57069608
_symmetry_Int_Tables_number   1
_chemical_formula_structural   Na5Dy4Si4O16F
_chemical_formula_sum   'Na5 Dy4 Si4 O16 F1'
_cell_volume   370.98085701
_cell_formula_units_Z   1
loop_
 _symmetry_equiv_pos_site_id
 _symmetry_equiv_pos_as_xyz
  1  'x, y, z'
loop_
 _atom_site_type_symbol
 _atom_site_label
 _atom_site_symmetry_multiplicity
 _atom_site_fract_x
 _atom_site_fract_y
 _atom_site_fract_z
 _atom_site_occupancy
  Na  Na0  1  0.59786300  0.90377300  0.51548500  1
  Na  Na1  1  0.38828800  0.08237800  0.48451500  1
  Na  Na2  1  0.09622700  0.61171200  0.69409000  1
  Na  Na3  1  0.91762200  0.40213700  0.30591000  1
  Na  Na4  1  0.50000000  0.50000000  0.00000000  1
  Dy  Dy5  1  0.16025900  0.86185800  0.06720800  1
  Dy  Dy6  1  0.79465000  0.09305100  0.93279200  1
  Dy  Dy7  1  0.13814200  0.20535000  0.29840100  1
  Dy  Dy8  1  0.90694900  0.83974100  0.70159900  1
  Si  Si9  1  0.40734000  0.75755500  0.14340800  1
  Si  Si10  1  0.61414700  0.26393200  0.85659200  1
  Si  Si11  1  0.24244500  0.38585300  0.64978500  1
  Si  Si12  1  0.73606800  0.59266000  0.35021500  1
  O  O13  1  0.37805600  0.87422100  0.27837900  1
  O  O14  1  0.59584200  0.09967700  0.72162100  1
  O  O15  1  0.12577900  0.40415800  0.50383500  1
  O  O16  1  0.90032300  0.62194400  0.49616500  1
  O  O17  1  0.21611600  0.45176500  0.13884800  1
  O  O18  1  0.31291700  0.07726800  0.86115200  1
  O  O19  1  0.54823500  0.68708300  0.76435100  1
  O  O20  1  0.92273200  0.78388400  0.23564900  1
  O  O21  1  0.72432100  0.96385000  0.17162600  1
  O  O22  1  0.79222500  0.55269600  0.82837400  1
  O  O23  1  0.03615000  0.20777500  0.76047100  1
  O  O24  1  0.44730400  0.27567900  0.23952900  1
  O  O25  1  0.32895200  0.76781000  0.96743900  1
  O  O26  1  0.80037100  0.36151300  0.03256100  1
  O  O27  1  0.23219000  0.19962900  0.56114200  1
  O  O28  1  0.63848700  0.67104800  0.43885800  1
  F  F29  1  0.00000000  0.00000000  0.00000000  1
