# generated using pymatgen
data_Cs2Mg2(MoO4)3
_symmetry_space_group_name_H-M   'P 1'
_cell_length_a   11.07074300
_cell_length_b   11.07074300
_cell_length_c   11.07074300
_cell_angle_alpha   90.00000000
_cell_angle_beta   90.00000000
_cell_angle_gamma   90.00000000
_symmetry_Int_Tables_number   1
_chemical_formula_structural   Cs2Mg2(MoO4)3
_chemical_formula_sum   'Cs8 Mg8 Mo12 O48'
_cell_volume   1356.84521392
_cell_formula_units_Z   4
loop_
 _symmetry_equiv_pos_site_id
 _symmetry_equiv_pos_as_xyz
  1  'x, y, z'
loop_
 _atom_site_type_symbol
 _atom_site_label
 _atom_site_symmetry_multiplicity
 _atom_site_fract_x
 _atom_site_fract_y
 _atom_site_fract_z
 _atom_site_occupancy
  Cs  Cs0  1  0.04956300  0.04956300  0.04956300  1
  Cs  Cs1  1  0.45043700  0.95043700  0.54956300  1
  Cs  Cs2  1  0.95043700  0.54956300  0.45043700  1
  Cs  Cs3  1  0.54956300  0.45043700  0.95043700  1
  Cs  Cs4  1  0.81874000  0.81874000  0.81874000  1
  Cs  Cs5  1  0.68126000  0.18126000  0.31874000  1
  Cs  Cs6  1  0.18126000  0.31874000  0.68126000  1
  Cs  Cs7  1  0.31874000  0.68126000  0.18126000  1
  Mg  Mg8  1  0.33638200  0.33638200  0.33638200  1
  Mg  Mg9  1  0.16361800  0.66361800  0.83638200  1
  Mg  Mg10  1  0.66361800  0.83638200  0.16361800  1
  Mg  Mg11  1  0.83638200  0.16361800  0.66361800  1
  Mg  Mg12  1  0.60328600  0.60328600  0.60328600  1
  Mg  Mg13  1  0.89671400  0.39671400  0.10328600  1
  Mg  Mg14  1  0.39671400  0.10328600  0.89671400  1
  Mg  Mg15  1  0.10328600  0.89671400  0.39671400  1
  Mo  Mo16  1  0.02133100  0.21212400  0.37611600  1
  Mo  Mo17  1  0.47866900  0.78787600  0.87611600  1
  Mo  Mo18  1  0.97866900  0.71212400  0.12388400  1
  Mo  Mo19  1  0.37611600  0.02133100  0.21212400  1
  Mo  Mo20  1  0.52133100  0.28787600  0.62388400  1
  Mo  Mo21  1  0.87611600  0.47866900  0.78787600  1
  Mo  Mo22  1  0.12388400  0.97866900  0.71212400  1
  Mo  Mo23  1  0.62388400  0.52133100  0.28787600  1
  Mo  Mo24  1  0.21212400  0.37611600  0.02133100  1
  Mo  Mo25  1  0.71212400  0.12388400  0.97866900  1
  Mo  Mo26  1  0.28787600  0.62388400  0.52133100  1
  Mo  Mo27  1  0.78787600  0.87611600  0.47866900  1
  O  O28  1  0.01645600  0.05607300  0.33085100  1
  O  O29  1  0.48354400  0.94392700  0.83085100  1
  O  O30  1  0.98354400  0.55607300  0.16914900  1
  O  O31  1  0.33085100  0.01645600  0.05607300  1
  O  O32  1  0.51645600  0.44392700  0.66914900  1
  O  O33  1  0.83085100  0.48354400  0.94392700  1
  O  O34  1  0.16914900  0.98354400  0.55607300  1
  O  O35  1  0.66914900  0.51645600  0.44392700  1
  O  O36  1  0.05607300  0.33085100  0.01645600  1
  O  O37  1  0.55607300  0.16914900  0.98354400  1
  O  O38  1  0.44392700  0.66914900  0.51645600  1
  O  O39  1  0.94392700  0.83085100  0.48354400  1
  O  O40  1  0.26958700  0.48693800  0.43597500  1
  O  O41  1  0.23041300  0.51306200  0.93597500  1
  O  O42  1  0.73041300  0.98693800  0.06402500  1
  O  O43  1  0.43597500  0.26958700  0.48693800  1
  O  O44  1  0.76958700  0.01306200  0.56402500  1
  O  O45  1  0.93597500  0.23041300  0.51306200  1
  O  O46  1  0.06402500  0.73041300  0.98693800  1
  O  O47  1  0.56402500  0.76958700  0.01306200  1
  O  O48  1  0.48693800  0.43597500  0.26958700  1
  O  O49  1  0.98693800  0.06402500  0.73041300  1
  O  O50  1  0.01306200  0.56402500  0.76958700  1
  O  O51  1  0.51306200  0.93597500  0.23041300  1
  O  O52  1  0.04819400  0.80531400  0.23754600  1
  O  O53  1  0.45180600  0.19468600  0.73754600  1
  O  O54  1  0.95180600  0.30531400  0.26245400  1
  O  O55  1  0.23754600  0.04819400  0.80531400  1
  O  O56  1  0.54819400  0.69468600  0.76245400  1
  O  O57  1  0.73754600  0.45180600  0.19468600  1
  O  O58  1  0.26245400  0.95180600  0.30531400  1
  O  O59  1  0.76245400  0.54819400  0.69468600  1
  O  O60  1  0.80531400  0.23754600  0.04819400  1
  O  O61  1  0.30531400  0.26245400  0.95180600  1
  O  O62  1  0.69468600  0.76245400  0.54819400  1
  O  O63  1  0.19468600  0.73754600  0.45180600  1
  O  O64  1  0.17416600  0.25936500  0.40000200  1
  O  O65  1  0.32583400  0.74063500  0.90000200  1
  O  O66  1  0.82583400  0.75936500  0.09999800  1
  O  O67  1  0.40000200  0.17416600  0.25936500  1
  O  O68  1  0.67416600  0.24063500  0.59999800  1
  O  O69  1  0.90000200  0.32583400  0.74063500  1
  O  O70  1  0.09999800  0.82583400  0.75936500  1
  O  O71  1  0.59999800  0.67416600  0.24063500  1
  O  O72  1  0.25936500  0.40000200  0.17416600  1
  O  O73  1  0.75936500  0.09999800  0.82583400  1
  O  O74  1  0.24063500  0.59999800  0.67416600  1
  O  O75  1  0.74063500  0.90000200  0.32583400  1
