# generated using pymatgen
data_Al12Re
_symmetry_space_group_name_H-M   'P 1'
_cell_length_a   6.52699445
_cell_length_b   6.52699445
_cell_length_c   6.52699445
_cell_angle_alpha   109.47122063
_cell_angle_beta   109.47122063
_cell_angle_gamma   109.47122063
_symmetry_Int_Tables_number   1
_chemical_formula_structural   Al12Re
_chemical_formula_sum   'Al12 Re1'
_cell_volume   214.05128460
_cell_formula_units_Z   1
loop_
 _symmetry_equiv_pos_site_id
 _symmetry_equiv_pos_as_xyz
  1  'x, y, z'
loop_
 _atom_site_type_symbol
 _atom_site_label
 _atom_site_symmetry_multiplicity
 _atom_site_fract_x
 _atom_site_fract_y
 _atom_site_fract_z
 _atom_site_occupancy
  Al  Al0  1  0.69174500  0.87971800  0.18797300  1
  Al  Al1  1  0.81202700  0.30825500  0.12028200  1
  Al  Al2  1  0.50377100  0.81202700  0.69174500  1
  Al  Al3  1  0.81202700  0.69174500  0.50377100  1
  Al  Al4  1  0.49622900  0.18797300  0.30825500  1
  Al  Al5  1  0.18797300  0.69174500  0.87971800  1
  Al  Al6  1  0.87971800  0.18797300  0.69174500  1
  Al  Al7  1  0.12028200  0.81202700  0.30825500  1
  Al  Al8  1  0.18797300  0.30825500  0.49622900  1
  Al  Al9  1  0.69174500  0.50377100  0.81202700  1
  Al  Al10  1  0.30825500  0.49622900  0.18797300  1
  Al  Al11  1  0.30825500  0.12028200  0.81202700  1
  Re  Re12  1  0.00000000  0.00000000  0.00000000  1
