# generated using pymatgen
data_Eu2O3
_symmetry_space_group_name_H-M   'P 1'
_cell_length_a   9.50388056
_cell_length_b   9.50388056
_cell_length_c   9.50388056
_cell_angle_alpha   109.47122063
_cell_angle_beta   109.47122063
_cell_angle_gamma   109.47122063
_symmetry_Int_Tables_number   1
_chemical_formula_structural   Eu2O3
_chemical_formula_sum   'Eu16 O24'
_cell_volume   660.81671297
_cell_formula_units_Z   8
loop_
 _symmetry_equiv_pos_site_id
 _symmetry_equiv_pos_as_xyz
  1  'x, y, z'
loop_
 _atom_site_type_symbol
 _atom_site_label
 _atom_site_symmetry_multiplicity
 _atom_site_fract_x
 _atom_site_fract_y
 _atom_site_fract_z
 _atom_site_occupancy
  Eu  Eu0  1  0.50000000  0.00000000  0.50000000  1
  Eu  Eu1  1  0.50000000  0.50000000  0.00000000  1
  Eu  Eu2  1  0.00000000  0.50000000  0.50000000  1
  Eu  Eu3  1  0.00000000  0.00000000  0.00000000  1
  Eu  Eu4  1  0.78120500  0.25000000  0.03120500  1
  Eu  Eu5  1  0.71879500  0.75000000  0.46879500  1
  Eu  Eu6  1  0.25000000  0.03120500  0.78120500  1
  Eu  Eu7  1  0.75000000  0.46879500  0.71879500  1
  Eu  Eu8  1  0.03120500  0.78120500  0.25000000  1
  Eu  Eu9  1  0.46879500  0.71879500  0.75000000  1
  Eu  Eu10  1  0.21879500  0.75000000  0.96879500  1
  Eu  Eu11  1  0.28120500  0.25000000  0.53120500  1
  Eu  Eu12  1  0.75000000  0.96879500  0.21879500  1
  Eu  Eu13  1  0.25000000  0.53120500  0.28120500  1
  Eu  Eu14  1  0.96879500  0.21879500  0.75000000  1
  Eu  Eu15  1  0.53120500  0.28120500  0.25000000  1
  O  O16  1  0.49292800  0.23000700  0.46064300  1
  O  O17  1  0.23063600  0.26999300  0.76292100  1
  O  O18  1  0.00707200  0.46771500  0.73707900  1
  O  O19  1  0.26936400  0.03228500  0.03935700  1
  O  O20  1  0.23000700  0.46064300  0.49292800  1
  O  O21  1  0.26999300  0.76292100  0.23063600  1
  O  O22  1  0.46771500  0.73707900  0.00707200  1
  O  O23  1  0.03228500  0.03935700  0.26936400  1
  O  O24  1  0.46064300  0.49292800  0.23000700  1
  O  O25  1  0.76292100  0.23063600  0.26999300  1
  O  O26  1  0.73707900  0.00707200  0.46771500  1
  O  O27  1  0.03935700  0.26936400  0.03228500  1
  O  O28  1  0.50707200  0.76999300  0.53935700  1
  O  O29  1  0.76936400  0.73000700  0.23707900  1
  O  O30  1  0.99292800  0.53228500  0.26292100  1
  O  O31  1  0.73063600  0.96771500  0.96064300  1
  O  O32  1  0.76999300  0.53935700  0.50707200  1
  O  O33  1  0.73000700  0.23707900  0.76936400  1
  O  O34  1  0.53228500  0.26292100  0.99292800  1
  O  O35  1  0.96771500  0.96064300  0.73063600  1
  O  O36  1  0.53935700  0.50707200  0.76999300  1
  O  O37  1  0.23707900  0.76936400  0.73000700  1
  O  O38  1  0.26292100  0.99292800  0.53228500  1
  O  O39  1  0.96064300  0.73063600  0.96771500  1
