# generated using pymatgen
data_HoGaAu
_symmetry_space_group_name_H-M   'P 1'
_cell_length_a   5.68878866
_cell_length_b   5.68878866
_cell_length_c   7.09234459
_cell_angle_alpha   52.41749780
_cell_angle_beta   52.41749780
_cell_angle_gamma   46.74159215
_symmetry_Int_Tables_number   1
_chemical_formula_structural   HoGaAu
_chemical_formula_sum   'Ho2 Ga2 Au2'
_cell_volume   124.92657739
_cell_formula_units_Z   2
loop_
 _symmetry_equiv_pos_site_id
 _symmetry_equiv_pos_as_xyz
  1  'x, y, z'
loop_
 _atom_site_type_symbol
 _atom_site_label
 _atom_site_symmetry_multiplicity
 _atom_site_fract_x
 _atom_site_fract_y
 _atom_site_fract_z
 _atom_site_occupancy
  Ho  Ho0  1  0.53734700  0.53734700  0.70384200  1
  Ho  Ho1  1  0.46265300  0.46265300  0.29615800  1
  Ga  Ga2  1  0.84111400  0.84111400  0.10889100  1
  Ga  Ga3  1  0.15888600  0.15888600  0.89110900  1
  Au  Au4  1  0.17724900  0.17724900  0.28121500  1
  Au  Au5  1  0.82275100  0.82275100  0.71878500  1
