# generated using pymatgen
data_Ba2Sn
_symmetry_space_group_name_H-M   'P 1'
_cell_length_a   5.68653500
_cell_length_b   8.84096300
_cell_length_c   10.75002600
_cell_angle_alpha   90.00000000
_cell_angle_beta   90.00000000
_cell_angle_gamma   90.00000000
_symmetry_Int_Tables_number   1
_chemical_formula_structural   Ba2Sn
_chemical_formula_sum   'Ba8 Sn4'
_cell_volume   540.45159662
_cell_formula_units_Z   4
loop_
 _symmetry_equiv_pos_site_id
 _symmetry_equiv_pos_as_xyz
  1  'x, y, z'
loop_
 _atom_site_type_symbol
 _atom_site_label
 _atom_site_symmetry_multiplicity
 _atom_site_fract_x
 _atom_site_fract_y
 _atom_site_fract_z
 _atom_site_occupancy
  Ba  Ba0  1  0.75000000  0.34720700  0.42142500  1
  Ba  Ba1  1  0.25000000  0.65279300  0.57857500  1
  Ba  Ba2  1  0.75000000  0.84720700  0.07857500  1
  Ba  Ba3  1  0.25000000  0.15279300  0.92142500  1
  Ba  Ba4  1  0.75000000  0.47817100  0.82214200  1
  Ba  Ba5  1  0.25000000  0.52182900  0.17785800  1
  Ba  Ba6  1  0.75000000  0.97817100  0.67785800  1
  Ba  Ba7  1  0.25000000  0.02182900  0.32214200  1
  Sn  Sn8  1  0.75000000  0.25242500  0.10445900  1
  Sn  Sn9  1  0.25000000  0.74757500  0.89554100  1
  Sn  Sn10  1  0.75000000  0.75242500  0.39554100  1
  Sn  Sn11  1  0.25000000  0.24757500  0.60445900  1
