# generated using pymatgen
data_Sr3Li6Nb2O11
_symmetry_space_group_name_H-M   'P 1'
_cell_length_a   5.86948200
_cell_length_b   8.44494600
_cell_length_c   10.70486800
_cell_angle_alpha   90.00000000
_cell_angle_beta   90.00000000
_cell_angle_gamma   90.00000000
_symmetry_Int_Tables_number   1
_chemical_formula_structural   Sr3Li6Nb2O11
_chemical_formula_sum   'Sr6 Li12 Nb4 O22'
_cell_volume   530.61310074
_cell_formula_units_Z   2
loop_
 _symmetry_equiv_pos_site_id
 _symmetry_equiv_pos_as_xyz
  1  'x, y, z'
loop_
 _atom_site_type_symbol
 _atom_site_label
 _atom_site_symmetry_multiplicity
 _atom_site_fract_x
 _atom_site_fract_y
 _atom_site_fract_z
 _atom_site_occupancy
  Sr  Sr0  1  0.50000000  0.26377800  0.50000000  1
  Sr  Sr1  1  0.50000000  0.73622200  0.50000000  1
  Sr  Sr2  1  0.50000000  0.73622200  0.00000000  1
  Sr  Sr3  1  0.50000000  0.26377800  0.00000000  1
  Sr  Sr4  1  0.61660000  0.00000000  0.75000000  1
  Sr  Sr5  1  0.38340000  0.00000000  0.25000000  1
  Li  Li6  1  0.00000000  0.35439300  0.50000000  1
  Li  Li7  1  0.00000000  0.64560700  0.50000000  1
  Li  Li8  1  0.00000000  0.64560700  0.00000000  1
  Li  Li9  1  0.00000000  0.35439300  0.00000000  1
  Li  Li10  1  0.14659800  0.14704700  0.75000000  1
  Li  Li11  1  0.85340200  0.85295300  0.25000000  1
  Li  Li12  1  0.14659800  0.85295300  0.75000000  1
  Li  Li13  1  0.85340200  0.14704700  0.25000000  1
  Li  Li14  1  0.78094300  0.31442900  0.75000000  1
  Li  Li15  1  0.21905700  0.68557100  0.25000000  1
  Li  Li16  1  0.78094300  0.68557100  0.75000000  1
  Li  Li17  1  0.21905700  0.31442900  0.25000000  1
  Nb  Nb18  1  0.26311900  0.50000000  0.75000000  1
  Nb  Nb19  1  0.73688100  0.50000000  0.25000000  1
  Nb  Nb20  1  0.00000000  0.00000000  0.50000000  1
  Nb  Nb21  1  0.00000000  0.00000000  0.00000000  1
  O  O22  1  0.13423400  0.17364300  0.11097700  1
  O  O23  1  0.86576600  0.82635700  0.88902300  1
  O  O24  1  0.13423400  0.82635700  0.38902300  1
  O  O25  1  0.86576600  0.17364300  0.88902300  1
  O  O26  1  0.86576600  0.17364300  0.61097700  1
  O  O27  1  0.13423400  0.82635700  0.11097700  1
  O  O28  1  0.86576600  0.82635700  0.61097700  1
  O  O29  1  0.13423400  0.17364300  0.38902300  1
  O  O30  1  0.94299200  0.50000000  0.75000000  1
  O  O31  1  0.05700800  0.50000000  0.25000000  1
  O  O32  1  0.25206200  0.50000000  0.56035900  1
  O  O33  1  0.74793800  0.50000000  0.43964100  1
  O  O34  1  0.25206200  0.50000000  0.93964100  1
  O  O35  1  0.74793800  0.50000000  0.06035900  1
  O  O36  1  0.28224800  0.00000000  0.60731200  1
  O  O37  1  0.71775200  0.00000000  0.39268800  1
  O  O38  1  0.28224800  0.00000000  0.89268800  1
  O  O39  1  0.71775200  0.00000000  0.10731200  1
  O  O40  1  0.43123300  0.30072400  0.75000000  1
  O  O41  1  0.56876700  0.69927600  0.25000000  1
  O  O42  1  0.43123300  0.69927600  0.75000000  1
  O  O43  1  0.56876700  0.30072400  0.25000000  1
