# generated using pymatgen
data_Dy3Os
_symmetry_space_group_name_H-M   'P 1'
_cell_length_a   6.33161800
_cell_length_b   7.38516500
_cell_length_c   9.09830800
_cell_angle_alpha   90.00000000
_cell_angle_beta   90.00000000
_cell_angle_gamma   90.00000000
_symmetry_Int_Tables_number   1
_chemical_formula_structural   Dy3Os
_chemical_formula_sum   'Dy12 Os4'
_cell_volume   425.43727919
_cell_formula_units_Z   4
loop_
 _symmetry_equiv_pos_site_id
 _symmetry_equiv_pos_as_xyz
  1  'x, y, z'
loop_
 _atom_site_type_symbol
 _atom_site_label
 _atom_site_symmetry_multiplicity
 _atom_site_fract_x
 _atom_site_fract_y
 _atom_site_fract_z
 _atom_site_occupancy
  Dy  Dy0  1  0.33085900  0.67511800  0.06332300  1
  Dy  Dy1  1  0.16914100  0.17511800  0.43667700  1
  Dy  Dy2  1  0.66914100  0.32488200  0.56332300  1
  Dy  Dy3  1  0.83085900  0.82488200  0.93667700  1
  Dy  Dy4  1  0.66914100  0.32488200  0.93667700  1
  Dy  Dy5  1  0.83085900  0.82488200  0.56332300  1
  Dy  Dy6  1  0.33085900  0.67511800  0.43667700  1
  Dy  Dy7  1  0.16914100  0.17511800  0.06332300  1
  Dy  Dy8  1  0.86823200  0.53883300  0.25000000  1
  Dy  Dy9  1  0.63176800  0.03883300  0.25000000  1
  Dy  Dy10  1  0.13176800  0.46116700  0.75000000  1
  Dy  Dy11  1  0.36823200  0.96116700  0.75000000  1
  Os  Os12  1  0.03933200  0.88349300  0.25000000  1
  Os  Os13  1  0.46066800  0.38349300  0.25000000  1
  Os  Os14  1  0.96066800  0.11650700  0.75000000  1
  Os  Os15  1  0.53933200  0.61650700  0.75000000  1
