# generated using pymatgen
data_Cd3Co2H44Br12(N3O)4
_symmetry_space_group_name_H-M   'P 1'
_cell_length_a   9.11608400
_cell_length_b   9.12012015
_cell_length_c   12.83347139
_cell_angle_alpha   69.20019346
_cell_angle_beta   89.33055106
_cell_angle_gamma   83.34806004
_symmetry_Int_Tables_number   1
_chemical_formula_structural   Cd3Co2H44Br12(N3O)4
_chemical_formula_sum   'Cd3 Co2 H44 Br12 N12 O4'
_cell_volume   990.22109356
_cell_formula_units_Z   1
loop_
 _symmetry_equiv_pos_site_id
 _symmetry_equiv_pos_as_xyz
  1  'x, y, z'
loop_
 _atom_site_type_symbol
 _atom_site_label
 _atom_site_symmetry_multiplicity
 _atom_site_fract_x
 _atom_site_fract_y
 _atom_site_fract_z
 _atom_site_occupancy
  Cd  Cd0  1  0.87999200  0.64236700  0.33907200  1
  Cd  Cd1  1  0.12000800  0.35763300  0.66092800  1
  Cd  Cd2  1  0.50000000  0.50000000  0.50000000  1
  Co  Co3  1  0.70122800  0.82116300  0.79697500  1
  Co  Co4  1  0.29877200  0.17883700  0.20302500  1
  H  H5  1  0.79992300  0.96899600  0.60381900  1
  H  H6  1  0.20007700  0.03100400  0.39618100  1
  H  H7  1  0.86804700  0.78170200  0.64313600  1
  H  H8  1  0.13195300  0.21829800  0.35686400  1
  H  H9  1  0.69565400  0.83794700  0.59466000  1
  H  H10  1  0.30434600  0.16205300  0.40534000  1
  H  H11  1  0.49863900  0.98144200  0.65101100  1
  H  H12  1  0.50136100  0.01855800  0.34898900  1
  H  H13  1  0.42262200  0.84979100  0.75584000  1
  H  H14  1  0.57737800  0.15020900  0.24416000  1
  H  H15  1  0.46510900  0.01446000  0.76680600  1
  H  H16  1  0.53489100  0.98554000  0.23319400  1
  H  H17  1  0.92615800  0.60879500  0.85734900  1
  H  H18  1  0.07384200  0.39120500  0.14265100  1
  H  H19  1  0.98294600  0.78465300  0.81664900  1
  H  H20  1  0.01705400  0.21534700  0.18335100  1
  H  H21  1  0.91627100  0.71037900  0.94157400  1
  H  H22  1  0.08372900  0.28962100  0.05842600  1
  H  H23  1  0.86005000  0.04850300  0.75524900  1
  H  H24  1  0.13995000  0.95149700  0.24475100  1
  H  H25  1  0.68367800  0.12088000  0.74198600  1
  H  H26  1  0.31632200  0.87912000  0.25801400  1
  H  H27  1  0.76216100  0.03792000  0.86795900  1
  H  H28  1  0.23783900  0.96208000  0.13204100  1
  H  H29  1  0.69531800  0.57450000  0.74448300  1
  H  H30  1  0.30468200  0.42550000  0.25551700  1
  H  H31  1  0.67929800  0.52632800  0.88145400  1
  H  H32  1  0.32070200  0.47367200  0.11854600  1
  H  H33  1  0.53521800  0.61243700  0.79753400  1
  H  H34  1  0.46478200  0.38756300  0.20246600  1
  H  H35  1  0.51379000  0.76162900  0.94816500  1
  H  H36  1  0.48621000  0.23837100  0.05183500  1
  H  H37  1  0.67525900  0.67488900  0.00613400  1
  H  H38  1  0.32474100  0.32511100  0.99386600  1
  H  H39  1  0.63285000  0.86753500  0.97885600  1
  H  H40  1  0.36715000  0.13246500  0.02114400  1
  H  H41  1  0.83691700  0.30760000  0.39568100  1
  H  H42  1  0.16308300  0.69240000  0.60431900  1
  H  H43  1  0.26235600  0.87652000  0.96369800  1
  H  H44  1  0.73764400  0.12348000  0.03630200  1
  H  H45  1  0.20707700  0.05725400  0.91734000  1
  H  H46  1  0.79292300  0.94274600  0.08266000  1
  H  H47  1  0.83520400  0.38089200  0.26669900  1
  H  H48  1  0.16479600  0.61910800  0.73330100  1
  Br  Br49  1  0.42221500  0.32837600  0.72320400  1
  Br  Br50  1  0.57778500  0.67162400  0.27679600  1
  Br  Br51  1  0.80683000  0.49697900  0.56217000  1
  Br  Br52  1  0.19317000  0.50302100  0.43783000  1
  Br  Br53  1  0.91168100  0.92799300  0.34707600  1
  Br  Br54  1  0.08831900  0.07200700  0.65292400  1
  Br  Br55  1  0.98856600  0.69988200  0.13158400  1
  Br  Br56  1  0.01143400  0.30011800  0.86841600  1
  Br  Br57  1  0.28820400  0.63885400  0.90846200  1
  Br  Br58  1  0.71179600  0.36114600  0.09153800  1
  Br  Br59  1  0.42516500  0.78003300  0.53012200  1
  Br  Br60  1  0.57483500  0.21996700  0.46987800  1
  N  N61  1  0.77450200  0.85617500  0.64415100  1
  N  N62  1  0.22549800  0.14382500  0.35584900  1
  N  N63  1  0.50163400  0.92675000  0.73638900  1
  N  N64  1  0.49836600  0.07325000  0.26361100  1
  N  N65  1  0.90119100  0.72089500  0.85938200  1
  N  N66  1  0.09880900  0.27910500  0.14061800  1
  N  N67  1  0.75778400  0.02837400  0.79017300  1
  N  N68  1  0.24221600  0.97162600  0.20982700  1
  N  N69  1  0.64762800  0.61218500  0.80497900  1
  N  N70  1  0.35237200  0.38781500  0.19502100  1
  N  N71  1  0.62367700  0.77816200  0.94876900  1
  N  N72  1  0.37632300  0.22183800  0.05123100  1
  O  O73  1  0.89500200  0.36840400  0.33353300  1
  O  O74  1  0.10499800  0.63159600  0.66646700  1
  O  O75  1  0.28068500  0.97808100  0.96890800  1
  O  O76  1  0.71931500  0.02191900  0.03109200  1
