# generated using pymatgen
data_InAgP2O7
_symmetry_space_group_name_H-M   'P 1'
_cell_length_a   8.41253500
_cell_length_b   7.60782300
_cell_length_c   10.00021619
_cell_angle_alpha   68.06733300
_cell_angle_beta   90.00000000
_cell_angle_gamma   90.00000000
_symmetry_Int_Tables_number   1
_chemical_formula_structural   InAgP2O7
_chemical_formula_sum   'In4 Ag4 P8 O28'
_cell_volume   593.70183314
_cell_formula_units_Z   4
loop_
 _symmetry_equiv_pos_site_id
 _symmetry_equiv_pos_as_xyz
  1  'x, y, z'
loop_
 _atom_site_type_symbol
 _atom_site_label
 _atom_site_symmetry_multiplicity
 _atom_site_fract_x
 _atom_site_fract_y
 _atom_site_fract_z
 _atom_site_occupancy
  In  In0  1  0.99519800  0.75729700  0.74761100  1
  In  In1  1  0.49519800  0.24270300  0.75238900  1
  In  In2  1  0.00480200  0.24270300  0.25238900  1
  In  In3  1  0.50480200  0.75729700  0.24761100  1
  Ag  Ag4  1  0.02715600  0.20899000  0.80478500  1
  Ag  Ag5  1  0.52715600  0.79101000  0.69521500  1
  Ag  Ag6  1  0.97284400  0.79101000  0.19521500  1
  Ag  Ag7  1  0.47284400  0.20899000  0.30478500  1
  P  P8  1  0.24763400  0.42349200  0.96071700  1
  P  P9  1  0.74763400  0.57650800  0.53928300  1
  P  P10  1  0.75236600  0.57650800  0.03928300  1
  P  P11  1  0.25236600  0.42349200  0.46071700  1
  P  P12  1  0.28746700  0.82376200  0.95158200  1
  P  P13  1  0.78746700  0.17623800  0.54841800  1
  P  P14  1  0.71253300  0.17623800  0.04841800  1
  P  P15  1  0.21253300  0.82376200  0.45158200  1
  O  O16  1  0.36714200  0.31983600  0.90498600  1
  O  O17  1  0.86714200  0.68016400  0.59501400  1
  O  O18  1  0.63285800  0.68016400  0.09501400  1
  O  O19  1  0.13285800  0.31983600  0.40498600  1
  O  O20  1  0.21615900  0.31713800  0.12149300  1
  O  O21  1  0.71615900  0.68286200  0.37850700  1
  O  O22  1  0.78384100  0.68286200  0.87850700  1
  O  O23  1  0.28384100  0.31713800  0.62149300  1
  O  O24  1  0.09332400  0.47490600  0.86954600  1
  O  O25  1  0.59332400  0.52509400  0.63045400  1
  O  O26  1  0.90667600  0.52509400  0.13045400  1
  O  O27  1  0.40667600  0.47490600  0.36954600  1
  O  O28  1  0.41097300  0.95449100  0.85101700  1
  O  O29  1  0.91097300  0.04550900  0.64898300  1
  O  O30  1  0.58902700  0.04550900  0.14898300  1
  O  O31  1  0.08902700  0.95449100  0.35101700  1
  O  O32  1  0.29573700  0.80837200  0.10826800  1
  O  O33  1  0.79573700  0.19162800  0.39173200  1
  O  O34  1  0.70426300  0.19162800  0.89173200  1
  O  O35  1  0.20426300  0.80837200  0.60826800  1
  O  O36  1  0.11466500  0.86754300  0.89584400  1
  O  O37  1  0.61466500  0.13245700  0.60415600  1
  O  O38  1  0.88533500  0.13245700  0.10415600  1
  O  O39  1  0.38533500  0.86754300  0.39584400  1
  O  O40  1  0.33507600  0.62150800  0.94239800  1
  O  O41  1  0.83507600  0.37849200  0.55760200  1
  O  O42  1  0.66492400  0.37849200  0.05760200  1
  O  O43  1  0.16492400  0.62150800  0.44239800  1
