# generated using pymatgen
data_DyTeAs
_symmetry_space_group_name_H-M   'P 1'
_cell_length_a   4.07224400
_cell_length_b   7.54767700
_cell_length_c   9.95086500
_cell_angle_alpha   90.00000000
_cell_angle_beta   90.00000000
_cell_angle_gamma   90.00000000
_symmetry_Int_Tables_number   1
_chemical_formula_structural   DyTeAs
_chemical_formula_sum   'Dy4 Te4 As4'
_cell_volume   305.84961128
_cell_formula_units_Z   4
loop_
 _symmetry_equiv_pos_site_id
 _symmetry_equiv_pos_as_xyz
  1  'x, y, z'
loop_
 _atom_site_type_symbol
 _atom_site_label
 _atom_site_symmetry_multiplicity
 _atom_site_fract_x
 _atom_site_fract_y
 _atom_site_fract_z
 _atom_site_occupancy
  Dy  Dy0  1  0.25000000  0.73077100  0.84124000  1
  Dy  Dy1  1  0.75000000  0.26922900  0.15876000  1
  Dy  Dy2  1  0.75000000  0.76922900  0.34124000  1
  Dy  Dy3  1  0.25000000  0.23077100  0.65876000  1
  Te  Te4  1  0.25000000  0.58579700  0.14807200  1
  Te  Te5  1  0.75000000  0.41420300  0.85192800  1
  Te  Te6  1  0.75000000  0.91420300  0.64807200  1
  Te  Te7  1  0.25000000  0.08579700  0.35192800  1
  As  As8  1  0.25000000  0.59747500  0.53967600  1
  As  As9  1  0.75000000  0.40252500  0.46032400  1
  As  As10  1  0.75000000  0.90252500  0.03967600  1
  As  As11  1  0.25000000  0.09747500  0.96032400  1
