# generated using pymatgen
data_La23Mg4Ir7
_symmetry_space_group_name_H-M   'P 1'
_cell_length_a   10.23051845
_cell_length_b   10.23051845
_cell_length_c   23.12602400
_cell_angle_alpha   90.00000000
_cell_angle_beta   90.00000000
_cell_angle_gamma   120.00000290
_symmetry_Int_Tables_number   1
_chemical_formula_structural   La23Mg4Ir7
_chemical_formula_sum   'La46 Mg8 Ir14'
_cell_volume   2096.17181291
_cell_formula_units_Z   2
loop_
 _symmetry_equiv_pos_site_id
 _symmetry_equiv_pos_as_xyz
  1  'x, y, z'
loop_
 _atom_site_type_symbol
 _atom_site_label
 _atom_site_symmetry_multiplicity
 _atom_site_fract_x
 _atom_site_fract_y
 _atom_site_fract_z
 _atom_site_occupancy
  La  La0  1  0.20792900  0.41585800  0.71840500  1
  La  La1  1  0.20792900  0.79207100  0.71840500  1
  La  La2  1  0.79207100  0.58414200  0.21840500  1
  La  La3  1  0.58414200  0.79207100  0.71840500  1
  La  La4  1  0.79207100  0.20792900  0.21840500  1
  La  La5  1  0.41585800  0.20792900  0.21840500  1
  La  La6  1  0.79230200  0.58460500  0.94846800  1
  La  La7  1  0.79230200  0.20769800  0.94846800  1
  La  La8  1  0.20769800  0.41539500  0.44846800  1
  La  La9  1  0.41539500  0.20769800  0.94846800  1
  La  La10  1  0.20769800  0.79230200  0.44846800  1
  La  La11  1  0.58460500  0.79230200  0.44846800  1
  La  La12  1  0.20928600  0.41857200  0.99099000  1
  La  La13  1  0.20928600  0.79071400  0.99099000  1
  La  La14  1  0.79071400  0.58142800  0.49099000  1
  La  La15  1  0.58142800  0.79071400  0.99099000  1
  La  La16  1  0.79071400  0.20928600  0.49099000  1
  La  La17  1  0.41857200  0.20928600  0.49099000  1
  La  La18  1  0.87151300  0.74302700  0.63423900  1
  La  La19  1  0.87151300  0.12848700  0.63423900  1
  La  La20  1  0.12848700  0.25697300  0.13423900  1
  La  La21  1  0.25697300  0.12848700  0.63423900  1
  La  La22  1  0.12848700  0.87151300  0.13423900  1
  La  La23  1  0.74302700  0.87151300  0.13423900  1
  La  La24  1  0.45969400  0.91938800  0.85588800  1
  La  La25  1  0.45969400  0.54030600  0.85588800  1
  La  La26  1  0.54030600  0.08061200  0.35588800  1
  La  La27  1  0.08061200  0.54030600  0.85588800  1
  La  La28  1  0.54030600  0.45969400  0.35588800  1
  La  La29  1  0.91938800  0.45969400  0.35588800  1
  La  La30  1  0.00000000  0.00000000  0.00143400  1
  La  La31  1  0.00000000  0.00000000  0.50143400  1
  La  La32  1  0.45988700  0.91977400  0.58567800  1
  La  La33  1  0.45988700  0.54011300  0.58567800  1
  La  La34  1  0.54011300  0.08022600  0.08567800  1
  La  La35  1  0.08022600  0.54011300  0.58567800  1
  La  La36  1  0.54011300  0.45988700  0.08567800  1
  La  La37  1  0.91977400  0.45988700  0.08567800  1
  La  La38  1  0.79350400  0.58700900  0.78117400  1
  La  La39  1  0.79350400  0.20649600  0.78117400  1
  La  La40  1  0.20649600  0.41299100  0.28117400  1
  La  La41  1  0.41299100  0.20649600  0.78117400  1
  La  La42  1  0.20649600  0.79350400  0.28117400  1
  La  La43  1  0.58700900  0.79350400  0.28117400  1
  La  La44  1  0.66666700  0.33333300  0.64637700  1
  La  La45  1  0.33333300  0.66666700  0.14637700  1
  Mg  Mg46  1  0.00000000  0.00000000  0.75049200  1
  Mg  Mg47  1  0.00000000  0.00000000  0.25049200  1
  Mg  Mg48  1  0.10550100  0.21100200  0.86277400  1
  Mg  Mg49  1  0.10550100  0.89449900  0.86277400  1
  Mg  Mg50  1  0.89449900  0.78899800  0.36277400  1
  Mg  Mg51  1  0.78899800  0.89449900  0.86277400  1
  Mg  Mg52  1  0.89449900  0.10550100  0.36277400  1
  Mg  Mg53  1  0.21100200  0.10550100  0.36277400  1
  Ir  Ir54  1  0.52013000  0.04026100  0.71002800  1
  Ir  Ir55  1  0.52013000  0.47987000  0.71002800  1
  Ir  Ir56  1  0.47987000  0.95973900  0.21002800  1
  Ir  Ir57  1  0.95973900  0.47987000  0.71002800  1
  Ir  Ir58  1  0.47987000  0.52013000  0.21002800  1
  Ir  Ir59  1  0.04026100  0.52013000  0.21002800  1
  Ir  Ir60  1  0.66666700  0.33333300  0.86521400  1
  Ir  Ir61  1  0.33333300  0.66666700  0.36521400  1
  Ir  Ir62  1  0.14417800  0.28835600  0.56342400  1
  Ir  Ir63  1  0.14417800  0.85582200  0.56342400  1
  Ir  Ir64  1  0.85582200  0.71164400  0.06342400  1
  Ir  Ir65  1  0.71164400  0.85582200  0.56342400  1
  Ir  Ir66  1  0.85582200  0.14417800  0.06342400  1
  Ir  Ir67  1  0.28835600  0.14417800  0.06342400  1
