# generated using pymatgen
data_NaVAsO5
_symmetry_space_group_name_H-M   'P 1'
_cell_length_a   8.87977600
_cell_length_b   6.80704600
_cell_length_c   7.21441715
_cell_angle_alpha   65.38976510
_cell_angle_beta   90.00000000
_cell_angle_gamma   90.00000000
_symmetry_Int_Tables_number   1
_chemical_formula_structural   NaVAsO5
_chemical_formula_sum   'Na4 V4 As4 O20'
_cell_volume   396.46339368
_cell_formula_units_Z   4
loop_
 _symmetry_equiv_pos_site_id
 _symmetry_equiv_pos_as_xyz
  1  'x, y, z'
loop_
 _atom_site_type_symbol
 _atom_site_label
 _atom_site_symmetry_multiplicity
 _atom_site_fract_x
 _atom_site_fract_y
 _atom_site_fract_z
 _atom_site_occupancy
  Na  Na0  1  0.57753100  0.24241000  0.76674900  1
  Na  Na1  1  0.07753100  0.75759000  0.73325100  1
  Na  Na2  1  0.42246900  0.75759000  0.23325100  1
  Na  Na3  1  0.92246900  0.24241000  0.26674900  1
  V  V4  1  0.74165000  0.74429400  0.48283000  1
  V  V5  1  0.24165000  0.25570600  0.01717000  1
  V  V6  1  0.25835000  0.25570600  0.51717000  1
  V  V7  1  0.75835000  0.74429400  0.98283000  1
  As  As8  1  0.56585700  0.24896400  0.25226900  1
  As  As9  1  0.06585700  0.75103600  0.24773100  1
  As  As10  1  0.43414300  0.75103600  0.74773100  1
  As  As11  1  0.93414300  0.24896400  0.75226900  1
  O  O12  1  0.69312300  0.43217600  0.09354800  1
  O  O13  1  0.19312300  0.56782400  0.40645200  1
  O  O14  1  0.30687700  0.56782400  0.90645200  1
  O  O15  1  0.80687700  0.43217600  0.59354800  1
  O  O16  1  0.54124500  0.63551700  0.61967200  1
  O  O17  1  0.04124500  0.36448300  0.88032800  1
  O  O18  1  0.45875500  0.36448300  0.38032800  1
  O  O19  1  0.95875500  0.63551700  0.11967200  1
  O  O20  1  0.69083700  0.75176000  0.24921500  1
  O  O21  1  0.19083700  0.24824000  0.25078500  1
  O  O22  1  0.30916300  0.24824000  0.75078500  1
  O  O23  1  0.80916300  0.75176000  0.74921500  1
  O  O24  1  0.95718400  0.84786300  0.39062200  1
  O  O25  1  0.45718400  0.15213700  0.10937800  1
  O  O26  1  0.04281600  0.15213700  0.60937800  1
  O  O27  1  0.54281600  0.84786300  0.89062200  1
  O  O28  1  0.82031000  0.05237100  0.92284300  1
  O  O29  1  0.32031000  0.94762900  0.57715700  1
  O  O30  1  0.17969000  0.94762900  0.07715700  1
  O  O31  1  0.67969000  0.05237100  0.42284300  1
