# generated using pymatgen
data_Tm2Se3
_symmetry_space_group_name_H-M   'P 1'
_cell_length_a   13.39736184
_cell_length_b   12.78855577
_cell_length_c   7.01370125
_cell_angle_alpha   79.31849936
_cell_angle_beta   69.72130058
_cell_angle_gamma   30.96020006
_symmetry_Int_Tables_number   1
_chemical_formula_structural   Tm2Se3
_chemical_formula_sum   'Tm8 Se12'
_cell_volume   564.08303721
_cell_formula_units_Z   4
loop_
 _symmetry_equiv_pos_site_id
 _symmetry_equiv_pos_as_xyz
  1  'x, y, z'
loop_
 _atom_site_type_symbol
 _atom_site_label
 _atom_site_symmetry_multiplicity
 _atom_site_fract_x
 _atom_site_fract_y
 _atom_site_fract_z
 _atom_site_occupancy
  Tm  Tm0  1  0.33355500  0.33355500  0.16644500  1
  Tm  Tm1  1  0.16644500  0.16644500  0.33355500  1
  Tm  Tm2  1  0.91644500  0.91644500  0.08355500  1
  Tm  Tm3  1  0.08355500  0.08355500  0.91644500  1
  Tm  Tm4  1  0.99768000  0.99768000  0.50232000  1
  Tm  Tm5  1  0.50232000  0.50232000  0.99768000  1
  Tm  Tm6  1  0.25232000  0.25232000  0.74768000  1
  Tm  Tm7  1  0.74768000  0.74768000  0.25232000  1
  Se  Se8  1  0.00777300  0.49222700  0.49222700  1
  Se  Se9  1  0.49222700  0.00777300  0.00777300  1
  Se  Se10  1  0.24222700  0.75777300  0.75777300  1
  Se  Se11  1  0.75777300  0.24222700  0.24222700  1
  Se  Se12  1  0.66370900  0.17392100  0.84197800  1
  Se  Se13  1  0.84197800  0.32039200  0.66370900  1
  Se  Se14  1  0.32039200  0.84197800  0.17392100  1
  Se  Se15  1  0.17392100  0.66370900  0.32039200  1
  Se  Se16  1  0.58629100  0.07607900  0.40802200  1
  Se  Se17  1  0.40802200  0.92960800  0.58629100  1
  Se  Se18  1  0.92960800  0.40802200  0.07607900  1
  Se  Se19  1  0.07607900  0.58629100  0.92960800  1
