# generated using pymatgen
data_KHoS2
_symmetry_space_group_name_H-M   'P 1'
_cell_length_a   7.72380892
_cell_length_b   7.72380892
_cell_length_c   7.72380936
_cell_angle_alpha   30.28895365
_cell_angle_beta   30.28895365
_cell_angle_gamma   30.28895116
_symmetry_Int_Tables_number   1
_chemical_formula_structural   KHoS2
_chemical_formula_sum   'K1 Ho1 S2'
_cell_volume   103.87033491
_cell_formula_units_Z   1
loop_
 _symmetry_equiv_pos_site_id
 _symmetry_equiv_pos_as_xyz
  1  'x, y, z'
loop_
 _atom_site_type_symbol
 _atom_site_label
 _atom_site_symmetry_multiplicity
 _atom_site_fract_x
 _atom_site_fract_y
 _atom_site_fract_z
 _atom_site_occupancy
  K  K0  1  0.50000000  0.50000000  0.50000000  1
  Ho  Ho1  1  0.00000000  0.00000000  0.00000000  1
  S  S2  1  0.73358200  0.73358200  0.73358200  1
  S  S3  1  0.26641800  0.26641800  0.26641800  1
