# generated using pymatgen
data_Ce2(Al3Rh)3
_symmetry_space_group_name_H-M   'P 1'
_cell_length_a   7.63587007
_cell_length_b   7.63587007
_cell_length_c   9.50623600
_cell_angle_alpha   90.00000000
_cell_angle_beta   90.00000000
_cell_angle_gamma   119.40207499
_symmetry_Int_Tables_number   1
_chemical_formula_structural   Ce2(Al3Rh)3
_chemical_formula_sum   'Ce4 Al18 Rh6'
_cell_volume   482.88258187
_cell_formula_units_Z   2
loop_
 _symmetry_equiv_pos_site_id
 _symmetry_equiv_pos_as_xyz
  1  'x, y, z'
loop_
 _atom_site_type_symbol
 _atom_site_label
 _atom_site_symmetry_multiplicity
 _atom_site_fract_x
 _atom_site_fract_y
 _atom_site_fract_z
 _atom_site_occupancy
  Ce  Ce0  1  0.99519000  0.67145200  0.25000000  1
  Ce  Ce1  1  0.00481000  0.32854800  0.75000000  1
  Ce  Ce2  1  0.67145200  0.99519000  0.25000000  1
  Ce  Ce3  1  0.32854800  0.00481000  0.75000000  1
  Al  Al4  1  0.00201500  0.33564600  0.07425000  1
  Al  Al5  1  0.99798500  0.66435400  0.92575000  1
  Al  Al6  1  0.99798500  0.66435400  0.57425000  1
  Al  Al7  1  0.33564600  0.00201500  0.42575000  1
  Al  Al8  1  0.00201500  0.33564600  0.42575000  1
  Al  Al9  1  0.66435400  0.99798500  0.57425000  1
  Al  Al10  1  0.66435400  0.99798500  0.92575000  1
  Al  Al11  1  0.33564600  0.00201500  0.07425000  1
  Al  Al12  1  0.33375100  0.33375100  0.54667900  1
  Al  Al13  1  0.66624900  0.66624900  0.45332100  1
  Al  Al14  1  0.66624900  0.66624900  0.04667900  1
  Al  Al15  1  0.33375100  0.33375100  0.95332100  1
  Al  Al16  1  0.13063900  0.13063900  0.25000000  1
  Al  Al17  1  0.86936100  0.86936100  0.75000000  1
  Al  Al18  1  0.34124900  0.54930400  0.25000000  1
  Al  Al19  1  0.65875100  0.45069600  0.75000000  1
  Al  Al20  1  0.54930400  0.34124900  0.25000000  1
  Al  Al21  1  0.45069600  0.65875100  0.75000000  1
  Rh  Rh22  1  0.67141700  0.32858300  0.00000000  1
  Rh  Rh23  1  0.32858300  0.67141700  0.00000000  1
  Rh  Rh24  1  0.32858300  0.67141700  0.50000000  1
  Rh  Rh25  1  0.67141700  0.32858300  0.50000000  1
  Rh  Rh26  1  0.00000000  0.00000000  0.00000000  1
  Rh  Rh27  1  0.00000000  0.00000000  0.50000000  1
