# generated using pymatgen
data_DyMg149
_symmetry_space_group_name_H-M   'P 1'
_cell_length_a   16.01173744
_cell_length_b   16.01174304
_cell_length_c   15.64141407
_cell_angle_alpha   90.00000000
_cell_angle_beta   90.00000000
_cell_angle_gamma   120.00001158
_symmetry_Int_Tables_number   1
_chemical_formula_structural   DyMg149
_chemical_formula_sum   'Dy1 Mg149'
_cell_volume   3472.83112990
_cell_formula_units_Z   1
loop_
 _symmetry_equiv_pos_site_id
 _symmetry_equiv_pos_as_xyz
  1  'x, y, z'
loop_
 _atom_site_type_symbol
 _atom_site_label
 _atom_site_symmetry_multiplicity
 _atom_site_fract_x
 _atom_site_fract_y
 _atom_site_fract_z
 _atom_site_occupancy
  Dy  Dy0  1  -0.00000000  -0.00000000  -0.00000000  1
  Mg  Mg1  1  0.60007194  0.20014388  -0.00000000  1
  Mg  Mg2  1  0.79937626  0.20062374  -0.00000000  1
  Mg  Mg3  1  0.40124748  0.20062374  -0.00000000  1
  Mg  Mg4  1  0.00282224  0.20487204  -0.00000000  1
  Mg  Mg5  1  0.20204980  0.20487204  -0.00000000  1
  Mg  Mg6  1  0.00015015  0.40022882  -0.00000000  1
  Mg  Mg7  1  0.40007867  0.40022882  -0.00000000  1
  Mg  Mg8  1  0.79985612  0.39992806  -0.00000000  1
  Mg  Mg9  1  0.60007194  0.39992806  -0.00000000  1
  Mg  Mg10  1  0.20156965  0.40313930  -0.00000000  1
  Mg  Mg11  1  0.79937626  0.59875252  -0.00000000  1
  Mg  Mg12  1  0.20050195  0.60025097  -0.00000000  1
  Mg  Mg13  1  0.39974903  0.60025097  -0.00000000  1
  Mg  Mg14  1  0.00015015  0.59992133  -0.00000000  1
  Mg  Mg15  1  0.59977018  0.59992133  -0.00000000  1
  Mg  Mg16  1  0.20156965  0.79843035  -0.00000000  1
  Mg  Mg17  1  0.59686070  0.79843035  -0.00000000  1
  Mg  Mg18  1  0.00282224  0.79795020  -0.00000000  1
  Mg  Mg19  1  0.79512796  0.79795020  -0.00000000  1
  Mg  Mg20  1  0.39974903  0.79949805  -0.00000000  1
  Mg  Mg21  1  0.79512796  0.99717776  -0.00000000  1
  Mg  Mg22  1  0.20204980  0.99717776  -0.00000000  1
  Mg  Mg23  1  0.40007867  0.99984885  -0.00000000  1
  Mg  Mg24  1  0.59977018  0.99984985  -0.00000000  1
  Mg  Mg25  1  0.26403557  0.13201829  0.16470269  1
  Mg  Mg26  1  0.86798171  0.13201829  0.16470269  1
  Mg  Mg27  1  0.86798171  0.73596443  0.16470269  1
  Mg  Mg28  1  0.66666600  0.33333300  0.16606477  1
  Mg  Mg29  1  0.46566410  0.13301219  0.16652497  1
  Mg  Mg30  1  0.66734708  0.13301219  0.16652497  1
  Mg  Mg31  1  0.46566410  0.33265292  0.16652497  1
  Mg  Mg32  1  0.86698781  0.33265292  0.16652497  1
  Mg  Mg33  1  0.66734708  0.53433490  0.16652497  1
  Mg  Mg34  1  0.86698781  0.53433490  0.16652497  1
  Mg  Mg35  1  0.06674004  0.53336952  0.16725694  1
  Mg  Mg36  1  0.46662948  0.53337052  0.16725694  1
  Mg  Mg37  1  0.46662948  0.93325996  0.16725694  1
  Mg  Mg38  1  0.26713333  0.53426466  0.16731466  1
  Mg  Mg39  1  0.46573434  0.73286767  0.16731466  1
  Mg  Mg40  1  0.26713333  0.73286767  0.16731466  1
  Mg  Mg41  1  0.26751810  0.33554650  0.16766830  1
  Mg  Mg42  1  0.06802840  0.33554650  0.16766830  1
  Mg  Mg43  1  0.06802840  0.73248190  0.16766830  1
  Mg  Mg44  1  0.66445350  0.73248190  0.16766830  1
  Mg  Mg45  1  0.26751810  0.93197060  0.16766830  1
  Mg  Mg46  1  0.66445350  0.93197160  0.16766830  1
  Mg  Mg47  1  0.06797324  0.13594648  0.16962303  1
  Mg  Mg48  1  0.86405352  0.93202676  0.16962303  1
  Mg  Mg49  1  0.06797324  0.93202676  0.16962303  1
  Mg  Mg50  1  0.39967362  0.19983631  0.33279970  1
  Mg  Mg51  1  0.80016369  0.19983731  0.33279970  1
  Mg  Mg52  1  0.80016369  0.60032638  0.33279970  1
  Mg  Mg53  1  0.59996694  0.19993387  0.33272886  1
  Mg  Mg54  1  0.59996694  0.40003306  0.33272886  1
  Mg  Mg55  1  0.80006613  0.40003306  0.33272886  1
  Mg  Mg56  1  0.20059361  0.00002072  0.33348134  1
  Mg  Mg57  1  0.79942710  0.00002072  0.33348134  1
  Mg  Mg58  1  0.99997828  0.20057290  0.33348134  1
  Mg  Mg59  1  0.20059361  0.20057290  0.33348134  1
  Mg  Mg60  1  0.99997828  0.79940539  0.33348134  1
  Mg  Mg61  1  0.79942710  0.79940539  0.33348134  1
  Mg  Mg62  1  0.40045331  0.00017693  0.33375096  1
  Mg  Mg63  1  0.59972462  0.00017693  0.33375096  1
  Mg  Mg64  1  0.99982207  0.40027638  0.33375096  1
  Mg  Mg65  1  0.40045331  0.40027638  0.33375096  1
  Mg  Mg66  1  0.99982207  0.59954669  0.33375096  1
  Mg  Mg67  1  0.59972462  0.59954669  0.33375096  1
  Mg  Mg68  1  0.40010350  0.59989550  0.33362076  1
  Mg  Mg69  1  0.19979201  0.59989550  0.33362076  1
  Mg  Mg70  1  0.40010350  0.80020799  0.33362076  1
  Mg  Mg71  1  0.20019035  0.40038070  0.33413538  1
  Mg  Mg72  1  0.20019035  0.79980865  0.33413538  1
  Mg  Mg73  1  0.59961930  0.79980965  0.33413538  1
  Mg  Mg74  1  -0.00000000  -0.00000000  0.33477093  1
  Mg  Mg75  1  0.26716516  0.13358308  0.50000000  1
  Mg  Mg76  1  0.86641692  0.13358308  0.50000000  1
  Mg  Mg77  1  0.06679638  0.13359175  0.50000000  1
  Mg  Mg78  1  0.46699172  0.13412977  0.50000000  1
  Mg  Mg79  1  0.66713905  0.13413077  0.50000000  1
  Mg  Mg80  1  0.46699172  0.33286095  0.50000000  1
  Mg  Mg81  1  0.86587023  0.33286095  0.50000000  1
  Mg  Mg82  1  0.66666600  0.33333300  0.50000000  1
  Mg  Mg83  1  0.06685662  0.33357560  0.50000000  1
  Mg  Mg84  1  0.26671898  0.33357560  0.50000000  1
  Mg  Mg85  1  0.66713905  0.53300828  0.50000000  1
  Mg  Mg86  1  0.86587023  0.53300828  0.50000000  1
  Mg  Mg87  1  0.06601803  0.53300902  0.50000000  1
  Mg  Mg88  1  0.46699098  0.53300902  0.50000000  1
  Mg  Mg89  1  0.26676892  0.53353684  0.50000000  1
  Mg  Mg90  1  0.86641692  0.73283484  0.50000000  1
  Mg  Mg91  1  0.06685662  0.73328102  0.50000000  1
  Mg  Mg92  1  0.66642440  0.73328102  0.50000000  1
  Mg  Mg93  1  0.46646316  0.73323108  0.50000000  1
  Mg  Mg94  1  0.26676892  0.73323108  0.50000000  1
  Mg  Mg95  1  0.06679638  0.93320362  0.50000000  1
  Mg  Mg96  1  0.86640825  0.93320362  0.50000000  1
  Mg  Mg97  1  0.26671898  0.93314338  0.50000000  1
  Mg  Mg98  1  0.66642440  0.93314338  0.50000000  1
  Mg  Mg99  1  0.46699098  0.93398297  0.50000000  1
  Mg  Mg100  1  -0.00000000  -0.00000000  0.66522907  1
  Mg  Mg101  1  0.20019035  0.40038070  0.66586462  1
  Mg  Mg102  1  0.20019035  0.79980865  0.66586462  1
  Mg  Mg103  1  0.59961930  0.79980965  0.66586462  1
  Mg  Mg104  1  0.40010350  0.59989550  0.66637924  1
  Mg  Mg105  1  0.19979201  0.59989550  0.66637924  1
  Mg  Mg106  1  0.40010350  0.80020799  0.66637924  1
  Mg  Mg107  1  0.40045331  0.00017693  0.66624904  1
  Mg  Mg108  1  0.59972462  0.00017693  0.66624904  1
  Mg  Mg109  1  0.99982207  0.40027638  0.66624904  1
  Mg  Mg110  1  0.40045331  0.40027638  0.66624904  1
  Mg  Mg111  1  0.99982207  0.59954669  0.66624904  1
  Mg  Mg112  1  0.59972462  0.59954669  0.66624904  1
  Mg  Mg113  1  0.20059361  0.00002072  0.66651866  1
  Mg  Mg114  1  0.79942710  0.00002072  0.66651866  1
  Mg  Mg115  1  0.99997828  0.20057290  0.66651866  1
  Mg  Mg116  1  0.20059361  0.20057290  0.66651866  1
  Mg  Mg117  1  0.99997828  0.79940539  0.66651866  1
  Mg  Mg118  1  0.79942710  0.79940539  0.66651866  1
  Mg  Mg119  1  0.59996694  0.19993387  0.66727114  1
  Mg  Mg120  1  0.59996694  0.40003306  0.66727114  1
  Mg  Mg121  1  0.80006613  0.40003306  0.66727114  1
  Mg  Mg122  1  0.39967362  0.19983631  0.66720030  1
  Mg  Mg123  1  0.80016369  0.19983731  0.66720030  1
  Mg  Mg124  1  0.80016369  0.60032638  0.66720030  1
  Mg  Mg125  1  0.06797324  0.13594648  0.83037697  1
  Mg  Mg126  1  0.86405352  0.93202676  0.83037697  1
  Mg  Mg127  1  0.06797324  0.93202676  0.83037697  1
  Mg  Mg128  1  0.26751810  0.33554650  0.83233170  1
  Mg  Mg129  1  0.06802840  0.33554650  0.83233170  1
  Mg  Mg130  1  0.06802840  0.73248190  0.83233170  1
  Mg  Mg131  1  0.66445350  0.73248190  0.83233170  1
  Mg  Mg132  1  0.26751810  0.93197060  0.83233170  1
  Mg  Mg133  1  0.66445350  0.93197160  0.83233170  1
  Mg  Mg134  1  0.26713333  0.53426466  0.83268534  1
  Mg  Mg135  1  0.46573434  0.73286767  0.83268534  1
  Mg  Mg136  1  0.26713333  0.73286767  0.83268534  1
  Mg  Mg137  1  0.06674004  0.53336952  0.83274306  1
  Mg  Mg138  1  0.46662948  0.53337052  0.83274306  1
  Mg  Mg139  1  0.46662948  0.93325996  0.83274306  1
  Mg  Mg140  1  0.46566410  0.13301219  0.83347503  1
  Mg  Mg141  1  0.66734708  0.13301219  0.83347503  1
  Mg  Mg142  1  0.46566410  0.33265292  0.83347503  1
  Mg  Mg143  1  0.86698781  0.33265292  0.83347503  1
  Mg  Mg144  1  0.66734708  0.53433490  0.83347503  1
  Mg  Mg145  1  0.86698781  0.53433490  0.83347503  1
  Mg  Mg146  1  0.66666600  0.33333300  0.83393423  1
  Mg  Mg147  1  0.26403557  0.13201829  0.83529731  1
  Mg  Mg148  1  0.86798171  0.13201829  0.83529731  1
  Mg  Mg149  1  0.86798171  0.73596443  0.83529731  1
