# generated using pymatgen
data_HoPS4
_symmetry_space_group_name_H-M   'P 1'
_cell_length_a   12.19970077
_cell_length_b   12.19970077
_cell_length_c   12.19970077
_cell_angle_alpha   127.59175370
_cell_angle_beta   127.59175370
_cell_angle_gamma   77.28731047
_symmetry_Int_Tables_number   1
_chemical_formula_structural   HoPS4
_chemical_formula_sum   'Ho8 P8 S32'
_cell_volume   1106.07218810
_cell_formula_units_Z   8
loop_
 _symmetry_equiv_pos_site_id
 _symmetry_equiv_pos_as_xyz
  1  'x, y, z'
loop_
 _atom_site_type_symbol
 _atom_site_label
 _atom_site_symmetry_multiplicity
 _atom_site_fract_x
 _atom_site_fract_y
 _atom_site_fract_z
 _atom_site_occupancy
  Ho  Ho0  1  0.00000000  0.00000000  0.00000000  1
  Ho  Ho1  1  0.75000000  0.25000000  0.50000000  1
  Ho  Ho2  1  0.25000000  0.75000000  0.50000000  1
  Ho  Ho3  1  0.50000000  0.50000000  0.00000000  1
  Ho  Ho4  1  0.75000000  0.75000000  0.00000000  1
  Ho  Ho5  1  0.50000000  0.00000000  0.50000000  1
  Ho  Ho6  1  0.00000000  0.50000000  0.50000000  1
  Ho  Ho7  1  0.25000000  0.25000000  0.00000000  1
  P  P8  1  0.12500000  0.41307400  0.78807400  1
  P  P9  1  0.12500000  0.91307400  0.28807400  1
  P  P10  1  0.66307400  0.87500000  0.28807400  1
  P  P11  1  0.58692600  0.37500000  0.71192600  1
  P  P12  1  0.62500000  0.83692600  0.71192600  1
  P  P13  1  0.62500000  0.33692600  0.21192600  1
  P  P14  1  0.08692600  0.37500000  0.21192600  1
  P  P15  1  0.16307400  0.87500000  0.78807400  1
  S  S16  1  0.48612200  0.20882700  0.45091900  1
  S  S17  1  0.75790800  0.03520200  0.54908100  1
  S  S18  1  0.78520200  0.73612200  0.77729500  1
  S  S19  1  0.95882700  0.00790800  0.22270500  1
  S  S20  1  0.49209200  0.54117300  0.77729500  1
  S  S21  1  0.76387800  0.71479800  0.22270500  1
  S  S22  1  0.29117300  0.01387800  0.54908100  1
  S  S23  1  0.46479800  0.74209200  0.45091900  1
  S  S24  1  0.27953100  0.46919300  0.31820400  1
  S  S25  1  0.21919300  0.40098800  0.68966200  1
  S  S26  1  0.71132700  0.52953100  0.31033800  1
  S  S27  1  0.97046900  0.78867300  0.68966200  1
  S  S28  1  0.09901200  0.28080700  0.31033800  1
  S  S29  1  0.53867300  0.34901200  0.31820400  1
  S  S30  1  0.03080700  0.22046900  0.68179600  1
  S  S31  1  0.15098800  0.96132700  0.68179600  1
  S  S32  1  0.47046900  0.78080700  0.18179600  1
  S  S33  1  0.53080700  0.84901200  0.81033800  1
  S  S34  1  0.03867300  0.72046900  0.18966200  1
  S  S35  1  0.77953100  0.46132700  0.81033800  1
  S  S36  1  0.65098800  0.96919300  0.18966200  1
  S  S37  1  0.21132700  0.90098800  0.18179600  1
  S  S38  1  0.71919300  0.02953100  0.81820400  1
  S  S39  1  0.59901200  0.28867300  0.81820400  1
  S  S40  1  0.99209200  0.21479800  0.95091900  1
  S  S41  1  0.96479800  0.51387800  0.72270500  1
  S  S42  1  0.79117300  0.24209200  0.27729500  1
  S  S43  1  0.25790800  0.70882700  0.72270500  1
  S  S44  1  0.98612200  0.53520200  0.27729500  1
  S  S45  1  0.45882700  0.23612200  0.95091900  1
  S  S46  1  0.28520200  0.50790800  0.04908100  1
  S  S47  1  0.26387800  0.04117300  0.04908100  1
