# generated using pymatgen
data_Dy2Be2SiO7
_symmetry_space_group_name_H-M   'P 1'
_cell_length_a   7.34427100
_cell_length_b   7.34427100
_cell_length_c   4.79225500
_cell_angle_alpha   90.00000000
_cell_angle_beta   90.00000000
_cell_angle_gamma   90.00000000
_symmetry_Int_Tables_number   1
_chemical_formula_structural   Dy2Be2SiO7
_chemical_formula_sum   'Dy4 Be4 Si2 O14'
_cell_volume   258.48616704
_cell_formula_units_Z   2
loop_
 _symmetry_equiv_pos_site_id
 _symmetry_equiv_pos_as_xyz
  1  'x, y, z'
loop_
 _atom_site_type_symbol
 _atom_site_label
 _atom_site_symmetry_multiplicity
 _atom_site_fract_x
 _atom_site_fract_y
 _atom_site_fract_z
 _atom_site_occupancy
  Dy  Dy0  1  0.15867000  0.34133000  0.51040400  1
  Dy  Dy1  1  0.84133000  0.65867000  0.51040400  1
  Dy  Dy2  1  0.65867000  0.15867000  0.48959600  1
  Dy  Dy3  1  0.34133000  0.84133000  0.48959600  1
  Be  Be4  1  0.63603000  0.86397000  0.95900600  1
  Be  Be5  1  0.36397000  0.13603000  0.95900600  1
  Be  Be6  1  0.13603000  0.63603000  0.04099400  1
  Be  Be7  1  0.86397000  0.36397000  0.04099400  1
  Si  Si8  1  0.00000000  0.00000000  0.00000000  1
  Si  Si9  1  0.50000000  0.50000000  0.00000000  1
  O  O10  1  0.00000000  0.50000000  0.18418900  1
  O  O11  1  0.50000000  0.00000000  0.81581100  1
  O  O12  1  0.64048700  0.85951300  0.29126400  1
  O  O13  1  0.35951300  0.14048700  0.29126400  1
  O  O14  1  0.14048700  0.64048700  0.70873600  1
  O  O15  1  0.85951300  0.35951300  0.70873600  1
  O  O16  1  0.08090900  0.83662200  0.19969800  1
  O  O17  1  0.91909100  0.16337800  0.19969800  1
  O  O18  1  0.16337800  0.08090900  0.80030200  1
  O  O19  1  0.41909100  0.33662200  0.80030200  1
  O  O20  1  0.83662200  0.91909100  0.80030200  1
  O  O21  1  0.58090900  0.66337800  0.80030200  1
  O  O22  1  0.33662200  0.58090900  0.19969800  1
  O  O23  1  0.66337800  0.41909100  0.19969800  1
