# generated using pymatgen
data_K2NiH12(SeO7)2
_symmetry_space_group_name_H-M   'P 1'
_cell_length_a   12.48548300
_cell_length_b   6.32775000
_cell_length_c   9.19978314
_cell_angle_alpha   76.08261178
_cell_angle_beta   90.00000000
_cell_angle_gamma   90.00000000
_symmetry_Int_Tables_number   1
_chemical_formula_structural   K2NiH12(SeO7)2
_chemical_formula_sum   'K4 Ni2 H24 Se4 O28'
_cell_volume   705.49187297
_cell_formula_units_Z   2
loop_
 _symmetry_equiv_pos_site_id
 _symmetry_equiv_pos_as_xyz
  1  'x, y, z'
loop_
 _atom_site_type_symbol
 _atom_site_label
 _atom_site_symmetry_multiplicity
 _atom_site_fract_x
 _atom_site_fract_y
 _atom_site_fract_z
 _atom_site_occupancy
  K  K0  1  0.15907300  0.65967200  0.63719500  1
  K  K1  1  0.65907300  0.34032800  0.86280500  1
  K  K2  1  0.84092700  0.34032800  0.36280500  1
  K  K3  1  0.34092700  0.65967200  0.13719500  1
  Ni  Ni4  1  0.50000000  0.00000000  0.50000000  1
  Ni  Ni5  1  0.00000000  0.00000000  0.00000000  1
  H  H6  1  0.41445300  0.68936400  0.70405100  1
  H  H7  1  0.91445300  0.31063600  0.79594900  1
  H  H8  1  0.58554700  0.31063600  0.29594900  1
  H  H9  1  0.08554700  0.68936400  0.20405100  1
  H  H10  1  0.37278300  0.91057000  0.74105800  1
  H  H11  1  0.87278300  0.08943000  0.75894200  1
  H  H12  1  0.62721700  0.08943000  0.25894200  1
  H  H13  1  0.12721700  0.91057000  0.24105800  1
  H  H14  1  0.40494000  0.07298900  0.23470900  1
  H  H15  1  0.90494000  0.92701100  0.26529100  1
  H  H16  1  0.59506000  0.92701100  0.76529100  1
  H  H17  1  0.09506000  0.07298900  0.73470900  1
  H  H18  1  0.31686400  0.99154800  0.36360500  1
  H  H19  1  0.81686400  0.00845200  0.13639500  1
  H  H20  1  0.68313600  0.00845200  0.63639500  1
  H  H21  1  0.18313600  0.99154800  0.86360500  1
  H  H22  1  0.54931700  0.66385700  0.40194200  1
  H  H23  1  0.04931700  0.33614300  0.09805800  1
  H  H24  1  0.45068300  0.33614300  0.59805800  1
  H  H25  1  0.95068300  0.66385700  0.90194200  1
  H  H26  1  0.63710800  0.66546800  0.52816200  1
  H  H27  1  0.13710800  0.33453200  0.97183800  1
  H  H28  1  0.36289200  0.33453200  0.47183800  1
  H  H29  1  0.86289200  0.66546800  0.02816200  1
  Se  Se30  1  0.36320600  0.27304800  0.91166700  1
  Se  Se31  1  0.86320600  0.72695200  0.58833300  1
  Se  Se32  1  0.63679400  0.72695200  0.08833300  1
  Se  Se33  1  0.13679400  0.27304800  0.41166700  1
  O  O34  1  0.25753600  0.43737300  0.91135300  1
  O  O35  1  0.75753600  0.56262700  0.58864700  1
  O  O36  1  0.74246400  0.56262700  0.08864700  1
  O  O37  1  0.24246400  0.43737300  0.41135300  1
  O  O38  1  0.43011200  0.24450000  0.07263500  1
  O  O39  1  0.93011200  0.75550000  0.42736500  1
  O  O40  1  0.56988800  0.75550000  0.92736500  1
  O  O41  1  0.06988800  0.24450000  0.57263500  1
  O  O42  1  0.44556100  0.39435800  0.77198700  1
  O  O43  1  0.94556100  0.60564200  0.72801300  1
  O  O44  1  0.55443900  0.60564200  0.22801300  1
  O  O45  1  0.05443900  0.39435800  0.27198700  1
  O  O46  1  0.32120000  0.02964700  0.88902900  1
  O  O47  1  0.82120000  0.97035300  0.61097100  1
  O  O48  1  0.67880000  0.97035300  0.11097100  1
  O  O49  1  0.17880000  0.02964700  0.38902900  1
  O  O50  1  0.38661600  0.83708300  0.65853000  1
  O  O51  1  0.88661600  0.16291700  0.84147000  1
  O  O52  1  0.61338400  0.16291700  0.34147000  1
  O  O53  1  0.11338400  0.83708300  0.15853000  1
  O  O54  1  0.39184200  0.96767400  0.33351600  1
  O  O55  1  0.89184200  0.03232600  0.16648400  1
  O  O56  1  0.60815800  0.03232600  0.66648400  1
  O  O57  1  0.10815800  0.96767400  0.83351600  1
  O  O58  1  0.56094100  0.70203700  0.49921700  1
  O  O59  1  0.06094100  0.29796300  0.00078300  1
  O  O60  1  0.43905900  0.29796300  0.50078300  1
  O  O61  1  0.93905900  0.70203700  0.99921700  1
