# generated using pymatgen
data_BaFe(Si2O5)2
_symmetry_space_group_name_H-M   'P 1'
_cell_length_a   7.63011300
_cell_length_b   7.63011300
_cell_length_c   16.43668400
_cell_angle_alpha   90.00000000
_cell_angle_beta   90.00000000
_cell_angle_gamma   90.00000000
_symmetry_Int_Tables_number   1
_chemical_formula_structural   BaFe(Si2O5)2
_chemical_formula_sum   'Ba4 Fe4 Si16 O40'
_cell_volume   956.92113206
_cell_formula_units_Z   4
loop_
 _symmetry_equiv_pos_site_id
 _symmetry_equiv_pos_as_xyz
  1  'x, y, z'
loop_
 _atom_site_type_symbol
 _atom_site_label
 _atom_site_symmetry_multiplicity
 _atom_site_fract_x
 _atom_site_fract_y
 _atom_site_fract_z
 _atom_site_occupancy
  Ba  Ba0  1  0.50000000  0.50000000  0.50000000  1
  Ba  Ba1  1  0.00000000  0.00000000  0.50000000  1
  Ba  Ba2  1  0.00000000  0.00000000  0.00000000  1
  Ba  Ba3  1  0.50000000  0.50000000  0.00000000  1
  Fe  Fe4  1  0.50000000  0.00000000  0.59426800  1
  Fe  Fe5  1  0.00000000  0.50000000  0.90573200  1
  Fe  Fe6  1  0.00000000  0.50000000  0.40573200  1
  Fe  Fe7  1  0.50000000  0.00000000  0.09426800  1
  Si  Si8  1  0.18236200  0.26687500  0.65514200  1
  Si  Si9  1  0.81763800  0.73312500  0.65514200  1
  Si  Si10  1  0.26687500  0.18236200  0.84485800  1
  Si  Si11  1  0.76687500  0.31763800  0.65514200  1
  Si  Si12  1  0.23312500  0.68236200  0.65514200  1
  Si  Si13  1  0.31763800  0.76687500  0.84485800  1
  Si  Si14  1  0.68236200  0.23312500  0.84485800  1
  Si  Si15  1  0.73312500  0.81763800  0.84485800  1
  Si  Si16  1  0.31763800  0.23312500  0.34485800  1
  Si  Si17  1  0.68236200  0.76687500  0.34485800  1
  Si  Si18  1  0.23312500  0.31763800  0.15514200  1
  Si  Si19  1  0.73312500  0.18236200  0.34485800  1
  Si  Si20  1  0.26687500  0.81763800  0.34485800  1
  Si  Si21  1  0.18236200  0.73312500  0.15514200  1
  Si  Si22  1  0.81763800  0.26687500  0.15514200  1
  Si  Si23  1  0.76687500  0.68236200  0.15514200  1
  O  O24  1  0.27200300  0.13566400  0.59132200  1
  O  O25  1  0.72799700  0.86433600  0.59132200  1
  O  O26  1  0.13566400  0.27200300  0.90867800  1
  O  O27  1  0.63566400  0.22799700  0.59132200  1
  O  O28  1  0.36433600  0.77200300  0.59132200  1
  O  O29  1  0.22799700  0.63566400  0.90867800  1
  O  O30  1  0.77200300  0.36433600  0.90867800  1
  O  O31  1  0.86433600  0.72799700  0.90867800  1
  O  O32  1  0.22799700  0.36433600  0.40867800  1
  O  O33  1  0.77200300  0.63566400  0.40867800  1
  O  O34  1  0.36433600  0.22799700  0.09132200  1
  O  O35  1  0.86433600  0.27200300  0.40867800  1
  O  O36  1  0.13566400  0.72799700  0.40867800  1
  O  O37  1  0.27200300  0.86433600  0.09132200  1
  O  O38  1  0.72799700  0.13566400  0.09132200  1
  O  O39  1  0.25382800  0.03042500  0.36230500  1
  O  O40  1  0.63566400  0.77200300  0.09132200  1
  O  O41  1  0.75382800  0.53042500  0.63769500  1
  O  O42  1  0.46957500  0.24617200  0.86230500  1
  O  O43  1  0.96957500  0.25382800  0.63769500  1
  O  O44  1  0.03042500  0.74617200  0.63769500  1
  O  O45  1  0.25382800  0.96957500  0.86230500  1
  O  O46  1  0.74617200  0.03042500  0.86230500  1
  O  O47  1  0.53042500  0.75382800  0.86230500  1
  O  O48  1  0.72034600  0.72034600  0.25000000  1
  O  O49  1  0.77965400  0.22034600  0.25000000  1
  O  O50  1  0.22034600  0.77965400  0.25000000  1
  O  O51  1  0.27965400  0.27965400  0.25000000  1
  O  O52  1  0.77965400  0.77965400  0.75000000  1
  O  O53  1  0.72034600  0.27965400  0.75000000  1
  O  O54  1  0.27965400  0.72034600  0.75000000  1
  O  O55  1  0.22034600  0.22034600  0.75000000  1
  O  O56  1  0.96957500  0.74617200  0.13769500  1
  O  O57  1  0.75382800  0.46957500  0.13769500  1
  O  O58  1  0.24617200  0.53042500  0.13769500  1
  O  O59  1  0.46957500  0.75382800  0.36230500  1
  O  O60  1  0.53042500  0.24617200  0.36230500  1
  O  O61  1  0.03042500  0.25382800  0.13769500  1
  O  O62  1  0.74617200  0.96957500  0.36230500  1
  O  O63  1  0.24617200  0.46957500  0.63769500  1
