# generated using pymatgen
data_Dy5Sn4
_symmetry_space_group_name_H-M   'P 1'
_cell_length_a   8.04552100
_cell_length_b   8.14944200
_cell_length_c   15.52918300
_cell_angle_alpha   90.00000000
_cell_angle_beta   90.00000000
_cell_angle_gamma   90.00000000
_symmetry_Int_Tables_number   1
_chemical_formula_structural   Dy5Sn4
_chemical_formula_sum   'Dy20 Sn16'
_cell_volume   1018.19428198
_cell_formula_units_Z   4
loop_
 _symmetry_equiv_pos_site_id
 _symmetry_equiv_pos_as_xyz
  1  'x, y, z'
loop_
 _atom_site_type_symbol
 _atom_site_label
 _atom_site_symmetry_multiplicity
 _atom_site_fract_x
 _atom_site_fract_y
 _atom_site_fract_z
 _atom_site_occupancy
  Dy  Dy0  1  0.36762000  0.83529200  0.87858500  1
  Dy  Dy1  1  0.86762000  0.66470800  0.62141500  1
  Dy  Dy2  1  0.63238000  0.16470800  0.37858500  1
  Dy  Dy3  1  0.13238000  0.33529200  0.12141500  1
  Dy  Dy4  1  0.63238000  0.16470800  0.12141500  1
  Dy  Dy5  1  0.13238000  0.33529200  0.37858500  1
  Dy  Dy6  1  0.36762000  0.83529200  0.62141500  1
  Dy  Dy7  1  0.86762000  0.66470800  0.87858500  1
  Dy  Dy8  1  0.52175800  0.31952000  0.90241500  1
  Dy  Dy9  1  0.02175800  0.18048000  0.59758500  1
  Dy  Dy10  1  0.47824200  0.68048000  0.40241500  1
  Dy  Dy11  1  0.97824200  0.81952000  0.09758500  1
  Dy  Dy12  1  0.47824200  0.68048000  0.09758500  1
  Dy  Dy13  1  0.97824200  0.81952000  0.40241500  1
  Dy  Dy14  1  0.52175800  0.31952000  0.59758500  1
  Dy  Dy15  1  0.02175800  0.18048000  0.90241500  1
  Dy  Dy16  1  0.19718200  0.50306800  0.75000000  1
  Dy  Dy17  1  0.69718200  0.99693200  0.75000000  1
  Dy  Dy18  1  0.80281800  0.49693200  0.25000000  1
  Dy  Dy19  1  0.30281800  0.00306800  0.25000000  1
  Sn  Sn20  1  0.29159200  0.03337800  0.04184400  1
  Sn  Sn21  1  0.79159200  0.46662200  0.45815600  1
  Sn  Sn22  1  0.70840800  0.96662200  0.54184400  1
  Sn  Sn23  1  0.20840800  0.53337800  0.95815600  1
  Sn  Sn24  1  0.70840800  0.96662200  0.95815600  1
  Sn  Sn25  1  0.20840800  0.53337800  0.54184400  1
  Sn  Sn26  1  0.29159200  0.03337800  0.45815600  1
  Sn  Sn27  1  0.79159200  0.46662200  0.04184400  1
  Sn  Sn28  1  0.56521600  0.61965800  0.75000000  1
  Sn  Sn29  1  0.06521600  0.88034200  0.75000000  1
  Sn  Sn30  1  0.43478400  0.38034200  0.25000000  1
  Sn  Sn31  1  0.93478400  0.11965800  0.25000000  1
  Sn  Sn32  1  0.32877800  0.14534100  0.75000000  1
  Sn  Sn33  1  0.82877800  0.35465900  0.75000000  1
  Sn  Sn34  1  0.67122200  0.85465900  0.25000000  1
  Sn  Sn35  1  0.17122200  0.64534100  0.25000000  1
