# generated using pymatgen
data_Li(YGe)4
_symmetry_space_group_name_H-M   'P 1'
_cell_length_a   7.17636200
_cell_length_b   7.75276300
_cell_length_c   14.74935400
_cell_angle_alpha   90.00000000
_cell_angle_beta   90.00000000
_cell_angle_gamma   90.00000000
_symmetry_Int_Tables_number   1
_chemical_formula_structural   Li(YGe)4
_chemical_formula_sum   'Li4 Y16 Ge16'
_cell_volume   820.60440711
_cell_formula_units_Z   4
loop_
 _symmetry_equiv_pos_site_id
 _symmetry_equiv_pos_as_xyz
  1  'x, y, z'
loop_
 _atom_site_type_symbol
 _atom_site_label
 _atom_site_symmetry_multiplicity
 _atom_site_fract_x
 _atom_site_fract_y
 _atom_site_fract_z
 _atom_site_occupancy
  Li  Li0  1  0.15897000  0.52212900  0.75000000  1
  Li  Li1  1  0.84103000  0.47787100  0.25000000  1
  Li  Li2  1  0.34103000  0.02212900  0.25000000  1
  Li  Li3  1  0.65897000  0.97787100  0.75000000  1
  Y  Y4  1  0.32819800  0.17611800  0.62799800  1
  Y  Y5  1  0.67180200  0.82388200  0.37200200  1
  Y  Y6  1  0.17180200  0.67611800  0.37200200  1
  Y  Y7  1  0.67180200  0.82388200  0.12799800  1
  Y  Y8  1  0.82819800  0.32388200  0.62799800  1
  Y  Y9  1  0.32819800  0.17611800  0.87200200  1
  Y  Y10  1  0.82819800  0.32388200  0.87200200  1
  Y  Y11  1  0.17180200  0.67611800  0.12799800  1
  Y  Y12  1  0.01477000  0.18641300  0.09742400  1
  Y  Y13  1  0.98523000  0.81358700  0.90257600  1
  Y  Y14  1  0.48523000  0.68641300  0.90257600  1
  Y  Y15  1  0.98523000  0.81358700  0.59742400  1
  Y  Y16  1  0.51477000  0.31358700  0.09742400  1
  Y  Y17  1  0.01477000  0.18641300  0.40257600  1
  Y  Y18  1  0.51477000  0.31358700  0.40257600  1
  Y  Y19  1  0.48523000  0.68641300  0.59742400  1
  Ge  Ge20  1  0.01822800  0.08660200  0.75000000  1
  Ge  Ge21  1  0.98177200  0.91339800  0.25000000  1
  Ge  Ge22  1  0.48177200  0.58660200  0.25000000  1
  Ge  Ge23  1  0.51822800  0.41339800  0.75000000  1
  Ge  Ge24  1  0.28326100  0.86362200  0.75000000  1
  Ge  Ge25  1  0.71673900  0.13637800  0.25000000  1
  Ge  Ge26  1  0.21673900  0.36362200  0.25000000  1
  Ge  Ge27  1  0.78326100  0.63637800  0.75000000  1
  Ge  Ge28  1  0.16626400  0.46611200  0.53691000  1
  Ge  Ge29  1  0.83373600  0.53388800  0.46309000  1
  Ge  Ge30  1  0.33373600  0.96611200  0.46309000  1
  Ge  Ge31  1  0.83373600  0.53388800  0.03691000  1
  Ge  Ge32  1  0.66626400  0.03388800  0.53691000  1
  Ge  Ge33  1  0.16626400  0.46611200  0.96309000  1
  Ge  Ge34  1  0.66626400  0.03388800  0.96309000  1
  Ge  Ge35  1  0.33373600  0.96611200  0.03691000  1
