# generated using pymatgen
data_Yb2(Ga3Co)3
_symmetry_space_group_name_H-M   'P 1'
_cell_length_a   7.32068366
_cell_length_b   7.32068366
_cell_length_c   9.56059800
_cell_angle_alpha   90.00000000
_cell_angle_beta   90.00000000
_cell_angle_gamma   119.56203337
_symmetry_Int_Tables_number   1
_chemical_formula_structural   Yb2(Ga3Co)3
_chemical_formula_sum   'Yb4 Ga18 Co6'
_cell_volume   445.67548887
_cell_formula_units_Z   2
loop_
 _symmetry_equiv_pos_site_id
 _symmetry_equiv_pos_as_xyz
  1  'x, y, z'
loop_
 _atom_site_type_symbol
 _atom_site_label
 _atom_site_symmetry_multiplicity
 _atom_site_fract_x
 _atom_site_fract_y
 _atom_site_fract_z
 _atom_site_occupancy
  Yb  Yb0  1  0.33110400  0.00295600  0.25000000  1
  Yb  Yb1  1  0.99704400  0.66889600  0.75000000  1
  Yb  Yb2  1  0.66889600  0.99704400  0.75000000  1
  Yb  Yb3  1  0.00295600  0.33110400  0.25000000  1
  Ga  Ga4  1  0.33406300  0.00132200  0.93168900  1
  Ga  Ga5  1  0.99867800  0.66593700  0.06831100  1
  Ga  Ga6  1  0.33406300  0.00132200  0.56831100  1
  Ga  Ga7  1  0.99867800  0.66593700  0.43168900  1
  Ga  Ga8  1  0.66593700  0.99867800  0.06831100  1
  Ga  Ga9  1  0.00132200  0.33406300  0.93168900  1
  Ga  Ga10  1  0.66593700  0.99867800  0.43168900  1
  Ga  Ga11  1  0.00132200  0.33406300  0.56831100  1
  Ga  Ga12  1  0.66575700  0.66575700  0.94415200  1
  Ga  Ga13  1  0.33424300  0.33424300  0.05584800  1
  Ga  Ga14  1  0.66575700  0.66575700  0.55584800  1
  Ga  Ga15  1  0.33424300  0.33424300  0.44415200  1
  Ga  Ga16  1  0.11841100  0.11841100  0.75000000  1
  Ga  Ga17  1  0.88158900  0.88158900  0.25000000  1
  Ga  Ga18  1  0.44754700  0.66571300  0.25000000  1
  Ga  Ga19  1  0.33428700  0.55245300  0.75000000  1
  Ga  Ga20  1  0.55245300  0.33428700  0.75000000  1
  Ga  Ga21  1  0.66571300  0.44754700  0.25000000  1
  Co  Co22  1  0.00000000  0.00000000  0.00000000  1
  Co  Co23  1  0.00000000  0.00000000  0.50000000  1
  Co  Co24  1  0.32881600  0.67118400  0.00000000  1
  Co  Co25  1  0.32881600  0.67118400  0.50000000  1
  Co  Co26  1  0.67118400  0.32881600  0.00000000  1
  Co  Co27  1  0.67118400  0.32881600  0.50000000  1
