# generated using pymatgen
data_Hf2Ga3Cu
_symmetry_space_group_name_H-M   'P 1'
_cell_length_a   5.36481184
_cell_length_b   5.36481184
_cell_length_c   6.47575908
_cell_angle_alpha   53.17755657
_cell_angle_beta   53.17755657
_cell_angle_gamma   45.41207928
_symmetry_Int_Tables_number   1
_chemical_formula_structural   Hf2Ga3Cu
_chemical_formula_sum   'Hf2 Ga3 Cu1'
_cell_volume   100.90514964
_cell_formula_units_Z   1
loop_
 _symmetry_equiv_pos_site_id
 _symmetry_equiv_pos_as_xyz
  1  'x, y, z'
loop_
 _atom_site_type_symbol
 _atom_site_label
 _atom_site_symmetry_multiplicity
 _atom_site_fract_x
 _atom_site_fract_y
 _atom_site_fract_z
 _atom_site_occupancy
  Hf  Hf0  1  0.45763800  0.45763800  0.79878500  1
  Hf  Hf1  1  0.54463100  0.54463100  0.20792700  1
  Ga  Ga2  1  0.14958600  0.14958600  0.38518000  1
  Ga  Ga3  1  0.17330200  0.17330200  0.79024400  1
  Ga  Ga4  1  0.84084700  0.84084700  0.20422200  1
  Cu  Cu5  1  0.83399600  0.83399600  0.61364200  1
