# generated using pymatgen
data_Nd3Au4
_symmetry_space_group_name_H-M   'P 1'
_cell_length_a   8.31825021
_cell_length_b   8.31825021
_cell_length_c   8.31825014
_cell_angle_alpha   114.03180631
_cell_angle_beta   114.03180631
_cell_angle_gamma   114.03181031
_symmetry_Int_Tables_number   1
_chemical_formula_structural   Nd3Au4
_chemical_formula_sum   'Nd6 Au8'
_cell_volume   348.86057060
_cell_formula_units_Z   2
loop_
 _symmetry_equiv_pos_site_id
 _symmetry_equiv_pos_as_xyz
  1  'x, y, z'
loop_
 _atom_site_type_symbol
 _atom_site_label
 _atom_site_symmetry_multiplicity
 _atom_site_fract_x
 _atom_site_fract_y
 _atom_site_fract_z
 _atom_site_occupancy
  Nd  Nd0  1  0.72867600  0.60094500  0.98482900  1
  Nd  Nd1  1  0.98482900  0.72867600  0.60094500  1
  Nd  Nd2  1  0.60094500  0.98482900  0.72867600  1
  Nd  Nd3  1  0.27132400  0.39905500  0.01517100  1
  Nd  Nd4  1  0.01517100  0.27132400  0.39905500  1
  Nd  Nd5  1  0.39905500  0.01517100  0.27132400  1
  Au  Au6  1  0.56221100  0.23272900  0.07142000  1
  Au  Au7  1  0.07142000  0.56221100  0.23272900  1
  Au  Au8  1  0.23272900  0.07142000  0.56221100  1
  Au  Au9  1  0.43778900  0.76727100  0.92858000  1
  Au  Au10  1  0.92858000  0.43778900  0.76727100  1
  Au  Au11  1  0.76727100  0.92858000  0.43778900  1
  Au  Au12  1  0.50000000  0.50000000  0.50000000  1
  Au  Au13  1  0.00000000  0.00000000  0.00000000  1
