# generated using pymatgen
data_Y3C4
_symmetry_space_group_name_H-M   'P 1'
_cell_length_a   8.13947000
_cell_length_b   8.13947000
_cell_length_c   16.05321300
_cell_angle_alpha   90.00000000
_cell_angle_beta   90.00000000
_cell_angle_gamma   90.00000000
_symmetry_Int_Tables_number   1
_chemical_formula_structural   Y3C4
_chemical_formula_sum   'Y30 C40'
_cell_volume   1063.54096306
_cell_formula_units_Z   10
loop_
 _symmetry_equiv_pos_site_id
 _symmetry_equiv_pos_as_xyz
  1  'x, y, z'
loop_
 _atom_site_type_symbol
 _atom_site_label
 _atom_site_symmetry_multiplicity
 _atom_site_fract_x
 _atom_site_fract_y
 _atom_site_fract_z
 _atom_site_occupancy
  Y  Y0  1  0.50000000  0.50000000  0.50000000  1
  Y  Y1  1  0.00000000  0.00000000  0.00000000  1
  Y  Y2  1  0.50000000  0.50000000  0.18754700  1
  Y  Y3  1  0.00000000  0.00000000  0.68754700  1
  Y  Y4  1  0.50000000  0.50000000  0.81245300  1
  Y  Y5  1  0.00000000  0.00000000  0.31245300  1
  Y  Y6  1  0.70184300  0.90445200  0.50000000  1
  Y  Y7  1  0.29815700  0.09554800  0.50000000  1
  Y  Y8  1  0.79815700  0.40445200  0.00000000  1
  Y  Y9  1  0.20184300  0.59554800  0.00000000  1
  Y  Y10  1  0.90445200  0.29815700  0.50000000  1
  Y  Y11  1  0.09554800  0.70184300  0.50000000  1
  Y  Y12  1  0.40445200  0.20184300  0.00000000  1
  Y  Y13  1  0.59554800  0.79815700  0.00000000  1
  Y  Y14  1  0.78830000  0.60057100  0.35342300  1
  Y  Y15  1  0.21170000  0.39942900  0.35342300  1
  Y  Y16  1  0.71170000  0.10057100  0.85342300  1
  Y  Y17  1  0.28830000  0.89942900  0.85342300  1
  Y  Y18  1  0.60057100  0.21170000  0.35342300  1
  Y  Y19  1  0.39942900  0.78830000  0.35342300  1
  Y  Y20  1  0.10057100  0.28830000  0.85342300  1
  Y  Y21  1  0.89942900  0.71170000  0.85342300  1
  Y  Y22  1  0.21170000  0.39942900  0.64657700  1
  Y  Y23  1  0.78830000  0.60057100  0.64657700  1
  Y  Y24  1  0.28830000  0.89942900  0.14657700  1
  Y  Y25  1  0.71170000  0.10057100  0.14657700  1
  Y  Y26  1  0.39942900  0.78830000  0.64657700  1
  Y  Y27  1  0.60057100  0.21170000  0.64657700  1
  Y  Y28  1  0.89942900  0.71170000  0.14657700  1
  Y  Y29  1  0.10057100  0.28830000  0.14657700  1
  C  C30  1  0.50000000  0.50000000  0.95935900  1
  C  C31  1  0.00000000  0.00000000  0.45935900  1
  C  C32  1  0.50000000  0.50000000  0.04064100  1
  C  C33  1  0.00000000  0.00000000  0.54064100  1
  C  C34  1  0.50000000  0.50000000  0.34342000  1
  C  C35  1  0.00000000  0.00000000  0.84342000  1
  C  C36  1  0.50000000  0.50000000  0.65658000  1
  C  C37  1  0.00000000  0.00000000  0.15658000  1
  C  C38  1  0.60679700  0.19627600  0.50000000  1
  C  C39  1  0.39320300  0.80372400  0.50000000  1
  C  C40  1  0.89320300  0.69627600  0.00000000  1
  C  C41  1  0.10679700  0.30372400  0.00000000  1
  C  C42  1  0.19627600  0.39320300  0.50000000  1
  C  C43  1  0.80372400  0.60679700  0.50000000  1
  C  C44  1  0.69627600  0.10679700  0.00000000  1
  C  C45  1  0.30372400  0.89320300  0.00000000  1
  C  C46  1  0.69202300  0.90109800  0.32719100  1
  C  C47  1  0.30797700  0.09890200  0.32719100  1
  C  C48  1  0.80797700  0.40109800  0.82719100  1
  C  C49  1  0.19202300  0.59890200  0.82719100  1
  C  C50  1  0.90109800  0.30797700  0.32719100  1
  C  C51  1  0.09890200  0.69202300  0.32719100  1
  C  C52  1  0.40109800  0.19202300  0.82719100  1
  C  C53  1  0.59890200  0.80797700  0.82719100  1
  C  C54  1  0.30797700  0.09890200  0.67280900  1
  C  C55  1  0.69202300  0.90109800  0.67280900  1
  C  C56  1  0.19202300  0.59890200  0.17280900  1
  C  C57  1  0.80797700  0.40109800  0.17280900  1
  C  C58  1  0.09890200  0.69202300  0.67280900  1
  C  C59  1  0.90109800  0.30797700  0.67280900  1
  C  C60  1  0.59890200  0.80797700  0.17280900  1
  C  C61  1  0.40109800  0.19202300  0.17280900  1
  C  C62  1  0.64940200  0.85059800  0.25000000  1
  C  C63  1  0.35059800  0.14940200  0.25000000  1
  C  C64  1  0.85059800  0.35059800  0.75000000  1
  C  C65  1  0.14940200  0.64940200  0.75000000  1
  C  C66  1  0.85059800  0.35059800  0.25000000  1
  C  C67  1  0.14940200  0.64940200  0.25000000  1
  C  C68  1  0.35059800  0.14940200  0.75000000  1
  C  C69  1  0.64940200  0.85059800  0.75000000  1
