# generated using pymatgen
data_Ce2Sn3
_symmetry_space_group_name_H-M   'P 1'
_cell_length_a   6.43826800
_cell_length_b   8.41000023
_cell_length_c   11.16681854
_cell_angle_alpha   106.76587699
_cell_angle_beta   96.67224318
_cell_angle_gamma   100.28602222
_symmetry_Int_Tables_number   1
_chemical_formula_structural   Ce2Sn3
_chemical_formula_sum   'Ce8 Sn12'
_cell_volume   560.53312114
_cell_formula_units_Z   4
loop_
 _symmetry_equiv_pos_site_id
 _symmetry_equiv_pos_as_xyz
  1  'x, y, z'
loop_
 _atom_site_type_symbol
 _atom_site_label
 _atom_site_symmetry_multiplicity
 _atom_site_fract_x
 _atom_site_fract_y
 _atom_site_fract_z
 _atom_site_occupancy
  Ce  Ce0  1  0.33176300  0.03237800  0.74371600  1
  Ce  Ce1  1  0.66823700  0.96762200  0.25628400  1
  Ce  Ce2  1  0.95735500  0.25194500  0.05619900  1
  Ce  Ce3  1  0.04264500  0.74805500  0.94380100  1
  Ce  Ce4  1  0.55950600  0.43156800  0.33769300  1
  Ce  Ce5  1  0.44049400  0.56843200  0.66230700  1
  Ce  Ce6  1  0.12558200  0.75567900  0.38455800  1
  Ce  Ce7  1  0.87441800  0.24432100  0.61544200  1
  Sn  Sn8  1  0.04640100  0.35553600  0.37837200  1
  Sn  Sn9  1  0.95359900  0.64446400  0.62162800  1
  Sn  Sn10  1  0.35924900  0.16652100  0.50074800  1
  Sn  Sn11  1  0.64075100  0.83347900  0.49925200  1
  Sn  Sn12  1  0.43779900  0.17162300  0.05064100  1
  Sn  Sn13  1  0.56220100  0.82837700  0.94935900  1
  Sn  Sn14  1  0.32192800  0.60213300  0.14083100  1
  Sn  Sn15  1  0.67807200  0.39786700  0.85916900  1
  Sn  Sn16  1  0.21903100  0.40409100  0.86319000  1
  Sn  Sn17  1  0.78096900  0.59590900  0.13681000  1
  Sn  Sn18  1  0.17463800  0.03375400  0.22179900  1
  Sn  Sn19  1  0.82536200  0.96624600  0.77820100  1
