# generated using pymatgen
data_Tb3Ga5
_symmetry_space_group_name_H-M   'P 1'
_cell_length_a   6.13774000
_cell_length_b   9.73503500
_cell_length_c   11.49999700
_cell_angle_alpha   90.00000000
_cell_angle_beta   90.00000000
_cell_angle_gamma   90.00000000
_symmetry_Int_Tables_number   1
_chemical_formula_structural   Tb3Ga5
_chemical_formula_sum   'Tb12 Ga20'
_cell_volume   687.13762854
_cell_formula_units_Z   4
loop_
 _symmetry_equiv_pos_site_id
 _symmetry_equiv_pos_as_xyz
  1  'x, y, z'
loop_
 _atom_site_type_symbol
 _atom_site_label
 _atom_site_symmetry_multiplicity
 _atom_site_fract_x
 _atom_site_fract_y
 _atom_site_fract_z
 _atom_site_occupancy
  Tb  Tb0  1  0.84887900  0.75000000  0.07361400  1
  Tb  Tb1  1  0.65112100  0.75000000  0.57361400  1
  Tb  Tb2  1  0.15112100  0.25000000  0.92638600  1
  Tb  Tb3  1  0.34887900  0.25000000  0.42638600  1
  Tb  Tb4  1  0.88954800  0.50921000  0.35195900  1
  Tb  Tb5  1  0.61045200  0.99079000  0.85195900  1
  Tb  Tb6  1  0.11045200  0.00921000  0.64804100  1
  Tb  Tb7  1  0.38954800  0.49079000  0.14804100  1
  Tb  Tb8  1  0.11045200  0.49079000  0.64804100  1
  Tb  Tb9  1  0.38954800  0.00921000  0.14804100  1
  Tb  Tb10  1  0.88954800  0.99079000  0.35195900  1
  Tb  Tb11  1  0.61045200  0.50921000  0.85195900  1
  Ga  Ga12  1  0.87481100  0.05325100  0.09091600  1
  Ga  Ga13  1  0.62518900  0.44674900  0.59091600  1
  Ga  Ga14  1  0.12518900  0.55325100  0.90908400  1
  Ga  Ga15  1  0.37481100  0.94674900  0.40908400  1
  Ga  Ga16  1  0.12518900  0.94674900  0.90908400  1
  Ga  Ga17  1  0.37481100  0.55325100  0.40908400  1
  Ga  Ga18  1  0.87481100  0.44674900  0.09091600  1
  Ga  Ga19  1  0.62518900  0.05325100  0.59091600  1
  Ga  Ga20  1  0.17597100  0.75000000  0.25209300  1
  Ga  Ga21  1  0.32402900  0.75000000  0.75209300  1
  Ga  Ga22  1  0.82402900  0.25000000  0.74790700  1
  Ga  Ga23  1  0.67597100  0.25000000  0.24790700  1
  Ga  Ga24  1  0.37046700  0.75000000  0.00482000  1
  Ga  Ga25  1  0.12953300  0.75000000  0.50482000  1
  Ga  Ga26  1  0.62953300  0.25000000  0.99518000  1
  Ga  Ga27  1  0.87046700  0.25000000  0.49518000  1
  Ga  Ga28  1  0.60210200  0.75000000  0.29882900  1
  Ga  Ga29  1  0.89789800  0.75000000  0.79882900  1
  Ga  Ga30  1  0.39789800  0.25000000  0.70117100  1
  Ga  Ga31  1  0.10210200  0.25000000  0.20117100  1
