# generated using pymatgen
data_Hf3Sb7Pd
_symmetry_space_group_name_H-M   'P 1'
_cell_length_a   3.98499000
_cell_length_b   14.77119900
_cell_length_c   17.59392900
_cell_angle_alpha   90.00000000
_cell_angle_beta   90.00000000
_cell_angle_gamma   90.00000000
_symmetry_Int_Tables_number   1
_chemical_formula_structural   Hf3Sb7Pd
_chemical_formula_sum   'Hf12 Sb28 Pd4'
_cell_volume   1035.63285557
_cell_formula_units_Z   4
loop_
 _symmetry_equiv_pos_site_id
 _symmetry_equiv_pos_as_xyz
  1  'x, y, z'
loop_
 _atom_site_type_symbol
 _atom_site_label
 _atom_site_symmetry_multiplicity
 _atom_site_fract_x
 _atom_site_fract_y
 _atom_site_fract_z
 _atom_site_occupancy
  Hf  Hf0  1  0.25000000  0.31112300  0.84704000  1
  Hf  Hf1  1  0.25000000  0.18887700  0.34704000  1
  Hf  Hf2  1  0.75000000  0.68887700  0.15296000  1
  Hf  Hf3  1  0.75000000  0.81112300  0.65296000  1
  Hf  Hf4  1  0.25000000  0.02996400  0.86924700  1
  Hf  Hf5  1  0.25000000  0.47003600  0.36924700  1
  Hf  Hf6  1  0.75000000  0.97003600  0.13075300  1
  Hf  Hf7  1  0.75000000  0.52996400  0.63075300  1
  Hf  Hf8  1  0.25000000  0.58843700  0.89212900  1
  Hf  Hf9  1  0.25000000  0.91156300  0.39212900  1
  Hf  Hf10  1  0.75000000  0.41156300  0.10787100  1
  Hf  Hf11  1  0.75000000  0.08843700  0.60787100  1
  Sb  Sb12  1  0.25000000  0.19479100  0.51954200  1
  Sb  Sb13  1  0.25000000  0.30520900  0.01954200  1
  Sb  Sb14  1  0.75000000  0.80520900  0.48045800  1
  Sb  Sb15  1  0.75000000  0.69479100  0.98045800  1
  Sb  Sb16  1  0.25000000  0.43032300  0.53664700  1
  Sb  Sb17  1  0.25000000  0.06967700  0.03664700  1
  Sb  Sb18  1  0.75000000  0.56967700  0.46335300  1
  Sb  Sb19  1  0.75000000  0.93032300  0.96335300  1
  Sb  Sb20  1  0.25000000  0.94035200  0.57187700  1
  Sb  Sb21  1  0.25000000  0.55964800  0.07187700  1
  Sb  Sb22  1  0.75000000  0.05964800  0.42812300  1
  Sb  Sb23  1  0.75000000  0.44035200  0.92812300  1
  Sb  Sb24  1  0.25000000  0.67623400  0.59492900  1
  Sb  Sb25  1  0.25000000  0.82376600  0.09492900  1
  Sb  Sb26  1  0.75000000  0.32376600  0.40507100  1
  Sb  Sb27  1  0.75000000  0.17623400  0.90507100  1
  Sb  Sb28  1  0.25000000  0.14791800  0.72816200  1
  Sb  Sb29  1  0.25000000  0.35208200  0.22816200  1
  Sb  Sb30  1  0.75000000  0.85208200  0.27183800  1
  Sb  Sb31  1  0.75000000  0.64791800  0.77183800  1
  Sb  Sb32  1  0.25000000  0.48032800  0.74901300  1
  Sb  Sb33  1  0.25000000  0.01967200  0.24901300  1
  Sb  Sb34  1  0.75000000  0.51967200  0.25098700  1
  Sb  Sb35  1  0.75000000  0.98032800  0.75098700  1
  Sb  Sb36  1  0.25000000  0.82142400  0.78236700  1
  Sb  Sb37  1  0.25000000  0.67857600  0.28236700  1
  Sb  Sb38  1  0.75000000  0.17857600  0.21763300  1
  Sb  Sb39  1  0.75000000  0.32142400  0.71763300  1
  Pd  Pd40  1  0.25000000  0.80961900  0.93445700  1
  Pd  Pd41  1  0.25000000  0.69038100  0.43445700  1
  Pd  Pd42  1  0.75000000  0.19038100  0.06554300  1
  Pd  Pd43  1  0.75000000  0.30961900  0.56554300  1
