# generated using pymatgen
data_RbAuO
_symmetry_space_group_name_H-M   'P 1'
_cell_length_a   7.76632448
_cell_length_b   7.76632448
_cell_length_c   7.76632448
_cell_angle_alpha   98.42961263
_cell_angle_beta   98.42961263
_cell_angle_gamma   134.97607032
_symmetry_Int_Tables_number   1
_chemical_formula_structural   RbAuO
_chemical_formula_sum   'Rb4 Au4 O4'
_cell_volume   306.11927344
_cell_formula_units_Z   4
loop_
 _symmetry_equiv_pos_site_id
 _symmetry_equiv_pos_as_xyz
  1  'x, y, z'
loop_
 _atom_site_type_symbol
 _atom_site_label
 _atom_site_symmetry_multiplicity
 _atom_site_fract_x
 _atom_site_fract_y
 _atom_site_fract_z
 _atom_site_occupancy
  Rb  Rb0  1  0.19329700  0.50000000  0.69329700  1
  Rb  Rb1  1  0.50000000  0.19329700  0.69329700  1
  Rb  Rb2  1  0.50000000  0.80670300  0.30670300  1
  Rb  Rb3  1  0.80670300  0.50000000  0.30670300  1
  Au  Au4  1  0.85162100  0.85162100  0.70324300  1
  Au  Au5  1  0.14837900  0.85162100  0.00000000  1
  Au  Au6  1  0.85162100  0.14837900  0.00000000  1
  Au  Au7  1  0.14837900  0.14837900  0.29675700  1
  O  O8  1  0.71266600  0.00000000  0.71266600  1
  O  O9  1  0.00000000  0.71266600  0.71266600  1
  O  O10  1  0.00000000  0.28733400  0.28733400  1
  O  O11  1  0.28733400  0.00000000  0.28733400  1
