# generated using pymatgen
data_Te3Au
_symmetry_space_group_name_H-M   'P 1'
_cell_length_a   3.13167100
_cell_length_b   3.13167100
_cell_length_c   12.68450200
_cell_angle_alpha   90.00000000
_cell_angle_beta   90.00000000
_cell_angle_gamma   90.00000000
_symmetry_Int_Tables_number   1
_chemical_formula_structural   Te3Au
_chemical_formula_sum   'Te3 Au1'
_cell_volume   124.40151879
_cell_formula_units_Z   1
loop_
 _symmetry_equiv_pos_site_id
 _symmetry_equiv_pos_as_xyz
  1  'x, y, z'
loop_
 _atom_site_type_symbol
 _atom_site_label
 _atom_site_symmetry_multiplicity
 _atom_site_fract_x
 _atom_site_fract_y
 _atom_site_fract_z
 _atom_site_occupancy
  Te  Te0  1  0.00000000  0.00000000  0.20838500  1
  Te  Te1  1  0.00000000  0.00000000  0.50000000  1
  Te  Te2  1  0.00000000  0.00000000  0.79161500  1
  Au  Au3  1  0.00000000  0.00000000  0.00000000  1
