# generated using pymatgen
data_PPd3
_symmetry_space_group_name_H-M   'P 1'
_cell_length_a   5.26246300
_cell_length_b   6.05427500
_cell_length_c   7.55283200
_cell_angle_alpha   90.00000000
_cell_angle_beta   90.00000000
_cell_angle_gamma   90.00000000
_symmetry_Int_Tables_number   1
_chemical_formula_structural   PPd3
_chemical_formula_sum   'P4 Pd12'
_cell_volume   240.63623490
_cell_formula_units_Z   4
loop_
 _symmetry_equiv_pos_site_id
 _symmetry_equiv_pos_as_xyz
  1  'x, y, z'
loop_
 _atom_site_type_symbol
 _atom_site_label
 _atom_site_symmetry_multiplicity
 _atom_site_fract_x
 _atom_site_fract_y
 _atom_site_fract_z
 _atom_site_occupancy
  P  P0  1  0.45742000  0.88162800  0.25000000  1
  P  P1  1  0.95742000  0.61837200  0.75000000  1
  P  P2  1  0.04258000  0.38162800  0.25000000  1
  P  P3  1  0.54258000  0.11837200  0.75000000  1
  Pd  Pd4  1  0.86867000  0.02776600  0.25000000  1
  Pd  Pd5  1  0.36867000  0.47223400  0.75000000  1
  Pd  Pd6  1  0.63133000  0.52776600  0.25000000  1
  Pd  Pd7  1  0.13133000  0.97223400  0.75000000  1
  Pd  Pd8  1  0.33695300  0.17479800  0.06313300  1
  Pd  Pd9  1  0.83695300  0.32520200  0.93686700  1
  Pd  Pd10  1  0.16304700  0.67479800  0.43686700  1
  Pd  Pd11  1  0.66304700  0.82520200  0.56313300  1
  Pd  Pd12  1  0.66304700  0.82520200  0.93686700  1
  Pd  Pd13  1  0.16304700  0.67479800  0.06313300  1
  Pd  Pd14  1  0.83695300  0.32520200  0.56313300  1
  Pd  Pd15  1  0.33695300  0.17479800  0.43686700  1
