# generated using pymatgen
data_V2FeSi
_symmetry_space_group_name_H-M   'P 1'
_cell_length_a   4.60788002
_cell_length_b   4.60788002
_cell_length_c   4.53995800
_cell_angle_alpha   90.00000000
_cell_angle_beta   90.00000000
_cell_angle_gamma   90.09861535
_symmetry_Int_Tables_number   1
_chemical_formula_structural   V2FeSi
_chemical_formula_sum   'V4 Fe2 Si2'
_cell_volume   96.39477989
_cell_formula_units_Z   2
loop_
 _symmetry_equiv_pos_site_id
 _symmetry_equiv_pos_as_xyz
  1  'x, y, z'
loop_
 _atom_site_type_symbol
 _atom_site_label
 _atom_site_symmetry_multiplicity
 _atom_site_fract_x
 _atom_site_fract_y
 _atom_site_fract_z
 _atom_site_occupancy
  V  V0  1  0.49863900  0.49863900  0.50000000  1
  V  V1  1  0.24015000  0.00423200  0.75000000  1
  V  V2  1  0.00423200  0.24015000  0.25000000  1
  V  V3  1  0.49863900  0.49863900  0.00000000  1
  Fe  Fe4  1  0.74848300  0.00590700  0.75000000  1
  Fe  Fe5  1  0.00590700  0.74848300  0.25000000  1
  Si  Si6  1  0.50715000  0.99679900  0.25000000  1
  Si  Si7  1  0.99679900  0.50715000  0.75000000  1
