# generated using pymatgen
data_Lu2Si3Pd
_symmetry_space_group_name_H-M   'P 1'
_cell_length_a   3.86671400
_cell_length_b   4.12247617
_cell_length_c   6.98907223
_cell_angle_alpha   89.99859283
_cell_angle_beta   90.00000000
_cell_angle_gamma   90.00000000
_symmetry_Int_Tables_number   1
_chemical_formula_structural   Lu2Si3Pd
_chemical_formula_sum   'Lu2 Si3 Pd1'
_cell_volume   111.40886068
_cell_formula_units_Z   1
loop_
 _symmetry_equiv_pos_site_id
 _symmetry_equiv_pos_as_xyz
  1  'x, y, z'
loop_
 _atom_site_type_symbol
 _atom_site_label
 _atom_site_symmetry_multiplicity
 _atom_site_fract_x
 _atom_site_fract_y
 _atom_site_fract_z
 _atom_site_occupancy
  Lu  Lu0  1  0.00000000  0.00001600  0.99454600  1
  Lu  Lu1  1  0.00000000  0.50003700  0.50645900  1
  Si  Si2  1  0.50000000  0.00003000  0.66515200  1
  Si  Si3  1  0.50000000  0.00004600  0.33374500  1
  Si  Si4  1  0.50000000  0.50004400  0.83262400  1
  Pd  Pd5  1  0.50000000  0.50002800  0.16747500  1
