# generated using pymatgen
data_K3MnO4
_symmetry_space_group_name_H-M   'P 1'
_cell_length_a   6.58870793
_cell_length_b   11.00535773
_cell_length_c   9.68359078
_cell_angle_alpha   67.99197568
_cell_angle_beta   90.00000216
_cell_angle_gamma   107.41802212
_symmetry_Int_Tables_number   1
_chemical_formula_structural   K3MnO4
_chemical_formula_sum   'K12 Mn4 O16'
_cell_volume   616.13669967
_cell_formula_units_Z   4
loop_
 _symmetry_equiv_pos_site_id
 _symmetry_equiv_pos_as_xyz
  1  'x, y, z'
loop_
 _atom_site_type_symbol
 _atom_site_label
 _atom_site_symmetry_multiplicity
 _atom_site_fract_x
 _atom_site_fract_y
 _atom_site_fract_z
 _atom_site_occupancy
  K  K0  1  0.87500000  0.75000000  0.37500000  1
  K  K1  1  0.37500000  0.75000000  0.87500000  1
  K  K2  1  0.62500000  0.25000000  0.12500000  1
  K  K3  1  0.12500000  0.25000000  0.62500000  1
  K  K4  1  0.68750000  0.37500000  0.43750000  1
  K  K5  1  0.18750000  0.37500000  0.93750000  1
  K  K6  1  0.43750000  0.87500000  0.18750000  1
  K  K7  1  0.93750000  0.87500000  0.68750000  1
  K  K8  1  0.31250000  0.62500000  0.56250000  1
  K  K9  1  0.81250000  0.62500000  0.06250000  1
  K  K10  1  0.06250000  0.12500000  0.31250000  1
  K  K11  1  0.56250000  0.12500000  0.81250000  1
  Mn  Mn12  1  0.25000000  0.50000000  0.25000000  1
  Mn  Mn13  1  0.50000000  0.00000000  0.50000000  1
  Mn  Mn14  1  0.75000000  0.50000000  0.75000000  1
  Mn  Mn15  1  0.00000000  0.00000000  0.00000000  1
  O  O16  1  0.17112900  0.64579700  0.18307400  1
  O  O17  1  0.67112900  0.64579700  0.68307400  1
  O  O18  1  0.92112900  0.14579700  0.93307400  1
  O  O19  1  0.42112900  0.14579700  0.43307400  1
  O  O20  1  0.27533200  0.85420300  0.56692600  1
  O  O21  1  0.77533200  0.85420300  0.06692600  1
  O  O22  1  0.02533200  0.35420300  0.31692600  1
  O  O23  1  0.52533200  0.35420300  0.81692600  1
  O  O24  1  0.65475600  0.00597200  0.64281100  1
  O  O25  1  0.15475600  0.00597200  0.14281100  1
  O  O26  1  0.40475600  0.50597200  0.39281100  1
  O  O27  1  0.90475600  0.50597200  0.89281100  1
  O  O28  1  0.89878300  0.49402800  0.60718900  1
  O  O29  1  0.39878300  0.49402800  0.10718900  1
  O  O30  1  0.64878300  0.99402800  0.35718900  1
  O  O31  1  0.14878300  0.99402800  0.85718900  1
