# generated using pymatgen
data_Nd3OsO7
_symmetry_space_group_name_H-M   'P 1'
_cell_length_a   6.65662177
_cell_length_b   6.65662177
_cell_length_c   7.61667400
_cell_angle_alpha   90.00000000
_cell_angle_beta   90.00000000
_cell_angle_gamma   111.07497432
_symmetry_Int_Tables_number   1
_chemical_formula_structural   Nd3OsO7
_chemical_formula_sum   'Nd6 Os2 O14'
_cell_volume   314.92438703
_cell_formula_units_Z   2
loop_
 _symmetry_equiv_pos_site_id
 _symmetry_equiv_pos_as_xyz
  1  'x, y, z'
loop_
 _atom_site_type_symbol
 _atom_site_label
 _atom_site_symmetry_multiplicity
 _atom_site_fract_x
 _atom_site_fract_y
 _atom_site_fract_z
 _atom_site_occupancy
  Nd  Nd0  1  0.00000000  0.00000000  0.00000000  1
  Nd  Nd1  1  0.00000000  0.00000000  0.50000000  1
  Nd  Nd2  1  0.47456700  0.92090700  0.75000000  1
  Nd  Nd3  1  0.52543300  0.07909300  0.25000000  1
  Nd  Nd4  1  0.92090700  0.47456700  0.75000000  1
  Nd  Nd5  1  0.07909300  0.52543300  0.25000000  1
  Os  Os6  1  0.50000000  0.50000000  0.00000000  1
  Os  Os7  1  0.50000000  0.50000000  0.50000000  1
  O  O8  1  0.58341400  0.58341400  0.75000000  1
  O  O9  1  0.41658600  0.41658600  0.25000000  1
  O  O10  1  0.84281900  0.10668300  0.75000000  1
  O  O11  1  0.15718100  0.89331700  0.25000000  1
  O  O12  1  0.10668300  0.84281900  0.75000000  1
  O  O13  1  0.89331700  0.15718100  0.25000000  1
  O  O14  1  0.43949200  0.18853600  0.96166500  1
  O  O15  1  0.56050800  0.81146400  0.46166500  1
  O  O16  1  0.18853600  0.43949200  0.96166500  1
  O  O17  1  0.81146400  0.56050800  0.46166500  1
  O  O18  1  0.43949200  0.18853600  0.53833500  1
  O  O19  1  0.56050800  0.81146400  0.03833500  1
  O  O20  1  0.81146400  0.56050800  0.03833500  1
  O  O21  1  0.18853600  0.43949200  0.53833500  1
