# generated using pymatgen
data_Rb2Zr3OF12
_symmetry_space_group_name_H-M   'P 1'
_cell_length_a   11.10048937
_cell_length_b   11.10048937
_cell_length_c   11.10048925
_cell_angle_alpha   41.47961411
_cell_angle_beta   41.47961411
_cell_angle_gamma   41.47961243
_symmetry_Int_Tables_number   1
_chemical_formula_structural   Rb2Zr3OF12
_chemical_formula_sum   'Rb4 Zr6 O2 F24'
_cell_volume   542.24832957
_cell_formula_units_Z   2
loop_
 _symmetry_equiv_pos_site_id
 _symmetry_equiv_pos_as_xyz
  1  'x, y, z'
loop_
 _atom_site_type_symbol
 _atom_site_label
 _atom_site_symmetry_multiplicity
 _atom_site_fract_x
 _atom_site_fract_y
 _atom_site_fract_z
 _atom_site_occupancy
  Rb  Rb0  1  0.00000000  0.00000000  0.00000000  1
  Rb  Rb1  1  0.50000000  0.50000000  0.50000000  1
  Rb  Rb2  1  0.13805700  0.13805700  0.13805700  1
  Rb  Rb3  1  0.86194300  0.86194300  0.86194300  1
  Zr  Zr4  1  0.57580800  0.57580800  0.02908900  1
  Zr  Zr5  1  0.02908900  0.57580800  0.57580800  1
  Zr  Zr6  1  0.57580800  0.02908900  0.57580800  1
  Zr  Zr7  1  0.42419200  0.97091100  0.42419200  1
  Zr  Zr8  1  0.97091100  0.42419200  0.42419200  1
  Zr  Zr9  1  0.42419200  0.42419200  0.97091100  1
  O  O10  1  0.28662700  0.28662700  0.28662700  1
  O  O11  1  0.71337300  0.71337300  0.71337300  1
  F  F12  1  0.37084600  0.70684600  0.70684600  1
  F  F13  1  0.70684600  0.37084600  0.70684600  1
  F  F14  1  0.70684600  0.70684600  0.37084600  1
  F  F15  1  0.62915400  0.29315400  0.29315400  1
  F  F16  1  0.29315400  0.62915400  0.29315400  1
  F  F17  1  0.29315400  0.29315400  0.62915400  1
  F  F18  1  0.08959400  0.59772900  0.08959400  1
  F  F19  1  0.08959400  0.08959400  0.59772900  1
  F  F20  1  0.00000000  0.35214600  0.64785400  1
  F  F21  1  0.35214600  0.64785400  0.00000000  1
  F  F22  1  0.64785400  0.00000000  0.35214600  1
  F  F23  1  0.00000000  0.64785400  0.35214600  1
  F  F24  1  0.64785400  0.35214600  0.00000000  1
  F  F25  1  0.35214600  0.00000000  0.64785400  1
  F  F26  1  0.08361900  0.64811900  0.64811900  1
  F  F27  1  0.64811900  0.64811900  0.08361900  1
  F  F28  1  0.64811900  0.08361900  0.64811900  1
  F  F29  1  0.35188100  0.91638100  0.35188100  1
  F  F30  1  0.91638100  0.35188100  0.35188100  1
  F  F31  1  0.35188100  0.35188100  0.91638100  1
  F  F32  1  0.91040600  0.40227100  0.91040600  1
  F  F33  1  0.40227100  0.91040600  0.91040600  1
  F  F34  1  0.91040600  0.91040600  0.40227100  1
  F  F35  1  0.59772900  0.08959400  0.08959400  1
