# generated using pymatgen
data_CrHgO4
_symmetry_space_group_name_H-M   'P 1'
_cell_length_a   5.41356288
_cell_length_b   5.41356288
_cell_length_c   7.24922500
_cell_angle_alpha   90.00000000
_cell_angle_beta   90.00000000
_cell_angle_gamma   115.29802430
_symmetry_Int_Tables_number   1
_chemical_formula_structural   CrHgO4
_chemical_formula_sum   'Cr2 Hg2 O8'
_cell_volume   192.07600600
_cell_formula_units_Z   2
loop_
 _symmetry_equiv_pos_site_id
 _symmetry_equiv_pos_as_xyz
  1  'x, y, z'
loop_
 _atom_site_type_symbol
 _atom_site_label
 _atom_site_symmetry_multiplicity
 _atom_site_fract_x
 _atom_site_fract_y
 _atom_site_fract_z
 _atom_site_occupancy
  Cr  Cr0  1  0.64290800  0.35709200  0.75000000  1
  Cr  Cr1  1  0.35709200  0.64290800  0.25000000  1
  Hg  Hg2  1  0.00000000  0.00000000  0.00000000  1
  Hg  Hg3  1  0.00000000  0.00000000  0.50000000  1
  O  O4  1  0.70649500  0.77800600  0.25000000  1
  O  O5  1  0.29350500  0.22199400  0.75000000  1
  O  O6  1  0.77800600  0.70649500  0.75000000  1
  O  O7  1  0.22199400  0.29350500  0.25000000  1
  O  O8  1  0.25449000  0.74551000  0.43539100  1
  O  O9  1  0.74551000  0.25449000  0.93539100  1
  O  O10  1  0.74551000  0.25449000  0.56460900  1
  O  O11  1  0.25449000  0.74551000  0.06460900  1
