# generated using pymatgen
data_NaCaMn2P3(HO6)2
_symmetry_space_group_name_H-M   'P 1'
_cell_length_a   8.92409617
_cell_length_b   8.92409617
_cell_length_c   6.79166066
_cell_angle_alpha   72.33487679
_cell_angle_beta   72.33487679
_cell_angle_gamma   89.58480984
_symmetry_Int_Tables_number   1
_chemical_formula_structural   NaCaMn2P3(HO6)2
_chemical_formula_sum   'Na2 Ca2 Mn4 P6 H4 O24'
_cell_volume   488.92912817
_cell_formula_units_Z   2
loop_
 _symmetry_equiv_pos_site_id
 _symmetry_equiv_pos_as_xyz
  1  'x, y, z'
loop_
 _atom_site_type_symbol
 _atom_site_label
 _atom_site_symmetry_multiplicity
 _atom_site_fract_x
 _atom_site_fract_y
 _atom_site_fract_z
 _atom_site_occupancy
  Na  Na0  1  0.95532200  0.04467800  0.75000000  1
  Na  Na1  1  0.04467800  0.95532200  0.25000000  1
  Ca  Ca2  1  0.28736700  0.71263300  0.75000000  1
  Ca  Ca3  1  0.71263300  0.28736700  0.25000000  1
  Mn  Mn4  1  0.38107900  0.05480900  0.86071500  1
  Mn  Mn5  1  0.94519100  0.61892100  0.63928500  1
  Mn  Mn6  1  0.61892100  0.94519100  0.13928500  1
  Mn  Mn7  1  0.05480900  0.38107900  0.36071500  1
  P  P8  1  0.68924800  0.31075200  0.75000000  1
  P  P9  1  0.31075200  0.68924800  0.25000000  1
  P  P10  1  0.68204100  0.89097300  0.61496900  1
  P  P11  1  0.10902700  0.31795900  0.88503100  1
  P  P12  1  0.31795900  0.10902700  0.38503100  1
  P  P13  1  0.89097300  0.68204100  0.11496900  1
  H  H14  1  0.37328700  0.37319300  0.80276200  1
  H  H15  1  0.62680700  0.62671300  0.69723800  1
  H  H16  1  0.62671300  0.62680700  0.19723800  1
  H  H17  1  0.37319300  0.37328700  0.30276200  1
  O  O18  1  0.28319800  0.80663300  0.04373200  1
  O  O19  1  0.19336700  0.71680200  0.45626800  1
  O  O20  1  0.71680200  0.19336700  0.95626800  1
  O  O21  1  0.80663300  0.28319800  0.54373200  1
  O  O22  1  0.51873400  0.28491700  0.74117500  1
  O  O23  1  0.71508300  0.48126600  0.75882500  1
  O  O24  1  0.48126600  0.71508300  0.25882500  1
  O  O25  1  0.28491700  0.51873400  0.24117500  1
  O  O26  1  0.32790400  0.99089000  0.59848800  1
  O  O27  1  0.00911000  0.67209600  0.90151200  1
  O  O28  1  0.67209600  0.00911000  0.40151200  1
  O  O29  1  0.99089000  0.32790400  0.09848800  1
  O  O30  1  0.26843700  0.42553600  0.84114000  1
  O  O31  1  0.57446400  0.73156300  0.65886000  1
  O  O32  1  0.73156300  0.57446400  0.15886000  1
  O  O33  1  0.42553600  0.26843700  0.34114000  1
  O  O34  1  0.61166900  0.95351500  0.80751100  1
  O  O35  1  0.04648500  0.38833100  0.69248900  1
  O  O36  1  0.38833100  0.04648500  0.19248900  1
  O  O37  1  0.95351500  0.61166900  0.30751100  1
  O  O38  1  0.15134900  0.14795800  0.90443200  1
  O  O39  1  0.85204200  0.84865100  0.59556800  1
  O  O40  1  0.84865100  0.85204200  0.09556800  1
  O  O41  1  0.14795800  0.15134900  0.40443200  1
