# generated using pymatgen
data_TiCrP
_symmetry_space_group_name_H-M   'P 1'
_cell_length_a   6.41076135
_cell_length_b   6.41076135
_cell_length_c   3.23958000
_cell_angle_alpha   90.00000000
_cell_angle_beta   90.00000000
_cell_angle_gamma   119.99999330
_symmetry_Int_Tables_number   1
_chemical_formula_structural   TiCrP
_chemical_formula_sum   'Ti3 Cr3 P3'
_cell_volume   115.30246451
_cell_formula_units_Z   3
loop_
 _symmetry_equiv_pos_site_id
 _symmetry_equiv_pos_as_xyz
  1  'x, y, z'
loop_
 _atom_site_type_symbol
 _atom_site_label
 _atom_site_symmetry_multiplicity
 _atom_site_fract_x
 _atom_site_fract_y
 _atom_site_fract_z
 _atom_site_occupancy
  Ti  Ti0  1  0.40488300  0.40488300  0.50000000  1
  Ti  Ti1  1  0.59511700  0.00000000  0.50000000  1
  Ti  Ti2  1  0.00000000  0.59511700  0.50000000  1
  Cr  Cr3  1  0.00000000  0.25379300  0.00000000  1
  Cr  Cr4  1  0.25379300  0.00000000  0.00000000  1
  Cr  Cr5  1  0.74620700  0.74620700  0.00000000  1
  P  P6  1  0.66666700  0.33333300  0.00000000  1
  P  P7  1  0.33333300  0.66666700  0.00000000  1
  P  P8  1  0.00000000  0.00000000  0.50000000  1
