# generated using pymatgen
data_Pr4MgNi
_symmetry_space_group_name_H-M   'P 1'
_cell_length_a   10.03910327
_cell_length_b   10.03910327
_cell_length_c   10.03910327
_cell_angle_alpha   60.00000000
_cell_angle_beta   60.00000000
_cell_angle_gamma   60.00000000
_symmetry_Int_Tables_number   1
_chemical_formula_structural   Pr4MgNi
_chemical_formula_sum   'Pr16 Mg4 Ni4'
_cell_volume   715.43431629
_cell_formula_units_Z   4
loop_
 _symmetry_equiv_pos_site_id
 _symmetry_equiv_pos_as_xyz
  1  'x, y, z'
loop_
 _atom_site_type_symbol
 _atom_site_label
 _atom_site_symmetry_multiplicity
 _atom_site_fract_x
 _atom_site_fract_y
 _atom_site_fract_z
 _atom_site_occupancy
  Pr  Pr0  1  0.81056700  0.18943300  0.18943300  1
  Pr  Pr1  1  0.18943300  0.81056700  0.81056700  1
  Pr  Pr2  1  0.18943300  0.81056700  0.18943300  1
  Pr  Pr3  1  0.81056700  0.18943300  0.81056700  1
  Pr  Pr4  1  0.18943300  0.18943300  0.81056700  1
  Pr  Pr5  1  0.81056700  0.81056700  0.18943300  1
  Pr  Pr6  1  0.93557400  0.56442600  0.56442600  1
  Pr  Pr7  1  0.56442600  0.93557400  0.93557400  1
  Pr  Pr8  1  0.56442600  0.93557400  0.56442600  1
  Pr  Pr9  1  0.93557400  0.56442600  0.93557400  1
  Pr  Pr10  1  0.56442600  0.56442600  0.93557400  1
  Pr  Pr11  1  0.93557400  0.93557400  0.56442600  1
  Pr  Pr12  1  0.34552000  0.34552000  0.34552000  1
  Pr  Pr13  1  0.34552000  0.34552000  0.96343900  1
  Pr  Pr14  1  0.34552000  0.96343900  0.34552000  1
  Pr  Pr15  1  0.96343900  0.34552000  0.34552000  1
  Mg  Mg16  1  0.57893400  0.57893400  0.57893400  1
  Mg  Mg17  1  0.57893400  0.57893400  0.26319800  1
  Mg  Mg18  1  0.57893400  0.26319800  0.57893400  1
  Mg  Mg19  1  0.26319800  0.57893400  0.57893400  1
  Ni  Ni20  1  0.14176400  0.14176400  0.14176400  1
  Ni  Ni21  1  0.14176400  0.14176400  0.57470800  1
  Ni  Ni22  1  0.14176400  0.57470800  0.14176400  1
  Ni  Ni23  1  0.57470800  0.14176400  0.14176400  1
