# generated using pymatgen
data_CsBaPS4
_symmetry_space_group_name_H-M   'P 1'
_cell_length_a   6.94674900
_cell_length_b   10.24381000
_cell_length_c   11.98540700
_cell_angle_alpha   90.00000000
_cell_angle_beta   90.00000000
_cell_angle_gamma   90.00000000
_symmetry_Int_Tables_number   1
_chemical_formula_structural   CsBaPS4
_chemical_formula_sum   'Cs4 Ba4 P4 S16'
_cell_volume   852.89566743
_cell_formula_units_Z   4
loop_
 _symmetry_equiv_pos_site_id
 _symmetry_equiv_pos_as_xyz
  1  'x, y, z'
loop_
 _atom_site_type_symbol
 _atom_site_label
 _atom_site_symmetry_multiplicity
 _atom_site_fract_x
 _atom_site_fract_y
 _atom_site_fract_z
 _atom_site_occupancy
  Cs  Cs0  1  0.25000000  0.85941000  0.92828200  1
  Cs  Cs1  1  0.25000000  0.64059000  0.42828200  1
  Cs  Cs2  1  0.75000000  0.14059000  0.07171800  1
  Cs  Cs3  1  0.75000000  0.35941000  0.57171800  1
  Ba  Ba4  1  0.25000000  0.40018500  0.85118300  1
  Ba  Ba5  1  0.25000000  0.09981500  0.35118300  1
  Ba  Ba6  1  0.75000000  0.59981500  0.14881700  1
  Ba  Ba7  1  0.75000000  0.90018500  0.64881700  1
  P  P8  1  0.25000000  0.11630500  0.67583000  1
  P  P9  1  0.25000000  0.38369500  0.17583000  1
  P  P10  1  0.75000000  0.88369500  0.32417000  1
  P  P11  1  0.75000000  0.61630500  0.82417000  1
  S  S12  1  0.00919000  0.12714100  0.77477100  1
  S  S13  1  0.49081000  0.37285900  0.27477100  1
  S  S14  1  0.50919000  0.87285900  0.22522900  1
  S  S15  1  0.99081000  0.62714100  0.72522900  1
  S  S16  1  0.99081000  0.87285900  0.22522900  1
  S  S17  1  0.50919000  0.62714100  0.72522900  1
  S  S18  1  0.49081000  0.12714100  0.77477100  1
  S  S19  1  0.00919000  0.37285900  0.27477100  1
  S  S20  1  0.25000000  0.27514000  0.57092700  1
  S  S21  1  0.25000000  0.22486000  0.07092700  1
  S  S22  1  0.75000000  0.72486000  0.42907300  1
  S  S23  1  0.75000000  0.77514000  0.92907300  1
  S  S24  1  0.25000000  0.94366600  0.58754000  1
  S  S25  1  0.25000000  0.55633400  0.08754000  1
  S  S26  1  0.75000000  0.05633400  0.41246000  1
  S  S27  1  0.75000000  0.44366600  0.91246000  1
