# generated using pymatgen
data_UTe(PbO4)2
_symmetry_space_group_name_H-M   'P 1'
_cell_length_a   5.86560700
_cell_length_b   7.90448700
_cell_length_c   8.03866457
_cell_angle_alpha   90.00000000
_cell_angle_beta   90.62258727
_cell_angle_gamma   90.00000000
_symmetry_Int_Tables_number   1
_chemical_formula_structural   UTe(PbO4)2
_chemical_formula_sum   'U2 Te2 Pb4 O16'
_cell_volume   372.68757885
_cell_formula_units_Z   2
loop_
 _symmetry_equiv_pos_site_id
 _symmetry_equiv_pos_as_xyz
  1  'x, y, z'
loop_
 _atom_site_type_symbol
 _atom_site_label
 _atom_site_symmetry_multiplicity
 _atom_site_fract_x
 _atom_site_fract_y
 _atom_site_fract_z
 _atom_site_occupancy
  U  U0  1  0.50000000  0.50000000  0.50000000  1
  U  U1  1  0.50000000  0.00000000  0.00000000  1
  Te  Te2  1  0.50000000  0.50000000  0.00000000  1
  Te  Te3  1  0.50000000  0.00000000  0.50000000  1
  Pb  Pb4  1  0.00466700  0.33635100  0.81644800  1
  Pb  Pb5  1  0.99533300  0.83635100  0.68355200  1
  Pb  Pb6  1  0.99533300  0.66364900  0.18355200  1
  Pb  Pb7  1  0.00466700  0.16364900  0.31644800  1
  O  O8  1  0.62732500  0.26803400  0.99601200  1
  O  O9  1  0.37267500  0.76803400  0.50398800  1
  O  O10  1  0.37267500  0.73196600  0.00398800  1
  O  O11  1  0.62732500  0.23196600  0.49601200  1
  O  O12  1  0.39051300  0.47324400  0.76634100  1
  O  O13  1  0.60948700  0.97324400  0.73365900  1
  O  O14  1  0.60948700  0.52675600  0.23365900  1
  O  O15  1  0.39051300  0.02675600  0.26634100  1
  O  O16  1  0.20436800  0.43482600  0.43438500  1
  O  O17  1  0.79563200  0.93482600  0.06561500  1
  O  O18  1  0.79563200  0.56517400  0.56561500  1
  O  O19  1  0.20436800  0.06517400  0.93438500  1
  O  O20  1  0.20170900  0.41908700  0.06574400  1
  O  O21  1  0.79829100  0.91908700  0.43425600  1
  O  O22  1  0.79829100  0.58091300  0.93425600  1
  O  O23  1  0.20170900  0.08091300  0.56574400  1
