# generated using pymatgen
data_Sc2(CN2)3
_symmetry_space_group_name_H-M   'P 1'
_cell_length_a   10.30548197
_cell_length_b   10.30548197
_cell_length_c   10.30548091
_cell_angle_alpha   33.99514794
_cell_angle_beta   33.99514794
_cell_angle_gamma   33.99514750
_symmetry_Int_Tables_number   1
_chemical_formula_structural   Sc2(CN2)3
_chemical_formula_sum   'Sc4 C6 N12'
_cell_volume   304.98368685
_cell_formula_units_Z   2
loop_
 _symmetry_equiv_pos_site_id
 _symmetry_equiv_pos_as_xyz
  1  'x, y, z'
loop_
 _atom_site_type_symbol
 _atom_site_label
 _atom_site_symmetry_multiplicity
 _atom_site_fract_x
 _atom_site_fract_y
 _atom_site_fract_z
 _atom_site_occupancy
  Sc  Sc0  1  0.83524200  0.83524200  0.83524200  1
  Sc  Sc1  1  0.33524200  0.33524200  0.33524200  1
  Sc  Sc2  1  0.16475800  0.16475800  0.16475800  1
  Sc  Sc3  1  0.66475800  0.66475800  0.66475800  1
  C  C4  1  0.25000000  0.55101300  0.94898700  1
  C  C5  1  0.55101300  0.94898700  0.25000000  1
  C  C6  1  0.94898700  0.25000000  0.55101300  1
  C  C7  1  0.05101300  0.75000000  0.44898700  1
  C  C8  1  0.75000000  0.44898700  0.05101300  1
  C  C9  1  0.44898700  0.05101300  0.75000000  1
  N  N10  1  0.13915300  0.54188200  0.94801500  1
  N  N11  1  0.54188200  0.94801500  0.13915300  1
  N  N12  1  0.94801500  0.13915300  0.54188200  1
  N  N13  1  0.04188200  0.63915300  0.44801500  1
  N  N14  1  0.63915300  0.44801500  0.04188200  1
  N  N15  1  0.44801500  0.04188200  0.63915300  1
  N  N16  1  0.86084700  0.45811800  0.05198500  1
  N  N17  1  0.45811800  0.05198500  0.86084700  1
  N  N18  1  0.05198500  0.86084700  0.45811800  1
  N  N19  1  0.95811800  0.36084700  0.55198500  1
  N  N20  1  0.36084700  0.55198500  0.95811800  1
  N  N21  1  0.55198500  0.95811800  0.36084700  1
