# generated using pymatgen
data_Ag3PO4
_symmetry_space_group_name_H-M   'P 1'
_cell_length_a   6.11000599
_cell_length_b   6.11000599
_cell_length_c   6.11000683
_cell_angle_alpha   89.89932237
_cell_angle_beta   89.89932237
_cell_angle_gamma   89.89931790
_symmetry_Int_Tables_number   1
_chemical_formula_structural   Ag3PO4
_chemical_formula_sum   'Ag6 P2 O8'
_cell_volume   228.09877798
_cell_formula_units_Z   2
loop_
 _symmetry_equiv_pos_site_id
 _symmetry_equiv_pos_as_xyz
  1  'x, y, z'
loop_
 _atom_site_type_symbol
 _atom_site_label
 _atom_site_symmetry_multiplicity
 _atom_site_fract_x
 _atom_site_fract_y
 _atom_site_fract_z
 _atom_site_occupancy
  Ag  Ag0  1  0.20908800  0.99933700  0.50067500  1
  Ag  Ag1  1  0.99933700  0.50067500  0.20908800  1
  Ag  Ag2  1  0.50067500  0.20908800  0.99933700  1
  Ag  Ag3  1  0.49933700  0.70908800  0.00067500  1
  Ag  Ag4  1  0.70908800  0.00067500  0.49933700  1
  Ag  Ag5  1  0.00067500  0.49933700  0.70908800  1
  P  P6  1  0.49909600  0.49909600  0.49909600  1
  P  P7  1  0.99909600  0.99909600  0.99909600  1
  O  O8  1  0.14792300  0.14792300  0.14792300  1
  O  O9  1  0.14905300  0.85337700  0.85045100  1
  O  O10  1  0.85045100  0.14905300  0.85337700  1
  O  O11  1  0.85337700  0.85045100  0.14905300  1
  O  O12  1  0.35337700  0.64905300  0.35045100  1
  O  O13  1  0.64905300  0.35045100  0.35337700  1
  O  O14  1  0.64792300  0.64792300  0.64792300  1
  O  O15  1  0.35045100  0.35337700  0.64905300  1
