# generated using pymatgen
data_Er(AlGe)2
_symmetry_space_group_name_H-M   'P 1'
_cell_length_a   4.28479087
_cell_length_b   4.28479087
_cell_length_c   6.53480100
_cell_angle_alpha   90.00000000
_cell_angle_beta   90.00000000
_cell_angle_gamma   120.00001351
_symmetry_Int_Tables_number   1
_chemical_formula_structural   Er(AlGe)2
_chemical_formula_sum   'Er1 Al2 Ge2'
_cell_volume   103.90159160
_cell_formula_units_Z   1
loop_
 _symmetry_equiv_pos_site_id
 _symmetry_equiv_pos_as_xyz
  1  'x, y, z'
loop_
 _atom_site_type_symbol
 _atom_site_label
 _atom_site_symmetry_multiplicity
 _atom_site_fract_x
 _atom_site_fract_y
 _atom_site_fract_z
 _atom_site_occupancy
  Er  Er0  1  0.00000000  0.00000000  0.00000000  1
  Al  Al1  1  0.66666700  0.33333300  0.35139100  1
  Al  Al2  1  0.33333300  0.66666700  0.64860900  1
  Ge  Ge3  1  0.66666700  0.33333300  0.74481500  1
  Ge  Ge4  1  0.33333300  0.66666700  0.25518500  1
