# generated using pymatgen
data_Ba3Ta5O15
_symmetry_space_group_name_H-M   'P 1'
_cell_length_a   12.76609400
_cell_length_b   12.76609400
_cell_length_c   4.01748700
_cell_angle_alpha   90.00000000
_cell_angle_beta   90.00000000
_cell_angle_gamma   90.00000000
_symmetry_Int_Tables_number   1
_chemical_formula_structural   Ba3Ta5O15
_chemical_formula_sum   'Ba6 Ta10 O30'
_cell_volume   654.74253565
_cell_formula_units_Z   2
loop_
 _symmetry_equiv_pos_site_id
 _symmetry_equiv_pos_as_xyz
  1  'x, y, z'
loop_
 _atom_site_type_symbol
 _atom_site_label
 _atom_site_symmetry_multiplicity
 _atom_site_fract_x
 _atom_site_fract_y
 _atom_site_fract_z
 _atom_site_occupancy
  Ba  Ba0  1  0.00000000  0.00000000  0.00000000  1
  Ba  Ba1  1  0.50000000  0.50000000  0.00000000  1
  Ba  Ba2  1  0.66876700  0.16876700  0.00000000  1
  Ba  Ba3  1  0.16876700  0.33123300  0.00000000  1
  Ba  Ba4  1  0.83123300  0.66876700  0.00000000  1
  Ba  Ba5  1  0.33123300  0.83123300  0.00000000  1
  Ta  Ta6  1  0.07665600  0.78717500  0.50000000  1
  Ta  Ta7  1  0.21282500  0.07665600  0.50000000  1
  Ta  Ta8  1  0.00000000  0.50000000  0.50000000  1
  Ta  Ta9  1  0.50000000  0.00000000  0.50000000  1
  Ta  Ta10  1  0.92334400  0.21282500  0.50000000  1
  Ta  Ta11  1  0.78717500  0.92334400  0.50000000  1
  Ta  Ta12  1  0.28717500  0.57665600  0.50000000  1
  Ta  Ta13  1  0.71282500  0.42334400  0.50000000  1
  Ta  Ta14  1  0.57665600  0.71282500  0.50000000  1
  Ta  Ta15  1  0.42334400  0.28717500  0.50000000  1
  O  O16  1  0.35929200  0.43152900  0.50000000  1
  O  O17  1  0.64070800  0.56847100  0.50000000  1
  O  O18  1  0.56847100  0.35929200  0.50000000  1
  O  O19  1  0.43152900  0.64070800  0.50000000  1
  O  O20  1  0.93152900  0.85929200  0.50000000  1
  O  O21  1  0.85929200  0.06847100  0.50000000  1
  O  O22  1  0.14070800  0.93152900  0.50000000  1
  O  O23  1  0.06847100  0.14070800  0.50000000  1
  O  O24  1  0.15624200  0.49370700  0.50000000  1
  O  O25  1  0.84375800  0.50629300  0.50000000  1
  O  O26  1  0.50629300  0.15624200  0.50000000  1
  O  O27  1  0.49370700  0.84375800  0.50000000  1
  O  O28  1  0.99370700  0.65624200  0.50000000  1
  O  O29  1  0.65624200  0.00629300  0.50000000  1
  O  O30  1  0.34375800  0.99370700  0.50000000  1
  O  O31  1  0.00629300  0.34375800  0.50000000  1
  O  O32  1  0.50000000  0.00000000  0.00000000  1
  O  O33  1  0.00000000  0.50000000  0.00000000  1
  O  O34  1  0.78192800  0.28192800  0.50000000  1
  O  O35  1  0.28192800  0.21807200  0.50000000  1
  O  O36  1  0.71807200  0.78192800  0.50000000  1
  O  O37  1  0.21807200  0.71807200  0.50000000  1
  O  O38  1  0.20824500  0.07768100  0.00000000  1
  O  O39  1  0.07768100  0.79175500  0.00000000  1
  O  O40  1  0.92231900  0.20824500  0.00000000  1
  O  O41  1  0.79175500  0.92231900  0.00000000  1
  O  O42  1  0.29175500  0.57768100  0.00000000  1
  O  O43  1  0.70824500  0.42231900  0.00000000  1
  O  O44  1  0.57768100  0.70824500  0.00000000  1
  O  O45  1  0.42231900  0.29175500  0.00000000  1
