# generated using pymatgen
data_La2Zn(SeO)2
_symmetry_space_group_name_H-M   'P 1'
_cell_length_a   14.62648848
_cell_length_b   14.62648848
_cell_length_c   5.77696500
_cell_angle_alpha   90.00000000
_cell_angle_beta   90.00000000
_cell_angle_gamma   104.10740032
_symmetry_Int_Tables_number   1
_chemical_formula_structural   La2Zn(SeO)2
_chemical_formula_sum   'La16 Zn8 Se16 O16'
_cell_volume   1198.61640647
_cell_formula_units_Z   8
loop_
 _symmetry_equiv_pos_site_id
 _symmetry_equiv_pos_as_xyz
  1  'x, y, z'
loop_
 _atom_site_type_symbol
 _atom_site_label
 _atom_site_symmetry_multiplicity
 _atom_site_fract_x
 _atom_site_fract_y
 _atom_site_fract_z
 _atom_site_occupancy
  La  La0  1  0.56851800  0.06851800  0.75000000  1
  La  La1  1  0.93148200  0.43148200  0.25000000  1
  La  La2  1  0.43148200  0.93148200  0.25000000  1
  La  La3  1  0.06851800  0.56851800  0.75000000  1
  La  La4  1  0.68089900  0.68089900  0.27521400  1
  La  La5  1  0.31910100  0.31910100  0.72478600  1
  La  La6  1  0.81910100  0.81910100  0.77521400  1
  La  La7  1  0.18089900  0.18089900  0.22478600  1
  La  La8  1  0.80730400  0.55722800  0.76772500  1
  La  La9  1  0.44277200  0.19269600  0.23227500  1
  La  La10  1  0.94277200  0.69269600  0.26772500  1
  La  La11  1  0.30730400  0.05722800  0.73227500  1
  La  La12  1  0.19269600  0.44277200  0.23227500  1
  La  La13  1  0.55722800  0.80730400  0.76772500  1
  La  La14  1  0.05722800  0.30730400  0.73227500  1
  La  La15  1  0.69269600  0.94277200  0.26772500  1
  Zn  Zn16  1  0.06974700  0.93025300  0.50000000  1
  Zn  Zn17  1  0.56974700  0.43025300  0.00000000  1
  Zn  Zn18  1  0.93025300  0.06974700  0.50000000  1
  Zn  Zn19  1  0.43025300  0.56974700  0.00000000  1
  Zn  Zn20  1  0.31067200  0.68932800  0.50000000  1
  Zn  Zn21  1  0.81067200  0.18932800  0.00000000  1
  Zn  Zn22  1  0.68932800  0.31067200  0.50000000  1
  Zn  Zn23  1  0.18932800  0.81067200  0.00000000  1
  Se  Se24  1  0.33335300  0.83335300  0.75000000  1
  Se  Se25  1  0.16664700  0.66664700  0.25000000  1
  Se  Se26  1  0.66664700  0.16664700  0.25000000  1
  Se  Se27  1  0.83335300  0.33335300  0.75000000  1
  Se  Se28  1  0.91528700  0.91528700  0.28984700  1
  Se  Se29  1  0.08471300  0.08471300  0.71015300  1
  Se  Se30  1  0.58471300  0.58471300  0.78984700  1
  Se  Se31  1  0.41528700  0.41528700  0.21015300  1
  Se  Se32  1  0.04270200  0.78983200  0.76081300  1
  Se  Se33  1  0.21016800  0.95729800  0.23918700  1
  Se  Se34  1  0.71016800  0.45729800  0.26081300  1
  Se  Se35  1  0.54270200  0.28983200  0.73918700  1
  Se  Se36  1  0.95729800  0.21016800  0.23918700  1
  Se  Se37  1  0.78983200  0.04270200  0.76081300  1
  Se  Se38  1  0.28983200  0.54270200  0.73918700  1
  Se  Se39  1  0.45729800  0.71016800  0.26081300  1
  O  O40  1  0.94032900  0.56509900  0.00517400  1
  O  O41  1  0.43490100  0.05967100  0.99482600  1
  O  O42  1  0.93490100  0.55967100  0.50517400  1
  O  O43  1  0.44032900  0.06509900  0.49482600  1
  O  O44  1  0.05967100  0.43490100  0.99482600  1
  O  O45  1  0.56509900  0.94032900  0.00517400  1
  O  O46  1  0.06509900  0.44032900  0.49482600  1
  O  O47  1  0.55967100  0.93490100  0.50517400  1
  O  O48  1  0.68819000  0.81336900  0.02417400  1
  O  O49  1  0.18663100  0.31181000  0.97582600  1
  O  O50  1  0.68663100  0.81181000  0.52417400  1
  O  O51  1  0.18819000  0.31336900  0.47582600  1
  O  O52  1  0.31181000  0.18663100  0.97582600  1
  O  O53  1  0.81336900  0.68819000  0.02417400  1
  O  O54  1  0.31336900  0.18819000  0.47582600  1
  O  O55  1  0.81181000  0.68663100  0.52417400  1
