# generated using pymatgen
data_SmSiPd2
_symmetry_space_group_name_H-M   'P 1'
_cell_length_a   5.64539000
_cell_length_b   6.96791500
_cell_length_c   7.51559600
_cell_angle_alpha   90.00000000
_cell_angle_beta   90.00000000
_cell_angle_gamma   90.00000000
_symmetry_Int_Tables_number   1
_chemical_formula_structural   SmSiPd2
_chemical_formula_sum   'Sm4 Si4 Pd8'
_cell_volume   295.63797604
_cell_formula_units_Z   4
loop_
 _symmetry_equiv_pos_site_id
 _symmetry_equiv_pos_as_xyz
  1  'x, y, z'
loop_
 _atom_site_type_symbol
 _atom_site_label
 _atom_site_symmetry_multiplicity
 _atom_site_fract_x
 _atom_site_fract_y
 _atom_site_fract_z
 _atom_site_occupancy
  Sm  Sm0  1  0.35495500  0.75000000  0.03121600  1
  Sm  Sm1  1  0.14504500  0.75000000  0.53121600  1
  Sm  Sm2  1  0.64504500  0.25000000  0.96878400  1
  Sm  Sm3  1  0.85495500  0.25000000  0.46878400  1
  Si  Si4  1  0.64746200  0.75000000  0.37668600  1
  Si  Si5  1  0.85253800  0.75000000  0.87668600  1
  Si  Si6  1  0.35253800  0.25000000  0.62331400  1
  Si  Si7  1  0.14746200  0.25000000  0.12331400  1
  Pd  Pd8  1  0.90682100  0.55188900  0.17598700  1
  Pd  Pd9  1  0.59317900  0.94811100  0.67598700  1
  Pd  Pd10  1  0.09317900  0.05188900  0.82401300  1
  Pd  Pd11  1  0.40682100  0.44811100  0.32401300  1
  Pd  Pd12  1  0.09317900  0.44811100  0.82401300  1
  Pd  Pd13  1  0.40682100  0.05188900  0.32401300  1
  Pd  Pd14  1  0.90682100  0.94811100  0.17598700  1
  Pd  Pd15  1  0.59317900  0.55188900  0.67598700  1
