# generated using pymatgen
data_UMnC2
_symmetry_space_group_name_H-M   'P 1'
_cell_length_a   3.18713500
_cell_length_b   5.41577800
_cell_length_c   10.59157900
_cell_angle_alpha   90.00000000
_cell_angle_beta   90.00000000
_cell_angle_gamma   90.00000000
_symmetry_Int_Tables_number   1
_chemical_formula_structural   UMnC2
_chemical_formula_sum   'U4 Mn4 C8'
_cell_volume   182.81929220
_cell_formula_units_Z   4
loop_
 _symmetry_equiv_pos_site_id
 _symmetry_equiv_pos_as_xyz
  1  'x, y, z'
loop_
 _atom_site_type_symbol
 _atom_site_label
 _atom_site_symmetry_multiplicity
 _atom_site_fract_x
 _atom_site_fract_y
 _atom_site_fract_z
 _atom_site_occupancy
  U  U0  1  0.25000000  0.58266400  0.85855800  1
  U  U1  1  0.75000000  0.41733600  0.14144200  1
  U  U2  1  0.75000000  0.91733600  0.35855800  1
  U  U3  1  0.25000000  0.08266400  0.64144200  1
  Mn  Mn4  1  0.25000000  0.91843800  0.09739700  1
  Mn  Mn5  1  0.75000000  0.08156200  0.90260300  1
  Mn  Mn6  1  0.75000000  0.58156200  0.59739700  1
  Mn  Mn7  1  0.25000000  0.41843800  0.40260300  1
  C  C8  1  0.25000000  0.66092800  0.24665700  1
  C  C9  1  0.75000000  0.33907200  0.75334300  1
  C  C10  1  0.75000000  0.83907200  0.74665700  1
  C  C11  1  0.25000000  0.16092800  0.25334300  1
  C  C12  1  0.25000000  0.72142700  0.51169300  1
  C  C13  1  0.75000000  0.27857300  0.48830700  1
  C  C14  1  0.75000000  0.77857300  0.01169300  1
  C  C15  1  0.25000000  0.22142700  0.98830700  1
