# generated using pymatgen
data_Li3LaBi2
_symmetry_space_group_name_H-M   'P 1'
_cell_length_a   4.77283221
_cell_length_b   4.77283221
_cell_length_c   7.57064900
_cell_angle_alpha   90.00000000
_cell_angle_beta   90.00000000
_cell_angle_gamma   120.00000288
_symmetry_Int_Tables_number   1
_chemical_formula_structural   Li3LaBi2
_chemical_formula_sum   'Li3 La1 Bi2'
_cell_volume   149.35372677
_cell_formula_units_Z   1
loop_
 _symmetry_equiv_pos_site_id
 _symmetry_equiv_pos_as_xyz
  1  'x, y, z'
loop_
 _atom_site_type_symbol
 _atom_site_label
 _atom_site_symmetry_multiplicity
 _atom_site_fract_x
 _atom_site_fract_y
 _atom_site_fract_z
 _atom_site_occupancy
  Li  Li0  1  0.66666700  0.33333300  0.35264700  1
  Li  Li1  1  0.33333300  0.66666700  0.64735300  1
  Li  Li2  1  0.00000000  0.00000000  0.50000000  1
  La  La3  1  0.00000000  0.00000000  0.00000000  1
  Bi  Bi4  1  0.66666700  0.33333300  0.74632400  1
  Bi  Bi5  1  0.33333300  0.66666700  0.25367600  1
