# generated using pymatgen
data_IrSe2
_symmetry_space_group_name_H-M   'P 1'
_cell_length_a   3.80690300
_cell_length_b   6.02149800
_cell_length_c   21.26268400
_cell_angle_alpha   90.00000000
_cell_angle_beta   90.00000000
_cell_angle_gamma   90.00000000
_symmetry_Int_Tables_number   1
_chemical_formula_structural   IrSe2
_chemical_formula_sum   'Ir8 Se16'
_cell_volume   487.41000813
_cell_formula_units_Z   8
loop_
 _symmetry_equiv_pos_site_id
 _symmetry_equiv_pos_as_xyz
  1  'x, y, z'
loop_
 _atom_site_type_symbol
 _atom_site_label
 _atom_site_symmetry_multiplicity
 _atom_site_fract_x
 _atom_site_fract_y
 _atom_site_fract_z
 _atom_site_occupancy
  Ir  Ir0  1  0.25000000  0.94138200  0.80500500  1
  Ir  Ir1  1  0.75000000  0.05861800  0.19499500  1
  Ir  Ir2  1  0.75000000  0.44138200  0.69499500  1
  Ir  Ir3  1  0.25000000  0.55861800  0.30500500  1
  Ir  Ir4  1  0.25000000  0.93044400  0.57656100  1
  Ir  Ir5  1  0.75000000  0.06955600  0.42343900  1
  Ir  Ir6  1  0.75000000  0.43044400  0.92343900  1
  Ir  Ir7  1  0.25000000  0.56955600  0.07656100  1
  Se  Se8  1  0.25000000  0.57253500  0.86158200  1
  Se  Se9  1  0.75000000  0.42746500  0.13841800  1
  Se  Se10  1  0.75000000  0.07253500  0.63841800  1
  Se  Se11  1  0.25000000  0.92746500  0.36158200  1
  Se  Se12  1  0.25000000  0.18273800  0.26131000  1
  Se  Se13  1  0.75000000  0.81726200  0.73869000  1
  Se  Se14  1  0.75000000  0.68273800  0.23869000  1
  Se  Se15  1  0.25000000  0.31726200  0.76131000  1
  Se  Se16  1  0.25000000  0.27732400  0.99079200  1
  Se  Se17  1  0.75000000  0.72267600  0.00920800  1
  Se  Se18  1  0.75000000  0.77732400  0.50920800  1
  Se  Se19  1  0.25000000  0.22267600  0.49079200  1
  Se  Se20  1  0.25000000  0.95193500  0.12200100  1
  Se  Se21  1  0.75000000  0.04806500  0.87799900  1
  Se  Se22  1  0.75000000  0.45193500  0.37799900  1
  Se  Se23  1  0.25000000  0.54806500  0.62200100  1
