# generated using pymatgen
data_Dy2MnNiO6
_symmetry_space_group_name_H-M   'P 1'
_cell_length_a   5.58809500
_cell_length_b   5.26376100
_cell_length_c   9.17388064
_cell_angle_alpha   55.41121154
_cell_angle_beta   90.00000000
_cell_angle_gamma   90.00000000
_symmetry_Int_Tables_number   1
_chemical_formula_structural   Dy2MnNiO6
_chemical_formula_sum   'Dy4 Mn2 Ni2 O12'
_cell_volume   222.14852354
_cell_formula_units_Z   2
loop_
 _symmetry_equiv_pos_site_id
 _symmetry_equiv_pos_as_xyz
  1  'x, y, z'
loop_
 _atom_site_type_symbol
 _atom_site_label
 _atom_site_symmetry_multiplicity
 _atom_site_fract_x
 _atom_site_fract_y
 _atom_site_fract_z
 _atom_site_occupancy
  Dy  Dy0  1  0.07230600  0.26935900  0.74935900  1
  Dy  Dy1  1  0.42769400  0.26935900  0.24935900  1
  Dy  Dy2  1  0.92769400  0.73064100  0.25064100  1
  Dy  Dy3  1  0.57230600  0.73064100  0.75064100  1
  Mn  Mn4  1  0.00000000  0.00000000  0.50000000  1
  Mn  Mn5  1  0.50000000  0.00000000  0.00000000  1
  Ni  Ni6  1  0.50000000  0.50000000  0.50000000  1
  Ni  Ni7  1  0.00000000  0.50000000  0.00000000  1
  O  O8  1  0.70495000  0.23829400  0.44370300  1
  O  O9  1  0.79505000  0.23829400  0.94370300  1
  O  O10  1  0.29505000  0.76170600  0.55629700  1
  O  O11  1  0.20495000  0.76170600  0.05629700  1
  O  O12  1  0.18686800  0.35269400  0.44684500  1
  O  O13  1  0.31313200  0.35269400  0.94684500  1
  O  O14  1  0.81313200  0.64730600  0.55315500  1
  O  O15  1  0.68686800  0.64730600  0.05315500  1
  O  O16  1  0.46435500  0.13482700  0.75720800  1
  O  O17  1  0.03564500  0.13482700  0.25720800  1
  O  O18  1  0.53564500  0.86517300  0.24279200  1
  O  O19  1  0.96435500  0.86517300  0.74279200  1
