# generated using pymatgen
data_Zn6B3HO11
_symmetry_space_group_name_H-M   'P 1'
_cell_length_a   8.29683050
_cell_length_b   10.02175045
_cell_length_c   8.29683042
_cell_angle_alpha   65.54734861
_cell_angle_beta   119.99999400
_cell_angle_gamma   114.45265167
_symmetry_Int_Tables_number   1
_chemical_formula_structural   Zn6B3HO11
_chemical_formula_sum   'Zn12 B6 H2 O22'
_cell_volume   524.77972513
_cell_formula_units_Z   2
loop_
 _symmetry_equiv_pos_site_id
 _symmetry_equiv_pos_as_xyz
  1  'x, y, z'
loop_
 _atom_site_type_symbol
 _atom_site_label
 _atom_site_symmetry_multiplicity
 _atom_site_fract_x
 _atom_site_fract_y
 _atom_site_fract_z
 _atom_site_occupancy
  Zn  Zn0  1  0.13804300  0.91444600  0.80898500  1
  Zn  Zn1  1  0.58538800  0.91444600  0.86195700  1
  Zn  Zn2  1  0.19101500  0.91444600  0.41461200  1
  Zn  Zn3  1  0.85612400  0.08743800  0.19497000  1
  Zn  Zn4  1  0.42628300  0.08743800  0.14387600  1
  Zn  Zn5  1  0.80503000  0.08743800  0.57371700  1
  Zn  Zn6  1  0.08538900  0.41444600  0.30898500  1
  Zn  Zn7  1  0.69101500  0.41444600  0.36195700  1
  Zn  Zn8  1  0.63804300  0.41444600  0.91461200  1
  Zn  Zn9  1  0.92628300  0.58743800  0.69497000  1
  Zn  Zn10  1  0.30503000  0.58743800  0.64387600  1
  Zn  Zn11  1  0.35612400  0.58743800  0.07371700  1
  B  B12  1  0.22827400  0.25038600  0.72857300  1
  B  B13  1  0.75068500  0.25038600  0.77172600  1
  B  B14  1  0.27142700  0.25038600  0.24931500  1
  B  B15  1  0.77142700  0.75038600  0.27172600  1
  B  B16  1  0.25068500  0.75038600  0.22857300  1
  B  B17  1  0.72827400  0.75038600  0.74931500  1
  H  H18  1  0.25866200  0.77598600  0.74133800  1
  H  H19  1  0.75866200  0.27598600  0.24133800  1
  O  O20  1  0.29934500  0.89803500  0.70065500  1
  O  O21  1  0.70494900  0.11484700  0.29505100  1
  O  O22  1  0.79934500  0.39803500  0.20065500  1
  O  O23  1  0.20494900  0.61484700  0.79505100  1
  O  O24  1  0.89540300  0.75002800  0.75016600  1
  O  O25  1  0.60479100  0.75002800  0.10459700  1
  O  O26  1  0.24983400  0.75002800  0.39520900  1
  O  O27  1  0.10479100  0.25002800  0.25016600  1
  O  O28  1  0.39540300  0.25002800  0.89520900  1
  O  O29  1  0.74983400  0.25002800  0.60459700  1
  O  O30  1  0.08946400  0.11537700  0.69870900  1
  O  O31  1  0.72462200  0.11537700  0.91053600  1
  O  O32  1  0.30129100  0.11537700  0.27537800  1
  O  O33  1  0.90933200  0.88636900  0.30010900  1
  O  O34  1  0.27714500  0.88636900  0.09066800  1
  O  O35  1  0.69989100  0.88636900  0.72285500  1
  O  O36  1  0.22462200  0.61537700  0.19870900  1
  O  O37  1  0.80129100  0.61537700  0.41053600  1
  O  O38  1  0.58946400  0.61537700  0.77537800  1
  O  O39  1  0.77714500  0.38636900  0.80010900  1
  O  O40  1  0.19989100  0.38636900  0.59066800  1
  O  O41  1  0.40933200  0.38636900  0.22285500  1
