# generated using pymatgen
data_Na9U3Si4(O10F)2
_symmetry_space_group_name_H-M   'P 1'
_cell_length_a   5.94670200
_cell_length_b   7.48353605
_cell_length_c   12.04553321
_cell_angle_alpha   89.95161405
_cell_angle_beta   84.72313459
_cell_angle_gamma   89.99330844
_symmetry_Int_Tables_number   1
_chemical_formula_structural   Na9U3Si4(O10F)2
_chemical_formula_sum   'Na9 U3 Si4 O20 F2'
_cell_volume   533.78260446
_cell_formula_units_Z   1
loop_
 _symmetry_equiv_pos_site_id
 _symmetry_equiv_pos_as_xyz
  1  'x, y, z'
loop_
 _atom_site_type_symbol
 _atom_site_label
 _atom_site_symmetry_multiplicity
 _atom_site_fract_x
 _atom_site_fract_y
 _atom_site_fract_z
 _atom_site_occupancy
  Na  Na0  1  0.00000000  0.50000000  0.00000000  1
  Na  Na1  1  0.28574200  0.00013500  0.28066500  1
  Na  Na2  1  0.71425800  0.99986500  0.71933500  1
  Na  Na3  1  0.50005500  0.26073400  0.00003300  1
  Na  Na4  1  0.49994500  0.73926600  0.99996700  1
  Na  Na5  1  0.99985100  0.76746500  0.49991100  1
  Na  Na6  1  0.00014900  0.23253500  0.50008900  1
  Na  Na7  1  0.50007600  0.23103300  0.49996800  1
  Na  Na8  1  0.49992400  0.76896700  0.50003200  1
  U  U9  1  0.00000000  0.00000000  0.00000000  1
  U  U10  1  0.71386800  0.50021900  0.71695100  1
  U  U11  1  0.28613200  0.49978100  0.28304900  1
  Si  Si12  1  0.20263200  0.21500800  0.76464300  1
  Si  Si13  1  0.79736800  0.78499200  0.23535700  1
  Si  Si14  1  0.20243800  0.78537900  0.76469100  1
  Si  Si15  1  0.79756200  0.21462100  0.23530900  1
  O  O16  1  0.17164200  0.23588700  0.90063800  1
  O  O17  1  0.82835800  0.76411300  0.09936200  1
  O  O18  1  0.98859700  0.29403900  0.70337700  1
  O  O19  1  0.01140300  0.70596100  0.29662300  1
  O  O20  1  0.44844600  0.28695700  0.70992700  1
  O  O21  1  0.55155400  0.71304300  0.29007300  1
  O  O22  1  0.20073800  0.00024200  0.73676700  1
  O  O23  1  0.79926200  0.99975800  0.26323300  1
  O  O24  1  0.98836000  0.70663400  0.70342800  1
  O  O25  1  0.01164000  0.29336600  0.29657200  1
  O  O26  1  0.17123000  0.76409000  0.90067900  1
  O  O27  1  0.82877000  0.23591000  0.09932100  1
  O  O28  1  0.44829400  0.71351000  0.71007400  1
  O  O29  1  0.55170600  0.28649000  0.28992600  1
  O  O30  1  0.25313100  0.99971500  0.08520100  1
  O  O31  1  0.74686900  0.00028500  0.91479900  1
  O  O32  1  0.73696300  0.50066100  0.55787600  1
  O  O33  1  0.26303700  0.49933900  0.44212400  1
  O  O34  1  0.68712900  0.49993600  0.87573800  1
  O  O35  1  0.31287100  0.50006400  0.12426200  1
  F  F36  1  0.25619400  0.99982400  0.46664900  1
  F  F37  1  0.74380600  0.00017600  0.53335100  1
