# generated using pymatgen
data_HfAlFe
_symmetry_space_group_name_H-M   'P 1'
_cell_length_a   5.04695649
_cell_length_b   5.04447146
_cell_length_c   8.23680500
_cell_angle_alpha   90.00000000
_cell_angle_beta   90.00000000
_cell_angle_gamma   60.48622065
_symmetry_Int_Tables_number   1
_chemical_formula_structural   HfAlFe
_chemical_formula_sum   'Hf4 Al4 Fe4'
_cell_volume   182.49109670
_cell_formula_units_Z   4
loop_
 _symmetry_equiv_pos_site_id
 _symmetry_equiv_pos_as_xyz
  1  'x, y, z'
loop_
 _atom_site_type_symbol
 _atom_site_label
 _atom_site_symmetry_multiplicity
 _atom_site_fract_x
 _atom_site_fract_y
 _atom_site_fract_z
 _atom_site_occupancy
  Hf  Hf0  1  0.33513500  0.33547100  0.55233000  1
  Hf  Hf1  1  0.67100900  0.67096700  0.42745800  1
  Hf  Hf2  1  0.67100900  0.67096700  0.07254200  1
  Hf  Hf3  1  0.33513500  0.33547100  0.94767000  1
  Al  Al4  1  0.99340900  0.99345800  0.49056500  1
  Al  Al5  1  0.99340900  0.99345800  0.00943500  1
  Al  Al6  1  0.83357300  0.34414300  0.75000000  1
  Al  Al7  1  0.34493800  0.83357200  0.75000000  1
  Fe  Fe8  1  0.83437700  0.83291300  0.75000000  1
  Fe  Fe9  1  0.17004400  0.64970300  0.25000000  1
  Fe  Fe10  1  0.64912300  0.17076700  0.25000000  1
  Fe  Fe11  1  0.16884000  0.16911100  0.25000000  1
