# generated using pymatgen
data_CsAlTe3
_symmetry_space_group_name_H-M   'P 1'
_cell_length_a   14.13581500
_cell_length_b   7.30816300
_cell_length_c   8.29750867
_cell_angle_alpha   75.64462757
_cell_angle_beta   90.00000000
_cell_angle_gamma   90.00000000
_symmetry_Int_Tables_number   1
_chemical_formula_structural   CsAlTe3
_chemical_formula_sum   'Cs4 Al4 Te12'
_cell_volume   830.42500974
_cell_formula_units_Z   4
loop_
 _symmetry_equiv_pos_site_id
 _symmetry_equiv_pos_as_xyz
  1  'x, y, z'
loop_
 _atom_site_type_symbol
 _atom_site_label
 _atom_site_symmetry_multiplicity
 _atom_site_fract_x
 _atom_site_fract_y
 _atom_site_fract_z
 _atom_site_occupancy
  Cs  Cs0  1  0.58003100  0.78999200  0.74453800  1
  Cs  Cs1  1  0.08003100  0.71000800  0.25546200  1
  Cs  Cs2  1  0.41996900  0.21000800  0.25546200  1
  Cs  Cs3  1  0.91996900  0.28999200  0.74453800  1
  Al  Al4  1  0.72689100  0.84885300  0.17919800  1
  Al  Al5  1  0.22689100  0.65114700  0.82080200  1
  Al  Al6  1  0.27310900  0.15114700  0.82080200  1
  Al  Al7  1  0.77310900  0.34885300  0.17919800  1
  Te  Te8  1  0.67937400  0.35208300  0.45561400  1
  Te  Te9  1  0.17937400  0.14791700  0.54438600  1
  Te  Te10  1  0.32062600  0.64791700  0.54438600  1
  Te  Te11  1  0.82062600  0.85208300  0.45561400  1
  Te  Te12  1  0.83099200  0.67640000  0.99576200  1
  Te  Te13  1  0.33099200  0.82360000  0.00423800  1
  Te  Te14  1  0.16900800  0.32360000  0.00423800  1
  Te  Te15  1  0.66900800  0.17640000  0.99576200  1
  Te  Te16  1  0.57081900  0.65530900  0.28123900  1
  Te  Te17  1  0.07081900  0.84469100  0.71876100  1
  Te  Te18  1  0.42918100  0.34469100  0.71876100  1
  Te  Te19  1  0.92918100  0.15530900  0.28123900  1
