# generated using pymatgen
data_CsRb2Au7
_symmetry_space_group_name_H-M   'P 1'
_cell_length_a   7.47355085
_cell_length_b   7.47355085
_cell_length_c   7.40242700
_cell_angle_alpha   90.00000000
_cell_angle_beta   90.00000000
_cell_angle_gamma   135.03440341
_symmetry_Int_Tables_number   1
_chemical_formula_structural   CsRb2Au7
_chemical_formula_sum   'Cs1 Rb2 Au7'
_cell_volume   292.18114906
_cell_formula_units_Z   1
loop_
 _symmetry_equiv_pos_site_id
 _symmetry_equiv_pos_as_xyz
  1  'x, y, z'
loop_
 _atom_site_type_symbol
 _atom_site_label
 _atom_site_symmetry_multiplicity
 _atom_site_fract_x
 _atom_site_fract_y
 _atom_site_fract_z
 _atom_site_occupancy
  Cs  Cs0  1  0.33888200  0.66111800  0.50000000  1
  Rb  Rb1  1  0.50006400  0.49993600  0.00000000  1
  Rb  Rb2  1  0.66060500  0.33939500  0.50000000  1
  Au  Au3  1  0.89322000  0.10678000  0.19496700  1
  Au  Au4  1  0.10702100  0.89297900  0.19481300  1
  Au  Au5  1  0.10702100  0.89297900  0.80518700  1
  Au  Au6  1  0.89322000  0.10678000  0.80503300  1
  Au  Au7  1  0.50019400  0.00135900  0.00000000  1
  Au  Au8  1  0.99864100  0.49980600  0.00000000  1
  Au  Au9  1  0.00113200  0.99886800  0.50000000  1
