# generated using pymatgen
data_Fe13Mo9
_symmetry_space_group_name_H-M   'P 1'
_cell_length_a   11.01242108
_cell_length_b   11.01242108
_cell_length_c   11.89736871
_cell_angle_alpha   67.51756290
_cell_angle_beta   67.51756290
_cell_angle_gamma   24.62286297
_symmetry_Int_Tables_number   1
_chemical_formula_structural   Fe13Mo9
_chemical_formula_sum   'Fe26 Mo18'
_cell_volume   553.18825438
_cell_formula_units_Z   2
loop_
 _symmetry_equiv_pos_site_id
 _symmetry_equiv_pos_as_xyz
  1  'x, y, z'
loop_
 _atom_site_type_symbol
 _atom_site_label
 _atom_site_symmetry_multiplicity
 _atom_site_fract_x
 _atom_site_fract_y
 _atom_site_fract_z
 _atom_site_occupancy
  Fe  Fe0  1  0.84699000  0.84699000  0.39223500  1
  Fe  Fe1  1  0.15301000  0.15301000  0.60776500  1
  Fe  Fe2  1  0.40876700  0.90719300  0.43356800  1
  Fe  Fe3  1  0.59123300  0.09280700  0.56643200  1
  Fe  Fe4  1  0.09280700  0.59123300  0.56643200  1
  Fe  Fe5  1  0.90719300  0.40876700  0.43356800  1
  Fe  Fe6  1  0.59820900  0.12077100  0.20998500  1
  Fe  Fe7  1  0.40179100  0.87922900  0.79001500  1
  Fe  Fe8  1  0.87922900  0.40179100  0.79001500  1
  Fe  Fe9  1  0.12077100  0.59820900  0.20998500  1
  Fe  Fe10  1  0.14852500  0.14852500  0.11242400  1
  Fe  Fe11  1  0.85147500  0.85147500  0.88757600  1
  Fe  Fe12  1  0.30426600  0.79181600  0.21587900  1
  Fe  Fe13  1  0.69573400  0.20818400  0.78412000  1
  Fe  Fe14  1  0.20818400  0.69573400  0.78412000  1
  Fe  Fe15  1  0.79181600  0.30426600  0.21587900  1
  Fe  Fe16  1  0.50000000  0.00000000  0.00000000  1
  Fe  Fe17  1  0.00000000  0.50000000  0.00000000  1
  Fe  Fe18  1  0.95254900  0.95254900  0.21665500  1
  Fe  Fe19  1  0.04745100  0.04745100  0.78334500  1
  Fe  Fe20  1  0.75686900  0.75686900  0.32971000  1
  Fe  Fe21  1  0.24313100  0.24313100  0.67029000  1
  Fe  Fe22  1  0.89614400  0.89614400  0.67248000  1
  Fe  Fe23  1  0.10385600  0.10385600  0.32752000  1
  Fe  Fe24  1  0.80285200  0.80285200  0.11151600  1
  Fe  Fe25  1  0.19714800  0.19714800  0.88848400  1
  Mo  Mo26  1  0.42023700  0.42023700  0.35801100  1
  Mo  Mo27  1  0.57976300  0.57976300  0.64198900  1
  Mo  Mo28  1  0.47652300  0.47652300  0.11267100  1
  Mo  Mo29  1  0.52347700  0.52347700  0.88732900  1
  Mo  Mo30  1  0.55433500  0.55433500  0.40880900  1
  Mo  Mo31  1  0.44566500  0.44566500  0.59119100  1
  Mo  Mo32  1  0.66888500  0.66888500  0.20807600  1
  Mo  Mo33  1  0.33111500  0.33111500  0.79192400  1
  Mo  Mo34  1  0.63452900  0.63452900  0.00181600  1
  Mo  Mo35  1  0.36547100  0.36547100  0.99818400  1
  Mo  Mo36  1  0.93622500  0.93622500  0.00044300  1
  Mo  Mo37  1  0.06377500  0.06377500  0.99955700  1
  Mo  Mo38  1  0.24138500  0.24138500  0.21776600  1
  Mo  Mo39  1  0.75861500  0.75861500  0.78223400  1
  Mo  Mo40  1  0.96771400  0.96771400  0.42187200  1
  Mo  Mo41  1  0.03228600  0.03228600  0.57812800  1
  Mo  Mo42  1  0.72274900  0.72274900  0.57522800  1
  Mo  Mo43  1  0.27725100  0.27725100  0.42477200  1
