# generated using pymatgen
data_TiP3WO12
_symmetry_space_group_name_H-M   'P 1'
_cell_length_a   8.85195695
_cell_length_b   8.85195612
_cell_length_c   8.85195736
_cell_angle_alpha   59.06029515
_cell_angle_beta   59.06029756
_cell_angle_gamma   59.06029818
_symmetry_Int_Tables_number   1
_chemical_formula_structural   TiP3WO12
_chemical_formula_sum   'Ti2 P6 W2 O24'
_cell_volume   479.94985523
_cell_formula_units_Z   2
loop_
 _symmetry_equiv_pos_site_id
 _symmetry_equiv_pos_as_xyz
  1  'x, y, z'
loop_
 _atom_site_type_symbol
 _atom_site_label
 _atom_site_symmetry_multiplicity
 _atom_site_fract_x
 _atom_site_fract_y
 _atom_site_fract_z
 _atom_site_occupancy
  Ti  Ti0  1  0.13950800  0.13950800  0.13950800  1
  Ti  Ti1  1  0.63950800  0.63950800  0.63950800  1
  P  P2  1  0.03197100  0.46361700  0.75141400  1
  P  P3  1  0.46361700  0.75141400  0.03197100  1
  P  P4  1  0.75141400  0.03197100  0.46361700  1
  P  P5  1  0.25141400  0.96361700  0.53197100  1
  P  P6  1  0.53197100  0.25141400  0.96361700  1
  P  P7  1  0.96361700  0.53197100  0.25141400  1
  W  W8  1  0.35839200  0.35839200  0.35839200  1
  W  W9  1  0.85839200  0.85839200  0.85839200  1
  O  O10  1  0.13319100  0.50974000  0.28165300  1
  O  O11  1  0.28165300  0.13319100  0.50974000  1
  O  O12  1  0.06210500  0.28702800  0.92142000  1
  O  O13  1  0.50974000  0.28165300  0.13319100  1
  O  O14  1  0.00974000  0.63319100  0.78165300  1
  O  O15  1  0.21326800  0.44082100  0.57909700  1
  O  O16  1  0.28702800  0.92142000  0.06210500  1
  O  O17  1  0.44082100  0.57909700  0.21326800  1
  O  O18  1  0.21409300  0.00055200  0.36387300  1
  O  O19  1  0.57909700  0.21326800  0.44082100  1
  O  O20  1  0.07909700  0.94082100  0.71326800  1
  O  O21  1  0.36387300  0.21409300  0.00055200  1
  O  O22  1  0.63319100  0.78165300  0.00974000  1
  O  O23  1  0.92142000  0.06210500  0.28702800  1
  O  O24  1  0.42142000  0.78702800  0.56210500  1
  O  O25  1  0.78165300  0.00974000  0.63319100  1
  O  O26  1  0.56210500  0.42142000  0.78702800  1
  O  O27  1  0.71326800  0.07909700  0.94082100  1
  O  O28  1  0.78702800  0.56210500  0.42142000  1
  O  O29  1  0.00055200  0.36387300  0.21409300  1
  O  O30  1  0.50055200  0.71409300  0.86387300  1
  O  O31  1  0.94082100  0.71326800  0.07909700  1
  O  O32  1  0.71409300  0.86387300  0.50055200  1
  O  O33  1  0.86387300  0.50055200  0.71409300  1
