# generated using pymatgen
data_Ba3WN4
_symmetry_space_group_name_H-M   'P 1'
_cell_length_a   10.56264900
_cell_length_b   10.98306900
_cell_length_c   12.42217700
_cell_angle_alpha   90.00000000
_cell_angle_beta   90.00000000
_cell_angle_gamma   90.00000000
_symmetry_Int_Tables_number   1
_chemical_formula_structural   Ba3WN4
_chemical_formula_sum   'Ba24 W8 N32'
_cell_volume   1441.10051508
_cell_formula_units_Z   8
loop_
 _symmetry_equiv_pos_site_id
 _symmetry_equiv_pos_as_xyz
  1  'x, y, z'
loop_
 _atom_site_type_symbol
 _atom_site_label
 _atom_site_symmetry_multiplicity
 _atom_site_fract_x
 _atom_site_fract_y
 _atom_site_fract_z
 _atom_site_occupancy
  Ba  Ba0  1  0.88014800  0.96884700  0.13910000  1
  Ba  Ba1  1  0.38014800  0.03115300  0.36090000  1
  Ba  Ba2  1  0.61985200  0.46884700  0.86090000  1
  Ba  Ba3  1  0.11985200  0.53115300  0.63910000  1
  Ba  Ba4  1  0.11985200  0.03115300  0.86090000  1
  Ba  Ba5  1  0.61985200  0.96884700  0.63910000  1
  Ba  Ba6  1  0.38014800  0.53115300  0.13910000  1
  Ba  Ba7  1  0.88014800  0.46884700  0.36090000  1
  Ba  Ba8  1  0.70707900  0.27784500  0.12175500  1
  Ba  Ba9  1  0.20707900  0.72215500  0.37824500  1
  Ba  Ba10  1  0.79292100  0.77784500  0.87824500  1
  Ba  Ba11  1  0.29292100  0.22215500  0.62175500  1
  Ba  Ba12  1  0.29292100  0.72215500  0.87824500  1
  Ba  Ba13  1  0.79292100  0.27784500  0.62175500  1
  Ba  Ba14  1  0.20707900  0.22215500  0.12175500  1
  Ba  Ba15  1  0.70707900  0.77784500  0.37824500  1
  Ba  Ba16  1  0.53353500  0.87510200  0.10643800  1
  Ba  Ba17  1  0.03353500  0.62489800  0.10643800  1
  Ba  Ba18  1  0.96646500  0.87510200  0.60643800  1
  Ba  Ba19  1  0.46646500  0.12489800  0.89356200  1
  Ba  Ba20  1  0.46646500  0.62489800  0.60643800  1
  Ba  Ba21  1  0.96646500  0.37510200  0.89356200  1
  Ba  Ba22  1  0.03353500  0.12489800  0.39356200  1
  Ba  Ba23  1  0.53353500  0.37510200  0.39356200  1
  W  W24  1  0.70228500  0.59488500  0.11487800  1
  W  W25  1  0.20228500  0.40511500  0.38512200  1
  W  W26  1  0.79771500  0.09488500  0.88512200  1
  W  W27  1  0.29771500  0.90511500  0.61487800  1
  W  W28  1  0.29771500  0.40511500  0.88512200  1
  W  W29  1  0.79771500  0.59488500  0.61487800  1
  W  W30  1  0.20228500  0.90511500  0.11487800  1
  W  W31  1  0.70228500  0.09488500  0.38512200  1
  N  N32  1  0.79355900  0.22549600  0.32095100  1
  N  N33  1  0.29355900  0.77450400  0.17904900  1
  N  N34  1  0.70644100  0.72549600  0.67904900  1
  N  N35  1  0.20644100  0.27450400  0.82095100  1
  N  N36  1  0.20644100  0.77450400  0.67904900  1
  N  N37  1  0.70644100  0.22549600  0.82095100  1
  N  N38  1  0.29355900  0.27450400  0.32095100  1
  N  N39  1  0.79355900  0.72549600  0.17904900  1
  N  N40  1  0.81391900  0.49286100  0.03711100  1
  N  N41  1  0.31391900  0.50713900  0.46288900  1
  N  N42  1  0.68608100  0.99286100  0.96288900  1
  N  N43  1  0.18608100  0.00713900  0.53711100  1
  N  N44  1  0.18608100  0.50713900  0.96288900  1
  N  N45  1  0.68608100  0.49286100  0.53711100  1
  N  N46  1  0.31391900  0.00713900  0.03711100  1
  N  N47  1  0.62357300  0.99411400  0.28231400  1
  N  N48  1  0.57680200  0.15244800  0.48179600  1
  N  N49  1  0.07680200  0.84755200  0.01820400  1
  N  N50  1  0.92319800  0.65244800  0.51820400  1
  N  N51  1  0.42319800  0.34755200  0.98179600  1
  N  N52  1  0.42319800  0.84755200  0.51820400  1
  N  N53  1  0.92319800  0.15244800  0.98179600  1
  N  N54  1  0.07680200  0.34755200  0.48179600  1
  N  N55  1  0.57680200  0.65244800  0.01820400  1
  N  N56  1  0.62357300  0.49411400  0.21768600  1
  N  N57  1  0.12357300  0.50588600  0.28231400  1
  N  N58  1  0.87642700  0.99411400  0.78231400  1
  N  N59  1  0.37642700  0.00588600  0.71768600  1
  N  N60  1  0.37642700  0.50588600  0.78231400  1
  N  N61  1  0.87642700  0.49411400  0.71768600  1
  N  N62  1  0.12357300  0.00588600  0.21768600  1
  N  N63  1  0.81391900  0.99286100  0.46288900  1
