# generated using pymatgen
data_Er4OsBr4
_symmetry_space_group_name_H-M   'P 1'
_cell_length_a   8.81980586
_cell_length_b   8.81980586
_cell_length_c   6.53160967
_cell_angle_alpha   89.48758758
_cell_angle_beta   89.48758758
_cell_angle_gamma   89.36241173
_symmetry_Int_Tables_number   1
_chemical_formula_structural   Er4OsBr4
_chemical_formula_sum   'Er8 Os2 Br8'
_cell_volume   508.01557723
_cell_formula_units_Z   2
loop_
 _symmetry_equiv_pos_site_id
 _symmetry_equiv_pos_as_xyz
  1  'x, y, z'
loop_
 _atom_site_type_symbol
 _atom_site_label
 _atom_site_symmetry_multiplicity
 _atom_site_fract_x
 _atom_site_fract_y
 _atom_site_fract_z
 _atom_site_occupancy
  Er  Er0  1  0.24964300  0.90103200  0.01007800  1
  Er  Er1  1  0.75035700  0.09896800  0.98992200  1
  Er  Er2  1  0.09896800  0.75035700  0.48992200  1
  Er  Er3  1  0.90103200  0.24964300  0.51007800  1
  Er  Er4  1  0.75110400  0.90214600  0.50924500  1
  Er  Er5  1  0.24889600  0.09785400  0.49075500  1
  Er  Er6  1  0.09785400  0.24889600  0.99075500  1
  Er  Er7  1  0.90214600  0.75110400  0.00924500  1
  Os  Os8  1  0.99466900  0.00533100  0.25000000  1
  Os  Os9  1  0.00533100  0.99466900  0.75000000  1
  Br  Br10  1  0.42226600  0.81551100  0.40298900  1
  Br  Br11  1  0.57773400  0.18448900  0.59701100  1
  Br  Br12  1  0.18448900  0.57773400  0.09701100  1
  Br  Br13  1  0.81551100  0.42226600  0.90298900  1
  Br  Br14  1  0.41802300  0.19387000  0.09873600  1
  Br  Br15  1  0.58197700  0.80613000  0.90126400  1
  Br  Br16  1  0.80613000  0.58197700  0.40126400  1
  Br  Br17  1  0.19387000  0.41802300  0.59873600  1
