# generated using pymatgen
data_K3NbS4
_symmetry_space_group_name_H-M   'P 1'
_cell_length_a   9.38187100
_cell_length_b   9.61876600
_cell_length_c   10.88931200
_cell_angle_alpha   90.00000000
_cell_angle_beta   90.00000000
_cell_angle_gamma   90.00000000
_symmetry_Int_Tables_number   1
_chemical_formula_structural   K3NbS4
_chemical_formula_sum   'K12 Nb4 S16'
_cell_volume   982.67353080
_cell_formula_units_Z   4
loop_
 _symmetry_equiv_pos_site_id
 _symmetry_equiv_pos_as_xyz
  1  'x, y, z'
loop_
 _atom_site_type_symbol
 _atom_site_label
 _atom_site_symmetry_multiplicity
 _atom_site_fract_x
 _atom_site_fract_y
 _atom_site_fract_z
 _atom_site_occupancy
  K  K0  1  0.06042700  0.28767700  0.95455100  1
  K  K1  1  0.63285200  0.42557000  0.25000000  1
  K  K2  1  0.36714800  0.57443000  0.75000000  1
  K  K3  1  0.86714800  0.92557000  0.75000000  1
  K  K4  1  0.93957300  0.71232300  0.04544900  1
  K  K5  1  0.43957300  0.78767700  0.45455100  1
  K  K6  1  0.56042700  0.21232300  0.95455100  1
  K  K7  1  0.06042700  0.28767700  0.54544900  1
  K  K8  1  0.93957300  0.71232300  0.45455100  1
  K  K9  1  0.56042700  0.21232300  0.54544900  1
  K  K10  1  0.43957300  0.78767700  0.04544900  1
  K  K11  1  0.13285200  0.07443000  0.25000000  1
  Nb  Nb12  1  0.21355800  0.51178900  0.25000000  1
  Nb  Nb13  1  0.71355800  0.98821100  0.25000000  1
  Nb  Nb14  1  0.28644200  0.01178900  0.75000000  1
  Nb  Nb15  1  0.78644200  0.48821100  0.75000000  1
  S  S16  1  0.66555200  0.55144500  0.92392800  1
  S  S17  1  0.16555200  0.94855500  0.57607200  1
  S  S18  1  0.83444800  0.05144500  0.07607200  1
  S  S19  1  0.33444800  0.44855500  0.42392800  1
  S  S20  1  0.33444800  0.44855500  0.07607200  1
  S  S21  1  0.83444800  0.05144500  0.42392800  1
  S  S22  1  0.16555200  0.94855500  0.92392800  1
  S  S23  1  0.66555200  0.55144500  0.57607200  1
  S  S24  1  0.18858700  0.74948200  0.25000000  1
  S  S25  1  0.68858700  0.75051800  0.25000000  1
  S  S26  1  0.31141300  0.24948200  0.75000000  1
  S  S27  1  0.81141300  0.25051800  0.75000000  1
  S  S28  1  0.99151700  0.41127800  0.25000000  1
  S  S29  1  0.00848300  0.58872200  0.75000000  1
  S  S30  1  0.50848300  0.91127800  0.75000000  1
  S  S31  1  0.49151700  0.08872200  0.25000000  1
