# generated using pymatgen
data_CaLaMnNbO6
_symmetry_space_group_name_H-M   'P 1'
_cell_length_a   5.82463000
_cell_length_b   9.83068652
_cell_length_c   9.85411266
_cell_angle_alpha   69.84495328
_cell_angle_beta   90.00014989
_cell_angle_gamma   90.00023586
_symmetry_Int_Tables_number   1
_chemical_formula_structural   CaLaMnNbO6
_chemical_formula_sum   'Ca4 La4 Mn4 Nb4 O24'
_cell_volume   529.69512723
_cell_formula_units_Z   4
loop_
 _symmetry_equiv_pos_site_id
 _symmetry_equiv_pos_as_xyz
  1  'x, y, z'
loop_
 _atom_site_type_symbol
 _atom_site_label
 _atom_site_symmetry_multiplicity
 _atom_site_fract_x
 _atom_site_fract_y
 _atom_site_fract_z
 _atom_site_occupancy
  Ca  Ca0  1  0.55262000  0.88020300  0.36792000  1
  Ca  Ca1  1  0.55260800  0.38019100  0.86791600  1
  Ca  Ca2  1  0.94738000  0.88019500  0.86791200  1
  Ca  Ca3  1  0.94738300  0.38019700  0.36792700  1
  La  La4  1  0.44870800  0.12057600  0.63209600  1
  La  La5  1  0.44870800  0.62058200  0.13209100  1
  La  La6  1  0.05128400  0.12057700  0.13209500  1
  La  La7  1  0.05129200  0.62057600  0.63209300  1
  Mn  Mn8  1  0.50247800  0.74927300  0.75041800  1
  Mn  Mn9  1  0.99751400  0.74927200  0.25041900  1
  Mn  Mn10  1  0.50244800  0.24928100  0.25042000  1
  Mn  Mn11  1  0.99754500  0.24927500  0.75042500  1
  Nb  Nb12  1  0.50290800  0.00060400  0.00100100  1
  Nb  Nb13  1  0.50290500  0.50060300  0.50099900  1
  Nb  Nb14  1  0.99708800  0.00060300  0.50100000  1
  Nb  Nb15  1  0.99708800  0.50060100  0.00100200  1
  O  O16  1  0.80839600  0.12019300  0.32956400  1
  O  O17  1  0.80839900  0.62019700  0.82956400  1
  O  O18  1  0.69159600  0.12019600  0.82956100  1
  O  O19  1  0.69159600  0.62019400  0.32956100  1
  O  O20  1  0.18739800  0.87951400  0.67056800  1
  O  O21  1  0.18739600  0.37951400  0.17056800  1
  O  O22  1  0.31260300  0.87951400  0.17056900  1
  O  O23  1  0.31260000  0.37951300  0.67057000  1
  O  O24  1  0.28578700  0.06313400  0.37864300  1
  O  O25  1  0.28578500  0.56313400  0.87864100  1
  O  O26  1  0.21421600  0.06313500  0.87864100  1
  O  O27  1  0.21420800  0.56313400  0.37863900  1
  O  O28  1  0.71009900  0.93484700  0.62181600  1
  O  O29  1  0.71010000  0.43484500  0.12181900  1
  O  O30  1  0.78999700  0.93487300  0.12178000  1
  O  O31  1  0.78989500  0.43484800  0.62181600  1
  O  O32  1  0.95849600  0.82982100  0.43079900  1
  O  O33  1  0.95849700  0.32982200  0.93079700  1
  O  O34  1  0.54149500  0.32982000  0.43080300  1
  O  O35  1  0.54149700  0.82982100  0.93079900  1
  O  O36  1  0.03702400  0.17182900  0.56719000  1
  O  O37  1  0.03702300  0.67183000  0.06718900  1
  O  O38  1  0.46297200  0.67183400  0.56718300  1
  O  O39  1  0.46296800  0.17183000  0.06718600  1
