# generated using pymatgen
data_Nd12Co6Pb
_symmetry_space_group_name_H-M   'P 1'
_cell_length_a   8.71613519
_cell_length_b   8.71613519
_cell_length_c   8.71613519
_cell_angle_alpha   109.47122063
_cell_angle_beta   109.47122063
_cell_angle_gamma   109.47122063
_symmetry_Int_Tables_number   1
_chemical_formula_structural   Nd12Co6Pb
_chemical_formula_sum   'Nd12 Co6 Pb1'
_cell_volume   509.74148840
_cell_formula_units_Z   1
loop_
 _symmetry_equiv_pos_site_id
 _symmetry_equiv_pos_as_xyz
  1  'x, y, z'
loop_
 _atom_site_type_symbol
 _atom_site_label
 _atom_site_symmetry_multiplicity
 _atom_site_fract_x
 _atom_site_fract_y
 _atom_site_fract_z
 _atom_site_occupancy
  Nd  Nd0  1  0.80910600  0.69147300  0.50057900  1
  Nd  Nd1  1  0.19089400  0.30852700  0.49942100  1
  Nd  Nd2  1  0.19089400  0.69147300  0.88236700  1
  Nd  Nd3  1  0.80910600  0.30852700  0.11763300  1
  Nd  Nd4  1  0.69147300  0.50057900  0.80910600  1
  Nd  Nd5  1  0.30852700  0.49942100  0.19089400  1
  Nd  Nd6  1  0.69147300  0.88236700  0.19089400  1
  Nd  Nd7  1  0.30852700  0.11763300  0.80910600  1
  Nd  Nd8  1  0.50057900  0.80910600  0.69147300  1
  Nd  Nd9  1  0.49942100  0.19089400  0.30852700  1
  Nd  Nd10  1  0.11763300  0.80910600  0.30852700  1
  Nd  Nd11  1  0.88236700  0.19089400  0.69147300  1
  Co  Co12  1  0.88970500  0.38970500  0.50000000  1
  Co  Co13  1  0.11029500  0.61029500  0.50000000  1
  Co  Co14  1  0.38970500  0.50000000  0.88970500  1
  Co  Co15  1  0.61029500  0.50000000  0.11029500  1
  Co  Co16  1  0.50000000  0.88970500  0.38970500  1
  Co  Co17  1  0.50000000  0.11029500  0.61029500  1
  Pb  Pb18  1  0.00000000  0.00000000  0.00000000  1
