# generated using pymatgen
data_CdPdF6
_symmetry_space_group_name_H-M   'P 1'
_cell_length_a   5.74165260
_cell_length_b   5.74165260
_cell_length_c   5.74165306
_cell_angle_alpha   54.57848329
_cell_angle_beta   54.57848329
_cell_angle_gamma   54.57847567
_symmetry_Int_Tables_number   1
_chemical_formula_structural   CdPdF6
_chemical_formula_sum   'Cd1 Pd1 F6'
_cell_volume   116.93122409
_cell_formula_units_Z   1
loop_
 _symmetry_equiv_pos_site_id
 _symmetry_equiv_pos_as_xyz
  1  'x, y, z'
loop_
 _atom_site_type_symbol
 _atom_site_label
 _atom_site_symmetry_multiplicity
 _atom_site_fract_x
 _atom_site_fract_y
 _atom_site_fract_z
 _atom_site_occupancy
  Cd  Cd0  1  0.50000000  0.50000000  0.50000000  1
  Pd  Pd1  1  0.00000000  0.00000000  0.00000000  1
  F  F2  1  0.07390300  0.38149700  0.77816600  1
  F  F3  1  0.77816600  0.07390300  0.38149700  1
  F  F4  1  0.61850300  0.22183400  0.92609700  1
  F  F5  1  0.22183400  0.92609700  0.61850300  1
  F  F6  1  0.92609700  0.61850300  0.22183400  1
  F  F7  1  0.38149700  0.77816600  0.07390300  1
