# generated using pymatgen
data_CrPbO4
_symmetry_space_group_name_H-M   'P 1'
_cell_length_a   7.62051100
_cell_length_b   6.92266900
_cell_length_c   8.86000478
_cell_angle_alpha   53.30436059
_cell_angle_beta   90.00000000
_cell_angle_gamma   90.00000000
_symmetry_Int_Tables_number   1
_chemical_formula_structural   CrPbO4
_chemical_formula_sum   'Cr4 Pb4 O16'
_cell_volume   374.77370432
_cell_formula_units_Z   4
loop_
 _symmetry_equiv_pos_site_id
 _symmetry_equiv_pos_as_xyz
  1  'x, y, z'
loop_
 _atom_site_type_symbol
 _atom_site_label
 _atom_site_symmetry_multiplicity
 _atom_site_fract_x
 _atom_site_fract_y
 _atom_site_fract_z
 _atom_site_occupancy
  Cr  Cr0  1  0.66511300  0.31716500  0.79829100  1
  Cr  Cr1  1  0.83488700  0.31716500  0.29829100  1
  Cr  Cr2  1  0.16511300  0.68283500  0.70170900  1
  Cr  Cr3  1  0.33488700  0.68283500  0.20170900  1
  Pb  Pb4  1  0.63324300  0.81176400  0.78431100  1
  Pb  Pb5  1  0.13324300  0.18823600  0.71568900  1
  Pb  Pb6  1  0.36675700  0.18823600  0.21568900  1
  Pb  Pb7  1  0.86675700  0.81176400  0.28431100  1
  O  O8  1  0.70938300  0.59488800  0.61145200  1
  O  O9  1  0.20938300  0.40511200  0.88854800  1
  O  O10  1  0.29061700  0.40511200  0.38854800  1
  O  O11  1  0.79061700  0.59488800  0.11145200  1
  O  O12  1  0.59511100  0.34902300  0.96296400  1
  O  O13  1  0.09511100  0.65097700  0.53703600  1
  O  O14  1  0.40488900  0.65097700  0.03703600  1
  O  O15  1  0.90488900  0.34902300  0.46296400  1
  O  O16  1  0.98560100  0.18404400  0.25282300  1
  O  O17  1  0.48560100  0.81595600  0.24717700  1
  O  O18  1  0.01439900  0.81595600  0.74717700  1
  O  O19  1  0.51439900  0.18404400  0.75282300  1
  O  O20  1  0.65395800  0.14618800  0.37478500  1
  O  O21  1  0.15395800  0.85381200  0.12521500  1
  O  O22  1  0.34604200  0.85381200  0.62521500  1
  O  O23  1  0.84604200  0.14618800  0.87478500  1
