# generated using pymatgen
data_Sr2Sb3
_symmetry_space_group_name_H-M   'P 1'
_cell_length_a   13.11468900
_cell_length_b   6.73909300
_cell_length_c   15.34786870
_cell_angle_alpha   89.96022710
_cell_angle_beta   90.00000000
_cell_angle_gamma   90.00000000
_symmetry_Int_Tables_number   1
_chemical_formula_structural   Sr2Sb3
_chemical_formula_sum   'Sr16 Sb24'
_cell_volume   1356.46132698
_cell_formula_units_Z   8
loop_
 _symmetry_equiv_pos_site_id
 _symmetry_equiv_pos_as_xyz
  1  'x, y, z'
loop_
 _atom_site_type_symbol
 _atom_site_label
 _atom_site_symmetry_multiplicity
 _atom_site_fract_x
 _atom_site_fract_y
 _atom_site_fract_z
 _atom_site_occupancy
  Sr  Sr0  1  0.87609900  0.25375400  0.99644600  1
  Sr  Sr1  1  0.37609900  0.74624600  0.50355400  1
  Sr  Sr2  1  0.12390100  0.74624600  0.00355400  1
  Sr  Sr3  1  0.62390100  0.25375400  0.49644600  1
  Sr  Sr4  1  0.87301600  0.75308800  0.49595900  1
  Sr  Sr5  1  0.37301600  0.24691200  0.00404100  1
  Sr  Sr6  1  0.12698400  0.24691200  0.50404100  1
  Sr  Sr7  1  0.62698400  0.75308800  0.99595900  1
  Sr  Sr8  1  0.72139700  0.99415100  0.24431600  1
  Sr  Sr9  1  0.22139700  0.00584900  0.25568400  1
  Sr  Sr10  1  0.27860300  0.00584900  0.75568400  1
  Sr  Sr11  1  0.77860300  0.99415100  0.74431600  1
  Sr  Sr12  1  0.52857200  0.49260900  0.25248400  1
  Sr  Sr13  1  0.02857200  0.50739100  0.24751600  1
  Sr  Sr14  1  0.47142800  0.50739100  0.74751600  1
  Sr  Sr15  1  0.97142800  0.49260900  0.75248400  1
  Sb  Sb16  1  0.63148700  0.26280200  0.07169700  1
  Sb  Sb17  1  0.13148700  0.73719800  0.42830300  1
  Sb  Sb18  1  0.36851300  0.73719800  0.92830300  1
  Sb  Sb19  1  0.86851300  0.26280200  0.57169700  1
  Sb  Sb20  1  0.77854600  0.53538400  0.15930500  1
  Sb  Sb21  1  0.27854600  0.46461600  0.34069500  1
  Sb  Sb22  1  0.22145400  0.46461600  0.84069500  1
  Sb  Sb23  1  0.72145400  0.53538400  0.65930500  1
  Sb  Sb24  1  0.79538800  0.41960500  0.34317100  1
  Sb  Sb25  1  0.29538800  0.58039500  0.15682900  1
  Sb  Sb26  1  0.20461200  0.58039500  0.65682900  1
  Sb  Sb27  1  0.70461200  0.41960500  0.84317100  1
  Sb  Sb28  1  0.95472300  0.08479200  0.34588400  1
  Sb  Sb29  1  0.45472300  0.91520800  0.15411600  1
  Sb  Sb30  1  0.04527700  0.91520800  0.65411600  1
  Sb  Sb31  1  0.54527700  0.08479200  0.84588400  1
  Sb  Sb32  1  0.96877100  0.96596300  0.16200900  1
  Sb  Sb33  1  0.46877100  0.03403700  0.33799100  1
  Sb  Sb34  1  0.03122900  0.03403700  0.83799100  1
  Sb  Sb35  1  0.53122900  0.96596300  0.66200900  1
  Sb  Sb36  1  0.61666500  0.76434800  0.42344200  1
  Sb  Sb37  1  0.11666500  0.23565200  0.07655800  1
  Sb  Sb38  1  0.38333500  0.23565200  0.57655800  1
  Sb  Sb39  1  0.88333500  0.76434800  0.92344200  1
