# generated using pymatgen
data_YbSiAu
_symmetry_space_group_name_H-M   'P 1'
_cell_length_a   5.65179027
_cell_length_b   5.65179027
_cell_length_c   5.65179027
_cell_angle_alpha   133.48652729
_cell_angle_beta   103.20031002
_cell_angle_gamma   94.78746733
_symmetry_Int_Tables_number   1
_chemical_formula_structural   YbSiAu
_chemical_formula_sum   'Yb2 Si2 Au2'
_cell_volume   119.89650154
_cell_formula_units_Z   2
loop_
 _symmetry_equiv_pos_site_id
 _symmetry_equiv_pos_as_xyz
  1  'x, y, z'
loop_
 _atom_site_type_symbol
 _atom_site_label
 _atom_site_symmetry_multiplicity
 _atom_site_fract_x
 _atom_site_fract_y
 _atom_site_fract_z
 _atom_site_occupancy
  Yb  Yb0  1  0.29339800  0.29339800  0.00000000  1
  Yb  Yb1  1  0.86393800  0.36393800  0.50000000  1
  Si  Si2  1  0.47965600  0.66008100  0.81957500  1
  Si  Si3  1  0.84050600  0.66008100  0.18042500  1
  Au  Au4  1  0.26656600  0.99215100  0.27441500  1
  Au  Au5  1  0.71773600  0.99215100  0.72558500  1
