# generated using pymatgen
data_Cs3Y(PO4)2
_symmetry_space_group_name_H-M   'P 1'
_cell_length_a   10.53033500
_cell_length_b   10.36975900
_cell_length_c   10.73143975
_cell_angle_alpha   72.49866858
_cell_angle_beta   90.00000000
_cell_angle_gamma   90.00000000
_symmetry_Int_Tables_number   1
_chemical_formula_structural   Cs3Y(PO4)2
_chemical_formula_sum   'Cs12 Y4 P8 O32'
_cell_volume   1117.59683103
_cell_formula_units_Z   4
loop_
 _symmetry_equiv_pos_site_id
 _symmetry_equiv_pos_as_xyz
  1  'x, y, z'
loop_
 _atom_site_type_symbol
 _atom_site_label
 _atom_site_symmetry_multiplicity
 _atom_site_fract_x
 _atom_site_fract_y
 _atom_site_fract_z
 _atom_site_occupancy
  Cs  Cs0  1  0.31305500  0.01042700  0.70509600  1
  Cs  Cs1  1  0.81305500  0.98957300  0.29490400  1
  Cs  Cs2  1  0.46273800  0.96547400  0.16519300  1
  Cs  Cs3  1  0.96273800  0.03452600  0.83480700  1
  Cs  Cs4  1  0.33209700  0.72099500  0.51909400  1
  Cs  Cs5  1  0.83209700  0.27900500  0.48090600  1
  Cs  Cs6  1  0.41417200  0.47781600  0.27785600  1
  Cs  Cs7  1  0.91417200  0.52218400  0.72214400  1
  Cs  Cs8  1  0.25135800  0.27501200  0.93450800  1
  Cs  Cs9  1  0.75135800  0.72498800  0.06549200  1
  Cs  Cs10  1  0.21231400  0.66796200  0.95532400  1
  Cs  Cs11  1  0.71231400  0.33203800  0.04467600  1
  Y  Y12  1  0.52241600  0.34409500  0.66108400  1
  Y  Y13  1  0.02241600  0.65590500  0.33891600  1
  Y  Y14  1  0.66625200  0.84183400  0.66130200  1
  Y  Y15  1  0.16625200  0.15816600  0.33869800  1
  P  P16  1  0.64175900  0.09938500  0.84730800  1
  P  P17  1  0.14175900  0.90061500  0.15269200  1
  P  P18  1  0.17822400  0.36290300  0.57460200  1
  P  P19  1  0.67822400  0.63709700  0.42539800  1
  P  P20  1  0.01117500  0.86758100  0.57594600  1
  P  P21  1  0.51117500  0.13241900  0.42405400  1
  P  P22  1  0.53834100  0.60184200  0.84364600  1
  P  P23  1  0.03834100  0.39815800  0.15635400  1
  O  O24  1  0.12264600  0.50537300  0.49967900  1
  O  O25  1  0.62264600  0.49462700  0.50032100  1
  O  O26  1  0.09465700  0.29293700  0.69323100  1
  O  O27  1  0.59465700  0.70706300  0.30676900  1
  O  O28  1  0.31521100  0.38676800  0.62121600  1
  O  O29  1  0.81521100  0.61323200  0.37878400  1
  O  O30  1  0.18686900  0.27795200  0.47884100  1
  O  O31  1  0.68686900  0.72204800  0.52115900  1
  O  O32  1  0.06107600  0.01125700  0.49804300  1
  O  O33  1  0.56107600  0.98874300  0.50195700  1
  O  O34  1  0.87299500  0.88850200  0.62170900  1
  O  O35  1  0.37299500  0.11149800  0.37829100  1
  O  O36  1  0.09599500  0.80300200  0.69486600  1
  O  O37  1  0.59599500  0.19699800  0.30513400  1
  O  O38  1  0.00695400  0.77888100  0.48184300  1
  O  O39  1  0.50695400  0.22111900  0.51815700  1
  O  O40  1  0.47375400  0.73360500  0.75299700  1
  O  O41  1  0.97375400  0.26639500  0.24700300  1
  O  O42  1  0.49539100  0.56712500  0.98657600  1
  O  O43  1  0.99539100  0.43287500  0.01342400  1
  O  O44  1  0.51221600  0.47961500  0.79016800  1
  O  O45  1  0.01221600  0.52038500  0.20983200  1
  O  O46  1  0.68483900  0.63746000  0.82977000  1
  O  O47  1  0.18483900  0.36254000  0.17023000  1
  O  O48  1  0.66150600  0.97771300  0.79173200  1
  O  O49  1  0.16150600  0.02228700  0.20826800  1
  O  O50  1  0.49773500  0.14269000  0.84017900  1
  O  O51  1  0.99773500  0.85731000  0.15982100  1
  O  O52  1  0.70883500  0.22955000  0.75484900  1
  O  O53  1  0.20883500  0.77045000  0.24515100  1
  O  O54  1  0.69490100  0.06096600  0.98733700  1
  O  O55  1  0.19490100  0.93903400  0.01266300  1
