# generated using pymatgen
data_Cs3PuH4O7
_symmetry_space_group_name_H-M   'P 1'
_cell_length_a   6.96118312
_cell_length_b   12.05309700
_cell_length_c   12.55244266
_cell_angle_alpha   90.00000000
_cell_angle_beta   90.45350421
_cell_angle_gamma   90.00000000
_symmetry_Int_Tables_number   1
_chemical_formula_structural   Cs3PuH4O7
_chemical_formula_sum   'Cs12 Pu4 H16 O28'
_cell_volume   1053.16484041
_cell_formula_units_Z   4
loop_
 _symmetry_equiv_pos_site_id
 _symmetry_equiv_pos_as_xyz
  1  'x, y, z'
loop_
 _atom_site_type_symbol
 _atom_site_label
 _atom_site_symmetry_multiplicity
 _atom_site_fract_x
 _atom_site_fract_y
 _atom_site_fract_z
 _atom_site_occupancy
  Cs  Cs0  1  0.79491200  0.12047300  0.55094500  1
  Cs  Cs1  1  0.29491200  0.37952700  0.05094500  1
  Cs  Cs2  1  0.20508800  0.87952700  0.44905500  1
  Cs  Cs3  1  0.70508800  0.62047300  0.94905500  1
  Cs  Cs4  1  0.77367200  0.27896300  0.25471000  1
  Cs  Cs5  1  0.27367200  0.22103700  0.75471000  1
  Cs  Cs6  1  0.22632800  0.72103700  0.74529000  1
  Cs  Cs7  1  0.72632800  0.77896300  0.24529000  1
  Cs  Cs8  1  0.82320300  0.96286500  0.86527100  1
  Cs  Cs9  1  0.32320300  0.53713500  0.36527100  1
  Cs  Cs10  1  0.17679700  0.03713500  0.13472900  1
  Cs  Cs11  1  0.67679700  0.46286500  0.63472900  1
  Pu  Pu12  1  0.78923100  0.29373000  0.90688600  1
  Pu  Pu13  1  0.28923100  0.20627000  0.40688600  1
  Pu  Pu14  1  0.21076900  0.70627000  0.09311400  1
  Pu  Pu15  1  0.71076900  0.79373000  0.59311400  1
  H  H16  1  0.04764900  0.47002000  0.86513900  1
  H  H17  1  0.54764900  0.02998000  0.36513900  1
  H  H18  1  0.95235100  0.52998000  0.13486100  1
  H  H19  1  0.45235100  0.97002000  0.63486100  1
  H  H20  1  0.49605500  0.12872000  0.95079600  1
  H  H21  1  0.99605500  0.37128000  0.45079600  1
  H  H22  1  0.50394500  0.87128000  0.04920400  1
  H  H23  1  0.00394500  0.62872000  0.54920400  1
  H  H24  1  0.12124700  0.45467300  0.70440400  1
  H  H25  1  0.62124700  0.04532700  0.20440400  1
  H  H26  1  0.87875300  0.54532700  0.29559600  1
  H  H27  1  0.37875300  0.95467300  0.79559600  1
  H  H28  1  0.15296800  0.42010100  0.58263200  1
  H  H29  1  0.65296800  0.07989900  0.08263200  1
  H  H30  1  0.84703200  0.57989900  0.41736800  1
  H  H31  1  0.34703200  0.92010100  0.91736800  1
  O  O32  1  0.76789600  0.20759500  0.77961800  1
  O  O33  1  0.26789600  0.29240500  0.27961800  1
  O  O34  1  0.23210400  0.79240500  0.22038200  1
  O  O35  1  0.73210400  0.70759500  0.72038200  1
  O  O36  1  0.57605000  0.38167600  0.86134200  1
  O  O37  1  0.07605000  0.11832400  0.36134200  1
  O  O38  1  0.42395000  0.61832400  0.13865800  1
  O  O39  1  0.92395000  0.88167600  0.63865800  1
  O  O40  1  0.81065100  0.38313300  0.03207900  1
  O  O41  1  0.31065100  0.11686700  0.53207900  1
  O  O42  1  0.18934900  0.61686700  0.96792100  1
  O  O43  1  0.68934900  0.88313300  0.46792100  1
  O  O44  1  0.00055600  0.20599600  0.95205700  1
  O  O45  1  0.50055600  0.29400400  0.45205700  1
  O  O46  1  0.99944400  0.79400400  0.04794300  1
  O  O47  1  0.49944400  0.70599600  0.54794300  1
  O  O48  1  0.00085500  0.41420700  0.81514900  1
  O  O49  1  0.50085500  0.08579300  0.31514900  1
  O  O50  1  0.99914500  0.58579300  0.18485100  1
  O  O51  1  0.49914500  0.91420700  0.68485100  1
  O  O52  1  0.57917500  0.17169500  0.99780800  1
  O  O53  1  0.07917500  0.32830500  0.49780800  1
  O  O54  1  0.42082500  0.82830500  0.00219200  1
  O  O55  1  0.92082500  0.67169500  0.50219200  1
  O  O56  1  0.19004700  0.47830600  0.63754400  1
  O  O57  1  0.69004700  0.02169400  0.13754400  1
  O  O58  1  0.80995300  0.52169400  0.36245600  1
  O  O59  1  0.30995300  0.97830600  0.86245600  1
