# generated using pymatgen
data_K2MnH4(I2O7)2
_symmetry_space_group_name_H-M   'P 1'
_cell_length_a   8.09691433
_cell_length_b   14.13543841
_cell_length_c   8.09675089
_cell_angle_alpha   75.38154760
_cell_angle_beta   59.54961105
_cell_angle_gamma   75.38056570
_symmetry_Int_Tables_number   1
_chemical_formula_structural   K2MnH4(I2O7)2
_chemical_formula_sum   'K4 Mn2 H8 I8 O28'
_cell_volume   764.36073539
_cell_formula_units_Z   2
loop_
 _symmetry_equiv_pos_site_id
 _symmetry_equiv_pos_as_xyz
  1  'x, y, z'
loop_
 _atom_site_type_symbol
 _atom_site_label
 _atom_site_symmetry_multiplicity
 _atom_site_fract_x
 _atom_site_fract_y
 _atom_site_fract_z
 _atom_site_occupancy
  K  K0  1  0.84886100  0.49996800  0.15119900  1
  K  K1  1  0.34876200  0.00002400  0.65115400  1
  K  K2  1  0.86915800  0.99998000  0.13083100  1
  K  K3  1  0.36917300  0.50000400  0.63080400  1
  Mn  Mn4  1  0.66445500  0.75000600  0.83553000  1
  Mn  Mn5  1  0.16416800  0.25008200  0.33604200  1
  H  H6  1  0.77084700  0.26409000  0.60505600  1
  H  H7  1  0.27101500  0.76409200  0.10491100  1
  H  H8  1  0.89492100  0.23589600  0.72917300  1
  H  H9  1  0.39507700  0.73590200  0.22899400  1
  H  H10  1  0.51452100  0.18750900  0.01701500  1
  H  H11  1  0.01461300  0.68751400  0.51692600  1
  H  H12  1  0.48299400  0.31247200  0.98545100  1
  H  H13  1  0.98308000  0.81250200  0.48535100  1
  I  I14  1  0.34888400  0.49183800  0.14304700  1
  I  I15  1  0.84884200  0.99182300  0.64306500  1
  I  I16  1  0.35693400  0.00816500  0.15112000  1
  I  I17  1  0.85690600  0.50818800  0.65117000  1
  I  I18  1  0.10490700  0.25877100  0.92810700  1
  I  I19  1  0.60484300  0.75877100  0.42812400  1
  I  I20  1  0.57193200  0.24121200  0.39508500  1
  I  I21  1  0.07187800  0.74122700  0.89514300  1
  O  O22  1  0.43242500  0.24999600  0.06757400  1
  O  O23  1  0.93254400  0.75000200  0.56744000  1
  O  O24  1  0.90143300  0.24998700  0.59857300  1
  O  O25  1  0.40160900  0.75000000  0.09839600  1
  O  O26  1  0.98536000  0.26598000  0.19072100  1
  O  O27  1  0.48539000  0.76599400  0.69072300  1
  O  O28  1  0.30931100  0.23401100  0.51466400  1
  O  O29  1  0.80928300  0.73401100  0.01460500  1
  O  O30  1  0.91838200  0.20800400  0.92832000  1
  O  O31  1  0.41828300  0.70797800  0.42844600  1
  O  O32  1  0.57169700  0.29198400  0.58161200  1
  O  O33  1  0.07156500  0.79200700  0.08171700  1
  O  O34  1  0.49337500  0.43713200  0.26958700  1
  O  O35  1  0.99335900  0.93715500  0.76959800  1
  O  O36  1  0.23039300  0.06285700  0.00662500  1
  O  O37  1  0.73039500  0.56284100  0.50662900  1
  O  O38  1  0.15309200  0.41503700  0.26633400  1
  O  O39  1  0.65303000  0.91503800  0.76633900  1
  O  O40  1  0.23365800  0.08497200  0.34691000  1
  O  O41  1  0.73362100  0.58498100  0.84697700  1
  O  O42  1  0.05461300  0.39091900  0.84432200  1
  O  O43  1  0.55454900  0.89092600  0.34438000  1
  O  O44  1  0.65567400  0.10907000  0.44539300  1
  O  O45  1  0.15561200  0.60906800  0.94543900  1
  O  O46  1  0.49585800  0.43429500  0.92043300  1
  O  O47  1  0.99578800  0.93425800  0.42046600  1
  O  O48  1  0.57954800  0.06571100  0.00413400  1
  O  O49  1  0.07950100  0.56575200  0.50422600  1
