# generated using pymatgen
data_SmHSO5
_symmetry_space_group_name_H-M   'P 1'
_cell_length_a   12.34664300
_cell_length_b   4.49364800
_cell_length_c   7.04976113
_cell_angle_alpha   68.79930120
_cell_angle_beta   90.00000000
_cell_angle_gamma   90.00000000
_symmetry_Int_Tables_number   1
_chemical_formula_structural   SmHSO5
_chemical_formula_sum   'Sm4 H4 S4 O20'
_cell_volume   364.65910307
_cell_formula_units_Z   4
loop_
 _symmetry_equiv_pos_site_id
 _symmetry_equiv_pos_as_xyz
  1  'x, y, z'
loop_
 _atom_site_type_symbol
 _atom_site_label
 _atom_site_symmetry_multiplicity
 _atom_site_fract_x
 _atom_site_fract_y
 _atom_site_fract_z
 _atom_site_occupancy
  Sm  Sm0  1  0.56317900  0.33960200  0.80210800  1
  Sm  Sm1  1  0.06317900  0.66039800  0.69789200  1
  Sm  Sm2  1  0.43682100  0.66039800  0.19789200  1
  Sm  Sm3  1  0.93682100  0.33960200  0.30210800  1
  H  H4  1  0.34214700  0.28810700  0.98408900  1
  H  H5  1  0.15785300  0.28810700  0.48408900  1
  H  H6  1  0.65785300  0.71189300  0.01591100  1
  H  H7  1  0.84214700  0.71189300  0.51591100  1
  S  S8  1  0.85348600  0.09554100  0.88602900  1
  S  S9  1  0.35348600  0.90445900  0.61397100  1
  S  S10  1  0.14651400  0.90445900  0.11397100  1
  S  S11  1  0.64651400  0.09554100  0.38602900  1
  O  O12  1  0.58522300  0.73842300  0.95463200  1
  O  O13  1  0.08522300  0.26157700  0.54536800  1
  O  O14  1  0.41477700  0.26157700  0.04536800  1
  O  O15  1  0.91477700  0.73842300  0.45463200  1
  O  O16  1  0.90171800  0.03480700  0.71049900  1
  O  O17  1  0.40171800  0.96519300  0.78950100  1
  O  O18  1  0.09828200  0.96519300  0.28950100  1
  O  O19  1  0.59828200  0.03480700  0.21049900  1
  O  O20  1  0.75257100  0.28098100  0.82179800  1
  O  O21  1  0.25257100  0.71901900  0.67820200  1
  O  O22  1  0.24742900  0.71901900  0.17820200  1
  O  O23  1  0.74742900  0.28098100  0.32179800  1
  O  O24  1  0.93347300  0.29612800  0.95220500  1
  O  O25  1  0.43347300  0.70387200  0.54779500  1
  O  O26  1  0.06652700  0.70387200  0.04779500  1
  O  O27  1  0.56652700  0.29612800  0.45220500  1
  O  O28  1  0.83185500  0.79699000  0.05647900  1
  O  O29  1  0.33185500  0.20301000  0.44352100  1
  O  O30  1  0.16814500  0.20301000  0.94352100  1
  O  O31  1  0.66814500  0.79699000  0.55647900  1
