# generated using pymatgen
data_TmGa3Ru
_symmetry_space_group_name_H-M   'P 1'
_cell_length_a   6.39372800
_cell_length_b   6.39372800
_cell_length_c   6.39372800
_cell_angle_alpha   90.00000000
_cell_angle_beta   90.00000000
_cell_angle_gamma   90.00000000
_symmetry_Int_Tables_number   1
_chemical_formula_structural   TmGa3Ru
_chemical_formula_sum   'Tm3 Ga9 Ru3'
_cell_volume   261.37405168
_cell_formula_units_Z   3
loop_
 _symmetry_equiv_pos_site_id
 _symmetry_equiv_pos_as_xyz
  1  'x, y, z'
loop_
 _atom_site_type_symbol
 _atom_site_label
 _atom_site_symmetry_multiplicity
 _atom_site_fract_x
 _atom_site_fract_y
 _atom_site_fract_z
 _atom_site_occupancy
  Tm  Tm0  1  0.00000000  0.50000000  0.50000000  1
  Tm  Tm1  1  0.50000000  0.50000000  0.00000000  1
  Tm  Tm2  1  0.50000000  0.00000000  0.50000000  1
  Ga  Ga3  1  0.50000000  0.50000000  0.50000000  1
  Ga  Ga4  1  0.21273700  0.21273700  0.21273700  1
  Ga  Ga5  1  0.21273700  0.78726300  0.21273700  1
  Ga  Ga6  1  0.21273700  0.21273700  0.78726300  1
  Ga  Ga7  1  0.78726300  0.21273700  0.21273700  1
  Ga  Ga8  1  0.78726300  0.78726300  0.21273700  1
  Ga  Ga9  1  0.21273700  0.78726300  0.78726300  1
  Ga  Ga10  1  0.78726300  0.21273700  0.78726300  1
  Ga  Ga11  1  0.78726300  0.78726300  0.78726300  1
  Ru  Ru12  1  0.50000000  0.00000000  0.00000000  1
  Ru  Ru13  1  0.00000000  0.00000000  0.50000000  1
  Ru  Ru14  1  0.00000000  0.50000000  0.00000000  1
