# generated using pymatgen
data_Ca2PtAu
_symmetry_space_group_name_H-M   'P 1'
_cell_length_a   5.79179478
_cell_length_b   5.79179478
_cell_length_c   4.44696600
_cell_angle_alpha   90.00000000
_cell_angle_beta   90.00000000
_cell_angle_gamma   138.66420110
_symmetry_Int_Tables_number   1
_chemical_formula_structural   Ca2PtAu
_chemical_formula_sum   'Ca2 Pt1 Au1'
_cell_volume   98.52441169
_cell_formula_units_Z   1
loop_
 _symmetry_equiv_pos_site_id
 _symmetry_equiv_pos_as_xyz
  1  'x, y, z'
loop_
 _atom_site_type_symbol
 _atom_site_label
 _atom_site_symmetry_multiplicity
 _atom_site_fract_x
 _atom_site_fract_y
 _atom_site_fract_z
 _atom_site_occupancy
  Ca  Ca0  1  0.86020400  0.13979600  0.00000000  1
  Ca  Ca1  1  0.14094400  0.85905600  0.50000000  1
  Pt  Pt2  1  0.42001700  0.57998300  0.50000000  1
  Au  Au3  1  0.57883500  0.42116500  0.00000000  1
