# generated using pymatgen
data_SrCdGe
_symmetry_space_group_name_H-M   'P 1'
_cell_length_a   4.66424500
_cell_length_b   7.83942200
_cell_length_c   8.62694100
_cell_angle_alpha   90.00000000
_cell_angle_beta   90.00000000
_cell_angle_gamma   90.00000000
_symmetry_Int_Tables_number   1
_chemical_formula_structural   SrCdGe
_chemical_formula_sum   'Sr4 Cd4 Ge4'
_cell_volume   315.44396711
_cell_formula_units_Z   4
loop_
 _symmetry_equiv_pos_site_id
 _symmetry_equiv_pos_as_xyz
  1  'x, y, z'
loop_
 _atom_site_type_symbol
 _atom_site_label
 _atom_site_symmetry_multiplicity
 _atom_site_fract_x
 _atom_site_fract_y
 _atom_site_fract_z
 _atom_site_occupancy
  Sr  Sr0  1  0.25000000  0.51369000  0.31429400  1
  Sr  Sr1  1  0.25000000  0.01369000  0.18570600  1
  Sr  Sr2  1  0.75000000  0.48631000  0.68570600  1
  Sr  Sr3  1  0.75000000  0.98631000  0.81429400  1
  Cd  Cd4  1  0.25000000  0.64912700  0.93343300  1
  Cd  Cd5  1  0.25000000  0.14912700  0.56656700  1
  Cd  Cd6  1  0.75000000  0.35087300  0.06656700  1
  Cd  Cd7  1  0.75000000  0.85087300  0.43343300  1
  Ge  Ge8  1  0.25000000  0.27555300  0.88851500  1
  Ge  Ge9  1  0.25000000  0.77555300  0.61148500  1
  Ge  Ge10  1  0.75000000  0.72444700  0.11148500  1
  Ge  Ge11  1  0.75000000  0.22444700  0.38851500  1
