# generated using pymatgen
data_DyGe2Ir
_symmetry_space_group_name_H-M   'P 1'
_cell_length_a   9.44903004
_cell_length_b   9.44903004
_cell_length_c   9.44903004
_cell_angle_alpha   153.79828188
_cell_angle_beta   123.67699606
_cell_angle_gamma   63.14362989
_symmetry_Int_Tables_number   1
_chemical_formula_structural   DyGe2Ir
_chemical_formula_sum   'Dy4 Ge8 Ir4'
_cell_volume   307.56962169
_cell_formula_units_Z   4
loop_
 _symmetry_equiv_pos_site_id
 _symmetry_equiv_pos_as_xyz
  1  'x, y, z'
loop_
 _atom_site_type_symbol
 _atom_site_label
 _atom_site_symmetry_multiplicity
 _atom_site_fract_x
 _atom_site_fract_y
 _atom_site_fract_z
 _atom_site_occupancy
  Dy  Dy0  1  0.73910100  0.00000000  0.73910100  1
  Dy  Dy1  1  0.26089900  0.00000000  0.26089900  1
  Dy  Dy2  1  0.29438900  0.79438900  0.50000000  1
  Dy  Dy3  1  0.70561100  0.20561100  0.50000000  1
  Ge  Ge4  1  0.92195100  0.42195100  0.50000000  1
  Ge  Ge5  1  0.07804900  0.57804900  0.50000000  1
  Ge  Ge6  1  0.42307000  0.42307000  0.00000000  1
  Ge  Ge7  1  0.57693000  0.57693000  0.00000000  1
  Ge  Ge8  1  0.35310800  0.20047600  0.15263200  1
  Ge  Ge9  1  0.64689200  0.79952400  0.84736800  1
  Ge  Ge10  1  0.04784400  0.20047600  0.84736800  1
  Ge  Ge11  1  0.95215600  0.79952400  0.15263200  1
  Ir  Ir12  1  0.60450500  0.35424200  0.25026400  1
  Ir  Ir13  1  0.39549500  0.64575800  0.74973600  1
  Ir  Ir14  1  0.10397800  0.35424200  0.74973600  1
  Ir  Ir15  1  0.89602200  0.64575800  0.25026400  1
