# generated using pymatgen
data_EuGa3Pd
_symmetry_space_group_name_H-M   'P 1'
_cell_length_a   6.14688733
_cell_length_b   6.14688733
_cell_length_c   5.93199700
_cell_angle_alpha   90.00000000
_cell_angle_beta   90.00000000
_cell_angle_gamma   116.90558465
_symmetry_Int_Tables_number   1
_chemical_formula_structural   EuGa3Pd
_chemical_formula_sum   'Eu2 Ga6 Pd2'
_cell_volume   199.87395917
_cell_formula_units_Z   2
loop_
 _symmetry_equiv_pos_site_id
 _symmetry_equiv_pos_as_xyz
  1  'x, y, z'
loop_
 _atom_site_type_symbol
 _atom_site_label
 _atom_site_symmetry_multiplicity
 _atom_site_fract_x
 _atom_site_fract_y
 _atom_site_fract_z
 _atom_site_occupancy
  Eu  Eu0  1  0.23380600  0.76619400  0.75000000  1
  Eu  Eu1  1  0.76619400  0.23380600  0.25000000  1
  Ga  Ga2  1  0.66413800  0.33586200  0.75000000  1
  Ga  Ga3  1  0.33586200  0.66413800  0.25000000  1
  Ga  Ga4  1  0.71530400  0.71530400  0.00000000  1
  Ga  Ga5  1  0.71530400  0.71530400  0.50000000  1
  Ga  Ga6  1  0.28469600  0.28469600  0.00000000  1
  Ga  Ga7  1  0.28469600  0.28469600  0.50000000  1
  Pd  Pd8  1  0.90261800  0.09738200  0.75000000  1
  Pd  Pd9  1  0.09738200  0.90261800  0.25000000  1
