# generated using pymatgen
data_CsPrCdTe3
_symmetry_space_group_name_H-M   'P 1'
_cell_length_a   9.00706343
_cell_length_b   9.00706343
_cell_length_c   12.20091100
_cell_angle_alpha   90.00000000
_cell_angle_beta   90.00000000
_cell_angle_gamma   150.00416940
_symmetry_Int_Tables_number   1
_chemical_formula_structural   CsPrCdTe3
_chemical_formula_sum   'Cs2 Pr2 Cd2 Te6'
_cell_volume   494.85044167
_cell_formula_units_Z   2
loop_
 _symmetry_equiv_pos_site_id
 _symmetry_equiv_pos_as_xyz
  1  'x, y, z'
loop_
 _atom_site_type_symbol
 _atom_site_label
 _atom_site_symmetry_multiplicity
 _atom_site_fract_x
 _atom_site_fract_y
 _atom_site_fract_z
 _atom_site_occupancy
  Cs  Cs0  1  0.75016200  0.24983800  0.75000000  1
  Cs  Cs1  1  0.24983800  0.75016200  0.25000000  1
  Pr  Pr2  1  0.00000000  0.00000000  0.50000000  1
  Pr  Pr3  1  0.00000000  0.00000000  0.00000000  1
  Cd  Cd4  1  0.53497500  0.46502500  0.25000000  1
  Cd  Cd5  1  0.46502500  0.53497500  0.75000000  1
  Te  Te6  1  0.37724900  0.62275100  0.55438500  1
  Te  Te7  1  0.62275100  0.37724900  0.44561500  1
  Te  Te8  1  0.62275100  0.37724900  0.05438500  1
  Te  Te9  1  0.37724900  0.62275100  0.94561500  1
  Te  Te10  1  0.93360300  0.06639700  0.25000000  1
  Te  Te11  1  0.06639700  0.93360300  0.75000000  1
