# generated using pymatgen
data_HoB2C
_symmetry_space_group_name_H-M   'P 1'
_cell_length_a   6.78262300
_cell_length_b   6.78262300
_cell_length_c   7.41606900
_cell_angle_alpha   90.00000000
_cell_angle_beta   90.00000000
_cell_angle_gamma   90.00000000
_symmetry_Int_Tables_number   1
_chemical_formula_structural   HoB2C
_chemical_formula_sum   'Ho8 B16 C8'
_cell_volume   341.16865110
_cell_formula_units_Z   8
loop_
 _symmetry_equiv_pos_site_id
 _symmetry_equiv_pos_as_xyz
  1  'x, y, z'
loop_
 _atom_site_type_symbol
 _atom_site_label
 _atom_site_symmetry_multiplicity
 _atom_site_fract_x
 _atom_site_fract_y
 _atom_site_fract_z
 _atom_site_occupancy
  Ho  Ho0  1  0.30953900  0.80953900  0.75000000  1
  Ho  Ho1  1  0.19046100  0.30953900  0.25000000  1
  Ho  Ho2  1  0.80953900  0.69046100  0.25000000  1
  Ho  Ho3  1  0.69046100  0.19046100  0.75000000  1
  Ho  Ho4  1  0.69046100  0.19046100  0.25000000  1
  Ho  Ho5  1  0.80953900  0.69046100  0.75000000  1
  Ho  Ho6  1  0.19046100  0.30953900  0.75000000  1
  Ho  Ho7  1  0.30953900  0.80953900  0.25000000  1
  B  B8  1  0.15198300  0.03460300  0.00000000  1
  B  B9  1  0.53460300  0.65198300  0.50000000  1
  B  B10  1  0.84801700  0.96539700  0.00000000  1
  B  B11  1  0.34801700  0.53460300  0.00000000  1
  B  B12  1  0.65198300  0.46539700  0.00000000  1
  B  B13  1  0.03460300  0.84801700  0.50000000  1
  B  B14  1  0.96539700  0.15198300  0.50000000  1
  B  B15  1  0.46539700  0.34801700  0.50000000  1
  B  B16  1  0.09700700  0.59461400  0.00000000  1
  B  B17  1  0.40538600  0.09700700  0.50000000  1
  B  B18  1  0.59461400  0.90299300  0.50000000  1
  B  B19  1  0.59700700  0.90538600  0.00000000  1
  B  B20  1  0.40299300  0.09461400  0.00000000  1
  B  B21  1  0.90299300  0.40538600  0.00000000  1
  B  B22  1  0.09461400  0.59700700  0.50000000  1
  B  B23  1  0.90538600  0.40299300  0.50000000  1
  C  C24  1  0.17739200  0.04045400  0.50000000  1
  C  C25  1  0.67739200  0.45954600  0.50000000  1
  C  C26  1  0.32260800  0.54045400  0.50000000  1
  C  C27  1  0.95954600  0.17739200  0.00000000  1
  C  C28  1  0.04045400  0.82260800  0.00000000  1
  C  C29  1  0.54045400  0.67739200  0.00000000  1
  C  C30  1  0.82260800  0.95954600  0.50000000  1
  C  C31  1  0.45954600  0.32260800  0.00000000  1
