# generated using pymatgen
data_Mn4Be3Si3SO12
_symmetry_space_group_name_H-M   'P 1'
_cell_length_a   8.38665800
_cell_length_b   8.38665800
_cell_length_c   8.38665800
_cell_angle_alpha   90.00000000
_cell_angle_beta   90.00000000
_cell_angle_gamma   90.00000000
_symmetry_Int_Tables_number   1
_chemical_formula_structural   Mn4Be3Si3SO12
_chemical_formula_sum   'Mn8 Be6 Si6 S2 O24'
_cell_volume   589.88424889
_cell_formula_units_Z   2
loop_
 _symmetry_equiv_pos_site_id
 _symmetry_equiv_pos_as_xyz
  1  'x, y, z'
loop_
 _atom_site_type_symbol
 _atom_site_label
 _atom_site_symmetry_multiplicity
 _atom_site_fract_x
 _atom_site_fract_y
 _atom_site_fract_z
 _atom_site_occupancy
  Mn  Mn0  1  0.67127000  0.67127000  0.67127000  1
  Mn  Mn1  1  0.82873000  0.17127000  0.82873000  1
  Mn  Mn2  1  0.17127000  0.82873000  0.82873000  1
  Mn  Mn3  1  0.82873000  0.82873000  0.17127000  1
  Mn  Mn4  1  0.67127000  0.32873000  0.32873000  1
  Mn  Mn5  1  0.32873000  0.32873000  0.67127000  1
  Mn  Mn6  1  0.32873000  0.67127000  0.32873000  1
  Mn  Mn7  1  0.17127000  0.17127000  0.17127000  1
  Be  Be8  1  0.50000000  0.75000000  0.00000000  1
  Be  Be9  1  0.50000000  0.25000000  0.00000000  1
  Be  Be10  1  0.00000000  0.50000000  0.25000000  1
  Be  Be11  1  0.00000000  0.50000000  0.75000000  1
  Be  Be12  1  0.25000000  0.00000000  0.50000000  1
  Be  Be13  1  0.75000000  0.00000000  0.50000000  1
  Si  Si14  1  0.50000000  0.00000000  0.25000000  1
  Si  Si15  1  0.50000000  0.00000000  0.75000000  1
  Si  Si16  1  0.00000000  0.25000000  0.50000000  1
  Si  Si17  1  0.25000000  0.50000000  0.00000000  1
  Si  Si18  1  0.00000000  0.75000000  0.50000000  1
  Si  Si19  1  0.75000000  0.50000000  0.00000000  1
  S  S20  1  0.00000000  0.00000000  0.00000000  1
  S  S21  1  0.50000000  0.50000000  0.50000000  1
  O  O22  1  0.35839400  0.64167000  0.08176400  1
  O  O23  1  0.14167000  0.85839400  0.58176400  1
  O  O24  1  0.14167000  0.14160600  0.41823600  1
  O  O25  1  0.35833000  0.91823600  0.35839400  1
  O  O26  1  0.35833000  0.08176400  0.64160600  1
  O  O27  1  0.08176400  0.35839400  0.64167000  1
  O  O28  1  0.91823600  0.35839400  0.35833000  1
  O  O29  1  0.64160600  0.35833000  0.08176400  1
  O  O30  1  0.41823600  0.85833000  0.85839400  1
  O  O31  1  0.41823600  0.14167000  0.14160600  1
  O  O32  1  0.14160600  0.41823600  0.14167000  1
  O  O33  1  0.85839400  0.58176400  0.14167000  1
  O  O34  1  0.64167000  0.91823600  0.64160600  1
  O  O35  1  0.85839400  0.41823600  0.85833000  1
  O  O36  1  0.58176400  0.85833000  0.14160600  1
  O  O37  1  0.58176400  0.14167000  0.85839400  1
  O  O38  1  0.91823600  0.64160600  0.64167000  1
  O  O39  1  0.14160600  0.58176400  0.85833000  1
  O  O40  1  0.85833000  0.14160600  0.58176400  1
  O  O41  1  0.85833000  0.85839400  0.41823600  1
  O  O42  1  0.35839400  0.35833000  0.91823600  1
  O  O43  1  0.64160600  0.64167000  0.91823600  1
  O  O44  1  0.08176400  0.64160600  0.35833000  1
  O  O45  1  0.64167000  0.08176400  0.35839400  1
