# generated using pymatgen
data_SrTlPS4
_symmetry_space_group_name_H-M   'P 1'
_cell_length_a   6.66648400
_cell_length_b   8.80321800
_cell_length_c   12.87678900
_cell_angle_alpha   90.00000000
_cell_angle_beta   90.00000000
_cell_angle_gamma   90.00000000
_symmetry_Int_Tables_number   1
_chemical_formula_structural   SrTlPS4
_chemical_formula_sum   'Sr4 Tl4 P4 S16'
_cell_volume   755.69383147
_cell_formula_units_Z   4
loop_
 _symmetry_equiv_pos_site_id
 _symmetry_equiv_pos_as_xyz
  1  'x, y, z'
loop_
 _atom_site_type_symbol
 _atom_site_label
 _atom_site_symmetry_multiplicity
 _atom_site_fract_x
 _atom_site_fract_y
 _atom_site_fract_z
 _atom_site_occupancy
  Sr  Sr0  1  0.25000000  0.60756700  0.13541000  1
  Sr  Sr1  1  0.75000000  0.39243300  0.86459000  1
  Sr  Sr2  1  0.75000000  0.10756700  0.36459000  1
  Sr  Sr3  1  0.25000000  0.89243300  0.63541000  1
  Tl  Tl4  1  0.75000000  0.87875100  0.88882100  1
  Tl  Tl5  1  0.25000000  0.12124900  0.11117900  1
  Tl  Tl6  1  0.25000000  0.37875100  0.61117900  1
  Tl  Tl7  1  0.75000000  0.62124900  0.38882100  1
  P  P8  1  0.75000000  0.12820900  0.64743600  1
  P  P9  1  0.25000000  0.62820900  0.85256400  1
  P  P10  1  0.75000000  0.37179100  0.14743600  1
  P  P11  1  0.25000000  0.87179100  0.35256400  1
  S  S12  1  0.49549000  0.63938000  0.75516200  1
  S  S13  1  0.99549000  0.36062000  0.24483800  1
  S  S14  1  0.50451000  0.13938000  0.74483800  1
  S  S15  1  0.00451000  0.86062000  0.25516200  1
  S  S16  1  0.99549000  0.13938000  0.74483800  1
  S  S17  1  0.50451000  0.36062000  0.24483800  1
  S  S18  1  0.49549000  0.86062000  0.25516200  1
  S  S19  1  0.00451000  0.63938000  0.75516200  1
  S  S20  1  0.25000000  0.68774200  0.44947800  1
  S  S21  1  0.75000000  0.31225800  0.55052200  1
  S  S22  1  0.75000000  0.18774200  0.05052200  1
  S  S23  1  0.25000000  0.81225800  0.94947800  1
  S  S24  1  0.25000000  0.07392400  0.43168300  1
  S  S25  1  0.75000000  0.92607600  0.56831700  1
  S  S26  1  0.75000000  0.57392400  0.06831700  1
  S  S27  1  0.25000000  0.42607600  0.93168300  1
