# generated using pymatgen
data_Ho2FeC4
_symmetry_space_group_name_H-M   'P 1'
_cell_length_a   5.00307400
_cell_length_b   6.55146243
_cell_length_c   6.55146243
_cell_angle_alpha   69.26648156
_cell_angle_beta   67.55299155
_cell_angle_gamma   67.55299155
_symmetry_Int_Tables_number   1
_chemical_formula_structural   Ho2FeC4
_chemical_formula_sum   'Ho4 Fe2 C8'
_cell_volume   177.89903541
_cell_formula_units_Z   2
loop_
 _symmetry_equiv_pos_site_id
 _symmetry_equiv_pos_as_xyz
  1  'x, y, z'
loop_
 _atom_site_type_symbol
 _atom_site_label
 _atom_site_symmetry_multiplicity
 _atom_site_fract_x
 _atom_site_fract_y
 _atom_site_fract_z
 _atom_site_occupancy
  Ho  Ho0  1  0.14469400  0.51146300  0.19914900  1
  Ho  Ho1  1  0.85530600  0.48853700  0.80085100  1
  Ho  Ho2  1  0.64469400  0.19914900  0.51146300  1
  Ho  Ho3  1  0.35530600  0.80085100  0.48853700  1
  Fe  Fe4  1  0.25000000  0.00000000  0.00000000  1
  Fe  Fe5  1  0.75000000  0.00000000  0.00000000  1
  C  C6  1  0.37122900  0.46706800  0.79047400  1
  C  C7  1  0.62877100  0.53293200  0.20952600  1
  C  C8  1  0.87122900  0.79047400  0.46706800  1
  C  C9  1  0.12877100  0.20952600  0.53293200  1
  C  C10  1  0.42236000  0.24340300  0.91187700  1
  C  C11  1  0.57764000  0.75659700  0.08812300  1
  C  C12  1  0.92236000  0.91187700  0.24340300  1
  C  C13  1  0.07764000  0.08812300  0.75659700  1
