# generated using pymatgen
data_EuI2
_symmetry_space_group_name_H-M   'P 1'
_cell_length_a   4.93951100
_cell_length_b   8.44439500
_cell_length_c   12.45722100
_cell_angle_alpha   90.00000000
_cell_angle_beta   90.00000000
_cell_angle_gamma   90.00000000
_symmetry_Int_Tables_number   1
_chemical_formula_structural   EuI2
_chemical_formula_sum   'Eu4 I8'
_cell_volume   519.60541223
_cell_formula_units_Z   4
loop_
 _symmetry_equiv_pos_site_id
 _symmetry_equiv_pos_as_xyz
  1  'x, y, z'
loop_
 _atom_site_type_symbol
 _atom_site_label
 _atom_site_symmetry_multiplicity
 _atom_site_fract_x
 _atom_site_fract_y
 _atom_site_fract_z
 _atom_site_occupancy
  Eu  Eu0  1  0.75000000  0.87223100  0.82835000  1
  Eu  Eu1  1  0.75000000  0.62776900  0.32835000  1
  Eu  Eu2  1  0.25000000  0.12776900  0.17165000  1
  Eu  Eu3  1  0.25000000  0.37223100  0.67165000  1
  I  I4  1  0.25000000  0.12492600  0.89196200  1
  I  I5  1  0.25000000  0.37507400  0.39196200  1
  I  I6  1  0.75000000  0.87507400  0.10803800  1
  I  I7  1  0.75000000  0.62492600  0.60803800  1
  I  I8  1  0.25000000  0.62313400  0.87736300  1
  I  I9  1  0.25000000  0.87686600  0.37736300  1
  I  I10  1  0.75000000  0.37686600  0.12263700  1
  I  I11  1  0.75000000  0.12313400  0.62263700  1
