# generated using pymatgen
data_Co7NiP4
_symmetry_space_group_name_H-M   'P 1'
_cell_length_a   3.50622400
_cell_length_b   5.56257800
_cell_length_c   6.58546273
_cell_angle_alpha   89.73824059
_cell_angle_beta   90.00000000
_cell_angle_gamma   90.00000000
_symmetry_Int_Tables_number   1
_chemical_formula_structural   Co7NiP4
_chemical_formula_sum   'Co7 Ni1 P4'
_cell_volume   128.43918337
_cell_formula_units_Z   1
loop_
 _symmetry_equiv_pos_site_id
 _symmetry_equiv_pos_as_xyz
  1  'x, y, z'
loop_
 _atom_site_type_symbol
 _atom_site_label
 _atom_site_symmetry_multiplicity
 _atom_site_fract_x
 _atom_site_fract_y
 _atom_site_fract_z
 _atom_site_occupancy
  Co  Co0  1  0.50000000  0.64442900  0.06519400  1
  Co  Co1  1  0.50000000  0.14251700  0.43517000  1
  Co  Co2  1  0.00000000  0.35876600  0.93272700  1
  Co  Co3  1  0.00000000  0.85286300  0.56501100  1
  Co  Co4  1  0.50000000  0.03415800  0.83636700  1
  Co  Co5  1  0.00000000  0.46404100  0.33407900  1
  Co  Co6  1  0.00000000  0.97135200  0.16698400  1
  Ni  Ni7  1  0.50000000  0.53042000  0.66364300  1
  P  P8  1  0.50000000  0.25506100  0.12245900  1
  P  P9  1  0.50000000  0.75456600  0.37507100  1
  P  P10  1  0.00000000  0.75105200  0.88041600  1
  P  P11  1  0.00000000  0.24077300  0.62287900  1
