# generated using pymatgen
data_YbIn2Pt
_symmetry_space_group_name_H-M   'P 1'
_cell_length_a   5.60079008
_cell_length_b   5.60079008
_cell_length_c   8.08818200
_cell_angle_alpha   90.00000000
_cell_angle_beta   90.00000000
_cell_angle_gamma   133.69383006
_symmetry_Int_Tables_number   1
_chemical_formula_structural   YbIn2Pt
_chemical_formula_sum   'Yb2 In4 Pt2'
_cell_volume   183.44790429
_cell_formula_units_Z   2
loop_
 _symmetry_equiv_pos_site_id
 _symmetry_equiv_pos_as_xyz
  1  'x, y, z'
loop_
 _atom_site_type_symbol
 _atom_site_label
 _atom_site_symmetry_multiplicity
 _atom_site_fract_x
 _atom_site_fract_y
 _atom_site_fract_z
 _atom_site_occupancy
  Yb  Yb0  1  0.56835500  0.43164500  0.25000000  1
  Yb  Yb1  1  0.43164500  0.56835500  0.75000000  1
  In  In2  1  0.85738600  0.14261400  0.44889600  1
  In  In3  1  0.14261400  0.85738600  0.55110400  1
  In  In4  1  0.85738600  0.14261400  0.05110400  1
  In  In5  1  0.14261400  0.85738600  0.94889600  1
  Pt  Pt6  1  0.28102000  0.71898000  0.25000000  1
  Pt  Pt7  1  0.71898000  0.28102000  0.75000000  1
