# generated using pymatgen
data_Ta2Mo2O11
_symmetry_space_group_name_H-M   'P 1'
_cell_length_a   9.26896244
_cell_length_b   9.26896244
_cell_length_c   9.26896243
_cell_angle_alpha   35.88717648
_cell_angle_beta   35.88717648
_cell_angle_gamma   35.88717348
_symmetry_Int_Tables_number   1
_chemical_formula_structural   Ta2Mo2O11
_chemical_formula_sum   'Ta2 Mo2 O11'
_cell_volume   244.69829944
_cell_formula_units_Z   1
loop_
 _symmetry_equiv_pos_site_id
 _symmetry_equiv_pos_as_xyz
  1  'x, y, z'
loop_
 _atom_site_type_symbol
 _atom_site_label
 _atom_site_symmetry_multiplicity
 _atom_site_fract_x
 _atom_site_fract_y
 _atom_site_fract_z
 _atom_site_occupancy
  Ta  Ta0  1  0.37187700  0.37187700  0.37187700  1
  Ta  Ta1  1  0.62812300  0.62812300  0.62812300  1
  Mo  Mo2  1  0.11284500  0.11284500  0.11284500  1
  Mo  Mo3  1  0.88715500  0.88715500  0.88715500  1
  O  O4  1  0.73880900  0.25605100  0.73880900  1
  O  O5  1  0.25605100  0.73880900  0.73880900  1
  O  O6  1  0.73880900  0.73880900  0.25605100  1
  O  O7  1  0.74394900  0.26119100  0.26119100  1
  O  O8  1  0.26119100  0.74394900  0.26119100  1
  O  O9  1  0.26119100  0.26119100  0.74394900  1
  O  O10  1  0.17945500  0.17945500  0.17945500  1
  O  O11  1  0.82054500  0.82054500  0.82054500  1
  O  O12  1  0.50000000  0.50000000  0.00000000  1
  O  O13  1  0.50000000  0.00000000  0.50000000  1
  O  O14  1  0.00000000  0.50000000  0.50000000  1
