# generated using pymatgen
data_Ba3Dy2WO9
_symmetry_space_group_name_H-M   'P 1'
_cell_length_a   6.10430576
_cell_length_b   8.65448800
_cell_length_c   10.58426483
_cell_angle_alpha   65.86817294
_cell_angle_beta   73.23978302
_cell_angle_gamma   90.00000000
_symmetry_Int_Tables_number   1
_chemical_formula_structural   Ba3Dy2WO9
_chemical_formula_sum   'Ba6 Dy4 W2 O18'
_cell_volume   484.15126059
_cell_formula_units_Z   2
loop_
 _symmetry_equiv_pos_site_id
 _symmetry_equiv_pos_as_xyz
  1  'x, y, z'
loop_
 _atom_site_type_symbol
 _atom_site_label
 _atom_site_symmetry_multiplicity
 _atom_site_fract_x
 _atom_site_fract_y
 _atom_site_fract_z
 _atom_site_occupancy
  Ba  Ba0  1  0.50000000  0.26639400  0.00000000  1
  Ba  Ba1  1  0.83977500  0.57984600  0.32044900  1
  Ba  Ba2  1  0.16022500  0.90029600  0.67955100  1
  Ba  Ba3  1  0.50000000  0.73360600  0.00000000  1
  Ba  Ba4  1  0.83977500  0.09970400  0.32044900  1
  Ba  Ba5  1  0.16022500  0.42015400  0.67955100  1
  Dy  Dy6  1  0.00000000  0.00000000  0.00000000  1
  Dy  Dy7  1  0.32799000  0.32799000  0.34402000  1
  Dy  Dy8  1  0.67201000  0.67201000  0.65598000  1
  Dy  Dy9  1  0.00000000  0.50000000  0.00000000  1
  W  W10  1  0.33418900  0.83418900  0.33162000  1
  W  W11  1  0.66581100  0.16581100  0.66838000  1
  O  O12  1  0.00000000  0.24683700  0.00000000  1
  O  O13  1  0.33042800  0.60178300  0.33914200  1
  O  O14  1  0.66957200  0.94092600  0.66085800  1
  O  O15  1  0.16148700  0.41054400  0.17891200  1
  O  O16  1  0.48929200  0.75969700  0.48060500  1
  O  O17  1  0.81832500  0.08974300  0.82051500  1
  O  O18  1  0.34039800  0.58945600  0.82108800  1
  O  O19  1  0.63883900  0.91025700  0.17948500  1
  O  O20  1  0.96989800  0.24030300  0.51939500  1
  O  O21  1  0.00000000  0.75316300  0.00000000  1
  O  O22  1  0.33042800  0.05907400  0.33914200  1
  O  O23  1  0.66957200  0.39821700  0.66085800  1
  O  O24  1  0.83851300  0.58945600  0.82108800  1
  O  O25  1  0.18167500  0.91025700  0.17948500  1
  O  O26  1  0.51070800  0.24030300  0.51939500  1
  O  O27  1  0.65960200  0.41054400  0.17891200  1
  O  O28  1  0.03010200  0.75969700  0.48060500  1
  O  O29  1  0.36116100  0.08974300  0.82051500  1
