# generated using pymatgen
data_Nd3Pb3I13O40
_symmetry_space_group_name_H-M   'P 1'
_cell_length_a   13.69067060
_cell_length_b   13.69067060
_cell_length_c   13.69067036
_cell_angle_alpha   109.06834657
_cell_angle_beta   109.06834657
_cell_angle_gamma   109.06834364
_symmetry_Int_Tables_number   1
_chemical_formula_structural   Nd3Pb3I13O40
_chemical_formula_sum   'Nd6 Pb6 I26 O80'
_cell_volume   2004.31077831
_cell_formula_units_Z   2
loop_
 _symmetry_equiv_pos_site_id
 _symmetry_equiv_pos_as_xyz
  1  'x, y, z'
loop_
 _atom_site_type_symbol
 _atom_site_label
 _atom_site_symmetry_multiplicity
 _atom_site_fract_x
 _atom_site_fract_y
 _atom_site_fract_z
 _atom_site_occupancy
  Nd  Nd0  1  0.60225300  0.47568100  0.24015500  1
  Nd  Nd1  1  0.24015500  0.60225300  0.47568100  1
  Nd  Nd2  1  0.47568100  0.24015500  0.60225300  1
  Nd  Nd3  1  0.74015500  0.97568100  0.10225300  1
  Nd  Nd4  1  0.10225300  0.74015500  0.97568100  1
  Nd  Nd5  1  0.97568100  0.10225300  0.74015500  1
  Pb  Pb6  1  0.81087300  0.68490300  0.61687000  1
  Pb  Pb7  1  0.61687000  0.81087300  0.68490300  1
  Pb  Pb8  1  0.68490300  0.61687000  0.81087300  1
  Pb  Pb9  1  0.11687000  0.18490300  0.31087300  1
  Pb  Pb10  1  0.31087300  0.11687000  0.18490300  1
  Pb  Pb11  1  0.18490300  0.31087300  0.11687000  1
  I  I12  1  0.58801100  0.64167500  0.04989800  1
  I  I13  1  0.04989800  0.58801100  0.64167500  1
  I  I14  1  0.64167500  0.04989800  0.58801100  1
  I  I15  1  0.54989800  0.14167500  0.08801100  1
  I  I16  1  0.08801100  0.54989800  0.14167500  1
  I  I17  1  0.14167500  0.08801100  0.54989800  1
  I  I18  1  0.94903300  0.63993100  0.34659900  1
  I  I19  1  0.34659900  0.94903300  0.63993100  1
  I  I20  1  0.63993100  0.34659900  0.94903300  1
  I  I21  1  0.84659900  0.13993100  0.44903300  1
  I  I22  1  0.44903300  0.84659900  0.13993100  1
  I  I23  1  0.13993100  0.44903300  0.84659900  1
  I  I24  1  0.91968000  0.91968000  0.91968000  1
  I  I25  1  0.41968000  0.41968000  0.41968000  1
  I  I26  1  0.80110300  0.82793500  0.42594200  1
  I  I27  1  0.42594200  0.80110300  0.82793500  1
  I  I28  1  0.82793500  0.42594200  0.80110300  1
  I  I29  1  0.92594200  0.32793500  0.30110300  1
  I  I30  1  0.30110300  0.92594200  0.32793500  1
  I  I31  1  0.32793500  0.30110300  0.92594200  1
  I  I32  1  0.70059800  0.36033600  0.46503000  1
  I  I33  1  0.46503000  0.70059800  0.36033600  1
  I  I34  1  0.36033600  0.46503000  0.70059800  1
  I  I35  1  0.96503000  0.86033600  0.20059800  1
  I  I36  1  0.20059800  0.96503000  0.86033600  1
  I  I37  1  0.86033600  0.20059800  0.96503000  1
  O  O38  1  0.63283900  0.54819900  0.96690800  1
  O  O39  1  0.96690800  0.63283900  0.54819900  1
  O  O40  1  0.54819900  0.96690800  0.63283900  1
  O  O41  1  0.46690800  0.04819900  0.13283900  1
  O  O42  1  0.13283900  0.46690800  0.04819900  1
  O  O43  1  0.04819900  0.13283900  0.46690800  1
  O  O44  1  0.92870300  0.78481200  0.85096000  1
  O  O45  1  0.85096000  0.92870300  0.78481200  1
  O  O46  1  0.78481200  0.85096000  0.92870300  1
  O  O47  1  0.35096000  0.28481200  0.42870300  1
  O  O48  1  0.42870300  0.35096000  0.28481200  1
  O  O49  1  0.28481200  0.42870300  0.35096000  1
  O  O50  1  0.68461200  0.47659400  0.43097900  1
  O  O51  1  0.43097900  0.68461200  0.47659400  1
  O  O52  1  0.47659400  0.43097900  0.68461200  1
  O  O53  1  0.93097900  0.97659400  0.18461200  1
  O  O54  1  0.18461200  0.93097900  0.97659400  1
  O  O55  1  0.97659400  0.18461200  0.93097900  1
  O  O56  1  0.64884400  0.64884400  0.64884400  1
  O  O57  1  0.14884400  0.14884400  0.14884400  1
  O  O58  1  0.79997800  0.51232900  0.24889800  1
  O  O59  1  0.24889800  0.79997800  0.51232900  1
  O  O60  1  0.51232900  0.24889800  0.79997800  1
  O  O61  1  0.74889800  0.01232900  0.29997800  1
  O  O62  1  0.29997800  0.74889800  0.01232900  1
  O  O63  1  0.01232900  0.29997800  0.74889800  1
  O  O64  1  0.58075600  0.32224600  0.50026100  1
  O  O65  1  0.50026100  0.58075600  0.32224600  1
  O  O66  1  0.32224600  0.50026100  0.58075600  1
  O  O67  1  0.00026100  0.82224600  0.08075600  1
  O  O68  1  0.08075600  0.00026100  0.82224600  1
  O  O69  1  0.82224600  0.08075600  0.00026100  1
  O  O70  1  0.76252300  0.67852600  0.41067300  1
  O  O71  1  0.41067300  0.76252300  0.67852600  1
  O  O72  1  0.67852600  0.41067300  0.76252300  1
  O  O73  1  0.91067300  0.17852600  0.26252300  1
  O  O74  1  0.26252300  0.91067300  0.17852600  1
  O  O75  1  0.17852600  0.26252300  0.91067300  1
  O  O76  1  0.92311800  0.85301400  0.39212300  1
  O  O77  1  0.39212300  0.92311800  0.85301400  1
  O  O78  1  0.85301400  0.39212300  0.92311800  1
  O  O79  1  0.89212300  0.35301400  0.42311800  1
  O  O80  1  0.42311800  0.89212300  0.35301400  1
  O  O81  1  0.35301400  0.42311800  0.89212300  1
  O  O82  1  0.02939200  0.55471500  0.35619900  1
  O  O83  1  0.35619900  0.02939200  0.55471500  1
  O  O84  1  0.55471500  0.35619900  0.02939200  1
  O  O85  1  0.85619900  0.05471500  0.52939200  1
  O  O86  1  0.52939200  0.85619900  0.05471500  1
  O  O87  1  0.05471500  0.52939200  0.85619900  1
  O  O88  1  0.88728700  0.89717100  0.58745900  1
  O  O89  1  0.58745900  0.88728700  0.89717100  1
  O  O90  1  0.89717100  0.58745900  0.88728700  1
  O  O91  1  0.08745900  0.39717100  0.38728700  1
  O  O92  1  0.38728700  0.08745900  0.39717100  1
  O  O93  1  0.39717100  0.38728700  0.08745900  1
  O  O94  1  0.71121900  0.78408800  0.09582400  1
  O  O95  1  0.09582400  0.71121900  0.78408800  1
  O  O96  1  0.78408800  0.09582400  0.71121900  1
  O  O97  1  0.59582400  0.28408800  0.21121900  1
  O  O98  1  0.21121900  0.59582400  0.28408800  1
  O  O99  1  0.28408800  0.21121900  0.59582400  1
  O  O100  1  0.98008000  0.67727000  0.23921700  1
  O  O101  1  0.23921700  0.98008000  0.67727000  1
  O  O102  1  0.67727000  0.23921700  0.98008000  1
  O  O103  1  0.73921700  0.17727000  0.48008000  1
  O  O104  1  0.48008000  0.73921700  0.17727000  1
  O  O105  1  0.17727000  0.48008000  0.73921700  1
  O  O106  1  0.82412800  0.46602700  0.61634300  1
  O  O107  1  0.61634300  0.82412800  0.46602700  1
  O  O108  1  0.46602700  0.61634300  0.82412800  1
  O  O109  1  0.11634300  0.96602700  0.32412800  1
  O  O110  1  0.32412800  0.11634300  0.96602700  1
  O  O111  1  0.96602700  0.32412800  0.11634300  1
  O  O112  1  0.64555600  0.63430900  0.18754500  1
  O  O113  1  0.18754500  0.64555600  0.63430900  1
  O  O114  1  0.63430900  0.18754500  0.64555600  1
  O  O115  1  0.68754500  0.13430900  0.14555600  1
  O  O116  1  0.14555600  0.68754500  0.13430900  1
  O  O117  1  0.13430900  0.14555600  0.68754500  1
