# generated using pymatgen
data_Mn3Sb2(IO)4
_symmetry_space_group_name_H-M   'P 1'
_cell_length_a   6.62267135
_cell_length_b   8.04123379
_cell_length_c   15.38197537
_cell_angle_alpha   89.97724084
_cell_angle_beta   90.01931267
_cell_angle_gamma   114.28521117
_symmetry_Int_Tables_number   1
_chemical_formula_structural   Mn3Sb2(IO)4
_chemical_formula_sum   'Mn6 Sb4 I8 O8'
_cell_volume   746.67076019
_cell_formula_units_Z   2
loop_
 _symmetry_equiv_pos_site_id
 _symmetry_equiv_pos_as_xyz
  1  'x, y, z'
loop_
 _atom_site_type_symbol
 _atom_site_label
 _atom_site_symmetry_multiplicity
 _atom_site_fract_x
 _atom_site_fract_y
 _atom_site_fract_z
 _atom_site_occupancy
  Mn  Mn0  1  0.00020700  0.99977500  0.00027100  1
  Mn  Mn1  1  0.49886500  0.99874300  0.49957200  1
  Mn  Mn2  1  0.75713200  0.01325800  0.24975300  1
  Mn  Mn3  1  0.74296000  0.98719500  0.75000600  1
  Mn  Mn4  1  0.24346500  0.98796300  0.74975200  1
  Mn  Mn5  1  0.25728000  0.01353800  0.25039700  1
  Sb  Sb6  1  0.40796100  0.81494500  0.94167100  1
  Sb  Sb7  1  0.59241200  0.18490100  0.05814500  1
  Sb  Sb8  1  0.09196500  0.18514700  0.44192100  1
  Sb  Sb9  1  0.90740900  0.81486400  0.55819600  1
  I  I10  1  0.84478300  0.68986500  0.87610600  1
  I  I11  1  0.15556400  0.31006600  0.12410500  1
  I  I12  1  0.65535100  0.31002200  0.37596300  1
  I  I13  1  0.34461400  0.68977800  0.62392000  1
  I  I14  1  0.87414800  0.74731200  0.15821900  1
  I  I15  1  0.12568800  0.25267600  0.84214600  1
  I  I16  1  0.62614700  0.25268200  0.65789400  1
  I  I17  1  0.37441200  0.74718500  0.34190000  1
  O  O18  1  0.30913900  0.99979400  0.00003300  1
  O  O19  1  0.80858200  0.99989500  0.50001600  1
  O  O20  1  0.69128100  0.99990900  0.00004800  1
  O  O21  1  0.19071800  0.00001700  0.50001300  1
  O  O22  1  0.46663500  0.93375000  0.82653700  1
  O  O23  1  0.53341700  0.06646100  0.17336900  1
  O  O24  1  0.03333600  0.06659700  0.32677300  1
  O  O25  1  0.96653100  0.93366500  0.67327100  1
