# generated using pymatgen
data_SmAu
_symmetry_space_group_name_H-M   'P 1'
_cell_length_a   4.76447100
_cell_length_b   5.77708700
_cell_length_c   7.45630100
_cell_angle_alpha   90.00000000
_cell_angle_beta   90.00000000
_cell_angle_gamma   90.00000000
_symmetry_Int_Tables_number   1
_chemical_formula_structural   SmAu
_chemical_formula_sum   'Sm4 Au4'
_cell_volume   205.23292143
_cell_formula_units_Z   4
loop_
 _symmetry_equiv_pos_site_id
 _symmetry_equiv_pos_as_xyz
  1  'x, y, z'
loop_
 _atom_site_type_symbol
 _atom_site_label
 _atom_site_symmetry_multiplicity
 _atom_site_fract_x
 _atom_site_fract_y
 _atom_site_fract_z
 _atom_site_occupancy
  Sm  Sm0  1  0.25000000  0.35063900  0.68755400  1
  Sm  Sm1  1  0.25000000  0.14936100  0.18755400  1
  Sm  Sm2  1  0.75000000  0.64936100  0.31244600  1
  Sm  Sm3  1  0.75000000  0.85063900  0.81244600  1
  Au  Au4  1  0.25000000  0.84423100  0.54238700  1
  Au  Au5  1  0.25000000  0.65576900  0.04238700  1
  Au  Au6  1  0.75000000  0.15576900  0.45761300  1
  Au  Au7  1  0.75000000  0.34423100  0.95761300  1
