# generated using pymatgen
data_CeOs2
_symmetry_space_group_name_H-M   'P 1'
_cell_length_a   5.35695825
_cell_length_b   5.35695825
_cell_length_c   8.94754900
_cell_angle_alpha   90.00000000
_cell_angle_beta   90.00000000
_cell_angle_gamma   120.00000305
_symmetry_Int_Tables_number   1
_chemical_formula_structural   CeOs2
_chemical_formula_sum   'Ce4 Os8'
_cell_volume   222.36745552
_cell_formula_units_Z   4
loop_
 _symmetry_equiv_pos_site_id
 _symmetry_equiv_pos_as_xyz
  1  'x, y, z'
loop_
 _atom_site_type_symbol
 _atom_site_label
 _atom_site_symmetry_multiplicity
 _atom_site_fract_x
 _atom_site_fract_y
 _atom_site_fract_z
 _atom_site_occupancy
  Ce  Ce0  1  0.33333300  0.66666700  0.42924700  1
  Ce  Ce1  1  0.66666700  0.33333300  0.57075300  1
  Ce  Ce2  1  0.66666700  0.33333300  0.92924700  1
  Ce  Ce3  1  0.33333300  0.66666700  0.07075300  1
  Os  Os4  1  0.00000000  0.00000000  0.50000000  1
  Os  Os5  1  0.00000000  0.00000000  0.00000000  1
  Os  Os6  1  0.82945900  0.17054100  0.25000000  1
  Os  Os7  1  0.82945900  0.65891800  0.25000000  1
  Os  Os8  1  0.34108200  0.17054100  0.25000000  1
  Os  Os9  1  0.17054100  0.82945900  0.75000000  1
  Os  Os10  1  0.17054100  0.34108200  0.75000000  1
  Os  Os11  1  0.65891800  0.82945900  0.75000000  1
