# generated using pymatgen
data_Ag2P2H2O7
_symmetry_space_group_name_H-M   'P 1'
_cell_length_a   15.37541370
_cell_length_b   14.50367475
_cell_length_c   7.18572831
_cell_angle_alpha   82.94859329
_cell_angle_beta   69.41771893
_cell_angle_gamma   27.63368778
_symmetry_Int_Tables_number   1
_chemical_formula_structural   Ag2P2H2O7
_chemical_formula_sum   'Ag8 P8 H8 O28'
_cell_volume   626.65514952
_cell_formula_units_Z   4
loop_
 _symmetry_equiv_pos_site_id
 _symmetry_equiv_pos_as_xyz
  1  'x, y, z'
loop_
 _atom_site_type_symbol
 _atom_site_label
 _atom_site_symmetry_multiplicity
 _atom_site_fract_x
 _atom_site_fract_y
 _atom_site_fract_z
 _atom_site_occupancy
  Ag  Ag0  1  0.80608000  0.29286200  0.40823000  1
  Ag  Ag1  1  0.29286200  0.80608000  0.49282800  1
  Ag  Ag2  1  0.40823000  0.49282800  0.80608000  1
  Ag  Ag3  1  0.49282800  0.40823000  0.29286200  1
  Ag  Ag4  1  0.44392000  0.95713800  0.84177000  1
  Ag  Ag5  1  0.95713800  0.44392000  0.75717200  1
  Ag  Ag6  1  0.84177000  0.75717200  0.44392000  1
  Ag  Ag7  1  0.75717200  0.84177000  0.95713800  1
  P  P8  1  0.77053400  0.37392600  0.94125100  1
  P  P9  1  0.37392600  0.77053400  0.91428900  1
  P  P10  1  0.94125100  0.91428900  0.77053400  1
  P  P11  1  0.91428900  0.94125100  0.37392600  1
  P  P12  1  0.47946600  0.87607400  0.30874900  1
  P  P13  1  0.87607400  0.47946600  0.33571100  1
  P  P14  1  0.30874900  0.33571100  0.47946600  1
  P  P15  1  0.33571100  0.30874900  0.87607400  1
  H  H16  1  0.13646600  0.13646600  0.36353400  1
  H  H17  1  0.36353400  0.36353400  0.13646600  1
  H  H18  1  0.11353400  0.11353400  0.88646600  1
  H  H19  1  0.88646600  0.88646600  0.11353400  1
  H  H20  1  0.42757000  0.07243000  0.42757000  1
  H  H21  1  0.07243000  0.42757000  0.07243000  1
  H  H22  1  0.82243000  0.17757000  0.82243000  1
  H  H23  1  0.17757000  0.82243000  0.17757000  1
  O  O24  1  0.59634500  0.59634500  0.90365500  1
  O  O25  1  0.90365500  0.90365500  0.59634500  1
  O  O26  1  0.65365500  0.65365500  0.34634500  1
  O  O27  1  0.34634500  0.34634500  0.65365500  1
  O  O28  1  0.95862800  0.30877900  0.38123400  1
  O  O29  1  0.30877900  0.95862800  0.35135900  1
  O  O30  1  0.38123400  0.35135900  0.95862800  1
  O  O31  1  0.35135900  0.38123400  0.30877900  1
  O  O32  1  0.29137200  0.94122100  0.86876600  1
  O  O33  1  0.94122100  0.29137200  0.89864100  1
  O  O34  1  0.86876600  0.89864100  0.29137200  1
  O  O35  1  0.89864100  0.86876600  0.94122100  1
  O  O36  1  0.76128700  0.15338400  0.87813300  1
  O  O37  1  0.15338400  0.76128700  0.20719600  1
  O  O38  1  0.87813300  0.20719600  0.76128700  1
  O  O39  1  0.20719600  0.87813300  0.15338400  1
  O  O40  1  0.48871300  0.09661600  0.37186700  1
  O  O41  1  0.09661600  0.48871300  0.04280400  1
  O  O42  1  0.37186700  0.04280400  0.48871300  1
  O  O43  1  0.04280400  0.37186700  0.09661600  1
  O  O44  1  0.50529100  0.07701600  0.81568000  1
  O  O45  1  0.07701600  0.50529100  0.60201300  1
  O  O46  1  0.81568000  0.60201300  0.50529100  1
  O  O47  1  0.60201300  0.81568000  0.07701600  1
  O  O48  1  0.74470900  0.17298400  0.43432000  1
  O  O49  1  0.17298400  0.74470900  0.64798700  1
  O  O50  1  0.43432000  0.64798700  0.74470900  1
  O  O51  1  0.64798700  0.43432000  0.17298400  1
