# generated using pymatgen
data_TmNiGe2
_symmetry_space_group_name_H-M   'P 1'
_cell_length_a   9.21023348
_cell_length_b   9.21023348
_cell_length_c   9.21023348
_cell_angle_alpha   154.07945191
_cell_angle_beta   125.19602650
_cell_angle_gamma   61.59006606
_symmetry_Int_Tables_number   1
_chemical_formula_structural   TmNiGe2
_chemical_formula_sum   'Tm4 Ni4 Ge8'
_cell_volume   277.09225302
_cell_formula_units_Z   4
loop_
 _symmetry_equiv_pos_site_id
 _symmetry_equiv_pos_as_xyz
  1  'x, y, z'
loop_
 _atom_site_type_symbol
 _atom_site_label
 _atom_site_symmetry_multiplicity
 _atom_site_fract_x
 _atom_site_fract_y
 _atom_site_fract_z
 _atom_site_occupancy
  Tm  Tm0  1  0.20328200  0.20328200  0.00000000  1
  Tm  Tm1  1  0.79671800  0.79671800  0.00000000  1
  Tm  Tm2  1  0.23840500  0.00000000  0.23840500  1
  Tm  Tm3  1  0.76159500  0.00000000  0.76159500  1
  Ni  Ni4  1  0.60241600  0.35276200  0.24965400  1
  Ni  Ni5  1  0.39758400  0.64723800  0.75034600  1
  Ni  Ni6  1  0.10310800  0.35276200  0.75034600  1
  Ni  Ni7  1  0.89689200  0.64723800  0.24965400  1
  Ge  Ge8  1  0.07698300  0.57698300  0.50000000  1
  Ge  Ge9  1  0.92301700  0.42301700  0.50000000  1
  Ge  Ge10  1  0.53940100  0.19781000  0.34159000  1
  Ge  Ge11  1  0.46059900  0.80219000  0.65841000  1
  Ge  Ge12  1  0.85622000  0.19781000  0.65841000  1
  Ge  Ge13  1  0.14378000  0.80219000  0.34159000  1
  Ge  Ge14  1  0.42091500  0.42091500  0.00000000  1
  Ge  Ge15  1  0.57908500  0.57908500  0.00000000  1
