# generated using pymatgen
data_Na6ZnSe4
_symmetry_space_group_name_H-M   'P 1'
_cell_length_a   9.38357000
_cell_length_b   9.38357000
_cell_length_c   7.23875500
_cell_angle_alpha   90.00000000
_cell_angle_beta   90.00000000
_cell_angle_gamma   120.00000001
_symmetry_Int_Tables_number   1
_chemical_formula_structural   Na6ZnSe4
_chemical_formula_sum   'Na12 Zn2 Se8'
_cell_volume   551.98935934
_cell_formula_units_Z   2
loop_
 _symmetry_equiv_pos_site_id
 _symmetry_equiv_pos_as_xyz
  1  'x, y, z'
loop_
 _atom_site_type_symbol
 _atom_site_label
 _atom_site_symmetry_multiplicity
 _atom_site_fract_x
 _atom_site_fract_y
 _atom_site_fract_z
 _atom_site_occupancy
  Na  Na0  1  0.85179800  0.70359600  0.03876100  1
  Na  Na1  1  0.29640400  0.14820200  0.03876100  1
  Na  Na2  1  0.85179800  0.14820200  0.03876100  1
  Na  Na3  1  0.14820200  0.29640400  0.53876100  1
  Na  Na4  1  0.70359600  0.85179800  0.53876100  1
  Na  Na5  1  0.14820200  0.85179800  0.53876100  1
  Na  Na6  1  0.46934200  0.93868400  0.86593100  1
  Na  Na7  1  0.06131600  0.53065800  0.86593100  1
  Na  Na8  1  0.46934200  0.53065800  0.86593100  1
  Na  Na9  1  0.53065800  0.06131600  0.36593100  1
  Na  Na10  1  0.93868400  0.46934200  0.36593100  1
  Na  Na11  1  0.53065800  0.46934200  0.36593100  1
  Zn  Zn12  1  0.66666700  0.33333300  0.74735600  1
  Zn  Zn13  1  0.33333300  0.66666700  0.24735600  1
  Se  Se14  1  0.66666700  0.33333300  0.09518300  1
  Se  Se15  1  0.33333300  0.66666700  0.59518300  1
  Se  Se16  1  0.81350000  0.62700000  0.64095800  1
  Se  Se17  1  0.37300000  0.18650000  0.64095800  1
  Se  Se18  1  0.81350000  0.18650000  0.64095800  1
  Se  Se19  1  0.18650000  0.37300000  0.14095800  1
  Se  Se20  1  0.62700000  0.81350000  0.14095800  1
  Se  Se21  1  0.18650000  0.81350000  0.14095800  1
