# generated using pymatgen
data_Dy5(Ge5Rh2)2
_symmetry_space_group_name_H-M   'P 1'
_cell_length_a   13.09252200
_cell_length_b   13.09252200
_cell_length_c   4.31337100
_cell_angle_alpha   90.00000000
_cell_angle_beta   90.00000000
_cell_angle_gamma   90.00000000
_symmetry_Int_Tables_number   1
_chemical_formula_structural   Dy5(Ge5Rh2)2
_chemical_formula_sum   'Dy10 Ge20 Rh8'
_cell_volume   739.37274734
_cell_formula_units_Z   2
loop_
 _symmetry_equiv_pos_site_id
 _symmetry_equiv_pos_as_xyz
  1  'x, y, z'
loop_
 _atom_site_type_symbol
 _atom_site_label
 _atom_site_symmetry_multiplicity
 _atom_site_fract_x
 _atom_site_fract_y
 _atom_site_fract_z
 _atom_site_occupancy
  Dy  Dy0  1  0.50000000  0.50000000  0.00000000  1
  Dy  Dy1  1  0.00000000  0.00000000  0.00000000  1
  Dy  Dy2  1  0.67566300  0.17566300  0.50000000  1
  Dy  Dy3  1  0.32433700  0.82433700  0.50000000  1
  Dy  Dy4  1  0.17566300  0.32433700  0.50000000  1
  Dy  Dy5  1  0.82433700  0.67566300  0.50000000  1
  Dy  Dy6  1  0.88670300  0.38670300  0.50000000  1
  Dy  Dy7  1  0.11329700  0.61329700  0.50000000  1
  Dy  Dy8  1  0.38670300  0.11329700  0.50000000  1
  Dy  Dy9  1  0.61329700  0.88670300  0.50000000  1
  Ge  Ge10  1  0.56630200  0.06630200  0.00000000  1
  Ge  Ge11  1  0.43369800  0.93369800  0.00000000  1
  Ge  Ge12  1  0.06630200  0.43369800  0.00000000  1
  Ge  Ge13  1  0.93369800  0.56630200  0.00000000  1
  Ge  Ge14  1  0.66121400  0.70002000  0.00000000  1
  Ge  Ge15  1  0.33878600  0.29998000  0.00000000  1
  Ge  Ge16  1  0.16121400  0.79998000  0.00000000  1
  Ge  Ge17  1  0.83878600  0.20002000  0.00000000  1
  Ge  Ge18  1  0.29998000  0.66121400  0.00000000  1
  Ge  Ge19  1  0.70002000  0.33878600  0.00000000  1
  Ge  Ge20  1  0.20002000  0.16121400  0.00000000  1
  Ge  Ge21  1  0.79998000  0.83878600  0.00000000  1
  Ge  Ge22  1  0.65925000  0.50300000  0.50000000  1
  Ge  Ge23  1  0.34075000  0.49700000  0.50000000  1
  Ge  Ge24  1  0.15925000  0.99700000  0.50000000  1
  Ge  Ge25  1  0.84075000  0.00300000  0.50000000  1
  Ge  Ge26  1  0.49700000  0.65925000  0.50000000  1
  Ge  Ge27  1  0.50300000  0.34075000  0.50000000  1
  Ge  Ge28  1  0.00300000  0.15925000  0.50000000  1
  Ge  Ge29  1  0.99700000  0.84075000  0.50000000  1
  Rh  Rh30  1  0.74588800  0.52195100  0.00000000  1
  Rh  Rh31  1  0.25411200  0.47804900  0.00000000  1
  Rh  Rh32  1  0.24588800  0.97804900  0.00000000  1
  Rh  Rh33  1  0.75411200  0.02195100  0.00000000  1
  Rh  Rh34  1  0.47804900  0.74588800  0.00000000  1
  Rh  Rh35  1  0.52195100  0.25411200  0.00000000  1
  Rh  Rh36  1  0.02195100  0.24588800  0.00000000  1
  Rh  Rh37  1  0.97804900  0.75411200  0.00000000  1
