# generated using pymatgen
data_CeGa3Au
_symmetry_space_group_name_H-M   'P 1'
_cell_length_a   4.38971000
_cell_length_b   4.38971000
_cell_length_c   6.13329443
_cell_angle_alpha   69.03122814
_cell_angle_beta   69.03122814
_cell_angle_gamma   90.00000000
_symmetry_Int_Tables_number   1
_chemical_formula_structural   CeGa3Au
_chemical_formula_sum   'Ce1 Ga3 Au1'
_cell_volume   101.93306888
_cell_formula_units_Z   1
loop_
 _symmetry_equiv_pos_site_id
 _symmetry_equiv_pos_as_xyz
  1  'x, y, z'
loop_
 _atom_site_type_symbol
 _atom_site_label
 _atom_site_symmetry_multiplicity
 _atom_site_fract_x
 _atom_site_fract_y
 _atom_site_fract_z
 _atom_site_occupancy
  Ce  Ce0  1  0.99178700  0.99178700  0.01642700  1
  Ga  Ga1  1  0.75026100  0.25026100  0.49947800  1
  Ga  Ga2  1  0.25026100  0.75026100  0.49947800  1
  Ga  Ga3  1  0.38627400  0.38627400  0.22745300  1
  Au  Au4  1  0.62141800  0.62141800  0.75716300  1
