# generated using pymatgen
data_LiInGeO4
_symmetry_space_group_name_H-M   'P 1'
_cell_length_a   5.06879800
_cell_length_b   6.17447400
_cell_length_c   10.89044400
_cell_angle_alpha   90.00000000
_cell_angle_beta   90.00000000
_cell_angle_gamma   90.00000000
_symmetry_Int_Tables_number   1
_chemical_formula_structural   LiInGeO4
_chemical_formula_sum   'Li4 In4 Ge4 O16'
_cell_volume   340.83998426
_cell_formula_units_Z   4
loop_
 _symmetry_equiv_pos_site_id
 _symmetry_equiv_pos_as_xyz
  1  'x, y, z'
loop_
 _atom_site_type_symbol
 _atom_site_label
 _atom_site_symmetry_multiplicity
 _atom_site_fract_x
 _atom_site_fract_y
 _atom_site_fract_z
 _atom_site_occupancy
  Li  Li0  1  0.00000000  0.00000000  0.00000000  1
  Li  Li1  1  0.50000000  0.00000000  0.50000000  1
  Li  Li2  1  0.00000000  0.50000000  0.00000000  1
  Li  Li3  1  0.50000000  0.50000000  0.50000000  1
  In  In4  1  0.00732100  0.75000000  0.27220500  1
  In  In5  1  0.49267900  0.75000000  0.77220500  1
  In  In6  1  0.99267900  0.25000000  0.72779500  1
  In  In7  1  0.50732100  0.25000000  0.22779500  1
  Ge  Ge8  1  0.55825000  0.75000000  0.08699800  1
  Ge  Ge9  1  0.94175000  0.75000000  0.58699800  1
  Ge  Ge10  1  0.44175000  0.25000000  0.91300200  1
  Ge  Ge11  1  0.05825000  0.25000000  0.41300200  1
  O  O12  1  0.77290000  0.53216200  0.66607000  1
  O  O13  1  0.22710000  0.46783800  0.33393000  1
  O  O14  1  0.72710000  0.53216200  0.16607000  1
  O  O15  1  0.77290000  0.96783800  0.66607000  1
  O  O16  1  0.27290000  0.03216200  0.83393000  1
  O  O17  1  0.78601200  0.25000000  0.90596700  1
  O  O18  1  0.27290000  0.46783800  0.83393000  1
  O  O19  1  0.22710000  0.03216200  0.33393000  1
  O  O20  1  0.21398800  0.75000000  0.09403300  1
  O  O21  1  0.71398800  0.25000000  0.40596700  1
  O  O22  1  0.78949400  0.75000000  0.44106500  1
  O  O23  1  0.28601200  0.75000000  0.59403300  1
  O  O24  1  0.71050600  0.75000000  0.94106500  1
  O  O25  1  0.28949400  0.25000000  0.05893500  1
  O  O26  1  0.21050600  0.25000000  0.55893500  1
  O  O27  1  0.72710000  0.96783800  0.16607000  1
