# generated using pymatgen
data_BaSbF5
_symmetry_space_group_name_H-M   'P 1'
_cell_length_a   4.80271500
_cell_length_b   9.51720100
_cell_length_c   11.45778800
_cell_angle_alpha   90.00000000
_cell_angle_beta   90.00000000
_cell_angle_gamma   90.00000000
_symmetry_Int_Tables_number   1
_chemical_formula_structural   BaSbF5
_chemical_formula_sum   'Ba4 Sb4 F20'
_cell_volume   523.71720286
_cell_formula_units_Z   4
loop_
 _symmetry_equiv_pos_site_id
 _symmetry_equiv_pos_as_xyz
  1  'x, y, z'
loop_
 _atom_site_type_symbol
 _atom_site_label
 _atom_site_symmetry_multiplicity
 _atom_site_fract_x
 _atom_site_fract_y
 _atom_site_fract_z
 _atom_site_occupancy
  Ba  Ba0  1  0.01270900  0.25000000  0.50000000  1
  Ba  Ba1  1  0.98729100  0.75000000  0.00000000  1
  Ba  Ba2  1  0.98729100  0.75000000  0.50000000  1
  Ba  Ba3  1  0.01270900  0.25000000  0.00000000  1
  Sb  Sb4  1  0.60791500  0.94407700  0.75000000  1
  Sb  Sb5  1  0.60791500  0.55592300  0.25000000  1
  Sb  Sb6  1  0.39208500  0.44407700  0.75000000  1
  Sb  Sb7  1  0.39208500  0.05592300  0.25000000  1
  F  F8  1  0.11352900  0.98808400  0.38338200  1
  F  F9  1  0.11352900  0.51191600  0.61661800  1
  F  F10  1  0.88647100  0.48808400  0.11661800  1
  F  F11  1  0.88647100  0.01191600  0.88338200  1
  F  F12  1  0.88647100  0.01191600  0.61661800  1
  F  F13  1  0.88647100  0.48808400  0.38338200  1
  F  F14  1  0.11352900  0.51191600  0.88338200  1
  F  F15  1  0.11352900  0.98808400  0.11661800  1
  F  F16  1  0.10198500  0.20808400  0.25000000  1
  F  F17  1  0.10198500  0.29191600  0.75000000  1
  F  F18  1  0.89801500  0.70808400  0.25000000  1
  F  F19  1  0.89801500  0.79191600  0.75000000  1
  F  F20  1  0.46965100  0.69189700  0.11481500  1
  F  F21  1  0.46965100  0.80810300  0.88518500  1
  F  F22  1  0.53034900  0.19189700  0.38518500  1
  F  F23  1  0.53034900  0.30810300  0.61481500  1
  F  F24  1  0.53034900  0.30810300  0.88518500  1
  F  F25  1  0.53034900  0.19189700  0.11481500  1
  F  F26  1  0.46965100  0.80810300  0.61481500  1
  F  F27  1  0.46965100  0.69189700  0.38518500  1
