# generated using pymatgen
data_BaSi(S2O7)3
_symmetry_space_group_name_H-M   'P 1'
_cell_length_a   13.77487397
_cell_length_b   15.57468411
_cell_length_c   16.75634900
_cell_angle_alpha   90.00000000
_cell_angle_beta   90.00000000
_cell_angle_gamma   90.00000000
_symmetry_Int_Tables_number   1
_chemical_formula_structural   BaSi(S2O7)3
_chemical_formula_sum   'Ba8 Si8 S48 O168'
_cell_volume   3594.89556494
_cell_formula_units_Z   8
loop_
 _symmetry_equiv_pos_site_id
 _symmetry_equiv_pos_as_xyz
  1  'x, y, z'
loop_
 _atom_site_type_symbol
 _atom_site_label
 _atom_site_symmetry_multiplicity
 _atom_site_fract_x
 _atom_site_fract_y
 _atom_site_fract_z
 _atom_site_occupancy
  Ba  Ba0  1  0.76001037  0.70124134  0.99251954  1
  Ba  Ba1  1  0.73998963  0.20124134  0.00748046  1
  Ba  Ba2  1  0.26001037  0.29875866  0.50748046  1
  Ba  Ba3  1  0.23998963  0.79875866  0.49251954  1
  Ba  Ba4  1  0.23998963  0.29875866  0.00748046  1
  Ba  Ba5  1  0.26001037  0.79875866  0.99251954  1
  Ba  Ba6  1  0.73998963  0.70124134  0.49251954  1
  Ba  Ba7  1  0.76001037  0.20124134  0.50748046  1
  Si  Si8  1  0.87367328  0.89544108  0.74856661  1
  Si  Si9  1  0.62632672  0.39544108  0.25143339  1
  Si  Si10  1  0.37367328  0.10455892  0.75143339  1
  Si  Si11  1  0.12632672  0.60455892  0.24856661  1
  Si  Si12  1  0.12632672  0.10455892  0.25143339  1
  Si  Si13  1  0.37367328  0.60455892  0.74856661  1
  Si  Si14  1  0.62632672  0.89544108  0.24856661  1
  Si  Si15  1  0.87367328  0.39544108  0.75143339  1
  S  S16  1  0.97626461  0.86515479  0.90671632  1
  S  S17  1  0.52373539  0.36515479  0.09328368  1
  S  S18  1  0.47626461  0.13484521  0.59328368  1
  S  S19  1  0.02373539  0.63484521  0.40671632  1
  S  S20  1  0.02373539  0.13484521  0.09328368  1
  S  S21  1  0.47626461  0.63484521  0.90671632  1
  S  S22  1  0.52373539  0.86515479  0.40671632  1
  S  S23  1  0.97626461  0.36515479  0.59328368  1
  S  S24  1  0.74235897  0.73884208  0.75317803  1
  S  S25  1  0.75764103  0.23884208  0.24682197  1
  S  S26  1  0.24235897  0.26115792  0.74682197  1
  S  S27  1  0.25764103  0.76115792  0.25317803  1
  S  S28  1  0.25764103  0.26115792  0.24682197  1
  S  S29  1  0.24235897  0.76115792  0.75317803  1
  S  S30  1  0.75764103  0.73884208  0.25317803  1
  S  S31  1  0.74235897  0.23884208  0.74682197  1
  S  S32  1  0.96802291  0.84926504  0.59029562  1
  S  S33  1  0.53197709  0.34926504  0.40970438  1
  S  S34  1  0.46802291  0.15073496  0.90970438  1
  S  S35  1  0.03197709  0.65073496  0.09029562  1
  S  S36  1  0.03197709  0.15073496  0.40970438  1
  S  S37  1  0.46802291  0.65073496  0.59029562  1
  S  S38  1  0.53197709  0.84926504  0.09029562  1
  S  S39  1  0.96802291  0.34926504  0.90970438  1
  S  S40  1  0.79440090  0.95090020  0.91017727  1
  S  S41  1  0.70559910  0.45090020  0.08982273  1
  S  S42  1  0.29440090  0.04909980  0.58982273  1
  S  S43  1  0.20559910  0.54909980  0.41017727  1
  S  S44  1  0.20559910  0.04909980  0.08982273  1
  S  S45  1  0.29440090  0.54909980  0.91017727  1
  S  S46  1  0.70559910  0.95090020  0.41017727  1
  S  S47  1  0.79440090  0.45090020  0.58982273  1
  S  S48  1  0.94717779  0.02969006  0.63141132  1
  S  S49  1  0.55282221  0.52969006  0.36858868  1
  S  S50  1  0.44717779  0.97030994  0.86858868  1
  S  S51  1  0.05282221  0.47030994  0.13141132  1
  S  S52  1  0.05282221  0.97030994  0.36858868  1
  S  S53  1  0.44717779  0.47030994  0.63141132  1
  S  S54  1  0.55282221  0.02969006  0.13141132  1
  S  S55  1  0.94717779  0.52969006  0.86858868  1
  S  S56  1  0.67103536  0.88161515  0.66604019  1
  S  S57  1  0.82896464  0.38161515  0.33395981  1
  S  S58  1  0.17103536  0.11838485  0.83395981  1
  S  S59  1  0.32896464  0.61838485  0.16604019  1
  S  S60  1  0.32896464  0.11838485  0.33395981  1
  S  S61  1  0.17103536  0.61838485  0.66604019  1
  S  S62  1  0.82896464  0.88161515  0.16604019  1
  S  S63  1  0.67103536  0.38161515  0.83395981  1
  O  O64  1  0.76608027  0.69723196  0.67915119  1
  O  O65  1  0.73391973  0.19723196  0.32084881  1
  O  O66  1  0.26608027  0.30276804  0.82084881  1
  O  O67  1  0.23391973  0.80276804  0.17915119  1
  O  O68  1  0.23391973  0.30276804  0.32084881  1
  O  O69  1  0.26608027  0.80276804  0.67915119  1
  O  O70  1  0.73391973  0.69723196  0.17915119  1
  O  O71  1  0.76608027  0.19723196  0.82084881  1
  O  O72  1  0.82497612  0.79617162  0.78261423  1
  O  O73  1  0.67502388  0.29617162  0.21738577  1
  O  O74  1  0.32497612  0.20382838  0.71738577  1
  O  O75  1  0.17502388  0.70382838  0.28261423  1
  O  O76  1  0.17502388  0.20382838  0.21738577  1
  O  O77  1  0.32497612  0.70382838  0.78261423  1
  O  O78  1  0.67502388  0.79617162  0.28261423  1
  O  O79  1  0.82497612  0.29617162  0.71738577  1
  O  O80  1  0.90706573  0.79471501  0.54299445  1
  O  O81  1  0.59293427  0.29471501  0.45700555  1
  O  O82  1  0.40706573  0.20528499  0.95700555  1
  O  O83  1  0.09293427  0.70528499  0.04299445  1
  O  O84  1  0.09293427  0.20528499  0.45700555  1
  O  O85  1  0.40706573  0.70528499  0.54299445  1
  O  O86  1  0.59293427  0.79471501  0.04299445  1
  O  O87  1  0.90706573  0.29471501  0.95700555  1
  O  O88  1  0.65513887  0.80847573  0.73729323  1
  O  O89  1  0.84486113  0.30847573  0.26270677  1
  O  O90  1  0.15513887  0.19152427  0.76270677  1
  O  O91  1  0.34486113  0.69152427  0.23729323  1
  O  O92  1  0.34486113  0.19152427  0.26270677  1
  O  O93  1  0.15513887  0.69152427  0.73729323  1
  O  O94  1  0.84486113  0.80847573  0.23729323  1
  O  O95  1  0.65513887  0.30847573  0.76270677  1
  O  O96  1  0.92764381  0.94537340  0.57111331  1
  O  O97  1  0.57235619  0.44537340  0.42888669  1
  O  O98  1  0.42764381  0.05462660  0.92888669  1
  O  O99  1  0.07235619  0.55462660  0.07111331  1
  O  O100  1  0.07235619  0.05462660  0.42888669  1
  O  O101  1  0.42764381  0.55462660  0.57111331  1
  O  O102  1  0.57235619  0.94537340  0.07111331  1
  O  O103  1  0.92764381  0.44537340  0.92888669  1
  O  O104  1  0.80667558  0.95772686  0.82012552  1
  O  O105  1  0.69332442  0.45772686  0.17987448  1
  O  O106  1  0.30667558  0.04227314  0.67987448  1
  O  O107  1  0.19332442  0.54227314  0.32012552  1
  O  O108  1  0.19332442  0.04227314  0.17987448  1
  O  O109  1  0.30667558  0.54227314  0.82012552  1
  O  O110  1  0.69332442  0.95772686  0.32012552  1
  O  O111  1  0.80667558  0.45772686  0.67987448  1
  O  O112  1  0.97230800  0.88238661  0.81719082  1
  O  O113  1  0.52769200  0.38238661  0.18280918  1
  O  O114  1  0.47230800  0.11761339  0.68280918  1
  O  O115  1  0.02769200  0.61761339  0.31719082  1
  O  O116  1  0.02769200  0.11761339  0.18280918  1
  O  O117  1  0.47230800  0.61761339  0.81719082  1
  O  O118  1  0.52769200  0.88238661  0.31719082  1
  O  O119  1  0.97230800  0.38238661  0.68280918  1
  O  O120  1  0.90752412  0.94352532  0.94186013  1
  O  O121  1  0.59247588  0.44352532  0.05813987  1
  O  O122  1  0.40752412  0.05647468  0.55813987  1
  O  O123  1  0.09247588  0.55647468  0.44186013  1
  O  O124  1  0.09247588  0.05647468  0.05813987  1
  O  O125  1  0.40752412  0.55647468  0.94186013  1
  O  O126  1  0.59247588  0.94352532  0.44186013  1
  O  O127  1  0.90752412  0.44352532  0.55813987  1
  O  O128  1  0.92415104  0.99342281  0.71381231  1
  O  O129  1  0.57584896  0.49342281  0.28618769  1
  O  O130  1  0.42415104  0.00657719  0.78618769  1
  O  O131  1  0.07584896  0.50657719  0.21381231  1
  O  O132  1  0.07584896  0.00657719  0.28618769  1
  O  O133  1  0.42415104  0.50657719  0.71381231  1
  O  O134  1  0.57584896  0.99342281  0.21381231  1
  O  O135  1  0.92415104  0.49342281  0.78618769  1
  O  O136  1  0.74389327  0.87415245  0.93265819  1
  O  O137  1  0.75610673  0.37415245  0.06734181  1
  O  O138  1  0.24389327  0.12584755  0.56734181  1
  O  O139  1  0.25610673  0.62584755  0.43265819  1
  O  O140  1  0.25610673  0.12584755  0.06734181  1
  O  O141  1  0.24389327  0.62584755  0.93265819  1
  O  O142  1  0.75610673  0.87415245  0.43265819  1
  O  O143  1  0.74389327  0.37415245  0.56734181  1
  O  O144  1  0.93196131  0.78472306  0.92781838  1
  O  O145  1  0.56803869  0.28472306  0.07218162  1
  O  O146  1  0.43196131  0.21527694  0.57218162  1
  O  O147  1  0.06803869  0.71527694  0.42781838  1
  O  O148  1  0.06803869  0.21527694  0.07218162  1
  O  O149  1  0.43196131  0.71527694  0.92781838  1
  O  O150  1  0.56803869  0.78472306  0.42781838  1
  O  O151  1  0.93196131  0.28472306  0.57218162  1
  O  O152  1  0.07003548  0.88549903  0.93748143  1
  O  O153  1  0.42996452  0.38549903  0.06251857  1
  O  O154  1  0.57003548  0.11450097  0.56251857  1
  O  O155  1  0.92996452  0.61450097  0.43748143  1
  O  O156  1  0.92996452  0.11450097  0.06251857  1
  O  O157  1  0.57003548  0.61450097  0.93748143  1
  O  O158  1  0.42996452  0.88549903  0.43748143  1
  O  O159  1  0.07003548  0.38549903  0.56251857  1
  O  O160  1  0.76420029  0.03169554  0.94188139  1
  O  O161  1  0.73579971  0.53169554  0.05811861  1
  O  O162  1  0.26420029  0.96830446  0.55811861  1
  O  O163  1  0.23579971  0.46830446  0.44188139  1
  O  O164  1  0.23579971  0.96830446  0.05811861  1
  O  O165  1  0.26420029  0.46830446  0.94188139  1
  O  O166  1  0.73579971  0.03169554  0.44188139  1
  O  O167  1  0.76420029  0.53169554  0.55811861  1
  O  O168  1  0.94777075  0.83753615  0.67875869  1
  O  O169  1  0.55222925  0.33753615  0.32124131  1
  O  O170  1  0.44777075  0.16246385  0.82124131  1
  O  O171  1  0.05222925  0.66246385  0.17875869  1
  O  O172  1  0.05222925  0.16246385  0.32124131  1
  O  O173  1  0.44777075  0.66246385  0.67875869  1
  O  O174  1  0.55222925  0.83753615  0.17875869  1
  O  O175  1  0.94777075  0.33753615  0.82124131  1
  O  O176  1  0.70693023  0.69031924  0.81956510  1
  O  O177  1  0.79306977  0.19031924  0.18043490  1
  O  O178  1  0.20693023  0.30968076  0.68043490  1
  O  O179  1  0.29306977  0.80968076  0.31956510  1
  O  O180  1  0.29306977  0.30968076  0.18043490  1
  O  O181  1  0.20693023  0.80968076  0.81956510  1
  O  O182  1  0.79306977  0.69031924  0.31956510  1
  O  O183  1  0.70693023  0.19031924  0.68043490  1
  O  O184  1  0.77667241  0.90794568  0.67851505  1
  O  O185  1  0.72332759  0.40794568  0.32148495  1
  O  O186  1  0.27667241  0.09205432  0.82148495  1
  O  O187  1  0.22332759  0.59205432  0.17851505  1
  O  O188  1  0.22332759  0.09205432  0.32148495  1
  O  O189  1  0.27667241  0.59205432  0.67851505  1
  O  O190  1  0.72332759  0.90794568  0.17851505  1
  O  O191  1  0.77667241  0.40794568  0.82148495  1
  O  O192  1  0.07080397  0.84779948  0.57671290  1
  O  O193  1  0.42919603  0.34779948  0.42328710  1
  O  O194  1  0.57080397  0.15220052  0.92328710  1
  O  O195  1  0.92919603  0.65220052  0.07671290  1
  O  O196  1  0.92919603  0.15220052  0.42328710  1
  O  O197  1  0.57080397  0.65220052  0.57671290  1
  O  O198  1  0.42919603  0.84779948  0.07671290  1
  O  O199  1  0.07080397  0.34779948  0.92328710  1
  O  O200  1  0.66296523  0.83731595  0.59091725  1
  O  O201  1  0.83703477  0.33731595  0.40908275  1
  O  O202  1  0.16296523  0.16268405  0.90908275  1
  O  O203  1  0.33703477  0.66268405  0.09091725  1
  O  O204  1  0.33703477  0.16268405  0.40908275  1
  O  O205  1  0.16296523  0.66268405  0.59091725  1
  O  O206  1  0.83703477  0.83731595  0.09091725  1
  O  O207  1  0.66296523  0.33731595  0.90908275  1
  O  O208  1  0.04639574  0.05399815  0.62560564  1
  O  O209  1  0.45360426  0.55399815  0.37439436  1
  O  O210  1  0.54639574  0.94600185  0.87439436  1
  O  O211  1  0.95360426  0.44600185  0.12560564  1
  O  O212  1  0.95360426  0.94600185  0.37439436  1
  O  O213  1  0.54639574  0.44600185  0.62560564  1
  O  O214  1  0.45360426  0.05399815  0.12560564  1
  O  O215  1  0.04639574  0.55399815  0.87439436  1
  O  O216  1  0.87226864  0.08732422  0.60538051  1
  O  O217  1  0.62773136  0.58732422  0.39461949  1
  O  O218  1  0.37226864  0.91267578  0.89461949  1
  O  O219  1  0.12773136  0.41267578  0.10538051  1
  O  O220  1  0.12773136  0.91267578  0.39461949  1
  O  O221  1  0.37226864  0.41267578  0.60538051  1
  O  O222  1  0.62773136  0.08732422  0.10538051  1
  O  O223  1  0.87226864  0.58732422  0.89461949  1
  O  O224  1  0.60434542  0.94756421  0.68603467  1
  O  O225  1  0.89565458  0.44756421  0.31396533  1
  O  O226  1  0.10434542  0.05243579  0.81396533  1
  O  O227  1  0.39565458  0.55243579  0.18603467  1
  O  O228  1  0.39565458  0.05243579  0.31396533  1
  O  O229  1  0.10434542  0.55243579  0.68603467  1
  O  O230  1  0.89565458  0.94756421  0.18603467  1
  O  O231  1  0.60434542  0.44756421  0.81396533  1
