# generated using pymatgen
data_Dy4MgNi
_symmetry_space_group_name_H-M   'P 1'
_cell_length_a   9.63780462
_cell_length_b   9.63780462
_cell_length_c   9.63780462
_cell_angle_alpha   60.00000000
_cell_angle_beta   60.00000000
_cell_angle_gamma   60.00000000
_symmetry_Int_Tables_number   1
_chemical_formula_structural   Dy4MgNi
_chemical_formula_sum   'Dy16 Mg4 Ni4'
_cell_volume   633.02280422
_cell_formula_units_Z   4
loop_
 _symmetry_equiv_pos_site_id
 _symmetry_equiv_pos_as_xyz
  1  'x, y, z'
loop_
 _atom_site_type_symbol
 _atom_site_label
 _atom_site_symmetry_multiplicity
 _atom_site_fract_x
 _atom_site_fract_y
 _atom_site_fract_z
 _atom_site_occupancy
  Dy  Dy0  1  0.34586800  0.34586800  0.34586800  1
  Dy  Dy1  1  0.34586800  0.34586800  0.96239500  1
  Dy  Dy2  1  0.34586800  0.96239500  0.34586800  1
  Dy  Dy3  1  0.96239500  0.34586800  0.34586800  1
  Dy  Dy4  1  0.81291800  0.18708200  0.18708200  1
  Dy  Dy5  1  0.18708200  0.81291800  0.81291800  1
  Dy  Dy6  1  0.18708200  0.81291800  0.18708200  1
  Dy  Dy7  1  0.81291800  0.18708200  0.81291800  1
  Dy  Dy8  1  0.18708200  0.18708200  0.81291800  1
  Dy  Dy9  1  0.81291800  0.81291800  0.18708200  1
  Dy  Dy10  1  0.93478600  0.56521400  0.56521400  1
  Dy  Dy11  1  0.56521400  0.93478600  0.93478600  1
  Dy  Dy12  1  0.56521400  0.93478600  0.56521400  1
  Dy  Dy13  1  0.93478600  0.56521400  0.93478600  1
  Dy  Dy14  1  0.56521400  0.56521400  0.93478600  1
  Dy  Dy15  1  0.93478600  0.93478600  0.56521400  1
  Mg  Mg16  1  0.58005900  0.58005900  0.58005900  1
  Mg  Mg17  1  0.58005900  0.58005900  0.25982400  1
  Mg  Mg18  1  0.58005900  0.25982400  0.58005900  1
  Mg  Mg19  1  0.25982400  0.58005900  0.58005900  1
  Ni  Ni20  1  0.14159600  0.14159600  0.14159600  1
  Ni  Ni21  1  0.14159600  0.14159600  0.57521300  1
  Ni  Ni22  1  0.14159600  0.57521300  0.14159600  1
  Ni  Ni23  1  0.57521300  0.14159600  0.14159600  1
