# generated using pymatgen
data_LiV2(PO4)3
_symmetry_space_group_name_H-M   'P 1'
_cell_length_a   8.58556200
_cell_length_b   8.51930900
_cell_length_c   12.11260112
_cell_angle_alpha   89.47261089
_cell_angle_beta   90.00000000
_cell_angle_gamma   90.00000000
_symmetry_Int_Tables_number   1
_chemical_formula_structural   LiV2(PO4)3
_chemical_formula_sum   'Li4 V8 P12 O48'
_cell_volume   885.91512622
_cell_formula_units_Z   4
loop_
 _symmetry_equiv_pos_site_id
 _symmetry_equiv_pos_as_xyz
  1  'x, y, z'
loop_
 _atom_site_type_symbol
 _atom_site_label
 _atom_site_symmetry_multiplicity
 _atom_site_fract_x
 _atom_site_fract_y
 _atom_site_fract_z
 _atom_site_occupancy
  Li  Li0  1  0.50000000  0.50000000  0.50000000  1
  Li  Li1  1  0.00000000  0.00000000  0.00000000  1
  Li  Li2  1  0.00000000  0.00000000  0.50000000  1
  Li  Li3  1  0.50000000  0.50000000  0.00000000  1
  V  V4  1  0.00161300  0.28139100  0.35992100  1
  V  V5  1  0.49829100  0.21894600  0.64431100  1
  V  V6  1  0.49829100  0.78105400  0.85568900  1
  V  V7  1  0.50170900  0.21894600  0.14431100  1
  V  V8  1  0.99838700  0.71860900  0.64007900  1
  V  V9  1  0.00161300  0.71860900  0.14007900  1
  V  V10  1  0.50170900  0.78105400  0.35568900  1
  V  V11  1  0.99838700  0.28139100  0.85992100  1
  P  P12  1  0.85457000  0.35418100  0.60508600  1
  P  P13  1  0.14543000  0.35418100  0.10508600  1
  P  P14  1  0.20685900  0.00000000  0.75000000  1
  P  P15  1  0.85457000  0.64581900  0.89491400  1
  P  P16  1  0.35642800  0.85248600  0.10482100  1
  P  P17  1  0.35642800  0.14751400  0.39517900  1
  P  P18  1  0.14543000  0.64581900  0.39491400  1
  P  P19  1  0.71141900  0.50000000  0.25000000  1
  P  P20  1  0.28858100  0.50000000  0.75000000  1
  P  P21  1  0.79314100  0.00000000  0.25000000  1
  P  P22  1  0.64357200  0.14751400  0.89517900  1
  P  P23  1  0.64357200  0.85248600  0.60482100  1
  O  O24  1  0.09045500  0.71787300  0.28443300  1
  O  O25  1  0.40961500  0.23029700  0.28777800  1
  O  O26  1  0.40747800  0.97435600  0.39754800  1
  O  O27  1  0.89680600  0.07618300  0.33926600  1
  O  O28  1  0.82310200  0.85336100  0.59260800  1
  O  O29  1  0.59038500  0.23029700  0.78777800  1
  O  O30  1  0.67590800  0.65347400  0.90854300  1
  O  O31  1  0.39352600  0.57790300  0.83763400  1
  O  O32  1  0.57205700  0.75646400  0.51015200  1
  O  O33  1  0.59252200  0.97435600  0.89754800  1
  O  O34  1  0.42794300  0.24353600  0.48984800  1
  O  O35  1  0.10222700  0.52941700  0.09447500  1
  O  O36  1  0.59252200  0.02564400  0.60245200  1
  O  O37  1  0.59038500  0.76970300  0.71222200  1
  O  O38  1  0.32409200  0.65347400  0.40854300  1
  O  O39  1  0.60647400  0.57790300  0.33763400  1
  O  O40  1  0.93217300  0.74565700  0.98587500  1
  O  O41  1  0.40961500  0.76970300  0.21222200  1
  O  O42  1  0.18828600  0.61941000  0.68521400  1
  O  O43  1  0.90954500  0.28212700  0.71556700  1
  O  O44  1  0.40747800  0.02564400  0.10245200  1
  O  O45  1  0.89777300  0.47058300  0.90552500  1
  O  O46  1  0.57205700  0.24353600  0.98984800  1
  O  O47  1  0.32409200  0.34652600  0.09145700  1
  O  O48  1  0.82310200  0.14663900  0.90739200  1
  O  O49  1  0.18828600  0.38059000  0.81478600  1
  O  O50  1  0.17689800  0.14663900  0.40739200  1
  O  O51  1  0.06782700  0.25434300  0.01412500  1
  O  O52  1  0.10222700  0.47058300  0.40552500  1
  O  O53  1  0.30721100  0.12393700  0.69006700  1
  O  O54  1  0.39352600  0.42209700  0.66236600  1
  O  O55  1  0.09045500  0.28212700  0.21556700  1
  O  O56  1  0.89680600  0.92381700  0.16073400  1
  O  O57  1  0.30721100  0.87606300  0.80993300  1
  O  O58  1  0.69278900  0.87606300  0.30993300  1
  O  O59  1  0.42794300  0.75646400  0.01015200  1
  O  O60  1  0.81171400  0.38059000  0.31478600  1
  O  O61  1  0.10319400  0.92381700  0.66073400  1
  O  O62  1  0.81171400  0.61941000  0.18521400  1
  O  O63  1  0.10319400  0.07618300  0.83926600  1
  O  O64  1  0.89777300  0.52941700  0.59447500  1
  O  O65  1  0.90954500  0.71787300  0.78443300  1
  O  O66  1  0.17689800  0.85336100  0.09260800  1
  O  O67  1  0.93217300  0.25434300  0.51412500  1
  O  O68  1  0.60647400  0.42209700  0.16236600  1
  O  O69  1  0.69278900  0.12393700  0.19006700  1
  O  O70  1  0.67590800  0.34652600  0.59145700  1
  O  O71  1  0.06782700  0.74565700  0.48587500  1
