# generated using pymatgen
data_K3Bi7(SO6)4
_symmetry_space_group_name_H-M   'P 1'
_cell_length_a   15.80182646
_cell_length_b   15.80182646
_cell_length_c   20.47392379
_cell_angle_alpha   50.24453341
_cell_angle_beta   50.24453341
_cell_angle_gamma   42.69289559
_symmetry_Int_Tables_number   1
_chemical_formula_structural   K3Bi7(SO6)4
_chemical_formula_sum   'K12 Bi28 S16 O96'
_cell_volume   2520.20213551
_cell_formula_units_Z   4
loop_
 _symmetry_equiv_pos_site_id
 _symmetry_equiv_pos_as_xyz
  1  'x, y, z'
loop_
 _atom_site_type_symbol
 _atom_site_label
 _atom_site_symmetry_multiplicity
 _atom_site_fract_x
 _atom_site_fract_y
 _atom_site_fract_z
 _atom_site_occupancy
  K  K0  1  0.80232000  0.55960600  0.99527800  1
  K  K1  1  0.44039400  0.19768000  0.50472200  1
  K  K2  1  0.19768000  0.44039400  0.00472200  1
  K  K3  1  0.55960600  0.80232000  0.49527800  1
  K  K4  1  0.12303800  0.37703400  0.24560700  1
  K  K5  1  0.62296600  0.87696200  0.25439300  1
  K  K6  1  0.87696200  0.62296600  0.75439300  1
  K  K7  1  0.37703400  0.12303800  0.74560700  1
  K  K8  1  0.04007500  0.77410000  0.15936900  1
  K  K9  1  0.22590000  0.95992500  0.34063100  1
  K  K10  1  0.95992500  0.22590000  0.84063100  1
  K  K11  1  0.77410000  0.04007500  0.65936900  1
  Bi  Bi12  1  0.13145200  0.86854800  0.25000000  1
  Bi  Bi13  1  0.86854800  0.13145200  0.75000000  1
  Bi  Bi14  1  0.62424000  0.37576000  0.25000000  1
  Bi  Bi15  1  0.37576000  0.62424000  0.75000000  1
  Bi  Bi16  1  0.29677600  0.03675900  0.01294700  1
  Bi  Bi17  1  0.96324100  0.70322400  0.48705300  1
  Bi  Bi18  1  0.70322400  0.96324100  0.98705300  1
  Bi  Bi19  1  0.03675900  0.29677600  0.51294700  1
  Bi  Bi20  1  0.26016600  0.51307200  0.32464400  1
  Bi  Bi21  1  0.48692800  0.73983400  0.17535600  1
  Bi  Bi22  1  0.73983400  0.48692800  0.67535600  1
  Bi  Bi23  1  0.51307200  0.26016600  0.82464400  1
  Bi  Bi24  1  0.53873600  0.29552800  0.17005200  1
  Bi  Bi25  1  0.70447200  0.46126400  0.32994800  1
  Bi  Bi26  1  0.46126400  0.70447200  0.82994800  1
  Bi  Bi27  1  0.29552800  0.53873600  0.67005200  1
  Bi  Bi28  1  0.41511600  0.65651900  0.09366000  1
  Bi  Bi29  1  0.34348100  0.58488400  0.40634000  1
  Bi  Bi30  1  0.58488400  0.34348100  0.90634000  1
  Bi  Bi31  1  0.65651900  0.41511600  0.59366000  1
  Bi  Bi32  1  0.90944600  0.16543800  0.09449700  1
  Bi  Bi33  1  0.83456200  0.09055400  0.40550300  1
  Bi  Bi34  1  0.09055400  0.83456200  0.90550300  1
  Bi  Bi35  1  0.16543800  0.90944600  0.59449700  1
  Bi  Bi36  1  0.76499800  0.00770400  0.32381700  1
  Bi  Bi37  1  0.99229600  0.23500200  0.17618300  1
  Bi  Bi38  1  0.23500200  0.99229600  0.67618300  1
  Bi  Bi39  1  0.00770400  0.76499800  0.82381700  1
  S  S40  1  0.38714600  0.14902900  0.37958700  1
  S  S41  1  0.85097100  0.61285400  0.12041300  1
  S  S42  1  0.61285400  0.85097100  0.62041300  1
  S  S43  1  0.14902900  0.38714600  0.87958700  1
  S  S44  1  0.35588800  0.09635300  0.11790100  1
  S  S45  1  0.90364700  0.64411200  0.38209900  1
  S  S46  1  0.64411200  0.90364700  0.88209900  1
  S  S47  1  0.09635300  0.35588800  0.61790100  1
  S  S48  1  0.29555500  0.52900700  0.05724600  1
  S  S49  1  0.47099300  0.70444500  0.44275400  1
  S  S50  1  0.70444500  0.47099300  0.94275400  1
  S  S51  1  0.52900700  0.29555500  0.55724600  1
  S  S52  1  0.77705300  0.04322100  0.06731200  1
  S  S53  1  0.95677900  0.22294700  0.43268800  1
  S  S54  1  0.22294700  0.95677900  0.93268800  1
  S  S55  1  0.04322100  0.77705300  0.56731200  1
  O  O56  1  0.44210100  0.23392700  0.32961500  1
  O  O57  1  0.76607300  0.55789900  0.17038500  1
  O  O58  1  0.55789900  0.76607300  0.67038500  1
  O  O59  1  0.23392700  0.44210100  0.82961500  1
  O  O60  1  0.49441300  0.03104400  0.35100200  1
  O  O61  1  0.96895600  0.50558700  0.14899800  1
  O  O62  1  0.50558700  0.96895600  0.64899800  1
  O  O63  1  0.03104400  0.49441300  0.85100200  1
  O  O64  1  0.34964400  0.11575800  0.47702700  1
  O  O65  1  0.88424200  0.65035600  0.02297300  1
  O  O66  1  0.65035600  0.88424200  0.52297300  1
  O  O67  1  0.11575800  0.34964400  0.97702700  1
  O  O68  1  0.27022400  0.23089100  0.35465600  1
  O  O69  1  0.76910900  0.72977600  0.14534400  1
  O  O70  1  0.72977600  0.76910900  0.64534400  1
  O  O71  1  0.23089100  0.27022400  0.85465600  1
  O  O72  1  0.29450400  0.04260900  0.12904400  1
  O  O73  1  0.95739100  0.70549600  0.37095600  1
  O  O74  1  0.70549600  0.95739100  0.87095600  1
  O  O75  1  0.04260900  0.29450400  0.62904400  1
  O  O76  1  0.24551900  0.20875600  0.15275000  1
  O  O77  1  0.79124400  0.75448100  0.34725000  1
  O  O78  1  0.75448100  0.79124400  0.84725000  1
  O  O79  1  0.20875600  0.24551900  0.65275000  1
  O  O80  1  0.44865500  0.98676200  0.16981700  1
  O  O81  1  0.01323800  0.55134500  0.33018300  1
  O  O82  1  0.55134500  0.01323800  0.83018300  1
  O  O83  1  0.98676200  0.44865500  0.66981700  1
  O  O84  1  0.42727900  0.13871300  0.01995400  1
  O  O85  1  0.86128700  0.57272100  0.48004600  1
  O  O86  1  0.57272100  0.86128700  0.98004600  1
  O  O87  1  0.13871300  0.42727900  0.51995400  1
  O  O88  1  0.15317500  0.61551000  0.06789100  1
  O  O89  1  0.38449000  0.84682500  0.43210900  1
  O  O90  1  0.84682500  0.38449000  0.93210900  1
  O  O91  1  0.61551000  0.15317500  0.56789100  1
  O  O92  1  0.35049900  0.39046600  0.07844800  1
  O  O93  1  0.60953400  0.64950100  0.42155200  1
  O  O94  1  0.64950100  0.60953400  0.92155200  1
  O  O95  1  0.39046600  0.35049900  0.57844800  1
  O  O96  1  0.31486300  0.53529100  0.11612300  1
  O  O97  1  0.46470900  0.68513700  0.38387700  1
  O  O98  1  0.68513700  0.46470900  0.88387700  1
  O  O99  1  0.53529100  0.31486300  0.61612300  1
  O  O100  1  0.37115200  0.57448400  0.95948600  1
  O  O101  1  0.42551600  0.62884800  0.54051400  1
  O  O102  1  0.62884800  0.42551600  0.04051400  1
  O  O103  1  0.57448400  0.37115200  0.45948600  1
  O  O104  1  0.68050400  0.04553900  0.06540800  1
  O  O105  1  0.95446100  0.31949600  0.43459200  1
  O  O106  1  0.31949600  0.95446100  0.93459200  1
  O  O107  1  0.04553900  0.68050400  0.56540800  1
  O  O108  1  0.91383400  0.93452900  0.03577900  1
  O  O109  1  0.06547100  0.08616600  0.46422100  1
  O  O110  1  0.08616600  0.06547100  0.96422100  1
  O  O111  1  0.93452900  0.91383400  0.53577900  1
  O  O112  1  0.74245400  0.01946400  0.16170000  1
  O  O113  1  0.98053600  0.25754600  0.33830000  1
  O  O114  1  0.25754600  0.98053600  0.83830000  1
  O  O115  1  0.01946400  0.74245400  0.66170000  1
  O  O116  1  0.76282100  0.17294700  0.00789900  1
  O  O117  1  0.82705300  0.23717900  0.49210100  1
  O  O118  1  0.23717900  0.82705300  0.99210100  1
  O  O119  1  0.17294700  0.76282100  0.50789900  1
  O  O120  1  0.40629800  0.44532600  0.36280200  1
  O  O121  1  0.55467400  0.59370200  0.13719800  1
  O  O122  1  0.59370200  0.55467400  0.63719800  1
  O  O123  1  0.44532600  0.40629800  0.86280200  1
  O  O124  1  0.23420900  0.69339700  0.21000500  1
  O  O125  1  0.30660300  0.76579100  0.28999500  1
  O  O126  1  0.76579100  0.30660300  0.78999500  1
  O  O127  1  0.69339700  0.23420900  0.71000500  1
  O  O128  1  0.33626900  0.84453000  0.11237700  1
  O  O129  1  0.15547000  0.66373100  0.38762300  1
  O  O130  1  0.66373100  0.15547000  0.88762300  1
  O  O131  1  0.84453000  0.33626900  0.61237700  1
  O  O132  1  0.94429200  0.98305700  0.21106500  1
  O  O133  1  0.01694300  0.05570800  0.28893500  1
  O  O134  1  0.05570800  0.01694300  0.78893500  1
  O  O135  1  0.98305700  0.94429200  0.71106500  1
  O  O136  1  0.69464200  0.15705600  0.36058200  1
  O  O137  1  0.84294400  0.30535800  0.13941800  1
  O  O138  1  0.30535800  0.84294400  0.63941800  1
  O  O139  1  0.15705600  0.69464200  0.86058200  1
  O  O140  1  0.45407600  0.45322100  0.20405000  1
  O  O141  1  0.54677900  0.54592400  0.29595000  1
  O  O142  1  0.54592400  0.54677900  0.79595000  1
  O  O143  1  0.45322100  0.45407600  0.70405000  1
  O  O144  1  0.69841800  0.20518200  0.20355700  1
  O  O145  1  0.79481800  0.30158200  0.29644300  1
  O  O146  1  0.30158200  0.79481800  0.79644300  1
  O  O147  1  0.20518200  0.69841800  0.70355700  1
  O  O148  1  0.09446300  0.09758800  0.10184000  1
  O  O149  1  0.90241200  0.90553700  0.39816000  1
  O  O150  1  0.90553700  0.90241200  0.89816000  1
  O  O151  1  0.09758800  0.09446300  0.60184000  1
