# generated using pymatgen
data_Yb2Sn5Pd3
_symmetry_space_group_name_H-M   'P 1'
_cell_length_a   4.52183900
_cell_length_b   7.41532400
_cell_length_c   26.78728700
_cell_angle_alpha   90.00000000
_cell_angle_beta   90.00000000
_cell_angle_gamma   90.00000000
_symmetry_Int_Tables_number   1
_chemical_formula_structural   Yb2Sn5Pd3
_chemical_formula_sum   'Yb8 Sn20 Pd12'
_cell_volume   898.20187544
_cell_formula_units_Z   4
loop_
 _symmetry_equiv_pos_site_id
 _symmetry_equiv_pos_as_xyz
  1  'x, y, z'
loop_
 _atom_site_type_symbol
 _atom_site_label
 _atom_site_symmetry_multiplicity
 _atom_site_fract_x
 _atom_site_fract_y
 _atom_site_fract_z
 _atom_site_occupancy
  Yb  Yb0  1  0.25000000  0.71692500  0.22708900  1
  Yb  Yb1  1  0.75000000  0.28307500  0.77291100  1
  Yb  Yb2  1  0.75000000  0.78307500  0.72708900  1
  Yb  Yb3  1  0.25000000  0.21692500  0.27291100  1
  Yb  Yb4  1  0.25000000  0.74878200  0.92308600  1
  Yb  Yb5  1  0.75000000  0.25121800  0.07691400  1
  Yb  Yb6  1  0.75000000  0.75121800  0.42308600  1
  Yb  Yb7  1  0.25000000  0.24878200  0.57691400  1
  Sn  Sn8  1  0.25000000  0.53894000  0.04334500  1
  Sn  Sn9  1  0.75000000  0.46106000  0.95665500  1
  Sn  Sn10  1  0.75000000  0.96106000  0.54334500  1
  Sn  Sn11  1  0.25000000  0.03894000  0.45665500  1
  Sn  Sn12  1  0.25000000  0.96353500  0.04334300  1
  Sn  Sn13  1  0.75000000  0.03646500  0.95665700  1
  Sn  Sn14  1  0.75000000  0.53646500  0.54334300  1
  Sn  Sn15  1  0.25000000  0.46353500  0.45665700  1
  Sn  Sn16  1  0.25000000  0.61982600  0.79858400  1
  Sn  Sn17  1  0.75000000  0.38017400  0.20141600  1
  Sn  Sn18  1  0.75000000  0.88017400  0.29858400  1
  Sn  Sn19  1  0.25000000  0.11982600  0.70141600  1
  Sn  Sn20  1  0.25000000  0.78440400  0.63103700  1
  Sn  Sn21  1  0.75000000  0.21559600  0.36896300  1
  Sn  Sn22  1  0.75000000  0.71559600  0.13103700  1
  Sn  Sn23  1  0.25000000  0.28440400  0.86896300  1
  Sn  Sn24  1  0.25000000  0.59342100  0.34650500  1
  Sn  Sn25  1  0.75000000  0.40657900  0.65349500  1
  Sn  Sn26  1  0.75000000  0.90657900  0.84650500  1
  Sn  Sn27  1  0.25000000  0.09342100  0.15349500  1
  Pd  Pd28  1  0.25000000  0.74276800  0.52794100  1
  Pd  Pd29  1  0.75000000  0.25723200  0.47205900  1
  Pd  Pd30  1  0.75000000  0.75723200  0.02794100  1
  Pd  Pd31  1  0.25000000  0.24276800  0.97205900  1
  Pd  Pd32  1  0.25000000  0.96523000  0.35660600  1
  Pd  Pd33  1  0.75000000  0.03477000  0.64339400  1
  Pd  Pd34  1  0.75000000  0.53477000  0.85660600  1
  Pd  Pd35  1  0.25000000  0.46523000  0.14339400  1
  Pd  Pd36  1  0.25000000  0.50125200  0.70116300  1
  Pd  Pd37  1  0.75000000  0.49874800  0.29883700  1
  Pd  Pd38  1  0.75000000  0.99874800  0.20116300  1
  Pd  Pd39  1  0.25000000  0.00125200  0.79883700  1
