# generated using pymatgen
data_Nd2MoO6
_symmetry_space_group_name_H-M   'P 1'
_cell_length_a   16.51126412
_cell_length_b   16.51126412
_cell_length_c   16.51126412
_cell_angle_alpha   159.98680685
_cell_angle_beta   159.98680685
_cell_angle_gamma   28.45066095
_symmetry_Int_Tables_number   1
_chemical_formula_structural   Nd2MoO6
_chemical_formula_sum   'Nd8 Mo4 O24'
_cell_volume   526.96658603
_cell_formula_units_Z   4
loop_
 _symmetry_equiv_pos_site_id
 _symmetry_equiv_pos_as_xyz
  1  'x, y, z'
loop_
 _atom_site_type_symbol
 _atom_site_label
 _atom_site_symmetry_multiplicity
 _atom_site_fract_x
 _atom_site_fract_y
 _atom_site_fract_z
 _atom_site_occupancy
  Nd  Nd0  1  0.83738900  0.83738900  0.00000000  1
  Nd  Nd1  1  0.58738900  0.08738900  0.50000000  1
  Nd  Nd2  1  0.41261100  0.91261100  0.50000000  1
  Nd  Nd3  1  0.66261100  0.66261100  0.00000000  1
  Nd  Nd4  1  0.91261100  0.41261100  0.50000000  1
  Nd  Nd5  1  0.16261100  0.16261100  0.00000000  1
  Nd  Nd6  1  0.33738900  0.33738900  0.00000000  1
  Nd  Nd7  1  0.08738900  0.58738900  0.50000000  1
  Mo  Mo8  1  0.00000000  0.00000000  0.00000000  1
  Mo  Mo9  1  0.75000000  0.25000000  0.50000000  1
  Mo  Mo10  1  0.25000000  0.75000000  0.50000000  1
  Mo  Mo11  1  0.50000000  0.50000000  0.00000000  1
  O  O12  1  0.86863900  0.37500000  0.99363900  1
  O  O13  1  0.12500000  0.63136100  0.00636100  1
  O  O14  1  0.62500000  0.11863900  0.99363900  1
  O  O15  1  0.38136100  0.87500000  0.00636100  1
  O  O16  1  0.88136100  0.87500000  0.50636100  1
  O  O17  1  0.62500000  0.61863900  0.49363900  1
  O  O18  1  0.12500000  0.13136100  0.50636100  1
  O  O19  1  0.36863900  0.37500000  0.49363900  1
  O  O20  1  0.04469300  0.53974300  0.15712100  1
  O  O21  1  0.61242800  0.11737800  0.15712100  1
  O  O22  1  0.96025700  0.45530700  0.84287900  1
  O  O23  1  0.20530700  0.86242800  0.99505100  1
  O  O24  1  0.36737800  0.36242800  0.65712100  1
  O  O25  1  0.11242800  0.95530700  0.49505100  1
  O  O26  1  0.46025700  0.61737800  0.50494900  1
  O  O27  1  0.88262200  0.03974300  0.49505100  1
  O  O28  1  0.54469300  0.38757200  0.50494900  1
  O  O29  1  0.78974300  0.79469300  0.65712100  1
  O  O30  1  0.13757200  0.13262200  0.34287900  1
  O  O31  1  0.70530700  0.71025700  0.34287900  1
  O  O32  1  0.38262200  0.88757200  0.84287900  1
  O  O33  1  0.63757200  0.29469300  0.00494900  1
  O  O34  1  0.28974300  0.63262200  0.99505100  1
  O  O35  1  0.86737800  0.21025700  0.00494900  1
