# generated using pymatgen
data_Y2(Ga3Ru)3
_symmetry_space_group_name_H-M   'P 1'
_cell_length_a   7.49294471
_cell_length_b   7.49294471
_cell_length_c   9.76506100
_cell_angle_alpha   90.00000000
_cell_angle_beta   90.00000000
_cell_angle_gamma   119.35448297
_symmetry_Int_Tables_number   1
_chemical_formula_structural   Y2(Ga3Ru)3
_chemical_formula_sum   'Y4 Ga18 Ru6'
_cell_volume   477.85814489
_cell_formula_units_Z   2
loop_
 _symmetry_equiv_pos_site_id
 _symmetry_equiv_pos_as_xyz
  1  'x, y, z'
loop_
 _atom_site_type_symbol
 _atom_site_label
 _atom_site_symmetry_multiplicity
 _atom_site_fract_x
 _atom_site_fract_y
 _atom_site_fract_z
 _atom_site_occupancy
  Y  Y0  1  0.99644500  0.66955300  0.25000000  1
  Y  Y1  1  0.00355500  0.33044700  0.75000000  1
  Y  Y2  1  0.66955300  0.99644500  0.25000000  1
  Y  Y3  1  0.33044700  0.00355500  0.75000000  1
  Ga  Ga4  1  0.12708600  0.12708600  0.25000000  1
  Ga  Ga5  1  0.87291400  0.87291400  0.75000000  1
  Ga  Ga6  1  0.00714800  0.33530000  0.07736700  1
  Ga  Ga7  1  0.99285200  0.66470000  0.92263300  1
  Ga  Ga8  1  0.99285200  0.66470000  0.57736700  1
  Ga  Ga9  1  0.33530000  0.00714800  0.42263300  1
  Ga  Ga10  1  0.00714800  0.33530000  0.42263300  1
  Ga  Ga11  1  0.66470000  0.99285200  0.57736700  1
  Ga  Ga12  1  0.66470000  0.99285200  0.92263300  1
  Ga  Ga13  1  0.33530000  0.00714800  0.07736700  1
  Ga  Ga14  1  0.33835200  0.33835200  0.56029700  1
  Ga  Ga15  1  0.66164800  0.66164800  0.43970300  1
  Ga  Ga16  1  0.66164800  0.66164800  0.06029700  1
  Ga  Ga17  1  0.33835200  0.33835200  0.93970300  1
  Ga  Ga18  1  0.33728100  0.54834000  0.25000000  1
  Ga  Ga19  1  0.66271900  0.45166000  0.75000000  1
  Ga  Ga20  1  0.54834000  0.33728100  0.25000000  1
  Ga  Ga21  1  0.45166000  0.66271900  0.75000000  1
  Ru  Ru22  1  0.67499400  0.32500600  0.00000000  1
  Ru  Ru23  1  0.32500600  0.67499400  0.00000000  1
  Ru  Ru24  1  0.32500600  0.67499400  0.50000000  1
  Ru  Ru25  1  0.67499400  0.32500600  0.50000000  1
  Ru  Ru26  1  0.00000000  0.00000000  0.00000000  1
  Ru  Ru27  1  0.00000000  0.00000000  0.50000000  1
