# generated using pymatgen
data_HoFeSi
_symmetry_space_group_name_H-M   'P 1'
_cell_length_a   4.03766300
_cell_length_b   4.03766300
_cell_length_c   6.39959800
_cell_angle_alpha   90.00000000
_cell_angle_beta   90.00000000
_cell_angle_gamma   90.00000000
_symmetry_Int_Tables_number   1
_chemical_formula_structural   HoFeSi
_chemical_formula_sum   'Ho2 Fe2 Si2'
_cell_volume   104.33087032
_cell_formula_units_Z   2
loop_
 _symmetry_equiv_pos_site_id
 _symmetry_equiv_pos_as_xyz
  1  'x, y, z'
loop_
 _atom_site_type_symbol
 _atom_site_label
 _atom_site_symmetry_multiplicity
 _atom_site_fract_x
 _atom_site_fract_y
 _atom_site_fract_z
 _atom_site_occupancy
  Ho  Ho0  1  0.00000000  0.50000000  0.31629800  1
  Ho  Ho1  1  0.50000000  0.00000000  0.68370200  1
  Fe  Fe2  1  0.00000000  0.00000000  0.00000000  1
  Fe  Fe3  1  0.50000000  0.50000000  0.00000000  1
  Si  Si4  1  0.00000000  0.50000000  0.81787700  1
  Si  Si5  1  0.50000000  0.00000000  0.18212300  1
