# generated using pymatgen
data_EuMgSn
_symmetry_space_group_name_H-M   'P 1'
_cell_length_a   4.89143000
_cell_length_b   8.04437800
_cell_length_c   8.79053500
_cell_angle_alpha   90.00000000
_cell_angle_beta   90.00000000
_cell_angle_gamma   90.00000000
_symmetry_Int_Tables_number   1
_chemical_formula_structural   EuMgSn
_chemical_formula_sum   'Eu4 Mg4 Sn4'
_cell_volume   345.89447088
_cell_formula_units_Z   4
loop_
 _symmetry_equiv_pos_site_id
 _symmetry_equiv_pos_as_xyz
  1  'x, y, z'
loop_
 _atom_site_type_symbol
 _atom_site_label
 _atom_site_symmetry_multiplicity
 _atom_site_fract_x
 _atom_site_fract_y
 _atom_site_fract_z
 _atom_site_occupancy
  Eu  Eu0  1  0.25000000  0.01056600  0.30818500  1
  Eu  Eu1  1  0.25000000  0.51056600  0.19181500  1
  Eu  Eu2  1  0.75000000  0.98943400  0.69181500  1
  Eu  Eu3  1  0.75000000  0.48943400  0.80818500  1
  Mg  Mg4  1  0.25000000  0.15286100  0.93014300  1
  Mg  Mg5  1  0.25000000  0.65286100  0.56985700  1
  Mg  Mg6  1  0.75000000  0.84713900  0.06985700  1
  Mg  Mg7  1  0.75000000  0.34713900  0.43014300  1
  Sn  Sn8  1  0.25000000  0.27584200  0.60645000  1
  Sn  Sn9  1  0.25000000  0.77584200  0.89355000  1
  Sn  Sn10  1  0.75000000  0.72415800  0.39355000  1
  Sn  Sn11  1  0.75000000  0.22415800  0.10645000  1
