# generated using pymatgen
data_FeGe3H4PbO10
_symmetry_space_group_name_H-M   'P 1'
_cell_length_a   5.48014973
_cell_length_b   6.01749080
_cell_length_c   13.75037600
_cell_angle_alpha   90.00000000
_cell_angle_beta   90.00000000
_cell_angle_gamma   112.16266634
_symmetry_Int_Tables_number   1
_chemical_formula_structural   FeGe3H4PbO10
_chemical_formula_sum   'Fe2 Ge6 H8 Pb2 O20'
_cell_volume   419.94082423
_cell_formula_units_Z   2
loop_
 _symmetry_equiv_pos_site_id
 _symmetry_equiv_pos_as_xyz
  1  'x, y, z'
loop_
 _atom_site_type_symbol
 _atom_site_label
 _atom_site_symmetry_multiplicity
 _atom_site_fract_x
 _atom_site_fract_y
 _atom_site_fract_z
 _atom_site_occupancy
  Fe  Fe0  1  0.00000000  0.50000000  0.50000000  1
  Fe  Fe1  1  0.00000000  0.50000000  0.00000000  1
  Ge  Ge2  1  0.50000000  0.00000000  0.50000000  1
  Ge  Ge3  1  0.50000000  0.00000000  0.00000000  1
  Ge  Ge4  1  0.00202600  0.96304400  0.62908500  1
  Ge  Ge5  1  0.99797400  0.03695600  0.12908500  1
  Ge  Ge6  1  0.99797400  0.03695600  0.37091500  1
  Ge  Ge7  1  0.00202600  0.96304400  0.87091500  1
  H  H8  1  0.54023100  0.63704400  0.56533400  1
  H  H9  1  0.45976900  0.36295600  0.06533400  1
  H  H10  1  0.45976900  0.36295600  0.43466600  1
  H  H11  1  0.54023100  0.63704400  0.93466600  1
  H  H12  1  0.65232200  0.34996400  0.30955500  1
  H  H13  1  0.34767800  0.65003600  0.80955500  1
  H  H14  1  0.34767800  0.65003600  0.69044500  1
  H  H15  1  0.65232200  0.34996400  0.19044500  1
  Pb  Pb16  1  0.32330900  0.64700500  0.25000000  1
  Pb  Pb17  1  0.67669100  0.35299500  0.75000000  1
  O  O18  1  0.06790300  0.96794700  0.25000000  1
  O  O19  1  0.93209700  0.03205300  0.75000000  1
  O  O20  1  0.34724100  0.10022600  0.61129300  1
  O  O21  1  0.65275900  0.89977400  0.11129300  1
  O  O22  1  0.65275900  0.89977400  0.38870700  1
  O  O23  1  0.34724100  0.10022600  0.88870700  1
  O  O24  1  0.85437800  0.64911800  0.88699300  1
  O  O25  1  0.14562200  0.35088200  0.38699300  1
  O  O26  1  0.14562200  0.35088200  0.11300700  1
  O  O27  1  0.85437800  0.64911800  0.61300700  1
  O  O28  1  0.84121800  0.12577800  0.56231800  1
  O  O29  1  0.15878200  0.87422200  0.06231800  1
  O  O30  1  0.15878200  0.87422200  0.43768200  1
  O  O31  1  0.84121800  0.12577800  0.93768200  1
  O  O32  1  0.38965400  0.69020200  0.55763700  1
  O  O33  1  0.61034600  0.30979800  0.05763700  1
  O  O34  1  0.61034600  0.30979800  0.44236300  1
  O  O35  1  0.38965400  0.69020200  0.94236300  1
  O  O36  1  0.67393500  0.44875600  0.25000000  1
  O  O37  1  0.32606500  0.55124400  0.75000000  1
