# generated using pymatgen
data_Gd6CoCl10
_symmetry_space_group_name_H-M   'P 1'
_cell_length_a   7.22789300
_cell_length_b   8.85203392
_cell_length_c   8.97701252
_cell_angle_alpha   110.00492171
_cell_angle_beta   107.50079820
_cell_angle_gamma   96.53522710
_symmetry_Int_Tables_number   1
_chemical_formula_structural   Gd6CoCl10
_chemical_formula_sum   'Gd6 Co1 Cl10'
_cell_volume   499.45293913
_cell_formula_units_Z   1
loop_
 _symmetry_equiv_pos_site_id
 _symmetry_equiv_pos_as_xyz
  1  'x, y, z'
loop_
 _atom_site_type_symbol
 _atom_site_label
 _atom_site_symmetry_multiplicity
 _atom_site_fract_x
 _atom_site_fract_y
 _atom_site_fract_z
 _atom_site_occupancy
  Gd  Gd0  1  0.86893800  0.23945300  0.94994600  1
  Gd  Gd1  1  0.13106200  0.76054700  0.05005400  1
  Gd  Gd2  1  0.01969100  0.89173500  0.68692800  1
  Gd  Gd3  1  0.98030900  0.10826500  0.31307200  1
  Gd  Gd4  1  0.37506900  0.19877000  0.15076800  1
  Gd  Gd5  1  0.62493100  0.80123000  0.84923200  1
  Co  Co6  1  0.00000000  0.00000000  0.00000000  1
  Cl  Cl7  1  0.90729600  0.16177300  0.62932500  1
  Cl  Cl8  1  0.09270400  0.83822700  0.37067500  1
  Cl  Cl9  1  0.45076400  0.07514800  0.82927900  1
  Cl  Cl10  1  0.54923600  0.92485200  0.17072100  1
  Cl  Cl11  1  0.20001700  0.64503400  0.74062300  1
  Cl  Cl12  1  0.79998300  0.35496600  0.25937700  1
  Cl  Cl13  1  0.24543400  0.45650600  0.08088100  1
  Cl  Cl14  1  0.75456600  0.54349400  0.91911900  1
  Cl  Cl15  1  0.63380900  0.71614900  0.53289100  1
  Cl  Cl16  1  0.36619100  0.28385100  0.46710900  1
