# generated using pymatgen
data_ZrAl5Cu7
_symmetry_space_group_name_H-M   'P 1'
_cell_length_a   5.01456800
_cell_length_b   6.52859655
_cell_length_c   6.52859655
_cell_angle_alpha   98.77929257
_cell_angle_beta   112.58454282
_cell_angle_gamma   67.41545718
_symmetry_Int_Tables_number   1
_chemical_formula_structural   ZrAl5Cu7
_chemical_formula_sum   'Zr1 Al5 Cu7'
_cell_volume   182.20656074
_cell_formula_units_Z   1
loop_
 _symmetry_equiv_pos_site_id
 _symmetry_equiv_pos_as_xyz
  1  'x, y, z'
loop_
 _atom_site_type_symbol
 _atom_site_label
 _atom_site_symmetry_multiplicity
 _atom_site_fract_x
 _atom_site_fract_y
 _atom_site_fract_z
 _atom_site_occupancy
  Zr  Zr0  1  0.99971900  0.00028100  0.99971900  1
  Al  Al1  1  0.65954500  0.34045500  0.65954500  1
  Al  Al2  1  0.34587200  0.65412800  0.34587200  1
  Al  Al3  1  0.00502900  0.33507900  0.34513700  1
  Al  Al4  1  0.00502900  0.65486300  0.66492100  1
  Al  Al5  1  0.69880200  0.80119800  0.19880200  1
  Cu  Cu6  1  0.50211200  0.99696700  0.50001800  1
  Cu  Cu7  1  0.00093900  0.99696700  0.50001800  1
  Cu  Cu8  1  0.50211200  0.49998200  0.00303300  1
  Cu  Cu9  1  0.00093900  0.49998200  0.00303300  1
  Cu  Cu10  1  0.28208600  0.21791400  0.78208600  1
  Cu  Cu11  1  0.49890800  0.78067800  0.77849400  1
  Cu  Cu12  1  0.49890800  0.22150600  0.21932200  1
