# generated using pymatgen
data_Sr5NbN5
_symmetry_space_group_name_H-M   'P 1'
_cell_length_a   6.51228900
_cell_length_b   7.33445600
_cell_length_c   18.03005500
_cell_angle_alpha   90.00000000
_cell_angle_beta   90.00000000
_cell_angle_gamma   90.00000000
_symmetry_Int_Tables_number   1
_chemical_formula_structural   Sr5NbN5
_chemical_formula_sum   'Sr20 Nb4 N20'
_cell_volume   861.18929828
_cell_formula_units_Z   4
loop_
 _symmetry_equiv_pos_site_id
 _symmetry_equiv_pos_as_xyz
  1  'x, y, z'
loop_
 _atom_site_type_symbol
 _atom_site_label
 _atom_site_symmetry_multiplicity
 _atom_site_fract_x
 _atom_site_fract_y
 _atom_site_fract_z
 _atom_site_occupancy
  Sr  Sr0  1  0.53501700  0.00000000  0.25000000  1
  Sr  Sr1  1  0.46498300  0.50000000  0.75000000  1
  Sr  Sr2  1  0.46498300  0.00000000  0.75000000  1
  Sr  Sr3  1  0.53501700  0.50000000  0.25000000  1
  Sr  Sr4  1  0.00003800  0.25000000  0.73540100  1
  Sr  Sr5  1  0.00003800  0.75000000  0.76459900  1
  Sr  Sr6  1  0.32082100  0.75000000  0.91974900  1
  Sr  Sr7  1  0.32082100  0.25000000  0.58025100  1
  Sr  Sr8  1  0.67917900  0.25000000  0.08025100  1
  Sr  Sr9  1  0.67917900  0.75000000  0.41974900  1
  Sr  Sr10  1  0.79930100  0.49509600  0.57670900  1
  Sr  Sr11  1  0.79930100  0.50490400  0.92329100  1
  Sr  Sr12  1  0.20069900  0.99509600  0.42329100  1
  Sr  Sr13  1  0.20069900  0.00490400  0.07670900  1
  Sr  Sr14  1  0.20069900  0.50490400  0.42329100  1
  Sr  Sr15  1  0.20069900  0.49509600  0.07670900  1
  Sr  Sr16  1  0.79930100  0.00490400  0.57670900  1
  Sr  Sr17  1  0.79930100  0.99509600  0.92329100  1
  Sr  Sr18  1  0.99996200  0.75000000  0.26459900  1
  Sr  Sr19  1  0.99996200  0.25000000  0.23540100  1
  Nb  Nb20  1  0.22922400  0.75000000  0.59338000  1
  Nb  Nb21  1  0.22922400  0.25000000  0.90662000  1
  Nb  Nb22  1  0.77077600  0.25000000  0.40662000  1
  Nb  Nb23  1  0.77077600  0.75000000  0.09338000  1
  N  N24  1  0.35200300  0.75000000  0.32396500  1
  N  N25  1  0.35200300  0.25000000  0.17603500  1
  N  N26  1  0.64799700  0.25000000  0.67603500  1
  N  N27  1  0.64799700  0.75000000  0.82396500  1
  N  N28  1  0.96827200  0.25000000  0.48910500  1
  N  N29  1  0.96827200  0.75000000  0.01089500  1
  N  N30  1  0.51370700  0.75000000  0.55421600  1
  N  N31  1  0.51370700  0.25000000  0.94578400  1
  N  N32  1  0.48629300  0.25000000  0.44578400  1
  N  N33  1  0.48629300  0.75000000  0.05421600  1
  N  N34  1  0.84664500  0.46938200  0.34566400  1
  N  N35  1  0.84664500  0.53061800  0.15433600  1
  N  N36  1  0.15335500  0.96938200  0.65433600  1
  N  N37  1  0.15335500  0.03061800  0.84566400  1
  N  N38  1  0.15335500  0.53061800  0.65433600  1
  N  N39  1  0.15335500  0.46938200  0.84566400  1
  N  N40  1  0.84664500  0.03061800  0.34566400  1
  N  N41  1  0.84664500  0.96938200  0.15433600  1
  N  N42  1  0.03172800  0.75000000  0.51089500  1
  N  N43  1  0.03172800  0.25000000  0.98910500  1
