# generated using pymatgen
data_Pr(Al5Ru)2
_symmetry_space_group_name_H-M   'P 1'
_cell_length_a   6.88252113
_cell_length_b   6.88252113
_cell_length_c   9.20957300
_cell_angle_alpha   90.00000000
_cell_angle_beta   90.00000000
_cell_angle_gamma   96.68898811
_symmetry_Int_Tables_number   1
_chemical_formula_structural   Pr(Al5Ru)2
_chemical_formula_sum   'Pr2 Al20 Ru4'
_cell_volume   433.27963314
_cell_formula_units_Z   2
loop_
 _symmetry_equiv_pos_site_id
 _symmetry_equiv_pos_as_xyz
  1  'x, y, z'
loop_
 _atom_site_type_symbol
 _atom_site_label
 _atom_site_symmetry_multiplicity
 _atom_site_fract_x
 _atom_site_fract_y
 _atom_site_fract_z
 _atom_site_occupancy
  Pr  Pr0  1  0.87585300  0.12414700  0.75000000  1
  Pr  Pr1  1  0.12414700  0.87585300  0.25000000  1
  Al  Al2  1  0.41135200  0.13929900  0.75000000  1
  Al  Al3  1  0.13929900  0.41135200  0.25000000  1
  Al  Al4  1  0.58864800  0.86070100  0.25000000  1
  Al  Al5  1  0.86070100  0.58864800  0.75000000  1
  Al  Al6  1  0.51744000  0.77916400  0.75000000  1
  Al  Al7  1  0.77916400  0.51744000  0.25000000  1
  Al  Al8  1  0.48256000  0.22083600  0.25000000  1
  Al  Al9  1  0.22083600  0.48256000  0.75000000  1
  Al  Al10  1  0.83877600  0.16122400  0.39861900  1
  Al  Al11  1  0.16122400  0.83877600  0.60138100  1
  Al  Al12  1  0.83877600  0.16122400  0.10138100  1
  Al  Al13  1  0.16122400  0.83877600  0.89861900  1
  Al  Al14  1  0.62227400  0.37772600  0.55012000  1
  Al  Al15  1  0.37772600  0.62227400  0.44988000  1
  Al  Al16  1  0.62227400  0.37772600  0.94988000  1
  Al  Al17  1  0.37772600  0.62227400  0.05012000  1
  Al  Al18  1  0.77234400  0.77234400  0.00000000  1
  Al  Al19  1  0.77234400  0.77234400  0.50000000  1
  Al  Al20  1  0.22765600  0.22765600  0.00000000  1
  Al  Al21  1  0.22765600  0.22765600  0.50000000  1
  Ru  Ru22  1  0.50000000  0.00000000  0.00000000  1
  Ru  Ru23  1  0.00000000  0.50000000  0.00000000  1
  Ru  Ru24  1  0.50000000  0.00000000  0.50000000  1
  Ru  Ru25  1  0.00000000  0.50000000  0.50000000  1
