# generated using pymatgen
data_NaMo6O17
_symmetry_space_group_name_H-M   'P 1'
_cell_length_a   5.65872700
_cell_length_b   9.77748300
_cell_length_c   13.41346884
_cell_angle_alpha   89.45274705
_cell_angle_beta   90.00000000
_cell_angle_gamma   90.00000000
_symmetry_Int_Tables_number   1
_chemical_formula_structural   NaMo6O17
_chemical_formula_sum   'Na2 Mo12 O34'
_cell_volume   742.10798786
_cell_formula_units_Z   2
loop_
 _symmetry_equiv_pos_site_id
 _symmetry_equiv_pos_as_xyz
  1  'x, y, z'
loop_
 _atom_site_type_symbol
 _atom_site_label
 _atom_site_symmetry_multiplicity
 _atom_site_fract_x
 _atom_site_fract_y
 _atom_site_fract_z
 _atom_site_occupancy
  Na  Na0  1  0.25000000  0.92440300  0.09734300  1
  Na  Na1  1  0.75000000  0.07559700  0.90265700  1
  Mo  Mo2  1  0.25000000  0.30979600  0.99176100  1
  Mo  Mo3  1  0.75000000  0.69020400  0.00823900  1
  Mo  Mo4  1  0.25000000  0.58455100  0.67059000  1
  Mo  Mo5  1  0.75000000  0.41544900  0.32941000  1
  Mo  Mo6  1  0.25000000  0.27574800  0.49388200  1
  Mo  Mo7  1  0.75000000  0.72425200  0.50611800  1
  Mo  Mo8  1  0.25000000  0.93410600  0.79919100  1
  Mo  Mo9  1  0.75000000  0.06589400  0.20080900  1
  Mo  Mo10  1  0.25000000  0.91716200  0.36183300  1
  Mo  Mo11  1  0.75000000  0.08283800  0.63816700  1
  Mo  Mo12  1  0.25000000  0.59623600  0.18208500  1
  Mo  Mo13  1  0.75000000  0.40376400  0.81791500  1
  O  O14  1  0.25000000  0.47529500  0.05005200  1
  O  O15  1  0.75000000  0.52470500  0.94994800  1
  O  O16  1  0.25000000  0.40148100  0.59031000  1
  O  O17  1  0.75000000  0.59851900  0.40969000  1
  O  O18  1  0.25000000  0.74030800  0.26394500  1
  O  O19  1  0.75000000  0.25969200  0.73605500  1
  O  O20  1  0.25000000  0.94547400  0.92944200  1
  O  O21  1  0.75000000  0.05452600  0.07055800  1
  O  O22  1  0.48786900  0.97671800  0.24392600  1
  O  O23  1  0.51213100  0.02328200  0.75607400  1
  O  O24  1  0.98786900  0.02328200  0.75607400  1
  O  O25  1  0.01213100  0.97671800  0.24392600  1
  O  O26  1  0.48823500  0.71224300  0.08569900  1
  O  O27  1  0.51176500  0.28775700  0.91430100  1
  O  O28  1  0.98823500  0.28775700  0.91430100  1
  O  O29  1  0.01176500  0.71224300  0.08569900  1
  O  O30  1  0.25000000  0.08823900  0.40743600  1
  O  O31  1  0.75000000  0.91176100  0.59256400  1
  O  O32  1  0.49391300  0.34357800  0.41026400  1
  O  O33  1  0.50608700  0.65642200  0.58973600  1
  O  O34  1  0.99391300  0.65642200  0.58973600  1
  O  O35  1  0.00608700  0.34357800  0.41026400  1
  O  O36  1  0.49381900  0.84359800  0.42834100  1
  O  O37  1  0.50618100  0.15640200  0.57165900  1
  O  O38  1  0.99381900  0.15640200  0.57165900  1
  O  O39  1  0.00618100  0.84359800  0.42834100  1
  O  O40  1  0.25000000  0.18316600  0.08420100  1
  O  O41  1  0.75000000  0.81683400  0.91579900  1
  O  O42  1  0.49560500  0.50109900  0.23214800  1
  O  O43  1  0.50439500  0.49890100  0.76785200  1
  O  O44  1  0.99560500  0.49890100  0.76785200  1
  O  O45  1  0.00439500  0.50109900  0.23214800  1
  O  O46  1  0.25000000  0.75965000  0.75923000  1
  O  O47  1  0.75000000  0.24035000  0.24077000  1
