# generated using pymatgen
data_Nd2Si2PbS8
_symmetry_space_group_name_H-M   'P 1'
_cell_length_a   9.05285851
_cell_length_b   9.05285851
_cell_length_c   10.24274592
_cell_angle_alpha   65.20423757
_cell_angle_beta   65.20423757
_cell_angle_gamma   60.31913623
_symmetry_Int_Tables_number   1
_chemical_formula_structural   Nd2Si2PbS8
_chemical_formula_sum   'Nd4 Si4 Pb2 S16'
_cell_volume   637.76454609
_cell_formula_units_Z   2
loop_
 _symmetry_equiv_pos_site_id
 _symmetry_equiv_pos_as_xyz
  1  'x, y, z'
loop_
 _atom_site_type_symbol
 _atom_site_label
 _atom_site_symmetry_multiplicity
 _atom_site_fract_x
 _atom_site_fract_y
 _atom_site_fract_z
 _atom_site_occupancy
  Nd  Nd0  1  0.06119200  0.25187400  0.74813200  1
  Nd  Nd1  1  0.43947700  0.55708200  0.75314900  1
  Nd  Nd2  1  0.25187400  0.06119200  0.24813200  1
  Nd  Nd3  1  0.55708200  0.43947700  0.25314900  1
  Si  Si4  1  0.65235800  0.17011000  0.02147800  1
  Si  Si5  1  0.17011000  0.65235800  0.52147800  1
  Si  Si6  1  0.33280100  0.84607900  0.97768500  1
  Si  Si7  1  0.84607900  0.33280100  0.47768500  1
  Pb  Pb8  1  0.74922000  0.92886500  0.74965400  1
  Pb  Pb9  1  0.92886500  0.74922000  0.24965400  1
  S  S10  1  0.88606900  0.97597600  0.92651500  1
  S  S11  1  0.71393000  0.39824800  0.94653900  1
  S  S12  1  0.43802700  0.22618800  0.94710400  1
  S  S13  1  0.39824800  0.71393000  0.44653900  1
  S  S14  1  0.97597600  0.88606900  0.42651500  1
  S  S15  1  0.22618800  0.43802700  0.44710400  1
  S  S16  1  0.11101900  0.06813900  0.04551400  1
  S  S17  1  0.28156800  0.61192300  0.06390100  1
  S  S18  1  0.53345700  0.78951500  0.07064300  1
  S  S19  1  0.61192300  0.28156800  0.56390100  1
  S  S20  1  0.06813900  0.11101900  0.54551400  1
  S  S21  1  0.78951500  0.53345700  0.57064300  1
  S  S22  1  0.56573600  0.09843800  0.25971200  1
  S  S23  1  0.09843800  0.56573600  0.75971200  1
  S  S24  1  0.40013100  0.91257800  0.73997400  1
  S  S25  1  0.91257800  0.40013100  0.23997400  1
