# generated using pymatgen
data_Yb5Zr3(Ni4As3)4
_symmetry_space_group_name_H-M   'P 1'
_cell_length_a   12.74056033
_cell_length_b   12.74056033
_cell_length_c   3.90321800
_cell_angle_alpha   90.00000000
_cell_angle_beta   90.00000000
_cell_angle_gamma   120.00000172
_symmetry_Int_Tables_number   1
_chemical_formula_structural   Yb5Zr3(Ni4As3)4
_chemical_formula_sum   'Yb5 Zr3 Ni16 As12'
_cell_volume   548.69435163
_cell_formula_units_Z   1
loop_
 _symmetry_equiv_pos_site_id
 _symmetry_equiv_pos_as_xyz
  1  'x, y, z'
loop_
 _atom_site_type_symbol
 _atom_site_label
 _atom_site_symmetry_multiplicity
 _atom_site_fract_x
 _atom_site_fract_y
 _atom_site_fract_z
 _atom_site_occupancy
  Yb  Yb0  1  0.00000000  0.18175700  0.50000000  1
  Yb  Yb1  1  0.81824300  0.81824300  0.50000000  1
  Yb  Yb2  1  0.18175700  0.00000000  0.50000000  1
  Yb  Yb3  1  0.66666700  0.33333300  0.00000000  1
  Yb  Yb4  1  0.33333300  0.66666700  0.00000000  1
  Zr  Zr5  1  0.00000000  0.56322300  0.00000000  1
  Zr  Zr6  1  0.43677700  0.43677700  0.00000000  1
  Zr  Zr7  1  0.56322300  0.00000000  0.00000000  1
  Ni  Ni8  1  0.00000000  0.72334700  0.50000000  1
  Ni  Ni9  1  0.27665300  0.27665300  0.50000000  1
  Ni  Ni10  1  0.72334700  0.00000000  0.50000000  1
  Ni  Ni11  1  0.80763900  0.18278600  0.00000000  1
  Ni  Ni12  1  0.81721400  0.62485300  0.00000000  1
  Ni  Ni13  1  0.37514700  0.19236100  0.00000000  1
  Ni  Ni14  1  0.18278600  0.80763900  0.00000000  1
  Ni  Ni15  1  0.62485300  0.81721400  0.00000000  1
  Ni  Ni16  1  0.19236100  0.37514700  0.00000000  1
  Ni  Ni17  1  0.87865300  0.36012600  0.50000000  1
  Ni  Ni18  1  0.63987400  0.51852700  0.50000000  1
  Ni  Ni19  1  0.48147300  0.12134700  0.50000000  1
  Ni  Ni20  1  0.36012600  0.87865300  0.50000000  1
  Ni  Ni21  1  0.51852700  0.63987400  0.50000000  1
  Ni  Ni22  1  0.12134700  0.48147300  0.50000000  1
  Ni  Ni23  1  0.00000000  0.00000000  0.00000000  1
  As  As24  1  0.00000000  0.82200500  0.00000000  1
  As  As25  1  0.17799500  0.17799500  0.00000000  1
  As  As26  1  0.82200500  0.00000000  0.00000000  1
  As  As27  1  0.69289000  0.17217200  0.50000000  1
  As  As28  1  0.82782800  0.52071800  0.50000000  1
  As  As29  1  0.47928200  0.30711000  0.50000000  1
  As  As30  1  0.17217200  0.69289000  0.50000000  1
  As  As31  1  0.52071800  0.82782800  0.50000000  1
  As  As32  1  0.30711000  0.47928200  0.50000000  1
  As  As33  1  0.00000000  0.35391800  0.00000000  1
  As  As34  1  0.64608200  0.64608200  0.00000000  1
  As  As35  1  0.35391800  0.00000000  0.00000000  1
