# generated using pymatgen
data_BaPdF4
_symmetry_space_group_name_H-M   'P 1'
_cell_length_a   7.09123257
_cell_length_b   7.09123257
_cell_length_c   7.09123257
_cell_angle_alpha   127.42191546
_cell_angle_beta   127.42191546
_cell_angle_gamma   77.56339175
_symmetry_Int_Tables_number   1
_chemical_formula_structural   BaPdF4
_chemical_formula_sum   'Ba2 Pd2 F8'
_cell_volume   218.10888686
_cell_formula_units_Z   2
loop_
 _symmetry_equiv_pos_site_id
 _symmetry_equiv_pos_as_xyz
  1  'x, y, z'
loop_
 _atom_site_type_symbol
 _atom_site_label
 _atom_site_symmetry_multiplicity
 _atom_site_fract_x
 _atom_site_fract_y
 _atom_site_fract_z
 _atom_site_occupancy
  Ba  Ba0  1  0.25000000  0.25000000  0.00000000  1
  Ba  Ba1  1  0.75000000  0.75000000  0.00000000  1
  Pd  Pd2  1  0.50000000  0.00000000  0.50000000  1
  Pd  Pd3  1  0.00000000  0.50000000  0.50000000  1
  F  F4  1  0.96726200  0.46726200  0.17844800  1
  F  F5  1  0.71118600  0.21118600  0.17844800  1
  F  F6  1  0.03273800  0.53273800  0.82155200  1
  F  F7  1  0.53273800  0.71118600  0.50000000  1
  F  F8  1  0.28881400  0.78881400  0.82155200  1
  F  F9  1  0.78881400  0.96726200  0.50000000  1
  F  F10  1  0.46726200  0.28881400  0.50000000  1
  F  F11  1  0.21118600  0.03273800  0.50000000  1
