# generated using pymatgen
data_YInPd
_symmetry_space_group_name_H-M   'P 1'
_cell_length_a   7.81908144
_cell_length_b   7.81908144
_cell_length_c   3.77203100
_cell_angle_alpha   90.00000000
_cell_angle_beta   90.00000000
_cell_angle_gamma   119.99999526
_symmetry_Int_Tables_number   1
_chemical_formula_structural   YInPd
_chemical_formula_sum   'Y3 In3 Pd3'
_cell_volume   199.71807843
_cell_formula_units_Z   3
loop_
 _symmetry_equiv_pos_site_id
 _symmetry_equiv_pos_as_xyz
  1  'x, y, z'
loop_
 _atom_site_type_symbol
 _atom_site_label
 _atom_site_symmetry_multiplicity
 _atom_site_fract_x
 _atom_site_fract_y
 _atom_site_fract_z
 _atom_site_occupancy
  Y  Y0  1  0.40902500  0.40902500  0.50000000  1
  Y  Y1  1  0.59097500  0.00000000  0.50000000  1
  Y  Y2  1  0.00000000  0.59097500  0.50000000  1
  In  In3  1  0.73941500  0.73941500  0.00000000  1
  In  In4  1  0.26058500  0.00000000  0.00000000  1
  In  In5  1  0.00000000  0.26058500  0.00000000  1
  Pd  Pd6  1  0.66666700  0.33333300  0.00000000  1
  Pd  Pd7  1  0.33333300  0.66666700  0.00000000  1
  Pd  Pd8  1  0.00000000  0.00000000  0.50000000  1
