# generated using pymatgen
data_NaYS2
_symmetry_space_group_name_H-M   'P 1'
_cell_length_a   7.06668519
_cell_length_b   7.06668519
_cell_length_c   7.06668540
_cell_angle_alpha   32.79109228
_cell_angle_beta   32.79109228
_cell_angle_gamma   32.79108871
_symmetry_Int_Tables_number   1
_chemical_formula_structural   NaYS2
_chemical_formula_sum   'Na1 Y1 S2'
_cell_volume   92.08097486
_cell_formula_units_Z   1
loop_
 _symmetry_equiv_pos_site_id
 _symmetry_equiv_pos_as_xyz
  1  'x, y, z'
loop_
 _atom_site_type_symbol
 _atom_site_label
 _atom_site_symmetry_multiplicity
 _atom_site_fract_x
 _atom_site_fract_y
 _atom_site_fract_z
 _atom_site_occupancy
  Na  Na0  1  0.00000000  0.00000000  0.00000000  1
  Y  Y1  1  0.50000000  0.50000000  0.50000000  1
  S  S2  1  0.75762200  0.75762200  0.75762200  1
  S  S3  1  0.24237800  0.24237800  0.24237800  1
