# generated using pymatgen
data_Pr(HoS2)3
_symmetry_space_group_name_H-M   'P 1'
_cell_length_a   3.98651500
_cell_length_b   11.08526100
_cell_length_c   11.31313133
_cell_angle_alpha   71.14020960
_cell_angle_beta   90.00000000
_cell_angle_gamma   90.00000000
_symmetry_Int_Tables_number   1
_chemical_formula_structural   Pr(HoS2)3
_chemical_formula_sum   'Pr2 Ho6 S12'
_cell_volume   473.10409484
_cell_formula_units_Z   2
loop_
 _symmetry_equiv_pos_site_id
 _symmetry_equiv_pos_as_xyz
  1  'x, y, z'
loop_
 _atom_site_type_symbol
 _atom_site_label
 _atom_site_symmetry_multiplicity
 _atom_site_fract_x
 _atom_site_fract_y
 _atom_site_fract_z
 _atom_site_occupancy
  Pr  Pr0  1  0.75000000  0.54901800  0.80568700  1
  Pr  Pr1  1  0.25000000  0.45098200  0.19431300  1
  Ho  Ho2  1  0.75000000  0.17981300  0.99880100  1
  Ho  Ho3  1  0.25000000  0.82018700  0.00119900  1
  Ho  Ho4  1  0.75000000  0.94052600  0.66690800  1
  Ho  Ho5  1  0.25000000  0.05947400  0.33309200  1
  Ho  Ho6  1  0.75000000  0.66099400  0.41352600  1
  Ho  Ho7  1  0.25000000  0.33900600  0.58647400  1
  S  S8  1  0.75000000  0.97807200  0.88810700  1
  S  S9  1  0.25000000  0.02192800  0.11189300  1
  S  S10  1  0.75000000  0.30472400  0.74866100  1
  S  S11  1  0.25000000  0.69527600  0.25133900  1
  S  S12  1  0.75000000  0.89483900  0.44053200  1
  S  S13  1  0.25000000  0.10516100  0.55946800  1
  S  S14  1  0.75000000  0.41872600  0.40560400  1
  S  S15  1  0.25000000  0.58127400  0.59439600  1
  S  S16  1  0.75000000  0.23451900  0.22856200  1
  S  S17  1  0.25000000  0.76548100  0.77143800  1
  S  S18  1  0.75000000  0.61871000  0.03637400  1
  S  S19  1  0.25000000  0.38129000  0.96362600  1
