# generated using pymatgen
data_KSrPO4
_symmetry_space_group_name_H-M   'P 1'
_cell_length_a   5.63248000
_cell_length_b   7.44783100
_cell_length_c   9.76307400
_cell_angle_alpha   90.00000000
_cell_angle_beta   90.00000000
_cell_angle_gamma   90.00000000
_symmetry_Int_Tables_number   1
_chemical_formula_structural   KSrPO4
_chemical_formula_sum   'K4 Sr4 P4 O16'
_cell_volume   409.55860287
_cell_formula_units_Z   4
loop_
 _symmetry_equiv_pos_site_id
 _symmetry_equiv_pos_as_xyz
  1  'x, y, z'
loop_
 _atom_site_type_symbol
 _atom_site_label
 _atom_site_symmetry_multiplicity
 _atom_site_fract_x
 _atom_site_fract_y
 _atom_site_fract_z
 _atom_site_occupancy
  K  K0  1  0.25000000  0.65863400  0.08243800  1
  K  K1  1  0.75000000  0.84136600  0.58243800  1
  K  K2  1  0.75000000  0.34136600  0.91756200  1
  K  K3  1  0.25000000  0.15863400  0.41756200  1
  Sr  Sr4  1  0.75000000  0.49942900  0.30382800  1
  Sr  Sr5  1  0.75000000  0.99942900  0.19617200  1
  Sr  Sr6  1  0.25000000  0.00057100  0.80382800  1
  Sr  Sr7  1  0.25000000  0.50057100  0.69617200  1
  P  P8  1  0.25000000  0.22618600  0.08382000  1
  P  P9  1  0.75000000  0.77381400  0.91618000  1
  P  P10  1  0.25000000  0.72618600  0.41618000  1
  P  P11  1  0.75000000  0.27381400  0.58382000  1
  O  O12  1  0.25000000  0.51817300  0.42677900  1
  O  O13  1  0.75000000  0.48182700  0.57322100  1
  O  O14  1  0.25000000  0.01817300  0.07322100  1
  O  O15  1  0.75000000  0.98182700  0.92677900  1
  O  O16  1  0.52254700  0.71179700  0.83802400  1
  O  O17  1  0.02254700  0.28820300  0.16197600  1
  O  O18  1  0.97745300  0.21179700  0.66197600  1
  O  O19  1  0.47745300  0.78820300  0.33802400  1
  O  O20  1  0.47745300  0.28820300  0.16197600  1
  O  O21  1  0.97745300  0.71179700  0.83802400  1
  O  O22  1  0.02254700  0.78820300  0.33802400  1
  O  O23  1  0.52254700  0.21179700  0.66197600  1
  O  O24  1  0.75000000  0.19194900  0.43596300  1
  O  O25  1  0.25000000  0.80805100  0.56403700  1
  O  O26  1  0.75000000  0.69194900  0.06403700  1
  O  O27  1  0.25000000  0.30805100  0.93596300  1
