# generated using pymatgen
data_Ti2FeNiSb2
_symmetry_space_group_name_H-M   'P 1'
_cell_length_a   7.22202698
_cell_length_b   7.22202698
_cell_length_c   7.22202750
_cell_angle_alpha   33.88420062
_cell_angle_beta   33.88420062
_cell_angle_gamma   33.88420047
_symmetry_Int_Tables_number   1
_chemical_formula_structural   Ti2FeNiSb2
_chemical_formula_sum   'Ti2 Fe1 Ni1 Sb2'
_cell_volume   104.34455278
_cell_formula_units_Z   1
loop_
 _symmetry_equiv_pos_site_id
 _symmetry_equiv_pos_as_xyz
  1  'x, y, z'
loop_
 _atom_site_type_symbol
 _atom_site_label
 _atom_site_symmetry_multiplicity
 _atom_site_fract_x
 _atom_site_fract_y
 _atom_site_fract_z
 _atom_site_occupancy
  Ti  Ti0  1  0.37199800  0.37199800  0.37199800  1
  Ti  Ti1  1  0.87887700  0.87887700  0.87887700  1
  Fe  Fe2  1  0.99731400  0.99731400  0.99731400  1
  Ni  Ni3  1  0.50107000  0.50107000  0.50107000  1
  Sb  Sb4  1  0.12335200  0.12335200  0.12335200  1
  Sb  Sb5  1  0.62738900  0.62738900  0.62738900  1
