# generated using pymatgen
data_KGdS2
_symmetry_space_group_name_H-M   'P 1'
_cell_length_a   7.70650701
_cell_length_b   7.70650701
_cell_length_c   7.70650700
_cell_angle_alpha   30.80062082
_cell_angle_beta   30.80062082
_cell_angle_gamma   30.80061566
_symmetry_Int_Tables_number   1
_chemical_formula_structural   KGdS2
_chemical_formula_sum   'K1 Gd1 S2'
_cell_volume   106.42650998
_cell_formula_units_Z   1
loop_
 _symmetry_equiv_pos_site_id
 _symmetry_equiv_pos_as_xyz
  1  'x, y, z'
loop_
 _atom_site_type_symbol
 _atom_site_label
 _atom_site_symmetry_multiplicity
 _atom_site_fract_x
 _atom_site_fract_y
 _atom_site_fract_z
 _atom_site_occupancy
  K  K0  1  0.00000000  0.00000000  0.00000000  1
  Gd  Gd1  1  0.50000000  0.50000000  0.50000000  1
  S  S2  1  0.76544500  0.76544500  0.76544500  1
  S  S3  1  0.23455500  0.23455500  0.23455500  1
