# generated using pymatgen
data_ErZnPt
_symmetry_space_group_name_H-M   'P 1'
_cell_length_a   4.12575000
_cell_length_b   6.92660000
_cell_length_c   8.17435500
_cell_angle_alpha   90.00000000
_cell_angle_beta   90.00000000
_cell_angle_gamma   90.00000000
_symmetry_Int_Tables_number   1
_chemical_formula_structural   ErZnPt
_chemical_formula_sum   'Er4 Zn4 Pt4'
_cell_volume   233.60197566
_cell_formula_units_Z   4
loop_
 _symmetry_equiv_pos_site_id
 _symmetry_equiv_pos_as_xyz
  1  'x, y, z'
loop_
 _atom_site_type_symbol
 _atom_site_label
 _atom_site_symmetry_multiplicity
 _atom_site_fract_x
 _atom_site_fract_y
 _atom_site_fract_z
 _atom_site_occupancy
  Er  Er0  1  0.25000000  0.04263900  0.31588200  1
  Er  Er1  1  0.25000000  0.54263900  0.18411800  1
  Er  Er2  1  0.75000000  0.95736100  0.68411800  1
  Er  Er3  1  0.75000000  0.45736100  0.81588200  1
  Zn  Zn4  1  0.25000000  0.63662800  0.56287300  1
  Zn  Zn5  1  0.25000000  0.13662800  0.93712700  1
  Zn  Zn6  1  0.75000000  0.36337200  0.43712700  1
  Zn  Zn7  1  0.75000000  0.86337200  0.06287300  1
  Pt  Pt8  1  0.25000000  0.25118100  0.62272100  1
  Pt  Pt9  1  0.25000000  0.75118100  0.87727900  1
  Pt  Pt10  1  0.75000000  0.74881900  0.37727900  1
  Pt  Pt11  1  0.75000000  0.24881900  0.12272100  1
