# generated using pymatgen
data_NaSr3TaO6
_symmetry_space_group_name_H-M   'P 1'
_cell_length_a   6.91430278
_cell_length_b   6.91430278
_cell_length_c   6.91430316
_cell_angle_alpha   91.24678399
_cell_angle_beta   91.24678399
_cell_angle_gamma   91.24678179
_symmetry_Int_Tables_number   1
_chemical_formula_structural   NaSr3TaO6
_chemical_formula_sum   'Na2 Sr6 Ta2 O12'
_cell_volume   330.31788128
_cell_formula_units_Z   2
loop_
 _symmetry_equiv_pos_site_id
 _symmetry_equiv_pos_as_xyz
  1  'x, y, z'
loop_
 _atom_site_type_symbol
 _atom_site_label
 _atom_site_symmetry_multiplicity
 _atom_site_fract_x
 _atom_site_fract_y
 _atom_site_fract_z
 _atom_site_occupancy
  Na  Na0  1  0.25000000  0.25000000  0.25000000  1
  Na  Na1  1  0.75000000  0.75000000  0.75000000  1
  Sr  Sr2  1  0.90064000  0.59936000  0.25000000  1
  Sr  Sr3  1  0.25000000  0.90064000  0.59936000  1
  Sr  Sr4  1  0.59936000  0.25000000  0.90064000  1
  Sr  Sr5  1  0.09936000  0.40064000  0.75000000  1
  Sr  Sr6  1  0.75000000  0.09936000  0.40064000  1
  Sr  Sr7  1  0.40064000  0.75000000  0.09936000  1
  Ta  Ta8  1  0.50000000  0.50000000  0.50000000  1
  Ta  Ta9  1  0.00000000  0.00000000  0.00000000  1
  O  O10  1  0.42802700  0.22123200  0.55349700  1
  O  O11  1  0.55349700  0.42802700  0.22123200  1
  O  O12  1  0.22123200  0.55349700  0.42802700  1
  O  O13  1  0.07197300  0.94650300  0.27876800  1
  O  O14  1  0.27876800  0.07197300  0.94650300  1
  O  O15  1  0.94650300  0.27876800  0.07197300  1
  O  O16  1  0.57197300  0.77876800  0.44650300  1
  O  O17  1  0.44650300  0.57197300  0.77876800  1
  O  O18  1  0.77876800  0.44650300  0.57197300  1
  O  O19  1  0.92802700  0.05349700  0.72123200  1
  O  O20  1  0.05349700  0.72123200  0.92802700  1
  O  O21  1  0.72123200  0.92802700  0.05349700  1
