# generated using pymatgen
data_Rb2AsH5O6
_symmetry_space_group_name_H-M   'P 1'
_cell_length_a   7.86155922
_cell_length_b   7.95176835
_cell_length_c   13.82312900
_cell_angle_alpha   90.00000000
_cell_angle_beta   90.00000000
_cell_angle_gamma   116.89722111
_symmetry_Int_Tables_number   1
_chemical_formula_structural   Rb2AsH5O6
_chemical_formula_sum   'Rb8 As4 H20 O24'
_cell_volume   770.64740683
_cell_formula_units_Z   4
loop_
 _symmetry_equiv_pos_site_id
 _symmetry_equiv_pos_as_xyz
  1  'x, y, z'
loop_
 _atom_site_type_symbol
 _atom_site_label
 _atom_site_symmetry_multiplicity
 _atom_site_fract_x
 _atom_site_fract_y
 _atom_site_fract_z
 _atom_site_occupancy
  Rb  Rb0  1  0.49467900  0.75192500  0.76312600  1
  Rb  Rb1  1  0.00532100  0.74807500  0.26312600  1
  Rb  Rb2  1  0.50532100  0.24807500  0.23687400  1
  Rb  Rb3  1  0.99467900  0.25192500  0.73687400  1
  Rb  Rb4  1  0.00626200  0.75440800  0.58330500  1
  Rb  Rb5  1  0.49373800  0.74559200  0.08330500  1
  Rb  Rb6  1  0.99373800  0.24559200  0.41669500  1
  Rb  Rb7  1  0.50626200  0.25440800  0.91669500  1
  As  As8  1  0.49510300  0.23799600  0.63994600  1
  As  As9  1  0.00489700  0.26200400  0.13994600  1
  As  As10  1  0.50489700  0.76200400  0.36005400  1
  As  As11  1  0.99510300  0.73799600  0.86005400  1
  H  H12  1  0.71505800  0.05144800  0.58978200  1
  H  H13  1  0.78494200  0.44855200  0.08978200  1
  H  H14  1  0.28494200  0.94855200  0.41021800  1
  H  H15  1  0.21505800  0.55144800  0.91021800  1
  H  H16  1  0.79224800  0.12285000  0.96486800  1
  H  H17  1  0.70775200  0.37715000  0.46486800  1
  H  H18  1  0.20775200  0.87715000  0.03513200  1
  H  H19  1  0.29224800  0.62285000  0.53513200  1
  H  H20  1  0.71107000  0.87273100  0.53689500  1
  H  H21  1  0.78893000  0.62726900  0.03689500  1
  H  H22  1  0.28893000  0.12726900  0.46310500  1
  H  H23  1  0.21107000  0.37273100  0.96310500  1
  H  H24  1  0.78768000  0.94306400  0.91132000  1
  H  H25  1  0.71232000  0.55693600  0.41132000  1
  H  H26  1  0.21232000  0.05693600  0.08868000  1
  H  H27  1  0.28768000  0.44306400  0.58868000  1
  H  H28  1  0.71806200  0.49243700  0.73469000  1
  H  H29  1  0.78193800  0.00756300  0.23469000  1
  H  H30  1  0.28193800  0.50756300  0.26531000  1
  H  H31  1  0.21806200  0.99243700  0.76531000  1
  O  O32  1  0.58216000  0.45314200  0.70740900  1
  O  O33  1  0.91784000  0.04685800  0.20740900  1
  O  O34  1  0.41784000  0.54685800  0.29259100  1
  O  O35  1  0.08216000  0.95314200  0.79259100  1
  O  O36  1  0.68255600  0.24676000  0.57328800  1
  O  O37  1  0.81744400  0.25324000  0.07328800  1
  O  O38  1  0.31744400  0.75324000  0.42671200  1
  O  O39  1  0.18255600  0.74676000  0.92671200  1
  O  O40  1  0.41961200  0.05908800  0.72331000  1
  O  O41  1  0.08038800  0.44091200  0.22331000  1
  O  O42  1  0.58038800  0.94091200  0.27669000  1
  O  O43  1  0.91961200  0.55908800  0.77669000  1
  O  O44  1  0.30827400  0.23402400  0.57487700  1
  O  O45  1  0.19172600  0.26597600  0.07487700  1
  O  O46  1  0.69172600  0.76597600  0.42512300  1
  O  O47  1  0.80827400  0.73402400  0.92512300  1
  O  O48  1  0.75392000  0.94827400  0.59799700  1
  O  O49  1  0.74608000  0.55172600  0.09799700  1
  O  O50  1  0.24608000  0.05172600  0.40200300  1
  O  O51  1  0.25392000  0.44827400  0.90200300  1
  O  O52  1  0.74679800  0.04459200  0.90487100  1
  O  O53  1  0.75320200  0.45540800  0.40487100  1
  O  O54  1  0.25320200  0.95540800  0.09512900  1
  O  O55  1  0.24679800  0.54459200  0.59512900  1
