# generated using pymatgen
data_CdTe(Pb3O5)2
_symmetry_space_group_name_H-M   'P 1'
_cell_length_a   7.49683637
_cell_length_b   7.49683637
_cell_length_c   11.51582300
_cell_angle_alpha   90.00000000
_cell_angle_beta   90.00000000
_cell_angle_gamma   103.24401959
_symmetry_Int_Tables_number   1
_chemical_formula_structural   CdTe(Pb3O5)2
_chemical_formula_sum   'Cd2 Te2 Pb12 O20'
_cell_volume   630.00472118
_cell_formula_units_Z   2
loop_
 _symmetry_equiv_pos_site_id
 _symmetry_equiv_pos_as_xyz
  1  'x, y, z'
loop_
 _atom_site_type_symbol
 _atom_site_label
 _atom_site_symmetry_multiplicity
 _atom_site_fract_x
 _atom_site_fract_y
 _atom_site_fract_z
 _atom_site_occupancy
  Cd  Cd0  1  0.42220400  0.57779600  0.25000000  1
  Cd  Cd1  1  0.57779600  0.42220400  0.75000000  1
  Te  Te2  1  0.67475800  0.67475800  0.00000000  1
  Te  Te3  1  0.32524200  0.32524200  0.50000000  1
  Pb  Pb4  1  0.49463500  0.92268500  0.76017600  1
  Pb  Pb5  1  0.92268500  0.49463500  0.23982400  1
  Pb  Pb6  1  0.50536500  0.07731500  0.26017600  1
  Pb  Pb7  1  0.07731500  0.50536500  0.73982400  1
  Pb  Pb8  1  0.99169900  0.00830100  0.25000000  1
  Pb  Pb9  1  0.00830100  0.99169900  0.75000000  1
  Pb  Pb10  1  0.77459800  0.21454400  0.98490800  1
  Pb  Pb11  1  0.21454400  0.77459800  0.01509200  1
  Pb  Pb12  1  0.22540200  0.78545600  0.48490800  1
  Pb  Pb13  1  0.78545600  0.22540200  0.51509200  1
  Pb  Pb14  1  0.29879200  0.29879200  0.00000000  1
  Pb  Pb15  1  0.70120800  0.70120800  0.50000000  1
  O  O16  1  0.45651400  0.58006600  0.89760200  1
  O  O17  1  0.58006600  0.45651400  0.10239800  1
  O  O18  1  0.54348600  0.41993400  0.39760200  1
  O  O19  1  0.41993400  0.54348600  0.60239800  1
  O  O20  1  0.52133700  0.17789100  0.87208400  1
  O  O21  1  0.17789100  0.52133700  0.12791600  1
  O  O22  1  0.47866300  0.82210900  0.37208400  1
  O  O23  1  0.82210900  0.47866300  0.62791600  1
  O  O24  1  0.88694800  0.74836800  0.10506300  1
  O  O25  1  0.74836800  0.88694800  0.89493700  1
  O  O26  1  0.11305200  0.25163200  0.60506300  1
  O  O27  1  0.25163200  0.11305200  0.39493700  1
  O  O28  1  0.81057600  0.52937400  0.90710300  1
  O  O29  1  0.52937400  0.81057600  0.09289700  1
  O  O30  1  0.18942400  0.47062600  0.40710300  1
  O  O31  1  0.47062600  0.18942400  0.59289700  1
  O  O32  1  0.75266800  0.99169600  0.65066000  1
  O  O33  1  0.99169600  0.75266800  0.34934000  1
  O  O34  1  0.24733200  0.00830400  0.15066000  1
  O  O35  1  0.00830400  0.24733200  0.84934000  1
