# generated using pymatgen
data_Sr3(BO3)2
_symmetry_space_group_name_H-M   'P 1'
_cell_length_a   6.78843600
_cell_length_b   6.78843600
_cell_length_c   6.78843569
_cell_angle_alpha   84.29785974
_cell_angle_beta   84.29785974
_cell_angle_gamma   84.29786099
_symmetry_Int_Tables_number   1
_chemical_formula_structural   Sr3(BO3)2
_chemical_formula_sum   'Sr6 B4 O12'
_cell_volume   308.47476401
_cell_formula_units_Z   2
loop_
 _symmetry_equiv_pos_site_id
 _symmetry_equiv_pos_as_xyz
  1  'x, y, z'
loop_
 _atom_site_type_symbol
 _atom_site_label
 _atom_site_symmetry_multiplicity
 _atom_site_fract_x
 _atom_site_fract_y
 _atom_site_fract_z
 _atom_site_occupancy
  Sr  Sr0  1  0.75000000  0.10247300  0.39752700  1
  Sr  Sr1  1  0.39752700  0.75000000  0.10247300  1
  Sr  Sr2  1  0.10247300  0.39752700  0.75000000  1
  Sr  Sr3  1  0.25000000  0.89752700  0.60247300  1
  Sr  Sr4  1  0.60247300  0.25000000  0.89752700  1
  Sr  Sr5  1  0.89752700  0.60247300  0.25000000  1
  B  B6  1  0.38394900  0.38394900  0.38394900  1
  B  B7  1  0.61605100  0.61605100  0.61605100  1
  B  B8  1  0.88394900  0.88394900  0.88394900  1
  B  B9  1  0.11605100  0.11605100  0.11605100  1
  O  O10  1  0.72726700  0.89403900  0.03395000  1
  O  O11  1  0.03395000  0.72726700  0.89403900  1
  O  O12  1  0.89403900  0.03395000  0.72726700  1
  O  O13  1  0.60596100  0.77273300  0.46605000  1
  O  O14  1  0.77273300  0.46605000  0.60596100  1
  O  O15  1  0.46605000  0.60596100  0.77273300  1
  O  O16  1  0.96605000  0.27273300  0.10596100  1
  O  O17  1  0.27273300  0.10596100  0.96605000  1
  O  O18  1  0.10596100  0.96605000  0.27273300  1
  O  O19  1  0.22726700  0.53395000  0.39403900  1
  O  O20  1  0.53395000  0.39403900  0.22726700  1
  O  O21  1  0.39403900  0.22726700  0.53395000  1
