# generated using pymatgen
data_NdSbO4
_symmetry_space_group_name_H-M   'P 1'
_cell_length_a   5.55912300
_cell_length_b   7.74260500
_cell_length_c   7.77257791
_cell_angle_alpha   79.83874247
_cell_angle_beta   90.00000000
_cell_angle_gamma   90.00000000
_symmetry_Int_Tables_number   1
_chemical_formula_structural   NdSbO4
_chemical_formula_sum   'Nd4 Sb4 O16'
_cell_volume   329.30068158
_cell_formula_units_Z   4
loop_
 _symmetry_equiv_pos_site_id
 _symmetry_equiv_pos_as_xyz
  1  'x, y, z'
loop_
 _atom_site_type_symbol
 _atom_site_label
 _atom_site_symmetry_multiplicity
 _atom_site_fract_x
 _atom_site_fract_y
 _atom_site_fract_z
 _atom_site_occupancy
  Nd  Nd0  1  0.27455800  0.10258900  0.14909600  1
  Nd  Nd1  1  0.77455800  0.39741100  0.85090400  1
  Nd  Nd2  1  0.72544200  0.89741100  0.85090400  1
  Nd  Nd3  1  0.22544200  0.60258900  0.14909600  1
  Sb  Sb4  1  0.76774500  0.30250100  0.33674400  1
  Sb  Sb5  1  0.26774500  0.19749900  0.66325600  1
  Sb  Sb6  1  0.23225500  0.69749900  0.66325600  1
  Sb  Sb7  1  0.73225500  0.80250100  0.33674400  1
  O  O8  1  0.97646300  0.32647300  0.11975400  1
  O  O9  1  0.47646300  0.17352700  0.88024600  1
  O  O10  1  0.02353700  0.67352700  0.88024600  1
  O  O11  1  0.52353700  0.82647300  0.11975400  1
  O  O12  1  0.63641100  0.05634400  0.33059800  1
  O  O13  1  0.13641100  0.44365600  0.66940200  1
  O  O14  1  0.36358900  0.94365600  0.66940200  1
  O  O15  1  0.86358900  0.55634400  0.33059800  1
  O  O16  1  0.99959800  0.87165800  0.17350600  1
  O  O17  1  0.49959800  0.62834200  0.82649400  1
  O  O18  1  0.00040200  0.12834200  0.82649400  1
  O  O19  1  0.50040200  0.37165800  0.17350600  1
  O  O20  1  0.90989400  0.79884800  0.56222400  1
  O  O21  1  0.40989400  0.70115200  0.43777600  1
  O  O22  1  0.09010600  0.20115200  0.43777600  1
  O  O23  1  0.59010600  0.29884800  0.56222400  1
