# generated using pymatgen
data_Dy6GaNi2
_symmetry_space_group_name_H-M   'P 1'
_cell_length_a   8.27500437
_cell_length_b   8.27500437
_cell_length_c   8.27500493
_cell_angle_alpha   113.16991099
_cell_angle_beta   109.39916059
_cell_angle_gamma   105.92587216
_symmetry_Int_Tables_number   1
_chemical_formula_structural   Dy6GaNi2
_chemical_formula_sum   'Dy12 Ga2 Ni4'
_cell_volume   434.45087268
_cell_formula_units_Z   2
loop_
 _symmetry_equiv_pos_site_id
 _symmetry_equiv_pos_as_xyz
  1  'x, y, z'
loop_
 _atom_site_type_symbol
 _atom_site_label
 _atom_site_symmetry_multiplicity
 _atom_site_fract_x
 _atom_site_fract_y
 _atom_site_fract_z
 _atom_site_occupancy
  Dy  Dy0  1  0.03976300  0.73459700  0.30516600  1
  Dy  Dy1  1  0.96023700  0.26540300  0.69483400  1
  Dy  Dy2  1  0.57056900  0.26540300  0.30516600  1
  Dy  Dy3  1  0.42943100  0.73459700  0.69483400  1
  Dy  Dy4  1  0.67459300  0.86840900  0.19381600  1
  Dy  Dy5  1  0.32540800  0.51922400  0.19381600  1
  Dy  Dy6  1  0.32540800  0.13159100  0.80618400  1
  Dy  Dy7  1  0.67459300  0.48077600  0.80618400  1
  Dy  Dy8  1  0.18071300  0.21418600  0.39489900  1
  Dy  Dy9  1  0.81928700  0.21418600  0.03347300  1
  Dy  Dy10  1  0.18071300  0.78581400  0.96652700  1
  Dy  Dy11  1  0.81928700  0.78581400  0.60510100  1
  Ga  Ga12  1  0.00000000  0.50000000  0.50000000  1
  Ga  Ga13  1  0.50000000  0.00000000  0.50000000  1
  Ni  Ni14  1  0.64746200  0.50000000  0.14746200  1
  Ni  Ni15  1  0.35253800  0.50000000  0.85253800  1
  Ni  Ni16  1  0.87727700  0.87727700  0.00000000  1
  Ni  Ni17  1  0.12272300  0.12272300  0.00000000  1
