# generated using pymatgen
data_Eu2Si5Pt3
_symmetry_space_group_name_H-M   'P 1'
_cell_length_a   8.36855962
_cell_length_b   8.36855962
_cell_length_c   8.36855962
_cell_angle_alpha   137.33728956
_cell_angle_beta   105.07061576
_cell_angle_gamma   90.26555925
_symmetry_Int_Tables_number   1
_chemical_formula_structural   Eu2Si5Pt3
_chemical_formula_sum   'Eu4 Si10 Pt6'
_cell_volume   365.93391603
_cell_formula_units_Z   2
loop_
 _symmetry_equiv_pos_site_id
 _symmetry_equiv_pos_as_xyz
  1  'x, y, z'
loop_
 _atom_site_type_symbol
 _atom_site_label
 _atom_site_symmetry_multiplicity
 _atom_site_fract_x
 _atom_site_fract_y
 _atom_site_fract_z
 _atom_site_occupancy
  Eu  Eu0  1  0.10400900  0.87064500  0.23336400  1
  Eu  Eu1  1  0.89599100  0.12935500  0.76663600  1
  Eu  Eu2  1  0.63728100  0.37064500  0.26663600  1
  Eu  Eu3  1  0.36271900  0.62935500  0.73336400  1
  Si  Si4  1  0.00000000  0.75000000  0.75000000  1
  Si  Si5  1  0.00000000  0.25000000  0.25000000  1
  Si  Si6  1  0.27013500  0.02013500  0.75000000  1
  Si  Si7  1  0.72986500  0.47986500  0.75000000  1
  Si  Si8  1  0.72986500  0.97986500  0.25000000  1
  Si  Si9  1  0.27013500  0.52013500  0.25000000  1
  Si  Si10  1  0.76075300  0.61167400  0.14907900  1
  Si  Si11  1  0.23924700  0.38832600  0.85092100  1
  Si  Si12  1  0.46259500  0.11167400  0.35092100  1
  Si  Si13  1  0.53740500  0.88832600  0.64907900  1
  Pt  Pt14  1  0.50000000  0.75000000  0.25000000  1
  Pt  Pt15  1  0.50000000  0.25000000  0.75000000  1
  Pt  Pt16  1  0.02332000  0.63565600  0.38766400  1
  Pt  Pt17  1  0.97668000  0.36434400  0.61233600  1
  Pt  Pt18  1  0.24799200  0.13565600  0.11233600  1
  Pt  Pt19  1  0.75200800  0.86434400  0.88766400  1
