# generated using pymatgen
data_ErZnRh
_symmetry_space_group_name_H-M   'P 1'
_cell_length_a   4.05560800
_cell_length_b   6.90312600
_cell_length_c   8.05178400
_cell_angle_alpha   90.00000000
_cell_angle_beta   90.00000000
_cell_angle_gamma   90.00000000
_symmetry_Int_Tables_number   1
_chemical_formula_structural   ErZnRh
_chemical_formula_sum   'Er4 Zn4 Rh4'
_cell_volume   225.42074843
_cell_formula_units_Z   4
loop_
 _symmetry_equiv_pos_site_id
 _symmetry_equiv_pos_as_xyz
  1  'x, y, z'
loop_
 _atom_site_type_symbol
 _atom_site_label
 _atom_site_symmetry_multiplicity
 _atom_site_fract_x
 _atom_site_fract_y
 _atom_site_fract_z
 _atom_site_occupancy
  Er  Er0  1  0.25000000  0.53078700  0.18340100  1
  Er  Er1  1  0.75000000  0.46921300  0.81659900  1
  Er  Er2  1  0.75000000  0.96921300  0.68340100  1
  Er  Er3  1  0.25000000  0.03078700  0.31659900  1
  Zn  Zn4  1  0.25000000  0.64181700  0.56419700  1
  Zn  Zn5  1  0.75000000  0.35818300  0.43580300  1
  Zn  Zn6  1  0.75000000  0.85818300  0.06419700  1
  Zn  Zn7  1  0.25000000  0.14181700  0.93580300  1
  Rh  Rh8  1  0.25000000  0.76035800  0.87670100  1
  Rh  Rh9  1  0.75000000  0.23964200  0.12329900  1
  Rh  Rh10  1  0.75000000  0.73964200  0.37670100  1
  Rh  Rh11  1  0.25000000  0.26035800  0.62329900  1
