# generated using pymatgen
data_CaMnGeO4
_symmetry_space_group_name_H-M   'P 1'
_cell_length_a   5.15177200
_cell_length_b   6.60576700
_cell_length_c   11.44421100
_cell_angle_alpha   90.00000000
_cell_angle_beta   90.00000000
_cell_angle_gamma   90.00000000
_symmetry_Int_Tables_number   1
_chemical_formula_structural   CaMnGeO4
_chemical_formula_sum   'Ca4 Mn4 Ge4 O16'
_cell_volume   389.46258482
_cell_formula_units_Z   4
loop_
 _symmetry_equiv_pos_site_id
 _symmetry_equiv_pos_as_xyz
  1  'x, y, z'
loop_
 _atom_site_type_symbol
 _atom_site_label
 _atom_site_symmetry_multiplicity
 _atom_site_fract_x
 _atom_site_fract_y
 _atom_site_fract_z
 _atom_site_occupancy
  Ca  Ca0  1  0.01049300  0.75000000  0.72274500  1
  Ca  Ca1  1  0.98950700  0.25000000  0.27725500  1
  Ca  Ca2  1  0.51049300  0.25000000  0.77725500  1
  Ca  Ca3  1  0.48950700  0.75000000  0.22274500  1
  Mn  Mn4  1  0.50000000  0.50000000  0.50000000  1
  Mn  Mn5  1  0.00000000  0.50000000  0.00000000  1
  Mn  Mn6  1  0.50000000  0.00000000  0.50000000  1
  Mn  Mn7  1  0.00000000  0.00000000  0.00000000  1
  Ge  Ge8  1  0.57430400  0.75000000  0.91146400  1
  Ge  Ge9  1  0.42569600  0.25000000  0.08853600  1
  Ge  Ge10  1  0.07430400  0.25000000  0.58853600  1
  Ge  Ge11  1  0.92569600  0.75000000  0.41146400  1
  O  O12  1  0.23185200  0.75000000  0.91327500  1
  O  O13  1  0.76814800  0.25000000  0.08672500  1
  O  O14  1  0.73185200  0.25000000  0.58672500  1
  O  O15  1  0.26814800  0.75000000  0.41327500  1
  O  O16  1  0.76472200  0.75000000  0.55175300  1
  O  O17  1  0.23527800  0.25000000  0.44824700  1
  O  O18  1  0.26472200  0.25000000  0.94824700  1
  O  O19  1  0.73527800  0.75000000  0.05175300  1
  O  O20  1  0.72641000  0.53692100  0.84390000  1
  O  O21  1  0.27359000  0.46307900  0.15610000  1
  O  O22  1  0.22641000  0.46307900  0.65610000  1
  O  O23  1  0.27359000  0.03692100  0.15610000  1
  O  O24  1  0.77359000  0.53692100  0.34390000  1
  O  O25  1  0.72641000  0.96307900  0.84390000  1
  O  O26  1  0.77359000  0.96307900  0.34390000  1
  O  O27  1  0.22641000  0.03692100  0.65610000  1
