# generated using pymatgen
data_HoMg149
_symmetry_space_group_name_H-M   'P 1'
_cell_length_a   16.02507875
_cell_length_b   16.02506376
_cell_length_c   15.65613283
_cell_angle_alpha   89.99990133
_cell_angle_beta   90.00005005
_cell_angle_gamma   120.00105496
_symmetry_Int_Tables_number   1
_chemical_formula_structural   HoMg149
_chemical_formula_sum   'Ho1 Mg149'
_cell_volume   3481.85315131
_cell_formula_units_Z   1
loop_
 _symmetry_equiv_pos_site_id
 _symmetry_equiv_pos_as_xyz
  1  'x, y, z'
loop_
 _atom_site_type_symbol
 _atom_site_label
 _atom_site_symmetry_multiplicity
 _atom_site_fract_x
 _atom_site_fract_y
 _atom_site_fract_z
 _atom_site_occupancy
  Ho  Ho0  1  0.99999245  0.99997084  0.00002357  1
  Mg  Mg1  1  0.60003884  0.20007728  0.99999884  1
  Mg  Mg2  1  0.79937065  0.20063139  0.99999897  1
  Mg  Mg3  1  0.40126131  0.20062979  0.99999962  1
  Mg  Mg4  1  0.00268996  0.20461559  0.99999888  1
  Mg  Mg5  1  0.20192633  0.20461101  0.99999807  1
  Mg  Mg6  1  0.00015665  0.40022447  0.99999677  1
  Mg  Mg7  1  0.40006885  0.40022155  0.99999945  1
  Mg  Mg8  1  0.60003929  0.39995838  0.00000188  1
  Mg  Mg9  1  0.79992539  0.39996363  0.00000174  1
  Mg  Mg10  1  0.20148677  0.40297183  0.99999866  1
  Mg  Mg11  1  0.79936835  0.59873528  0.99999961  1
  Mg  Mg12  1  0.20045953  0.60023177  0.00000123  1
  Mg  Mg13  1  0.39977428  0.60023183  0.00000058  1
  Mg  Mg14  1  0.59977410  0.59993083  0.99999534  1
  Mg  Mg15  1  0.00015896  0.59993047  0.99999823  1
  Mg  Mg16  1  0.59703240  0.79852107  0.99999930  1
  Mg  Mg17  1  0.20148519  0.79851774  0.00000187  1
  Mg  Mg18  1  0.00268094  0.79806799  0.99999607  1
  Mg  Mg19  1  0.79536677  0.79805396  0.00000035  1
  Mg  Mg20  1  0.39977117  0.79954505  0.99999713  1
  Mg  Mg21  1  0.79536845  0.99731658  0.99999834  1
  Mg  Mg22  1  0.20193161  0.99731560  0.99999886  1
  Mg  Mg23  1  0.40007451  0.99984580  0.00000027  1
  Mg  Mg24  1  0.59977450  0.99984855  0.00000047  1
  Mg  Mg25  1  0.86790500  0.13209302  0.16474625  1
  Mg  Mg26  1  0.26417731  0.13208830  0.16474738  1
  Mg  Mg27  1  0.86791373  0.73582123  0.16474905  1
  Mg  Mg28  1  0.66666408  0.33333159  0.16606800  1
  Mg  Mg29  1  0.66731680  0.13302085  0.16651044  1
  Mg  Mg30  1  0.46570785  0.13302027  0.16651115  1
  Mg  Mg31  1  0.86698199  0.33268294  0.16650630  1
  Mg  Mg32  1  0.46570311  0.33268616  0.16650976  1
  Mg  Mg33  1  0.86697906  0.53429758  0.16650958  1
  Mg  Mg34  1  0.66731233  0.53429324  0.16650784  1
  Mg  Mg35  1  0.46663582  0.53336235  0.16718152  1
  Mg  Mg36  1  0.06672721  0.53336497  0.16718079  1
  Mg  Mg37  1  0.46663690  0.93327262  0.16717881  1
  Mg  Mg38  1  0.26710704  0.53421810  0.16726697  1
  Mg  Mg39  1  0.26710907  0.73289240  0.16726804  1
  Mg  Mg40  1  0.46577952  0.73289183  0.16726351  1
  Mg  Mg41  1  0.06797180  0.33543324  0.16759204  1
  Mg  Mg42  1  0.26746266  0.33543451  0.16758834  1
  Mg  Mg43  1  0.06796936  0.73253696  0.16758886  1
  Mg  Mg44  1  0.66456646  0.73253890  0.16759185  1
  Mg  Mg45  1  0.66456877  0.93203098  0.16759175  1
  Mg  Mg46  1  0.26746118  0.93202829  0.16759005  1
  Mg  Mg47  1  0.06787186  0.13575223  0.16945955  1
  Mg  Mg48  1  0.06788131  0.93212297  0.16946186  1
  Mg  Mg49  1  0.86424751  0.93212804  0.16946076  1
  Mg  Mg50  1  0.39963192  0.19981752  0.33283327  1
  Mg  Mg51  1  0.80018539  0.19981402  0.33282977  1
  Mg  Mg52  1  0.80018410  0.60037239  0.33283368  1
  Mg  Mg53  1  0.59994899  0.19989222  0.33270270  1
  Mg  Mg54  1  0.59994584  0.40005437  0.33270478  1
  Mg  Mg55  1  0.80010598  0.40005130  0.33270455  1
  Mg  Mg56  1  0.20055876  0.00002778  0.33345636  1
  Mg  Mg57  1  0.79947135  0.00003080  0.33345656  1
  Mg  Mg58  1  0.20055921  0.20053083  0.33345767  1
  Mg  Mg59  1  0.99996726  0.20052505  0.33345409  1
  Mg  Mg60  1  0.99996982  0.79944202  0.33345326  1
  Mg  Mg61  1  0.79947414  0.79944640  0.33345615  1
  Mg  Mg62  1  0.59975349  0.00015913  0.33369914  1
  Mg  Mg63  1  0.40040427  0.00015758  0.33370466  1
  Mg  Mg64  1  0.99983790  0.40024454  0.33370120  1
  Mg  Mg65  1  0.40040904  0.40024554  0.33370174  1
  Mg  Mg66  1  0.99984324  0.59959344  0.33369927  1
  Mg  Mg67  1  0.59975649  0.59959469  0.33370142  1
  Mg  Mg68  1  0.40011434  0.59988425  0.33358560  1
  Mg  Mg69  1  0.19976588  0.59988235  0.33358453  1
  Mg  Mg70  1  0.40011561  0.80022902  0.33358480  1
  Mg  Mg71  1  0.20016817  0.40033555  0.33409019  1
  Mg  Mg72  1  0.59967205  0.79983505  0.33409092  1
  Mg  Mg73  1  0.20016403  0.79983487  0.33409195  1
  Mg  Mg74  1  0.00000163  -0.00000006  0.33476163  1
  Mg  Mg75  1  0.26706587  0.13353231  0.49999977  1
  Mg  Mg76  1  0.86646829  0.13353414  0.49999783  1
  Mg  Mg77  1  0.06678284  0.13356578  0.49999830  1
  Mg  Mg78  1  0.66711093  0.13407223  0.50000148  1
  Mg  Mg79  1  0.46695862  0.13407261  0.50000120  1
  Mg  Mg80  1  0.46696533  0.33289420  0.49999905  1
  Mg  Mg81  1  0.86593155  0.33289197  0.49999973  1
  Mg  Mg82  1  0.66666918  0.33333082  0.50000182  1
  Mg  Mg83  1  0.26668863  0.33347972  0.50000235  1
  Mg  Mg84  1  0.06679303  0.33348437  0.49999566  1
  Mg  Mg85  1  0.86592991  0.53304301  0.49999875  1
  Mg  Mg86  1  0.66711182  0.53304480  0.49999900  1
  Mg  Mg87  1  0.46701991  0.53297971  0.49999961  1
  Mg  Mg88  1  0.06596443  0.53297863  0.50000068  1
  Mg  Mg89  1  0.26674926  0.53349388  0.50000017  1
  Mg  Mg90  1  0.86646648  0.73293514  0.49999816  1
  Mg  Mg91  1  0.66651817  0.73330797  0.50000348  1
  Mg  Mg92  1  0.06679018  0.73331164  0.49999730  1
  Mg  Mg93  1  0.26674452  0.73325261  0.49999938  1
  Mg  Mg94  1  0.46650811  0.73325536  0.49999935  1
  Mg  Mg95  1  0.06678669  0.93321884  0.49999978  1
  Mg  Mg96  1  0.86642821  0.93321389  0.50000133  1
  Mg  Mg97  1  0.26668798  0.93321115  0.50000512  1
  Mg  Mg98  1  0.66651892  0.93321031  0.49999962  1
  Mg  Mg99  1  0.46701743  0.93403423  0.49999926  1
  Mg  Mg100  1  0.99999919  0.99999871  0.66523797  1
  Mg  Mg101  1  0.20016427  0.40032974  0.66590950  1
  Mg  Mg102  1  0.59966912  0.79983774  0.66590681  1
  Mg  Mg103  1  0.20016710  0.79983517  0.66590615  1
  Mg  Mg104  1  0.40011460  0.59988358  0.66641301  1
  Mg  Mg105  1  0.19976892  0.59988466  0.66641035  1
  Mg  Mg106  1  0.40012010  0.80023443  0.66641587  1
  Mg  Mg107  1  0.59975590  0.00016245  0.66629988  1
  Mg  Mg108  1  0.40040553  0.00016095  0.66629665  1
  Mg  Mg109  1  0.99984033  0.40024506  0.66629944  1
  Mg  Mg110  1  0.40040324  0.40024702  0.66629609  1
  Mg  Mg111  1  0.99984426  0.59959174  0.66629719  1
  Mg  Mg112  1  0.59974919  0.59959204  0.66629960  1
  Mg  Mg113  1  0.20055537  0.00002550  0.66654543  1
  Mg  Mg114  1  0.79946866  0.00002952  0.66654415  1
  Mg  Mg115  1  0.20055743  0.20053111  0.66654522  1
  Mg  Mg116  1  0.99997433  0.20053332  0.66654321  1
  Mg  Mg117  1  0.99997261  0.79944147  0.66654139  1
  Mg  Mg118  1  0.79946796  0.79943870  0.66654220  1
  Mg  Mg119  1  0.59994739  0.19989189  0.66729473  1
  Mg  Mg120  1  0.59994754  0.40005504  0.66730075  1
  Mg  Mg121  1  0.80010979  0.40005789  0.66729591  1
  Mg  Mg122  1  0.39962799  0.19981621  0.66716870  1
  Mg  Mg123  1  0.80018458  0.19981255  0.66716061  1
  Mg  Mg124  1  0.80018723  0.60037680  0.66716703  1
  Mg  Mg125  1  0.06786480  0.13574693  0.83053898  1
  Mg  Mg126  1  0.06787821  0.93211833  0.83053203  1
  Mg  Mg127  1  0.86425494  0.93213321  0.83054103  1
  Mg  Mg128  1  0.06797149  0.33543314  0.83240788  1
  Mg  Mg129  1  0.26746382  0.33543460  0.83241120  1
  Mg  Mg130  1  0.06797325  0.73253568  0.83240824  1
  Mg  Mg131  1  0.66456557  0.73254152  0.83241183  1
  Mg  Mg132  1  0.66456882  0.93203035  0.83240908  1
  Mg  Mg133  1  0.26746384  0.93202851  0.83240829  1
  Mg  Mg134  1  0.26711128  0.53422181  0.83273600  1
  Mg  Mg135  1  0.26710599  0.73288837  0.83273053  1
  Mg  Mg136  1  0.46578003  0.73288976  0.83273166  1
  Mg  Mg137  1  0.46663274  0.53336073  0.83281899  1
  Mg  Mg138  1  0.06673132  0.53336127  0.83282194  1
  Mg  Mg139  1  0.46663828  0.93327177  0.83282087  1
  Mg  Mg140  1  0.66731893  0.13301906  0.83348997  1
  Mg  Mg141  1  0.46570245  0.13301729  0.83348867  1
  Mg  Mg142  1  0.86698082  0.33267973  0.83349043  1
  Mg  Mg143  1  0.46570264  0.33268434  0.83349046  1
  Mg  Mg144  1  0.86698265  0.53429628  0.83349134  1
  Mg  Mg145  1  0.66731696  0.53429445  0.83349401  1
  Mg  Mg146  1  0.66666598  0.33332926  0.83394271  1
  Mg  Mg147  1  0.86790596  0.13208816  0.83525411  1
  Mg  Mg148  1  0.26418519  0.13209240  0.83525355  1
  Mg  Mg149  1  0.86791127  0.73581991  0.83525366  1
