# generated using pymatgen
data_Mg149Br
_symmetry_space_group_name_H-M   'P 1'
_cell_length_a   15.90790382
_cell_length_b   15.90791048
_cell_length_c   15.60400746
_cell_angle_alpha   90.00000000
_cell_angle_beta   90.00000000
_cell_angle_gamma   120.00001384
_symmetry_Int_Tables_number   1
_chemical_formula_structural   Mg149Br
_chemical_formula_sum   'Mg149 Br1'
_cell_volume   3419.73785142
_cell_formula_units_Z   1
loop_
 _symmetry_equiv_pos_site_id
 _symmetry_equiv_pos_as_xyz
  1  'x, y, z'
loop_
 _atom_site_type_symbol
 _atom_site_label
 _atom_site_symmetry_multiplicity
 _atom_site_fract_x
 _atom_site_fract_y
 _atom_site_fract_z
 _atom_site_occupancy
  Mg  Mg0  1  0.20440246  0.00101804  -0.00000000  1
  Mg  Mg1  1  0.79661558  0.00101804  -0.00000000  1
  Mg  Mg2  1  0.40083163  0.20041582  -0.00000000  1
  Mg  Mg3  1  0.79958418  0.20041582  -0.00000000  1
  Mg  Mg4  1  0.60045926  0.20091952  -0.00000000  1
  Mg  Mg5  1  0.20440246  0.20338442  -0.00000000  1
  Mg  Mg6  1  0.99898196  0.20338442  -0.00000000  1
  Mg  Mg7  1  0.60045926  0.39953974  -0.00000000  1
  Mg  Mg8  1  0.79908048  0.39954074  -0.00000000  1
  Mg  Mg9  1  0.20000309  0.40000519  -0.00000000  1
  Mg  Mg10  1  0.40120037  0.40168020  -0.00000000  1
  Mg  Mg11  1  0.00047983  0.40168020  -0.00000000  1
  Mg  Mg12  1  0.59831980  0.59879963  -0.00000000  1
  Mg  Mg13  1  0.00047983  0.59879963  -0.00000000  1
  Mg  Mg14  1  0.79958418  0.59916837  -0.00000000  1
  Mg  Mg15  1  0.20099990  0.60049945  -0.00000000  1
  Mg  Mg16  1  0.39949955  0.60049945  -0.00000000  1
  Mg  Mg17  1  0.79661558  0.79559754  -0.00000000  1
  Mg  Mg18  1  0.99898196  0.79559754  -0.00000000  1
  Mg  Mg19  1  0.39949955  0.79900010  -0.00000000  1
  Mg  Mg20  1  0.59999481  0.79999691  -0.00000000  1
  Mg  Mg21  1  0.20000309  0.79999691  -0.00000000  1
  Mg  Mg22  1  0.59831980  0.99952117  -0.00000000  1
  Mg  Mg23  1  0.40120037  0.99952117  -0.00000000  1
  Mg  Mg24  1  0.66666700  0.33333300  0.16606018  1
  Mg  Mg25  1  0.46640568  0.13335446  0.16624659  1
  Mg  Mg26  1  0.66694878  0.13335446  0.16624659  1
  Mg  Mg27  1  0.46640568  0.33305122  0.16624659  1
  Mg  Mg28  1  0.86664654  0.33305122  0.16624659  1
  Mg  Mg29  1  0.66694878  0.53359432  0.16624659  1
  Mg  Mg30  1  0.86664654  0.53359432  0.16624659  1
  Mg  Mg31  1  0.26659506  0.53319012  0.16641554  1
  Mg  Mg32  1  0.46680988  0.73340494  0.16641554  1
  Mg  Mg33  1  0.26659506  0.73340494  0.16641554  1
  Mg  Mg34  1  0.26668659  0.33333162  0.16659793  1
  Mg  Mg35  1  0.06664502  0.33333162  0.16659793  1
  Mg  Mg36  1  0.66666838  0.73331341  0.16659793  1
  Mg  Mg37  1  0.06664502  0.73331341  0.16659793  1
  Mg  Mg38  1  0.66666838  0.93335498  0.16659793  1
  Mg  Mg39  1  0.26668659  0.93335498  0.16659793  1
  Mg  Mg40  1  0.86703764  0.13296236  0.16696440  1
  Mg  Mg41  1  0.26592471  0.13296236  0.16696440  1
  Mg  Mg42  1  0.86703764  0.73407529  0.16696440  1
  Mg  Mg43  1  0.46648480  0.53351520  0.16688863  1
  Mg  Mg44  1  0.06703040  0.53351520  0.16688863  1
  Mg  Mg45  1  0.46648480  0.93296960  0.16688863  1
  Mg  Mg46  1  0.06750591  0.13501181  0.17001128  1
  Mg  Mg47  1  0.86498819  0.93249409  0.17001128  1
  Mg  Mg48  1  0.06750591  0.93249409  0.17001128  1
  Mg  Mg49  1  0.00000000  0.00000000  0.33214667  1
  Mg  Mg50  1  0.80003498  0.19996502  0.33277905  1
  Mg  Mg51  1  0.39993105  0.19996502  0.33277905  1
  Mg  Mg52  1  0.80003498  0.60006995  0.33277905  1
  Mg  Mg53  1  0.60015618  0.20031237  0.33289548  1
  Mg  Mg54  1  0.79968763  0.39984382  0.33289548  1
  Mg  Mg55  1  0.60015618  0.39984382  0.33289548  1
  Mg  Mg56  1  0.19991977  0.39983853  0.33284431  1
  Mg  Mg57  1  0.19991977  0.80008023  0.33284431  1
  Mg  Mg58  1  0.60016047  0.80008023  0.33284431  1
  Mg  Mg59  1  0.20019829  0.60009864  0.33313474  1
  Mg  Mg60  1  0.39990136  0.60009864  0.33313474  1
  Mg  Mg61  1  0.39990136  0.79980171  0.33313474  1
  Mg  Mg62  1  0.40027181  0.00001053  0.33348903  1
  Mg  Mg63  1  0.59973872  0.00001053  0.33348903  1
  Mg  Mg64  1  0.40027181  0.40026128  0.33348903  1
  Mg  Mg65  1  -0.00000953  0.40026128  0.33348903  1
  Mg  Mg66  1  -0.00000953  0.59972919  0.33348903  1
  Mg  Mg67  1  0.59973872  0.59972919  0.33348903  1
  Mg  Mg68  1  0.79948862  0.00008143  0.33449879  1
  Mg  Mg69  1  0.20059281  0.00008143  0.33449879  1
  Mg  Mg70  1  0.20059281  0.20051138  0.33449879  1
  Mg  Mg71  1  0.99991857  0.20051138  0.33449879  1
  Mg  Mg72  1  0.79948862  0.79940719  0.33449879  1
  Mg  Mg73  1  0.99991857  0.79940719  0.33449879  1
  Mg  Mg74  1  0.06652587  0.13305174  0.50000000  1
  Mg  Mg75  1  0.26710919  0.13355410  0.50000000  1
  Mg  Mg76  1  0.86644590  0.13355510  0.50000000  1
  Mg  Mg77  1  0.46665690  0.13340111  0.50000000  1
  Mg  Mg78  1  0.66674422  0.13340111  0.50000000  1
  Mg  Mg79  1  0.46665690  0.33325578  0.50000000  1
  Mg  Mg80  1  0.86659889  0.33325678  0.50000000  1
  Mg  Mg81  1  0.66666700  0.33333300  0.50000000  1
  Mg  Mg82  1  0.06712878  0.33371342  0.50000000  1
  Mg  Mg83  1  0.26658464  0.33371342  0.50000000  1
  Mg  Mg84  1  0.66674422  0.53334310  0.50000000  1
  Mg  Mg85  1  0.86659889  0.53334310  0.50000000  1
  Mg  Mg86  1  0.06668882  0.53334441  0.50000000  1
  Mg  Mg87  1  0.46665559  0.53334441  0.50000000  1
  Mg  Mg88  1  0.26666655  0.53333310  0.50000000  1
  Mg  Mg89  1  0.86644590  0.73289081  0.50000000  1
  Mg  Mg90  1  0.46666690  0.73333345  0.50000000  1
  Mg  Mg91  1  0.26666655  0.73333345  0.50000000  1
  Mg  Mg92  1  0.66628658  0.73341536  0.50000000  1
  Mg  Mg93  1  0.06712878  0.73341536  0.50000000  1
  Mg  Mg94  1  0.26658464  0.93287122  0.50000000  1
  Mg  Mg95  1  0.66628658  0.93287122  0.50000000  1
  Mg  Mg96  1  0.46665559  0.93331118  0.50000000  1
  Mg  Mg97  1  0.86694826  0.93347413  0.50000000  1
  Mg  Mg98  1  0.06652587  0.93347413  0.50000000  1
  Mg  Mg99  1  0.79948862  0.00008143  0.66550021  1
  Mg  Mg100  1  0.20059281  0.00008143  0.66550021  1
  Mg  Mg101  1  0.20059281  0.20051138  0.66550021  1
  Mg  Mg102  1  0.99991857  0.20051138  0.66550021  1
  Mg  Mg103  1  0.79948862  0.79940719  0.66550021  1
  Mg  Mg104  1  0.99991857  0.79940719  0.66550021  1
  Mg  Mg105  1  0.40027181  0.00001053  0.66651097  1
  Mg  Mg106  1  0.59973872  0.00001053  0.66651097  1
  Mg  Mg107  1  0.40027181  0.40026128  0.66651097  1
  Mg  Mg108  1  -0.00000953  0.40026128  0.66651097  1
  Mg  Mg109  1  -0.00000953  0.59972919  0.66651097  1
  Mg  Mg110  1  0.59973872  0.59972919  0.66651097  1
  Mg  Mg111  1  0.20019829  0.60009864  0.66686426  1
  Mg  Mg112  1  0.39990136  0.60009864  0.66686426  1
  Mg  Mg113  1  0.39990136  0.79980171  0.66686426  1
  Mg  Mg114  1  0.19991977  0.39983853  0.66715569  1
  Mg  Mg115  1  0.19991977  0.80008023  0.66715569  1
  Mg  Mg116  1  0.60016047  0.80008023  0.66715569  1
  Mg  Mg117  1  0.60015618  0.20031237  0.66710452  1
  Mg  Mg118  1  0.79968763  0.39984382  0.66710452  1
  Mg  Mg119  1  0.60015618  0.39984382  0.66710452  1
  Mg  Mg120  1  0.80003498  0.19996502  0.66722095  1
  Mg  Mg121  1  0.39993105  0.19996502  0.66722095  1
  Mg  Mg122  1  0.80003498  0.60006995  0.66722095  1
  Mg  Mg123  1  0.00000000  0.00000000  0.66785233  1
  Mg  Mg124  1  0.06750591  0.13501181  0.82998872  1
  Mg  Mg125  1  0.86498819  0.93249409  0.82998872  1
  Mg  Mg126  1  0.06750591  0.93249409  0.82998872  1
  Mg  Mg127  1  0.46648480  0.53351520  0.83311237  1
  Mg  Mg128  1  0.06703040  0.53351520  0.83311237  1
  Mg  Mg129  1  0.46648480  0.93296960  0.83311237  1
  Mg  Mg130  1  0.86703764  0.13296236  0.83303560  1
  Mg  Mg131  1  0.26592471  0.13296236  0.83303560  1
  Mg  Mg132  1  0.86703764  0.73407529  0.83303560  1
  Mg  Mg133  1  0.26668659  0.33333162  0.83340307  1
  Mg  Mg134  1  0.06664502  0.33333162  0.83340307  1
  Mg  Mg135  1  0.66666838  0.73331341  0.83340307  1
  Mg  Mg136  1  0.06664502  0.73331341  0.83340307  1
  Mg  Mg137  1  0.66666838  0.93335498  0.83340307  1
  Mg  Mg138  1  0.26668659  0.93335498  0.83340307  1
  Mg  Mg139  1  0.26659506  0.53319012  0.83358446  1
  Mg  Mg140  1  0.46680988  0.73340494  0.83358446  1
  Mg  Mg141  1  0.26659506  0.73340494  0.83358446  1
  Mg  Mg142  1  0.46640568  0.13335446  0.83375441  1
  Mg  Mg143  1  0.66694878  0.13335446  0.83375441  1
  Mg  Mg144  1  0.46640568  0.33305122  0.83375441  1
  Mg  Mg145  1  0.86664654  0.33305122  0.83375441  1
  Mg  Mg146  1  0.66694878  0.53359432  0.83375441  1
  Mg  Mg147  1  0.86664654  0.53359432  0.83375441  1
  Mg  Mg148  1  0.66666700  0.33333300  0.83393982  1
  Br  Br149  1  0.00000000  0.00000000  -0.00000000  1
