# generated using pymatgen
data_CuF2
_symmetry_space_group_name_H-M   'P 1'
_cell_length_a   4.61316900
_cell_length_b   3.29997200
_cell_length_c   5.42314778
_cell_angle_alpha   59.23107815
_cell_angle_beta   90.00000000
_cell_angle_gamma   90.00000000
_symmetry_Int_Tables_number   1
_chemical_formula_structural   CuF2
_chemical_formula_sum   'Cu2 F4'
_cell_volume   70.93724004
_cell_formula_units_Z   2
loop_
 _symmetry_equiv_pos_site_id
 _symmetry_equiv_pos_as_xyz
  1  'x, y, z'
loop_
 _atom_site_type_symbol
 _atom_site_label
 _atom_site_symmetry_multiplicity
 _atom_site_fract_x
 _atom_site_fract_y
 _atom_site_fract_z
 _atom_site_occupancy
  Cu  Cu0  1  0.50000000  0.00000000  0.50000000  1
  Cu  Cu1  1  0.00000000  0.00000000  0.00000000  1
  F  F2  1  0.79970000  0.73116900  0.79582700  1
  F  F3  1  0.29970000  0.26883100  0.70417300  1
  F  F4  1  0.70030000  0.73116900  0.29582700  1
  F  F5  1  0.20030000  0.26883100  0.20417300  1
