# generated using pymatgen
data_NaVF6
_symmetry_space_group_name_H-M   'P 1'
_cell_length_a   5.98441800
_cell_length_b   7.99823200
_cell_length_c   9.65431300
_cell_angle_alpha   90.00000000
_cell_angle_beta   90.00000000
_cell_angle_gamma   90.00000000
_symmetry_Int_Tables_number   1
_chemical_formula_structural   NaVF6
_chemical_formula_sum   'Na4 V4 F24'
_cell_volume   462.10140897
_cell_formula_units_Z   4
loop_
 _symmetry_equiv_pos_site_id
 _symmetry_equiv_pos_as_xyz
  1  'x, y, z'
loop_
 _atom_site_type_symbol
 _atom_site_label
 _atom_site_symmetry_multiplicity
 _atom_site_fract_x
 _atom_site_fract_y
 _atom_site_fract_z
 _atom_site_occupancy
  Na  Na0  1  0.75000000  0.16665200  0.00416600  1
  Na  Na1  1  0.25000000  0.66665200  0.49583400  1
  Na  Na2  1  0.25000000  0.83334800  0.99583400  1
  Na  Na3  1  0.75000000  0.33334800  0.50416600  1
  V  V4  1  0.25000000  0.11550600  0.27205100  1
  V  V5  1  0.25000000  0.38449400  0.77205100  1
  V  V6  1  0.75000000  0.61550600  0.22794900  1
  V  V7  1  0.75000000  0.88449400  0.72794900  1
  F  F8  1  0.53808000  0.94873300  0.85650300  1
  F  F9  1  0.25000000  0.18065300  0.69780100  1
  F  F10  1  0.53808000  0.55126700  0.35650300  1
  F  F11  1  0.96553700  0.82764600  0.60653200  1
  F  F12  1  0.75000000  0.81934700  0.30219900  1
  F  F13  1  0.46192000  0.05126700  0.14349700  1
  F  F14  1  0.53446300  0.82764600  0.60653200  1
  F  F15  1  0.25000000  0.90113700  0.33532400  1
  F  F16  1  0.25000000  0.59886300  0.83532400  1
  F  F17  1  0.03446300  0.32764600  0.89346800  1
  F  F18  1  0.96192000  0.55126700  0.35650300  1
  F  F19  1  0.75000000  0.40113700  0.16467600  1
  F  F20  1  0.46192000  0.44873300  0.64349700  1
  F  F21  1  0.03446300  0.17235400  0.39346800  1
  F  F22  1  0.03808000  0.44873300  0.64349700  1
  F  F23  1  0.03808000  0.05126700  0.14349700  1
  F  F24  1  0.75000000  0.68065300  0.80219900  1
  F  F25  1  0.96553700  0.67235400  0.10653200  1
  F  F26  1  0.96192000  0.94873300  0.85650300  1
  F  F27  1  0.53446300  0.67235400  0.10653200  1
  F  F28  1  0.46553700  0.17235400  0.39346800  1
  F  F29  1  0.25000000  0.31934700  0.19780100  1
  F  F30  1  0.75000000  0.09886300  0.66467600  1
  F  F31  1  0.46553700  0.32764600  0.89346800  1
