# generated using pymatgen
data_TbAlNi
_symmetry_space_group_name_H-M   'P 1'
_cell_length_a   7.06994304
_cell_length_b   7.06994304
_cell_length_c   3.81446300
_cell_angle_alpha   90.00000000
_cell_angle_beta   90.00000000
_cell_angle_gamma   119.99999103
_symmetry_Int_Tables_number   1
_chemical_formula_structural   TbAlNi
_chemical_formula_sum   'Tb3 Al3 Ni3'
_cell_volume   165.11856569
_cell_formula_units_Z   3
loop_
 _symmetry_equiv_pos_site_id
 _symmetry_equiv_pos_as_xyz
  1  'x, y, z'
loop_
 _atom_site_type_symbol
 _atom_site_label
 _atom_site_symmetry_multiplicity
 _atom_site_fract_x
 _atom_site_fract_y
 _atom_site_fract_z
 _atom_site_occupancy
  Tb  Tb0  1  0.41734700  0.00000000  0.50000000  1
  Tb  Tb1  1  0.00000000  0.41734700  0.50000000  1
  Tb  Tb2  1  0.58265300  0.58265300  0.50000000  1
  Al  Al3  1  0.76501300  0.00000000  0.00000000  1
  Al  Al4  1  0.00000000  0.76501300  0.00000000  1
  Al  Al5  1  0.23498700  0.23498700  0.00000000  1
  Ni  Ni6  1  0.33333300  0.66666700  0.00000000  1
  Ni  Ni7  1  0.66666700  0.33333300  0.00000000  1
  Ni  Ni8  1  0.00000000  0.00000000  0.50000000  1
