# generated using pymatgen
data_Sb2(PSe3)3
_symmetry_space_group_name_H-M   'P 1'
_cell_length_a   7.71195600
_cell_length_b   9.53240900
_cell_length_c   23.87505404
_cell_angle_alpha   66.67401011
_cell_angle_beta   90.00000000
_cell_angle_gamma   90.00000000
_symmetry_Int_Tables_number   1
_chemical_formula_structural   Sb2(PSe3)3
_chemical_formula_sum   'Sb8 P12 Se36'
_cell_volume   1611.68619983
_cell_formula_units_Z   4
loop_
 _symmetry_equiv_pos_site_id
 _symmetry_equiv_pos_as_xyz
  1  'x, y, z'
loop_
 _atom_site_type_symbol
 _atom_site_label
 _atom_site_symmetry_multiplicity
 _atom_site_fract_x
 _atom_site_fract_y
 _atom_site_fract_z
 _atom_site_occupancy
  Sb  Sb0  1  0.78293300  0.39120000  0.85440400  1
  Sb  Sb1  1  0.28293300  0.60880000  0.64559600  1
  Sb  Sb2  1  0.21706700  0.60880000  0.14559600  1
  Sb  Sb3  1  0.71706700  0.39120000  0.35440400  1
  Sb  Sb4  1  0.90592600  0.05897500  0.15340600  1
  Sb  Sb5  1  0.40592600  0.94102500  0.34659400  1
  Sb  Sb6  1  0.09407400  0.94102500  0.84659400  1
  Sb  Sb7  1  0.59407400  0.05897500  0.65340600  1
  P  P8  1  0.95314600  0.57692900  0.95211500  1
  P  P9  1  0.45314600  0.42307100  0.54788500  1
  P  P10  1  0.04685400  0.42307100  0.04788500  1
  P  P11  1  0.54685400  0.57692900  0.45211500  1
  P  P12  1  0.06268100  0.92159100  0.64546500  1
  P  P13  1  0.56268100  0.07840900  0.85453500  1
  P  P14  1  0.93731900  0.07840900  0.35453500  1
  P  P15  1  0.43731900  0.92159100  0.14546500  1
  P  P16  1  0.15350900  0.25122000  0.31512500  1
  P  P17  1  0.65350900  0.74878000  0.18487500  1
  P  P18  1  0.84649100  0.74878000  0.68487500  1
  P  P19  1  0.34649100  0.25122000  0.81512500  1
  Se  Se20  1  0.74727100  0.77312500  0.76622600  1
  Se  Se21  1  0.03537300  0.47980300  0.29832000  1
  Se  Se22  1  0.46462700  0.47980300  0.79832000  1
  Se  Se23  1  0.96462700  0.52019700  0.70168000  1
  Se  Se24  1  0.85092800  0.83549600  0.10967500  1
  Se  Se25  1  0.35092800  0.16450400  0.39032500  1
  Se  Se26  1  0.14907200  0.16450400  0.89032500  1
  Se  Se27  1  0.64907200  0.83549600  0.60967500  1
  Se  Se28  1  0.23335400  0.85164700  0.21475300  1
  Se  Se29  1  0.73335400  0.14835300  0.28524700  1
  Se  Se30  1  0.76664600  0.14835300  0.78524700  1
  Se  Se31  1  0.53537300  0.52019700  0.20168000  1
  Se  Se32  1  0.56197900  0.14840200  0.12091300  1
  Se  Se33  1  0.06197900  0.85159800  0.37908700  1
  Se  Se34  1  0.43802100  0.85159800  0.87908700  1
  Se  Se35  1  0.93802100  0.14840200  0.62091300  1
  Se  Se36  1  0.35387300  0.86998500  0.06550700  1
  Se  Se37  1  0.85387300  0.13001500  0.43449300  1
  Se  Se38  1  0.64612700  0.13001500  0.93449300  1
  Se  Se39  1  0.14612700  0.86998500  0.56550700  1
  Se  Se40  1  0.57565200  0.80674600  0.45581300  1
  Se  Se41  1  0.07565200  0.19325400  0.04418700  1
  Se  Se42  1  0.42434800  0.19325400  0.54418700  1
  Se  Se43  1  0.92434800  0.80674600  0.95581300  1
  Se  Se44  1  0.36103000  0.57589800  0.38388700  1
  Se  Se45  1  0.86103000  0.42410200  0.11611300  1
  Se  Se46  1  0.63897000  0.42410200  0.61611300  1
  Se  Se47  1  0.13897000  0.57589800  0.88388700  1
  Se  Se48  1  0.80640100  0.47839000  0.44580400  1
  Se  Se49  1  0.30640100  0.52161000  0.05419600  1
  Se  Se50  1  0.19359900  0.52161000  0.55419600  1
  Se  Se51  1  0.69359900  0.47839000  0.94580400  1
  Se  Se52  1  0.25272900  0.22687500  0.23377400  1
  Se  Se53  1  0.75272900  0.77312500  0.26622600  1
  Se  Se54  1  0.26664600  0.85164700  0.71475300  1
  Se  Se55  1  0.24727100  0.22687500  0.73377400  1
