# generated using pymatgen
data_KSi
_symmetry_space_group_name_H-M   'P 1'
_cell_length_a   12.69958200
_cell_length_b   12.69958200
_cell_length_c   12.69958200
_cell_angle_alpha   90.00000000
_cell_angle_beta   90.00000000
_cell_angle_gamma   90.00000000
_symmetry_Int_Tables_number   1
_chemical_formula_structural   KSi
_chemical_formula_sum   'K32 Si32'
_cell_volume   2048.18074900
_cell_formula_units_Z   32
loop_
 _symmetry_equiv_pos_site_id
 _symmetry_equiv_pos_as_xyz
  1  'x, y, z'
loop_
 _atom_site_type_symbol
 _atom_site_label
 _atom_site_symmetry_multiplicity
 _atom_site_fract_x
 _atom_site_fract_y
 _atom_site_fract_z
 _atom_site_occupancy
  K  K0  1  0.06638000  0.33725500  0.14006500  1
  K  K1  1  0.83725500  0.43362000  0.35993500  1
  K  K2  1  0.56638000  0.64006500  0.83725500  1
  K  K3  1  0.43362000  0.64006500  0.16274500  1
  K  K4  1  0.64006500  0.83725500  0.56638000  1
  K  K5  1  0.35993500  0.16274500  0.56638000  1
  K  K6  1  0.66274500  0.85993500  0.06638000  1
  K  K7  1  0.66274500  0.14006500  0.93362000  1
  K  K8  1  0.33725500  0.85993500  0.93362000  1
  K  K9  1  0.14006500  0.93362000  0.66274500  1
  K  K10  1  0.93362000  0.33725500  0.85993500  1
  K  K11  1  0.93362000  0.66274500  0.14006500  1
  K  K12  1  0.85993500  0.06638000  0.66274500  1
  K  K13  1  0.06638000  0.66274500  0.85993500  1
  K  K14  1  0.85993500  0.93362000  0.33725500  1
  K  K15  1  0.14006500  0.06638000  0.33725500  1
  K  K16  1  0.83725500  0.56638000  0.64006500  1
  K  K17  1  0.35993500  0.83725500  0.43362000  1
  K  K18  1  0.64006500  0.16274500  0.43362000  1
  K  K19  1  0.56638000  0.35993500  0.16274500  1
  K  K20  1  0.43362000  0.35993500  0.83725500  1
  K  K21  1  0.16274500  0.43362000  0.64006500  1
  K  K22  1  0.16274500  0.56638000  0.35993500  1
  K  K23  1  0.33725500  0.14006500  0.06638000  1
  K  K24  1  0.83373000  0.83373000  0.83373000  1
  K  K25  1  0.66627000  0.33373000  0.66627000  1
  K  K26  1  0.33373000  0.66627000  0.66627000  1
  K  K27  1  0.66627000  0.66627000  0.33373000  1
  K  K28  1  0.83373000  0.16627000  0.16627000  1
  K  K29  1  0.16627000  0.16627000  0.83373000  1
  K  K30  1  0.16627000  0.83373000  0.16627000  1
  K  K31  1  0.33373000  0.33373000  0.33373000  1
  Si  Si32  1  0.56228000  0.92650300  0.81695900  1
  Si  Si33  1  0.56228000  0.07349700  0.18304100  1
  Si  Si34  1  0.92650300  0.81695900  0.56228000  1
  Si  Si35  1  0.07349700  0.81695900  0.43772000  1
  Si  Si36  1  0.81695900  0.56228000  0.92650300  1
  Si  Si37  1  0.18304100  0.43772000  0.92650300  1
  Si  Si38  1  0.93772000  0.68304100  0.42650300  1
  Si  Si39  1  0.93772000  0.31695900  0.57349700  1
  Si  Si40  1  0.06228000  0.68304100  0.57349700  1
  Si  Si41  1  0.31695900  0.57349700  0.93772000  1
  Si  Si42  1  0.57349700  0.06228000  0.68304100  1
  Si  Si43  1  0.57349700  0.93772000  0.31695900  1
  Si  Si44  1  0.68304100  0.42650300  0.93772000  1
  Si  Si45  1  0.42650300  0.93772000  0.68304100  1
  Si  Si46  1  0.68304100  0.57349700  0.06228000  1
  Si  Si47  1  0.06775500  0.06775500  0.06775500  1
  Si  Si48  1  0.42650300  0.06228000  0.31695900  1
  Si  Si49  1  0.18304100  0.56228000  0.07349700  1
  Si  Si50  1  0.81695900  0.43772000  0.07349700  1
  Si  Si51  1  0.92650300  0.18304100  0.43772000  1
  Si  Si52  1  0.07349700  0.18304100  0.56228000  1
  Si  Si53  1  0.43772000  0.07349700  0.81695900  1
  Si  Si54  1  0.43772000  0.92650300  0.18304100  1
  Si  Si55  1  0.06228000  0.31695900  0.42650300  1
  Si  Si56  1  0.56775500  0.56775500  0.56775500  1
  Si  Si57  1  0.93224500  0.06775500  0.93224500  1
  Si  Si58  1  0.06775500  0.93224500  0.93224500  1
  Si  Si59  1  0.93224500  0.93224500  0.06775500  1
  Si  Si60  1  0.56775500  0.43224500  0.43224500  1
  Si  Si61  1  0.43224500  0.43224500  0.56775500  1
  Si  Si62  1  0.43224500  0.56775500  0.43224500  1
  Si  Si63  1  0.31695900  0.42650300  0.06228000  1
