# generated using pymatgen
data_Na4PuH7O9
_symmetry_space_group_name_H-M   'P 1'
_cell_length_a   6.04539800
_cell_length_b   8.16824958
_cell_length_c   11.03313064
_cell_angle_alpha   104.48536535
_cell_angle_beta   101.58729841
_cell_angle_gamma   105.60889814
_symmetry_Int_Tables_number   1
_chemical_formula_structural   Na4PuH7O9
_chemical_formula_sum   'Na8 Pu2 H14 O18'
_cell_volume   486.58610347
_cell_formula_units_Z   2
loop_
 _symmetry_equiv_pos_site_id
 _symmetry_equiv_pos_as_xyz
  1  'x, y, z'
loop_
 _atom_site_type_symbol
 _atom_site_label
 _atom_site_symmetry_multiplicity
 _atom_site_fract_x
 _atom_site_fract_y
 _atom_site_fract_z
 _atom_site_occupancy
  Na  Na0  1  0.79231700  0.53569100  0.58489000  1
  Na  Na1  1  0.20768300  0.46430900  0.41511000  1
  Na  Na2  1  0.94291300  0.65839000  0.92273400  1
  Na  Na3  1  0.05708700  0.34161000  0.07726600  1
  Na  Na4  1  0.47697400  0.28114400  0.90660000  1
  Na  Na5  1  0.52302600  0.71885600  0.09340000  1
  Na  Na6  1  0.38469900  0.15030300  0.57742500  1
  Na  Na7  1  0.61530100  0.84969700  0.42257500  1
  Pu  Pu8  1  0.36519200  0.58726800  0.75134800  1
  Pu  Pu9  1  0.63480800  0.41273200  0.24865200  1
  H  H10  1  0.56929300  0.82326600  0.62841400  1
  H  H11  1  0.43070700  0.17673400  0.37158600  1
  H  H12  1  0.08279900  0.36008800  0.84975200  1
  H  H13  1  0.91720100  0.63991200  0.15024800  1
  H  H14  1  0.84005800  0.17879300  0.62075300  1
  H  H15  1  0.15994200  0.82120700  0.37924700  1
  H  H16  1  0.75797100  0.11244100  0.78889900  1
  H  H17  1  0.24202900  0.88755900  0.21110100  1
  H  H18  1  0.70751700  0.01611500  0.89493300  1
  H  H19  1  0.29248300  0.98388500  0.10506700  1
  H  H20  1  0.17728800  0.93147200  0.73104200  1
  H  H21  1  0.82271200  0.06852800  0.26895800  1
  H  H22  1  0.01294400  0.04437800  0.68965500  1
  H  H23  1  0.98705600  0.95562200  0.31034500  1
  O  O24  1  0.15112600  0.72206400  0.75757100  1
  O  O25  1  0.84887400  0.27793600  0.24242900  1
  O  O26  1  0.60565400  0.77506600  0.89360500  1
  O  O27  1  0.39434600  0.22493400  0.10639500  1
  O  O28  1  0.57814300  0.44897900  0.74729600  1
  O  O29  1  0.42185700  0.55102100  0.25270400  1
  O  O30  1  0.12338100  0.39555200  0.61241100  1
  O  O31  1  0.87661900  0.60444800  0.38758900  1
  O  O32  1  0.50626000  0.69202400  0.59521600  1
  O  O33  1  0.49374000  0.30797600  0.40478400  1
  O  O34  1  0.21512500  0.46880400  0.90416200  1
  O  O35  1  0.78487500  0.53119600  0.09583800  1
  O  O36  1  0.75532100  0.07365900  0.64136200  1
  O  O37  1  0.24467900  0.92634100  0.35863800  1
  O  O38  1  0.76221900  0.13612900  0.88600000  1
  O  O39  1  0.23778100  0.86387100  0.11400000  1
  O  O40  1  0.18579700  0.04748200  0.71711800  1
  O  O41  1  0.81420300  0.95251800  0.28288200  1
