# generated using pymatgen
data_HfP2
_symmetry_space_group_name_H-M   'P 1'
_cell_length_a   3.50932200
_cell_length_b   6.46013100
_cell_length_c   8.68729800
_cell_angle_alpha   90.00000000
_cell_angle_beta   90.00000000
_cell_angle_gamma   90.00000000
_symmetry_Int_Tables_number   1
_chemical_formula_structural   HfP2
_chemical_formula_sum   'Hf4 P8'
_cell_volume   196.94695164
_cell_formula_units_Z   4
loop_
 _symmetry_equiv_pos_site_id
 _symmetry_equiv_pos_as_xyz
  1  'x, y, z'
loop_
 _atom_site_type_symbol
 _atom_site_label
 _atom_site_symmetry_multiplicity
 _atom_site_fract_x
 _atom_site_fract_y
 _atom_site_fract_z
 _atom_site_occupancy
  Hf  Hf0  1  0.25000000  0.27708000  0.83578800  1
  Hf  Hf1  1  0.25000000  0.77708000  0.66421200  1
  Hf  Hf2  1  0.75000000  0.72292000  0.16421200  1
  Hf  Hf3  1  0.75000000  0.22292000  0.33578800  1
  P  P4  1  0.25000000  0.88930000  0.96062100  1
  P  P5  1  0.25000000  0.38930000  0.53937900  1
  P  P6  1  0.75000000  0.11070000  0.03937900  1
  P  P7  1  0.75000000  0.61070000  0.46062100  1
  P  P8  1  0.25000000  0.90720900  0.35754200  1
  P  P9  1  0.25000000  0.40720900  0.14245800  1
  P  P10  1  0.75000000  0.09279100  0.64245800  1
  P  P11  1  0.75000000  0.59279100  0.85754200  1
