# generated using pymatgen
data_Er6Al41Cr6
_symmetry_space_group_name_H-M   'P 1'
_cell_length_a   10.84593368
_cell_length_b   10.84593368
_cell_length_c   17.42144800
_cell_angle_alpha   90.00000000
_cell_angle_beta   90.00000000
_cell_angle_gamma   119.99999804
_symmetry_Int_Tables_number   1
_chemical_formula_structural   Er6Al41Cr6
_chemical_formula_sum   'Er12 Al82 Cr12'
_cell_volume   1774.79737671
_cell_formula_units_Z   2
loop_
 _symmetry_equiv_pos_site_id
 _symmetry_equiv_pos_as_xyz
  1  'x, y, z'
loop_
 _atom_site_type_symbol
 _atom_site_label
 _atom_site_symmetry_multiplicity
 _atom_site_fract_x
 _atom_site_fract_y
 _atom_site_fract_z
 _atom_site_occupancy
  Er  Er0  1  0.00000000  0.53277200  0.40235600  1
  Er  Er1  1  0.46722800  0.46722800  0.40235600  1
  Er  Er2  1  0.53277200  0.00000000  0.40235600  1
  Er  Er3  1  0.00000000  0.46722800  0.59764400  1
  Er  Er4  1  0.53277200  0.53277200  0.59764400  1
  Er  Er5  1  0.46722800  0.00000000  0.59764400  1
  Er  Er6  1  0.00000000  0.46454500  0.90429600  1
  Er  Er7  1  0.53545500  0.53545500  0.90429600  1
  Er  Er8  1  0.46454500  0.00000000  0.90429600  1
  Er  Er9  1  0.00000000  0.53545500  0.09570400  1
  Er  Er10  1  0.46454500  0.46454500  0.09570400  1
  Er  Er11  1  0.53545500  0.00000000  0.09570400  1
  Al  Al12  1  0.00000000  0.74911600  0.97155400  1
  Al  Al13  1  0.25088400  0.25088400  0.97155400  1
  Al  Al14  1  0.74911600  0.00000000  0.97155400  1
  Al  Al15  1  0.00000000  0.25088400  0.02844600  1
  Al  Al16  1  0.74911600  0.74911600  0.02844600  1
  Al  Al17  1  0.25088400  0.00000000  0.02844600  1
  Al  Al18  1  0.00000000  0.25172800  0.46951000  1
  Al  Al19  1  0.74827200  0.74827200  0.46951000  1
  Al  Al20  1  0.25172800  0.00000000  0.46951000  1
  Al  Al21  1  0.00000000  0.74827200  0.53049000  1
  Al  Al22  1  0.25172800  0.25172800  0.53049000  1
  Al  Al23  1  0.74827200  0.00000000  0.53049000  1
  Al  Al24  1  0.60799600  0.76724100  0.33527100  1
  Al  Al25  1  0.23275900  0.84075600  0.33527100  1
  Al  Al26  1  0.15924400  0.39200400  0.33527100  1
  Al  Al27  1  0.39200400  0.15924400  0.33527100  1
  Al  Al28  1  0.76724100  0.60799600  0.33527100  1
  Al  Al29  1  0.84075600  0.23275900  0.33527100  1
  Al  Al30  1  0.39200400  0.23275900  0.66472900  1
  Al  Al31  1  0.76724100  0.15924400  0.66472900  1
  Al  Al32  1  0.84075600  0.60799600  0.66472900  1
  Al  Al33  1  0.60799600  0.84075600  0.66472900  1
  Al  Al34  1  0.23275900  0.39200400  0.66472900  1
  Al  Al35  1  0.15924400  0.76724100  0.66472900  1
  Al  Al36  1  0.39924100  0.23430900  0.83877100  1
  Al  Al37  1  0.76569100  0.16493200  0.83877100  1
  Al  Al38  1  0.83506800  0.60075900  0.83877100  1
  Al  Al39  1  0.60075900  0.83506800  0.83877100  1
  Al  Al40  1  0.23430900  0.39924100  0.83877100  1
  Al  Al41  1  0.16493200  0.76569100  0.83877100  1
  Al  Al42  1  0.60075900  0.76569100  0.16122900  1
  Al  Al43  1  0.23430900  0.83506800  0.16122900  1
  Al  Al44  1  0.16493200  0.39924100  0.16122900  1
  Al  Al45  1  0.39924100  0.16493200  0.16122900  1
  Al  Al46  1  0.76569100  0.60075900  0.16122900  1
  Al  Al47  1  0.83506800  0.23430900  0.16122900  1
  Al  Al48  1  0.00000000  0.14958100  0.24862100  1
  Al  Al49  1  0.85041900  0.85041900  0.24862100  1
  Al  Al50  1  0.14958100  0.00000000  0.24862100  1
  Al  Al51  1  0.00000000  0.85041900  0.75137900  1
  Al  Al52  1  0.14958100  0.14958100  0.75137900  1
  Al  Al53  1  0.85041900  0.00000000  0.75137900  1
  Al  Al54  1  0.45320500  0.85020300  0.24690400  1
  Al  Al55  1  0.14979700  0.60300200  0.24690400  1
  Al  Al56  1  0.39699800  0.54679500  0.24690400  1
  Al  Al57  1  0.54679500  0.39699800  0.24690400  1
  Al  Al58  1  0.85020300  0.45320500  0.24690400  1
  Al  Al59  1  0.60300200  0.14979700  0.24690400  1
  Al  Al60  1  0.54679500  0.14979700  0.75309600  1
  Al  Al61  1  0.85020300  0.39699800  0.75309600  1
  Al  Al62  1  0.60300200  0.45320500  0.75309600  1
  Al  Al63  1  0.45320500  0.60300200  0.75309600  1
  Al  Al64  1  0.14979700  0.54679500  0.75309600  1
  Al  Al65  1  0.39699800  0.85020300  0.75309600  1
  Al  Al66  1  0.50558000  0.75279000  0.50000000  1
  Al  Al67  1  0.24721000  0.75279000  0.50000000  1
  Al  Al68  1  0.24721000  0.49442000  0.50000000  1
  Al  Al69  1  0.49442000  0.24721000  0.50000000  1
  Al  Al70  1  0.75279000  0.50558000  0.50000000  1
  Al  Al71  1  0.75279000  0.24721000  0.50000000  1
  Al  Al72  1  0.50392400  0.25196200  0.00000000  1
  Al  Al73  1  0.74803800  0.25196200  0.00000000  1
  Al  Al74  1  0.74803800  0.49607600  0.00000000  1
  Al  Al75  1  0.49607600  0.74803800  0.00000000  1
  Al  Al76  1  0.25196200  0.50392400  0.00000000  1
  Al  Al77  1  0.25196200  0.74803800  0.00000000  1
  Al  Al78  1  0.00000000  0.84501100  0.38456600  1
  Al  Al79  1  0.15498900  0.15498900  0.38456600  1
  Al  Al80  1  0.84501100  0.00000000  0.38456600  1
  Al  Al81  1  0.00000000  0.15498900  0.61543400  1
  Al  Al82  1  0.84501100  0.84501100  0.61543400  1
  Al  Al83  1  0.15498900  0.00000000  0.61543400  1
  Al  Al84  1  0.00000000  0.15504300  0.88405100  1
  Al  Al85  1  0.84495700  0.84495700  0.88405100  1
  Al  Al86  1  0.15504300  0.00000000  0.88405100  1
  Al  Al87  1  0.00000000  0.84495700  0.11594900  1
  Al  Al88  1  0.15504300  0.15504300  0.11594900  1
  Al  Al89  1  0.84495700  0.00000000  0.11594900  1
  Al  Al90  1  0.33333300  0.66666700  0.37312200  1
  Al  Al91  1  0.66666700  0.33333300  0.37312200  1
  Al  Al92  1  0.66666700  0.33333300  0.62687800  1
  Al  Al93  1  0.33333300  0.66666700  0.62687800  1
  Cr  Cr94  1  0.00000000  0.00000000  0.50000000  1
  Cr  Cr95  1  0.00000000  0.00000000  0.00000000  1
  Cr  Cr96  1  0.00000000  0.73818500  0.25146300  1
  Cr  Cr97  1  0.26181500  0.26181500  0.25146300  1
  Cr  Cr98  1  0.73818500  0.00000000  0.25146300  1
  Cr  Cr99  1  0.00000000  0.26181500  0.74853700  1
  Cr  Cr100  1  0.73818500  0.73818500  0.74853700  1
  Cr  Cr101  1  0.26181500  0.00000000  0.74853700  1
  Cr  Cr102  1  0.66666700  0.33333300  0.86569500  1
  Cr  Cr103  1  0.33333300  0.66666700  0.86569500  1
  Cr  Cr104  1  0.33333300  0.66666700  0.13430500  1
  Cr  Cr105  1  0.66666700  0.33333300  0.13430500  1
