# generated using pymatgen
data_Dy14Au51
_symmetry_space_group_name_H-M   'P 1'
_cell_length_a   12.80738855
_cell_length_b   12.80738855
_cell_length_c   9.26497900
_cell_angle_alpha   90.00000000
_cell_angle_beta   90.00000000
_cell_angle_gamma   120.00000284
_symmetry_Int_Tables_number   1
_chemical_formula_structural   Dy14Au51
_chemical_formula_sum   'Dy14 Au51'
_cell_volume   1316.12224391
_cell_formula_units_Z   1
loop_
 _symmetry_equiv_pos_site_id
 _symmetry_equiv_pos_as_xyz
  1  'x, y, z'
loop_
 _atom_site_type_symbol
 _atom_site_label
 _atom_site_symmetry_multiplicity
 _atom_site_fract_x
 _atom_site_fract_y
 _atom_site_fract_z
 _atom_site_occupancy
  Dy  Dy0  1  0.80515400  0.00895700  0.50000000  1
  Dy  Dy1  1  0.99104300  0.79619700  0.50000000  1
  Dy  Dy2  1  0.20380300  0.19484600  0.50000000  1
  Dy  Dy3  1  0.52690400  0.65748600  0.50000000  1
  Dy  Dy4  1  0.34251400  0.86941800  0.50000000  1
  Dy  Dy5  1  0.13058200  0.47309600  0.50000000  1
  Dy  Dy6  1  0.05249000  0.60481200  0.00000000  1
  Dy  Dy7  1  0.39518800  0.44767800  0.00000000  1
  Dy  Dy8  1  0.55232200  0.94751000  0.00000000  1
  Dy  Dy9  1  0.26544100  0.04932800  0.00000000  1
  Dy  Dy10  1  0.95067200  0.21611300  0.00000000  1
  Dy  Dy11  1  0.78388700  0.73455900  0.00000000  1
  Dy  Dy12  1  0.66666700  0.33333300  0.30001900  1
  Dy  Dy13  1  0.66666700  0.33333300  0.69998100  1
  Au  Au14  1  0.78235700  0.95565200  0.15212800  1
  Au  Au15  1  0.04434800  0.82670500  0.15212800  1
  Au  Au16  1  0.17329500  0.21764300  0.15212800  1
  Au  Au17  1  0.55007100  0.71370800  0.15076000  1
  Au  Au18  1  0.28629200  0.83636200  0.15076000  1
  Au  Au19  1  0.16363800  0.44992900  0.15076000  1
  Au  Au20  1  0.55007100  0.71370800  0.84924000  1
  Au  Au21  1  0.28629200  0.83636200  0.84924000  1
  Au  Au22  1  0.16363800  0.44992900  0.84924000  1
  Au  Au23  1  0.78235700  0.95565200  0.84787200  1
  Au  Au24  1  0.04434800  0.82670500  0.84787200  1
  Au  Au25  1  0.17329500  0.21764300  0.84787200  1
  Au  Au26  1  0.00000000  0.00000000  0.00000000  1
  Au  Au27  1  0.33333300  0.66666700  0.00000000  1
  Au  Au28  1  0.10922400  0.67152900  0.33770600  1
  Au  Au29  1  0.32847100  0.43769500  0.33770600  1
  Au  Au30  1  0.56230500  0.89077600  0.33770600  1
  Au  Au31  1  0.22265800  0.99425800  0.33810400  1
  Au  Au32  1  0.00574200  0.22840000  0.33810400  1
  Au  Au33  1  0.77160000  0.77734200  0.33810400  1
  Au  Au34  1  0.22265800  0.99425800  0.66189600  1
  Au  Au35  1  0.00574200  0.22840000  0.66189600  1
  Au  Au36  1  0.77160000  0.77734200  0.66189600  1
  Au  Au37  1  0.10922400  0.67152900  0.66229400  1
  Au  Au38  1  0.32847100  0.43769500  0.66229400  1
  Au  Au39  1  0.56230500  0.89077600  0.66229400  1
  Au  Au40  1  0.93825800  0.41210300  0.23458500  1
  Au  Au41  1  0.58789700  0.52615500  0.23458500  1
  Au  Au42  1  0.47384500  0.06174200  0.23458500  1
  Au  Au43  1  0.40226000  0.26109400  0.22630900  1
  Au  Au44  1  0.73890600  0.14116700  0.22630900  1
  Au  Au45  1  0.85883300  0.59774000  0.22630900  1
  Au  Au46  1  0.40226000  0.26109400  0.77369100  1
  Au  Au47  1  0.73890600  0.14116700  0.77369100  1
  Au  Au48  1  0.85883300  0.59774000  0.77369100  1
  Au  Au49  1  0.93825800  0.41210300  0.76541500  1
  Au  Au50  1  0.58789700  0.52615500  0.76541500  1
  Au  Au51  1  0.47384500  0.06174200  0.76541500  1
  Au  Au52  1  0.00000000  0.00000000  0.31673500  1
  Au  Au53  1  0.33333300  0.66666700  0.31741600  1
  Au  Au54  1  0.33333300  0.66666700  0.68258400  1
  Au  Au55  1  0.00000000  0.00000000  0.68326500  1
  Au  Au56  1  0.90339300  0.50931400  0.50000000  1
  Au  Au57  1  0.49068600  0.39407900  0.50000000  1
  Au  Au58  1  0.60592100  0.09660700  0.50000000  1
  Au  Au59  1  0.42743900  0.15655000  0.50000000  1
  Au  Au60  1  0.84345000  0.27088900  0.50000000  1
  Au  Au61  1  0.72911100  0.57256100  0.50000000  1
  Au  Au62  1  0.78005900  0.30799200  0.00000000  1
  Au  Au63  1  0.69200800  0.47206800  0.00000000  1
  Au  Au64  1  0.52793200  0.21994100  0.00000000  1
