# generated using pymatgen
data_Ba(GaO2)2
_symmetry_space_group_name_H-M   'P 1'
_cell_length_a   10.86038672
_cell_length_b   10.86038672
_cell_length_c   9.00193200
_cell_angle_alpha   90.00000000
_cell_angle_beta   90.00000000
_cell_angle_gamma   120.00000437
_symmetry_Int_Tables_number   1
_chemical_formula_structural   Ba(GaO2)2
_chemical_formula_sum   'Ba8 Ga16 O32'
_cell_volume   919.51098179
_cell_formula_units_Z   8
loop_
 _symmetry_equiv_pos_site_id
 _symmetry_equiv_pos_as_xyz
  1  'x, y, z'
loop_
 _atom_site_type_symbol
 _atom_site_label
 _atom_site_symmetry_multiplicity
 _atom_site_fract_x
 _atom_site_fract_y
 _atom_site_fract_z
 _atom_site_occupancy
  Ba  Ba0  1  0.49575400  0.51592100  0.22458200  1
  Ba  Ba1  1  0.02016700  0.50424600  0.22458200  1
  Ba  Ba2  1  0.48407900  0.97983300  0.22458200  1
  Ba  Ba3  1  0.50424600  0.48407900  0.72458200  1
  Ba  Ba4  1  0.97983300  0.49575400  0.72458200  1
  Ba  Ba5  1  0.51592100  0.02016700  0.72458200  1
  Ba  Ba6  1  0.00000000  0.00000000  0.23669200  1
  Ba  Ba7  1  0.00000000  0.00000000  0.73669200  1
  Ga  Ga8  1  0.84671200  0.17322600  0.02735800  1
  Ga  Ga9  1  0.32651400  0.15328800  0.02735800  1
  Ga  Ga10  1  0.82677400  0.67348600  0.02735800  1
  Ga  Ga11  1  0.15328800  0.82677400  0.52735800  1
  Ga  Ga12  1  0.67348600  0.84671200  0.52735800  1
  Ga  Ga13  1  0.17322600  0.32651400  0.52735800  1
  Ga  Ga14  1  0.84442200  0.17402000  0.41618000  1
  Ga  Ga15  1  0.32959900  0.15557800  0.41618000  1
  Ga  Ga16  1  0.82598000  0.67040100  0.41618000  1
  Ga  Ga17  1  0.15557800  0.82598000  0.91618000  1
  Ga  Ga18  1  0.67040100  0.84442200  0.91618000  1
  Ga  Ga19  1  0.17402000  0.32959900  0.91618000  1
  Ga  Ga20  1  0.66666700  0.33333300  0.94214800  1
  Ga  Ga21  1  0.33333300  0.66666700  0.44214800  1
  Ga  Ga22  1  0.66666700  0.33333300  0.52170300  1
  Ga  Ga23  1  0.33333300  0.66666700  0.02170300  1
  O  O24  1  0.67738400  0.67690800  0.92475200  1
  O  O25  1  0.99952300  0.32261600  0.92475200  1
  O  O26  1  0.32309200  0.00047700  0.92475200  1
  O  O27  1  0.32261600  0.32309200  0.42475200  1
  O  O28  1  0.00047700  0.67738400  0.42475200  1
  O  O29  1  0.67690800  0.99952300  0.42475200  1
  O  O30  1  0.33162600  0.50063300  0.97296400  1
  O  O31  1  0.16900700  0.66837400  0.97296400  1
  O  O32  1  0.49936700  0.83099300  0.97296400  1
  O  O33  1  0.66837400  0.49936700  0.47296400  1
  O  O34  1  0.83099300  0.33162600  0.47296400  1
  O  O35  1  0.50063300  0.16900700  0.47296400  1
  O  O36  1  0.16664800  0.17139100  0.00294200  1
  O  O37  1  0.00474300  0.83335200  0.00294200  1
  O  O38  1  0.82860900  0.99525700  0.00294200  1
  O  O39  1  0.83335200  0.82860900  0.50294200  1
  O  O40  1  0.99525700  0.16664800  0.50294200  1
  O  O41  1  0.17139100  0.00474300  0.50294200  1
  O  O42  1  0.91202900  0.22082900  0.22149100  1
  O  O43  1  0.30880000  0.08797100  0.22149100  1
  O  O44  1  0.77917100  0.69120000  0.22149100  1
  O  O45  1  0.08797100  0.77917100  0.72149100  1
  O  O46  1  0.69120000  0.91202900  0.72149100  1
  O  O47  1  0.22082900  0.30880000  0.72149100  1
  O  O48  1  0.66666700  0.33333300  0.73249200  1
  O  O49  1  0.33333300  0.66666700  0.23249200  1
  O  O50  1  0.67533000  0.17174900  0.99505500  1
  O  O51  1  0.49641900  0.32467000  0.99505500  1
  O  O52  1  0.82825100  0.50358100  0.99505500  1
  O  O53  1  0.32467000  0.82825100  0.49505500  1
  O  O54  1  0.50358100  0.67533000  0.49505500  1
  O  O55  1  0.17174900  0.49641900  0.49505500  1
