# generated using pymatgen
data_K3Ba3Li2Al4B6O20F
_symmetry_space_group_name_H-M   'P 1'
_cell_length_a   8.86765345
_cell_length_b   8.86765345
_cell_length_c   16.68983300
_cell_angle_alpha   90.00000000
_cell_angle_beta   90.00000000
_cell_angle_gamma   119.99999589
_symmetry_Int_Tables_number   1
_chemical_formula_structural   K3Ba3Li2Al4B6O20F
_chemical_formula_sum   'K6 Ba6 Li4 Al8 B12 O40 F2'
_cell_volume   1136.58014643
_cell_formula_units_Z   2
loop_
 _symmetry_equiv_pos_site_id
 _symmetry_equiv_pos_as_xyz
  1  'x, y, z'
loop_
 _atom_site_type_symbol
 _atom_site_label
 _atom_site_symmetry_multiplicity
 _atom_site_fract_x
 _atom_site_fract_y
 _atom_site_fract_z
 _atom_site_occupancy
  K  K0  1  0.00000000  0.29471700  0.50000000  1
  K  K1  1  0.70528300  0.70528300  0.50000000  1
  K  K2  1  0.29471700  0.00000000  0.50000000  1
  K  K3  1  0.00000000  0.29471700  0.00000000  1
  K  K4  1  0.70528300  0.70528300  0.00000000  1
  K  K5  1  0.29471700  0.00000000  0.00000000  1
  Ba  Ba6  1  0.98784200  0.30390100  0.25000000  1
  Ba  Ba7  1  0.69609900  0.68394100  0.25000000  1
  Ba  Ba8  1  0.31605900  0.01215800  0.25000000  1
  Ba  Ba9  1  0.30390100  0.98784200  0.75000000  1
  Ba  Ba10  1  0.68394100  0.69609900  0.75000000  1
  Ba  Ba11  1  0.01215800  0.31605900  0.75000000  1
  Li  Li12  1  0.00000000  0.00000000  0.11336400  1
  Li  Li13  1  0.00000000  0.00000000  0.38663600  1
  Li  Li14  1  0.00000000  0.00000000  0.61336400  1
  Li  Li15  1  0.00000000  0.00000000  0.88663600  1
  Al  Al16  1  0.66666700  0.33333300  0.10340600  1
  Al  Al17  1  0.66666700  0.33333300  0.39659400  1
  Al  Al18  1  0.33333300  0.66666700  0.60340600  1
  Al  Al19  1  0.33333300  0.66666700  0.89659400  1
  Al  Al20  1  0.33333300  0.66666700  0.10407100  1
  Al  Al21  1  0.33333300  0.66666700  0.39592900  1
  Al  Al22  1  0.66666700  0.33333300  0.60407100  1
  Al  Al23  1  0.66666700  0.33333300  0.89592900  1
  B  B24  1  0.64962400  0.99452900  0.14177800  1
  B  B25  1  0.00547100  0.65509500  0.14177800  1
  B  B26  1  0.34490500  0.35037600  0.14177800  1
  B  B27  1  0.64962400  0.99452900  0.35822200  1
  B  B28  1  0.00547100  0.65509500  0.35822200  1
  B  B29  1  0.34490500  0.35037600  0.35822200  1
  B  B30  1  0.99452900  0.64962400  0.64177800  1
  B  B31  1  0.65509500  0.00547100  0.64177800  1
  B  B32  1  0.35037600  0.34490500  0.64177800  1
  B  B33  1  0.99452900  0.64962400  0.85822200  1
  B  B34  1  0.65509500  0.00547100  0.85822200  1
  B  B35  1  0.35037600  0.34490500  0.85822200  1
  O  O36  1  0.46830200  0.88251500  0.14047400  1
  O  O37  1  0.11748500  0.58578700  0.14047400  1
  O  O38  1  0.41421300  0.53169800  0.14047400  1
  O  O39  1  0.46830200  0.88251500  0.35952600  1
  O  O40  1  0.11748500  0.58578700  0.35952600  1
  O  O41  1  0.41421300  0.53169800  0.35952600  1
  O  O42  1  0.88251500  0.46830200  0.64047400  1
  O  O43  1  0.58578700  0.11748500  0.64047400  1
  O  O44  1  0.53169800  0.41421300  0.64047400  1
  O  O45  1  0.88251500  0.46830200  0.85952600  1
  O  O46  1  0.58578700  0.11748500  0.85952600  1
  O  O47  1  0.53169800  0.41421300  0.85952600  1
  O  O48  1  0.70819100  0.17341500  0.14350400  1
  O  O49  1  0.82658500  0.53477600  0.14350400  1
  O  O50  1  0.46522400  0.29180900  0.14350400  1
  O  O51  1  0.70819100  0.17341500  0.35649600  1
  O  O52  1  0.82658500  0.53477600  0.35649600  1
  O  O53  1  0.46522400  0.29180900  0.35649600  1
  O  O54  1  0.17341500  0.70819100  0.64350400  1
  O  O55  1  0.53477600  0.82658500  0.64350400  1
  O  O56  1  0.29180900  0.46522400  0.64350400  1
  O  O57  1  0.17341500  0.70819100  0.85649600  1
  O  O58  1  0.53477600  0.82658500  0.85649600  1
  O  O59  1  0.29180900  0.46522400  0.85649600  1
  O  O60  1  0.33333300  0.66666700  0.00004100  1
  O  O61  1  0.33333300  0.66666700  0.49995900  1
  O  O62  1  0.66666700  0.33333300  0.50004100  1
  O  O63  1  0.66666700  0.33333300  0.99995900  1
  O  O64  1  0.76577800  0.93855500  0.14638600  1
  O  O65  1  0.06144500  0.82722300  0.14638600  1
  O  O66  1  0.17277700  0.23422200  0.14638600  1
  O  O67  1  0.76577800  0.93855500  0.35361400  1
  O  O68  1  0.06144500  0.82722300  0.35361400  1
  O  O69  1  0.17277700  0.23422200  0.35361400  1
  O  O70  1  0.93855500  0.76577800  0.64638600  1
  O  O71  1  0.82722300  0.06144500  0.64638600  1
  O  O72  1  0.23422200  0.17277700  0.64638600  1
  O  O73  1  0.93855500  0.76577800  0.85361400  1
  O  O74  1  0.82722300  0.06144500  0.85361400  1
  O  O75  1  0.23422200  0.17277700  0.85361400  1
  F  F76  1  0.00000000  0.00000000  0.00000000  1
  F  F77  1  0.00000000  0.00000000  0.50000000  1
