# generated using pymatgen
data_Lu2Si9B36C
_symmetry_space_group_name_H-M   'P 1'
_cell_length_a   8.02413363
_cell_length_b   8.02413363
_cell_length_c   7.98869484
_cell_angle_alpha   78.05521411
_cell_angle_beta   78.05521411
_cell_angle_gamma   78.04714402
_symmetry_Int_Tables_number   1
_chemical_formula_structural   Lu2Si9B36C
_chemical_formula_sum   'Lu2 Si9 B36 C1'
_cell_volume   485.02758259
_cell_formula_units_Z   1
loop_
 _symmetry_equiv_pos_site_id
 _symmetry_equiv_pos_as_xyz
  1  'x, y, z'
loop_
 _atom_site_type_symbol
 _atom_site_label
 _atom_site_symmetry_multiplicity
 _atom_site_fract_x
 _atom_site_fract_y
 _atom_site_fract_z
 _atom_site_occupancy
  Lu  Lu0  1  0.00010000  0.50051000  0.50057300  1
  Lu  Lu1  1  0.50051000  0.00010000  0.50057300  1
  Si  Si2  1  0.42839900  0.42839900  0.42713200  1
  Si  Si3  1  0.57041700  0.57041700  0.57197400  1
  Si  Si4  1  0.26600500  0.65553400  0.25504200  1
  Si  Si5  1  0.26259200  0.26259200  0.66099100  1
  Si  Si6  1  0.65553400  0.26600500  0.25504200  1
  Si  Si7  1  0.73405700  0.34565100  0.74478000  1
  Si  Si8  1  0.73712900  0.73712900  0.34049100  1
  Si  Si9  1  0.34565100  0.73405700  0.74478000  1
  Si  Si10  1  0.04469800  0.04469800  0.04282400  1
  B  B11  1  0.42082200  0.10716000  0.82329900  1
  B  B12  1  0.82015600  0.41978100  0.10674900  1
  B  B13  1  0.10896300  0.81912900  0.41881700  1
  B  B14  1  0.81912900  0.10896300  0.41881700  1
  B  B15  1  0.41978100  0.82015600  0.10674900  1
  B  B16  1  0.10716000  0.42082200  0.82329900  1
  B  B17  1  0.58746500  0.89190300  0.17209100  1
  B  B18  1  0.17523900  0.58840600  0.89232200  1
  B  B19  1  0.89000400  0.17659500  0.58918100  1
  B  B20  1  0.17659500  0.89000400  0.58918100  1
  B  B21  1  0.58840600  0.17523900  0.89232200  1
  B  B22  1  0.89190300  0.58746500  0.17209100  1
  B  B23  1  0.44562100  0.87379100  0.87409500  1
  B  B24  1  0.87379100  0.44562100  0.87409500  1
  B  B25  1  0.87408500  0.87408500  0.44489400  1
  B  B26  1  0.56266600  0.12246900  0.12222300  1
  B  B27  1  0.12246900  0.56266600  0.12222300  1
  B  B28  1  0.12198300  0.12198300  0.56361400  1
  B  B29  1  0.37404400  0.20135300  0.01924100  1
  B  B30  1  0.01890100  0.37465300  0.19737000  1
  B  B31  1  0.19821000  0.01793200  0.37407500  1
  B  B32  1  0.01793200  0.19821000  0.37407500  1
  B  B33  1  0.37465300  0.01890100  0.19737000  1
  B  B34  1  0.20135300  0.37404400  0.01924100  1
  B  B35  1  0.62797000  0.79571600  0.97767200  1
  B  B36  1  0.97822100  0.62776400  0.79914800  1
  B  B37  1  0.79840200  0.97917200  0.62812700  1
  B  B38  1  0.97917200  0.79840200  0.62812700  1
  B  B39  1  0.62776400  0.97822100  0.79914800  1
  B  B40  1  0.79571600  0.62797000  0.97767200  1
  B  B41  1  0.29628800  0.00597900  0.00586100  1
  B  B42  1  0.00597900  0.29628800  0.00586100  1
  B  B43  1  0.00550400  0.00550400  0.29500400  1
  B  B44  1  0.72306600  0.98192800  0.98215600  1
  B  B45  1  0.98192800  0.72306600  0.98215600  1
  B  B46  1  0.98221100  0.98221100  0.72487200  1
  C  C47  1  0.93218800  0.93218800  0.93355100  1
