# generated using pymatgen
data_Dy2Mn12P7
_symmetry_space_group_name_H-M   'P 1'
_cell_length_a   9.30271071
_cell_length_b   9.30271071
_cell_length_c   3.60245600
_cell_angle_alpha   90.00000000
_cell_angle_beta   90.00000000
_cell_angle_gamma   120.00000503
_symmetry_Int_Tables_number   1
_chemical_formula_structural   Dy2Mn12P7
_chemical_formula_sum   'Dy2 Mn12 P7'
_cell_volume   269.99040228
_cell_formula_units_Z   1
loop_
 _symmetry_equiv_pos_site_id
 _symmetry_equiv_pos_as_xyz
  1  'x, y, z'
loop_
 _atom_site_type_symbol
 _atom_site_label
 _atom_site_symmetry_multiplicity
 _atom_site_fract_x
 _atom_site_fract_y
 _atom_site_fract_z
 _atom_site_occupancy
  Dy  Dy0  1  0.66666700  0.33333300  0.00000000  1
  Dy  Dy1  1  0.33333300  0.66666700  0.50000000  1
  Mn  Mn2  1  0.37629800  0.95117500  0.00000000  1
  Mn  Mn3  1  0.04882500  0.42512300  0.00000000  1
  Mn  Mn4  1  0.57487700  0.62370200  0.00000000  1
  Mn  Mn5  1  0.87921200  0.72325000  0.00000000  1
  Mn  Mn6  1  0.27675000  0.15596200  0.00000000  1
  Mn  Mn7  1  0.84403800  0.12078800  0.00000000  1
  Mn  Mn8  1  0.95502800  0.56355500  0.50000000  1
  Mn  Mn9  1  0.43644500  0.39147300  0.50000000  1
  Mn  Mn10  1  0.60852700  0.04497200  0.50000000  1
  Mn  Mn11  1  0.12304400  0.89618400  0.50000000  1
  Mn  Mn12  1  0.10381600  0.22686000  0.50000000  1
  Mn  Mn13  1  0.77314000  0.87695600  0.50000000  1
  P  P14  1  0.11921200  0.70857700  0.00000000  1
  P  P15  1  0.29142300  0.41063500  0.00000000  1
  P  P16  1  0.58936500  0.88078800  0.00000000  1
  P  P17  1  0.71814100  0.59197400  0.50000000  1
  P  P18  1  0.40802600  0.12616800  0.50000000  1
  P  P19  1  0.87383200  0.28185900  0.50000000  1
  P  P20  1  0.00000000  0.00000000  0.00000000  1
