# generated using pymatgen
data_Cs6Ho21S34Cl
_symmetry_space_group_name_H-M   'P 1'
_cell_length_a   13.06356854
_cell_length_b   13.06356854
_cell_length_c   13.07102321
_cell_angle_alpha   65.58829692
_cell_angle_beta   65.58829692
_cell_angle_gamma   97.29911476
_symmetry_Int_Tables_number   1
_chemical_formula_structural   Cs6Ho21S34Cl
_chemical_formula_sum   'Cs6 Ho21 S34 Cl1'
_cell_volume   1726.18758443
_cell_formula_units_Z   1
loop_
 _symmetry_equiv_pos_site_id
 _symmetry_equiv_pos_as_xyz
  1  'x, y, z'
loop_
 _atom_site_type_symbol
 _atom_site_label
 _atom_site_symmetry_multiplicity
 _atom_site_fract_x
 _atom_site_fract_y
 _atom_site_fract_z
 _atom_site_occupancy
  Cs  Cs0  1  0.05152900  0.80598000  0.72927700  1
  Cs  Cs1  1  0.80598000  0.05152900  0.72927700  1
  Cs  Cs2  1  0.94847100  0.19402000  0.27072300  1
  Cs  Cs3  1  0.19402000  0.94847100  0.27072300  1
  Cs  Cs4  1  0.76835400  0.76835400  0.58493500  1
  Cs  Cs5  1  0.23164600  0.23164600  0.41506500  1
  Ho  Ho6  1  0.69855400  0.30144600  0.00000000  1
  Ho  Ho7  1  0.30144600  0.69855400  0.00000000  1
  Ho  Ho8  1  0.04541800  0.46304300  0.75132300  1
  Ho  Ho9  1  0.46304300  0.04541800  0.75132300  1
  Ho  Ho10  1  0.95458200  0.53695700  0.24867700  1
  Ho  Ho11  1  0.53695700  0.95458200  0.24867700  1
  Ho  Ho12  1  0.82858300  0.42744100  0.62316100  1
  Ho  Ho13  1  0.42744100  0.82858300  0.62316100  1
  Ho  Ho14  1  0.17141700  0.57255900  0.37683900  1
  Ho  Ho15  1  0.57255900  0.17141700  0.37683900  1
  Ho  Ho16  1  0.90043200  0.09956800  0.00000000  1
  Ho  Ho17  1  0.09956800  0.90043200  0.00000000  1
  Ho  Ho18  1  0.26110900  0.46530100  0.89339400  1
  Ho  Ho19  1  0.46530100  0.26110900  0.89339400  1
  Ho  Ho20  1  0.73889100  0.53469900  0.10660600  1
  Ho  Ho21  1  0.53469900  0.73889100  0.10660600  1
  Ho  Ho22  1  0.39974900  0.60025100  0.50000000  1
  Ho  Ho23  1  0.60025100  0.39974900  0.50000000  1
  Ho  Ho24  1  0.50000000  0.50000000  0.00000000  1
  Ho  Ho25  1  0.24338400  0.24338400  0.74302300  1
  Ho  Ho26  1  0.75661600  0.75661600  0.25697700  1
  S  S27  1  0.68244100  0.68244100  0.94168900  1
  S  S28  1  0.31755900  0.31755900  0.05831100  1
  S  S29  1  0.05867700  0.05867700  0.82109600  1
  S  S30  1  0.94132300  0.94132300  0.17890400  1
  S  S31  1  0.08936400  0.28998600  0.92237500  1
  S  S32  1  0.28998600  0.08936400  0.92237500  1
  S  S33  1  0.91063600  0.71001400  0.07762500  1
  S  S34  1  0.71001400  0.91063600  0.07762500  1
  S  S35  1  0.88167500  0.48592800  0.93604600  1
  S  S36  1  0.48592800  0.88167500  0.93604600  1
  S  S37  1  0.11832500  0.51407200  0.06395400  1
  S  S38  1  0.51407200  0.11832500  0.06395400  1
  S  S39  1  0.86713400  0.27357300  0.81425800  1
  S  S40  1  0.27357300  0.86713400  0.81425800  1
  S  S41  1  0.13286600  0.72642700  0.18574200  1
  S  S42  1  0.72642700  0.13286600  0.18574200  1
  S  S43  1  0.24582000  0.63227000  0.68926700  1
  S  S44  1  0.63227000  0.24582000  0.68926700  1
  S  S45  1  0.75418000  0.36773000  0.31073300  1
  S  S46  1  0.36773000  0.75418000  0.31073300  1
  S  S47  1  0.01272700  0.60798100  0.55822500  1
  S  S48  1  0.60798100  0.01272700  0.55822500  1
  S  S49  1  0.98727300  0.39201900  0.44177500  1
  S  S50  1  0.39201900  0.98727300  0.44177500  1
  S  S51  1  0.21339000  0.42237500  0.56324300  1
  S  S52  1  0.42237500  0.21339000  0.56324300  1
  S  S53  1  0.78661000  0.57762500  0.43675700  1
  S  S54  1  0.57762500  0.78661000  0.43675700  1
  S  S55  1  0.65057200  0.44927300  0.81933600  1
  S  S56  1  0.44927300  0.65057200  0.81933600  1
  S  S57  1  0.34942800  0.55072700  0.18066400  1
  S  S58  1  0.55072700  0.34942800  0.18066400  1
  S  S59  1  0.42531700  0.42531700  0.69238100  1
  S  S60  1  0.57468300  0.57468300  0.30761900  1
  Cl  Cl61  1  0.00000000  0.00000000  0.50000000  1
