# generated using pymatgen
data_Ba2V2CuF12
_symmetry_space_group_name_H-M   'P 1'
_cell_length_a   5.47874900
_cell_length_b   7.02532887
_cell_length_c   7.52745851
_cell_angle_alpha   65.49771536
_cell_angle_beta   70.32552621
_cell_angle_gamma   73.17286803
_symmetry_Int_Tables_number   1
_chemical_formula_structural   Ba2V2CuF12
_chemical_formula_sum   'Ba2 V2 Cu1 F12'
_cell_volume   244.42262214
_cell_formula_units_Z   1
loop_
 _symmetry_equiv_pos_site_id
 _symmetry_equiv_pos_as_xyz
  1  'x, y, z'
loop_
 _atom_site_type_symbol
 _atom_site_label
 _atom_site_symmetry_multiplicity
 _atom_site_fract_x
 _atom_site_fract_y
 _atom_site_fract_z
 _atom_site_occupancy
  Ba  Ba0  1  0.29824300  0.20282900  0.23549900  1
  Ba  Ba1  1  0.71620100  0.79658700  0.75969300  1
  V  V2  1  0.49362600  0.50040000  0.50508000  1
  V  V3  1  0.05411900  0.77972300  0.16354900  1
  Cu  Cu4  1  0.94793900  0.22848300  0.82830700  1
  F  F5  1  0.53405000  0.21881800  0.50302500  1
  F  F6  1  0.46912600  0.78911600  0.48801400  1
  F  F7  1  0.38951500  0.60984200  0.24006000  1
  F  F8  1  0.58461000  0.39473000  0.76398700  1
  F  F9  1  0.87819500  0.51864400  0.34391100  1
  F  F10  1  0.11766900  0.49860400  0.64537400  1
  F  F11  1  0.82706700  0.34325800  0.03485700  1
  F  F12  1  0.17838400  0.65207200  0.96090100  1
  F  F13  1  0.75006600  0.94530600  0.05648000  1
  F  F14  1  0.25902200  0.01830200  0.96929700  1
  F  F15  1  0.97912500  0.90751100  0.36155200  1
  F  F16  1  0.02304200  0.09577600  0.64041500  1
