# generated using pymatgen
data_Li5AuO4
_symmetry_space_group_name_H-M   'P 1'
_cell_length_a   5.36503115
_cell_length_b   5.36503115
_cell_length_c   4.77686826
_cell_angle_alpha   84.35449811
_cell_angle_beta   84.35449811
_cell_angle_gamma   127.13185256
_symmetry_Int_Tables_number   1
_chemical_formula_structural   Li5AuO4
_chemical_formula_sum   'Li5 Au1 O4'
_cell_volume   106.90795331
_cell_formula_units_Z   1
loop_
 _symmetry_equiv_pos_site_id
 _symmetry_equiv_pos_as_xyz
  1  'x, y, z'
loop_
 _atom_site_type_symbol
 _atom_site_label
 _atom_site_symmetry_multiplicity
 _atom_site_fract_x
 _atom_site_fract_y
 _atom_site_fract_z
 _atom_site_occupancy
  Li  Li0  1  0.79039800  0.20960200  0.50000000  1
  Li  Li1  1  0.28432700  0.71567300  0.00000000  1
  Li  Li2  1  0.71567300  0.28432700  0.00000000  1
  Li  Li3  1  0.20960200  0.79039800  0.50000000  1
  Li  Li4  1  0.00000000  0.00000000  0.00000000  1
  Au  Au5  1  0.50000000  0.50000000  0.50000000  1
  O  O6  1  0.59849600  0.89274500  0.25020000  1
  O  O7  1  0.10725500  0.40150400  0.74980000  1
  O  O8  1  0.89274500  0.59849600  0.25020000  1
  O  O9  1  0.40150400  0.10725500  0.74980000  1
