# generated using pymatgen
data_DyB2C
_symmetry_space_group_name_H-M   'P 1'
_cell_length_a   6.79446800
_cell_length_b   6.79446800
_cell_length_c   7.47912000
_cell_angle_alpha   90.00000000
_cell_angle_beta   90.00000000
_cell_angle_gamma   90.00000000
_symmetry_Int_Tables_number   1
_chemical_formula_structural   DyB2C
_chemical_formula_sum   'Dy8 B16 C8'
_cell_volume   345.27204459
_cell_formula_units_Z   8
loop_
 _symmetry_equiv_pos_site_id
 _symmetry_equiv_pos_as_xyz
  1  'x, y, z'
loop_
 _atom_site_type_symbol
 _atom_site_label
 _atom_site_symmetry_multiplicity
 _atom_site_fract_x
 _atom_site_fract_y
 _atom_site_fract_z
 _atom_site_occupancy
  Dy  Dy0  1  0.30966600  0.80966600  0.75000000  1
  Dy  Dy1  1  0.19033400  0.30966600  0.25000000  1
  Dy  Dy2  1  0.80966600  0.69033400  0.25000000  1
  Dy  Dy3  1  0.69033400  0.19033400  0.75000000  1
  Dy  Dy4  1  0.69033400  0.19033400  0.25000000  1
  Dy  Dy5  1  0.80966600  0.69033400  0.75000000  1
  Dy  Dy6  1  0.19033400  0.30966600  0.75000000  1
  Dy  Dy7  1  0.30966600  0.80966600  0.25000000  1
  B  B8  1  0.15170300  0.03466000  0.00000000  1
  B  B9  1  0.53466000  0.65170300  0.50000000  1
  B  B10  1  0.84829700  0.96534000  0.00000000  1
  B  B11  1  0.34829700  0.53466000  0.00000000  1
  B  B12  1  0.65170300  0.46534000  0.00000000  1
  B  B13  1  0.03466000  0.84829700  0.50000000  1
  B  B14  1  0.96534000  0.15170300  0.50000000  1
  B  B15  1  0.46534000  0.34829700  0.50000000  1
  B  B16  1  0.09700900  0.59492500  0.00000000  1
  B  B17  1  0.40507500  0.09700900  0.50000000  1
  B  B18  1  0.59492500  0.90299100  0.50000000  1
  B  B19  1  0.59700900  0.90507500  0.00000000  1
  B  B20  1  0.40299100  0.09492500  0.00000000  1
  B  B21  1  0.90299100  0.40507500  0.00000000  1
  B  B22  1  0.09492500  0.59700900  0.50000000  1
  B  B23  1  0.90507500  0.40299100  0.50000000  1
  C  C24  1  0.17735800  0.04045200  0.50000000  1
  C  C25  1  0.67735800  0.45954800  0.50000000  1
  C  C26  1  0.32264200  0.54045200  0.50000000  1
  C  C27  1  0.95954800  0.17735800  0.00000000  1
  C  C28  1  0.04045200  0.82264200  0.00000000  1
  C  C29  1  0.54045200  0.67735800  0.00000000  1
  C  C30  1  0.82264200  0.95954800  0.50000000  1
  C  C31  1  0.45954800  0.32264200  0.00000000  1
