# generated using pymatgen
data_CaH24(IN4)2
_symmetry_space_group_name_H-M   'P 1'
_cell_length_a   13.02398800
_cell_length_b   8.18200400
_cell_length_c   17.19217000
_cell_angle_alpha   90.00000000
_cell_angle_beta   90.00000000
_cell_angle_gamma   90.00000000
_symmetry_Int_Tables_number   1
_chemical_formula_structural   CaH24(IN4)2
_chemical_formula_sum   'Ca4 H96 I8 N32'
_cell_volume   1832.03755391
_cell_formula_units_Z   4
loop_
 _symmetry_equiv_pos_site_id
 _symmetry_equiv_pos_as_xyz
  1  'x, y, z'
loop_
 _atom_site_type_symbol
 _atom_site_label
 _atom_site_symmetry_multiplicity
 _atom_site_fract_x
 _atom_site_fract_y
 _atom_site_fract_z
 _atom_site_occupancy
  Ca  Ca0  1  0.73626800  0.25000000  0.63858000  1
  Ca  Ca1  1  0.23626800  0.25000000  0.86142000  1
  Ca  Ca2  1  0.26373200  0.75000000  0.36142000  1
  Ca  Ca3  1  0.76373200  0.75000000  0.13858000  1
  H  H4  1  0.62185000  0.93709600  0.58584000  1
  H  H5  1  0.12185000  0.56290400  0.91416000  1
  H  H6  1  0.37815000  0.43709600  0.41416000  1
  H  H7  1  0.87815000  0.06290400  0.08584000  1
  H  H8  1  0.37815000  0.06290400  0.41416000  1
  H  H9  1  0.87815000  0.43709600  0.08584000  1
  H  H10  1  0.62185000  0.56290400  0.58584000  1
  H  H11  1  0.12185000  0.93709600  0.91416000  1
  H  H12  1  0.59469400  0.94969900  0.67926000  1
  H  H13  1  0.09469400  0.55030100  0.82074000  1
  H  H14  1  0.40530600  0.44969900  0.32074000  1
  H  H15  1  0.90530600  0.05030100  0.17926000  1
  H  H16  1  0.40530600  0.05030100  0.32074000  1
  H  H17  1  0.90530600  0.44969900  0.17926000  1
  H  H18  1  0.59469400  0.55030100  0.67926000  1
  H  H19  1  0.09469400  0.94969900  0.82074000  1
  H  H20  1  0.53313500  0.06353900  0.61569800  1
  H  H21  1  0.03313500  0.43646100  0.88430200  1
  H  H22  1  0.46686500  0.56353900  0.38430200  1
  H  H23  1  0.96686500  0.93646100  0.11569800  1
  H  H24  1  0.46686500  0.93646100  0.38430200  1
  H  H25  1  0.96686500  0.56353900  0.11569800  1
  H  H26  1  0.53313500  0.43646100  0.61569800  1
  H  H27  1  0.03313500  0.06353900  0.88430200  1
  H  H28  1  0.88715300  0.97706100  0.71550800  1
  H  H29  1  0.38715300  0.52293900  0.78449200  1
  H  H30  1  0.11284700  0.47706100  0.28449200  1
  H  H31  1  0.61284700  0.02293900  0.21550800  1
  H  H32  1  0.11284700  0.02293900  0.28449200  1
  H  H33  1  0.61284700  0.47706100  0.21550800  1
  H  H34  1  0.88715300  0.52293900  0.71550800  1
  H  H35  1  0.38715300  0.97706100  0.78449200  1
  H  H36  1  0.84220100  0.09293000  0.78565800  1
  H  H37  1  0.34220100  0.40707000  0.71434200  1
  H  H38  1  0.15779900  0.59293000  0.21434200  1
  H  H39  1  0.65779900  0.90707000  0.28565800  1
  H  H40  1  0.15779900  0.90707000  0.21434200  1
  H  H41  1  0.65779900  0.59293000  0.28565800  1
  H  H42  1  0.84220100  0.40707000  0.78565800  1
  H  H43  1  0.34220100  0.09293000  0.71434200  1
  H  H44  1  0.76953100  0.95369200  0.74689300  1
  H  H45  1  0.26953100  0.54630800  0.75310700  1
  H  H46  1  0.23046900  0.45369200  0.25310700  1
  H  H47  1  0.73046900  0.04630800  0.24689300  1
  H  H48  1  0.23046900  0.04630800  0.25310700  1
  H  H49  1  0.73046900  0.45369200  0.24689300  1
  H  H50  1  0.76953100  0.54630800  0.74689300  1
  H  H51  1  0.26953100  0.95369200  0.75310700  1
  H  H52  1  0.81662200  0.95283400  0.54087800  1
  H  H53  1  0.31662200  0.54716600  0.95912200  1
  H  H54  1  0.18337800  0.45283400  0.45912200  1
  H  H55  1  0.68337800  0.04716600  0.04087800  1
  H  H56  1  0.18337800  0.04716600  0.45912200  1
  H  H57  1  0.68337800  0.45283400  0.04087800  1
  H  H58  1  0.81662200  0.54716600  0.54087800  1
  H  H59  1  0.31662200  0.95283400  0.95912200  1
  H  H60  1  0.88209800  0.10591600  0.50650600  1
  H  H61  1  0.38209800  0.39408400  0.99349400  1
  H  H62  1  0.11790200  0.60591600  0.49349400  1
  H  H63  1  0.61790200  0.89408400  0.00650600  1
  H  H64  1  0.11790200  0.89408400  0.49349400  1
  H  H65  1  0.61790200  0.60591600  0.00650600  1
  H  H66  1  0.88209800  0.39408400  0.50650600  1
  H  H67  1  0.38209800  0.10591600  0.99349400  1
  H  H68  1  0.92177400  0.01102400  0.58497000  1
  H  H69  1  0.42177400  0.48897600  0.91503000  1
  H  H70  1  0.07822600  0.51102400  0.41503000  1
  H  H71  1  0.57822600  0.98897600  0.08497000  1
  H  H72  1  0.07822600  0.98897600  0.41503000  1
  H  H73  1  0.57822600  0.51102400  0.08497000  1
  H  H74  1  0.92177400  0.48897600  0.58497000  1
  H  H75  1  0.42177400  0.01102400  0.91503000  1
  H  H76  1  0.67675800  0.14953400  0.46591700  1
  H  H77  1  0.17675800  0.35046600  0.03408300  1
  H  H78  1  0.32324200  0.64953400  0.53408300  1
  H  H79  1  0.82324200  0.85046600  0.96591700  1
  H  H80  1  0.32324200  0.85046600  0.53408300  1
  H  H81  1  0.82324200  0.64953400  0.96591700  1
  H  H82  1  0.67675800  0.35046600  0.46591700  1
  H  H83  1  0.17675800  0.14953400  0.03408300  1
  H  H84  1  0.57802600  0.25000000  0.50058900  1
  H  H85  1  0.07802600  0.25000000  0.99941100  1
  H  H86  1  0.42197400  0.75000000  0.49941100  1
  H  H87  1  0.92197400  0.75000000  0.00058900  1
  H  H88  1  0.58479500  0.14956700  0.78414600  1
  H  H89  1  0.08479500  0.35043300  0.71585400  1
  H  H90  1  0.41520500  0.64956700  0.21585400  1
  H  H91  1  0.91520500  0.85043300  0.28414600  1
  H  H92  1  0.41520500  0.85043300  0.21585400  1
  H  H93  1  0.91520500  0.64956700  0.28414600  1
  H  H94  1  0.58479500  0.35043300  0.78414600  1
  H  H95  1  0.08479500  0.14956700  0.71585400  1
  H  H96  1  0.68048100  0.25000000  0.82194700  1
  H  H97  1  0.18048100  0.25000000  0.67805300  1
  H  H98  1  0.31951900  0.75000000  0.17805300  1
  H  H99  1  0.81951900  0.75000000  0.32194700  1
  I  I100  1  0.34584700  0.25000000  0.55747800  1
  I  I101  1  0.84584700  0.25000000  0.94252200  1
  I  I102  1  0.65415300  0.75000000  0.44252200  1
  I  I103  1  0.15415300  0.75000000  0.05747800  1
  I  I104  1  0.92398600  0.25000000  0.32959900  1
  I  I105  1  0.42398600  0.25000000  0.17040100  1
  I  I106  1  0.07601400  0.75000000  0.67040100  1
  I  I107  1  0.57601400  0.75000000  0.82959900  1
  N  N108  1  0.60423500  0.01767800  0.62961300  1
  N  N109  1  0.10423500  0.48232200  0.87038700  1
  N  N110  1  0.39576500  0.51767800  0.37038700  1
  N  N111  1  0.89576500  0.98232200  0.12961300  1
  N  N112  1  0.39576500  0.98232200  0.37038700  1
  N  N113  1  0.89576500  0.51767800  0.12961300  1
  N  N114  1  0.60423500  0.48232200  0.62961300  1
  N  N115  1  0.10423500  0.01767800  0.87038700  1
  N  N116  1  0.82337300  0.04063900  0.73340000  1
  N  N117  1  0.32337300  0.45936100  0.76660000  1
  N  N118  1  0.17662700  0.54063900  0.26660000  1
  N  N119  1  0.67662700  0.95936100  0.23340000  1
  N  N120  1  0.17662700  0.95936100  0.26660000  1
  N  N121  1  0.67662700  0.54063900  0.23340000  1
  N  N122  1  0.82337300  0.45936100  0.73340000  1
  N  N123  1  0.32337300  0.04063900  0.76660000  1
  N  N124  1  0.85740600  0.05429200  0.55743200  1
  N  N125  1  0.35740600  0.44570800  0.94256800  1
  N  N126  1  0.14259400  0.55429200  0.44256800  1
  N  N127  1  0.64259400  0.94570800  0.05743200  1
  N  N128  1  0.14259400  0.94570800  0.44256800  1
  N  N129  1  0.64259400  0.55429200  0.05743200  1
  N  N130  1  0.85740600  0.44570800  0.55743200  1
  N  N131  1  0.35740600  0.05429200  0.94256800  1
  N  N132  1  0.65664900  0.25000000  0.49797800  1
  N  N133  1  0.15664900  0.25000000  0.00202200  1
  N  N134  1  0.34335100  0.75000000  0.50202200  1
  N  N135  1  0.84335100  0.75000000  0.99797800  1
  N  N136  1  0.63060900  0.25000000  0.77587500  1
  N  N137  1  0.13060900  0.25000000  0.72412500  1
  N  N138  1  0.36939100  0.75000000  0.22412500  1
  N  N139  1  0.86939100  0.75000000  0.27587500  1
