# generated using pymatgen
data_NaSr(PO3)3
_symmetry_space_group_name_H-M   'P 1'
_cell_length_a   6.90574300
_cell_length_b   7.25808141
_cell_length_c   7.84549480
_cell_angle_alpha   83.82804632
_cell_angle_beta   80.50899742
_cell_angle_gamma   82.77006401
_symmetry_Int_Tables_number   1
_chemical_formula_structural   NaSr(PO3)3
_chemical_formula_sum   'Na2 Sr2 P6 O18'
_cell_volume   383.25322166
_cell_formula_units_Z   2
loop_
 _symmetry_equiv_pos_site_id
 _symmetry_equiv_pos_as_xyz
  1  'x, y, z'
loop_
 _atom_site_type_symbol
 _atom_site_label
 _atom_site_symmetry_multiplicity
 _atom_site_fract_x
 _atom_site_fract_y
 _atom_site_fract_z
 _atom_site_occupancy
  Na  Na0  1  0.46563500  0.36866400  0.34230900  1
  Na  Na1  1  0.53436500  0.63133600  0.65769100  1
  Sr  Sr2  1  0.01124400  0.73235000  0.64313400  1
  Sr  Sr3  1  0.98875600  0.26765000  0.35686600  1
  P  P4  1  0.83403000  0.78923100  0.27164400  1
  P  P5  1  0.16597000  0.21076900  0.72835600  1
  P  P6  1  0.79865600  0.33563200  0.94328700  1
  P  P7  1  0.20134400  0.66436800  0.05671300  1
  P  P8  1  0.60287500  0.12010500  0.72477200  1
  P  P9  1  0.39712500  0.87989500  0.27522800  1
  O  O10  1  0.08798800  0.05532300  0.65755200  1
  O  O11  1  0.91201200  0.94467700  0.34244800  1
  O  O12  1  0.36853500  0.14727400  0.80129300  1
  O  O13  1  0.63146500  0.85272600  0.19870700  1
  O  O14  1  0.17876800  0.38460200  0.60291600  1
  O  O15  1  0.82123200  0.61539800  0.39708400  1
  O  O16  1  0.03168100  0.25307600  0.91216500  1
  O  O17  1  0.96831900  0.74692400  0.08783500  1
  O  O18  1  0.74913200  0.34261000  0.13591500  1
  O  O19  1  0.25086800  0.65739000  0.86408500  1
  O  O20  1  0.77184100  0.50873700  0.82312200  1
  O  O21  1  0.22815900  0.49126300  0.17687800  1
  O  O22  1  0.68745400  0.17089900  0.89272400  1
  O  O23  1  0.31254600  0.82910100  0.10727600  1
  O  O24  1  0.64680700  0.26399300  0.57404900  1
  O  O25  1  0.35319300  0.73600700  0.42595100  1
  O  O26  1  0.66261200  0.91752500  0.70394900  1
  O  O27  1  0.33738800  0.08247500  0.29605100  1
