# generated using pymatgen
data_NdLuS3
_symmetry_space_group_name_H-M   'P 1'
_cell_length_a   6.58438998
_cell_length_b   6.58438998
_cell_length_c   9.47240900
_cell_angle_alpha   90.00000000
_cell_angle_beta   90.00000000
_cell_angle_gamma   145.72379288
_symmetry_Int_Tables_number   1
_chemical_formula_structural   NdLuS3
_chemical_formula_sum   'Nd2 Lu2 S6'
_cell_volume   231.28157238
_cell_formula_units_Z   2
loop_
 _symmetry_equiv_pos_site_id
 _symmetry_equiv_pos_as_xyz
  1  'x, y, z'
loop_
 _atom_site_type_symbol
 _atom_site_label
 _atom_site_symmetry_multiplicity
 _atom_site_fract_x
 _atom_site_fract_y
 _atom_site_fract_z
 _atom_site_occupancy
  Nd  Nd0  1  0.74702800  0.25297200  0.25000000  1
  Nd  Nd1  1  0.25297200  0.74702800  0.75000000  1
  Lu  Lu2  1  0.00000000  0.00000000  0.50000000  1
  Lu  Lu3  1  0.00000000  0.00000000  0.00000000  1
  S  S4  1  0.64197600  0.35802400  0.56345400  1
  S  S5  1  0.64197600  0.35802400  0.93654600  1
  S  S6  1  0.35802400  0.64197600  0.06345400  1
  S  S7  1  0.35802400  0.64197600  0.43654600  1
  S  S8  1  0.08708900  0.91291100  0.25000000  1
  S  S9  1  0.91291100  0.08708900  0.75000000  1
