# generated using pymatgen
data_CsTaTe3
_symmetry_space_group_name_H-M   'P 1'
_cell_length_a   6.40097900
_cell_length_b   8.31981992
_cell_length_c   8.31981992
_cell_angle_alpha   120.00012659
_cell_angle_beta   90.00000000
_cell_angle_gamma   90.00000000
_symmetry_Int_Tables_number   1
_chemical_formula_structural   CsTaTe3
_chemical_formula_sum   'Cs2 Ta2 Te6'
_cell_volume   383.71107329
_cell_formula_units_Z   2
loop_
 _symmetry_equiv_pos_site_id
 _symmetry_equiv_pos_as_xyz
  1  'x, y, z'
loop_
 _atom_site_type_symbol
 _atom_site_label
 _atom_site_symmetry_multiplicity
 _atom_site_fract_x
 _atom_site_fract_y
 _atom_site_fract_z
 _atom_site_occupancy
  Cs  Cs0  1  0.24903300  0.66669200  0.33330800  1
  Cs  Cs1  1  0.74903300  0.33330800  0.66669200  1
  Ta  Ta2  1  0.52994000  0.00000200  0.99999800  1
  Ta  Ta3  1  0.02994000  0.99999800  0.00000200  1
  Te  Te4  1  0.75721100  0.83928400  0.67858500  1
  Te  Te5  1  0.75720500  0.83929700  0.16070300  1
  Te  Te6  1  0.75721100  0.32141500  0.16071600  1
  Te  Te7  1  0.25721100  0.16071600  0.32141500  1
  Te  Te8  1  0.25720500  0.16070300  0.83929700  1
  Te  Te9  1  0.25721100  0.67858500  0.83928400  1
