# generated using pymatgen
data_MgTl2H12(SeO7)2
_symmetry_space_group_name_H-M   'P 1'
_cell_length_a   12.91012500
_cell_length_b   6.47587900
_cell_length_c   9.54437514
_cell_angle_alpha   74.17320143
_cell_angle_beta   90.00000000
_cell_angle_gamma   90.00000000
_symmetry_Int_Tables_number   1
_chemical_formula_structural   MgTl2H12(SeO7)2
_chemical_formula_sum   'Mg2 Tl4 H24 Se4 O28'
_cell_volume   767.70190175
_cell_formula_units_Z   2
loop_
 _symmetry_equiv_pos_site_id
 _symmetry_equiv_pos_as_xyz
  1  'x, y, z'
loop_
 _atom_site_type_symbol
 _atom_site_label
 _atom_site_symmetry_multiplicity
 _atom_site_fract_x
 _atom_site_fract_y
 _atom_site_fract_z
 _atom_site_occupancy
  Mg  Mg0  1  0.50000000  0.00000000  0.50000000  1
  Mg  Mg1  1  0.00000000  0.00000000  0.00000000  1
  Tl  Tl2  1  0.14196300  0.64653700  0.62035900  1
  Tl  Tl3  1  0.64196300  0.35346300  0.87964100  1
  Tl  Tl4  1  0.85803700  0.35346300  0.37964100  1
  Tl  Tl5  1  0.35803700  0.64653700  0.12035900  1
  H  H6  1  0.41180300  0.68003800  0.70913600  1
  H  H7  1  0.91180300  0.31996200  0.79086400  1
  H  H8  1  0.58819700  0.31996200  0.29086400  1
  H  H9  1  0.08819700  0.68003800  0.20913600  1
  H  H10  1  0.37452700  0.90157100  0.73721700  1
  H  H11  1  0.87452700  0.09842900  0.76278300  1
  H  H12  1  0.62547300  0.09842900  0.26278300  1
  H  H13  1  0.12547300  0.90157100  0.23721700  1
  H  H14  1  0.40314200  0.06489500  0.23781300  1
  H  H15  1  0.90314200  0.93510500  0.26218700  1
  H  H16  1  0.59685800  0.93510500  0.76218700  1
  H  H17  1  0.09685800  0.06489500  0.73781300  1
  H  H18  1  0.31751200  0.99743600  0.36030900  1
  H  H19  1  0.81751200  0.00256400  0.13969100  1
  H  H20  1  0.68248800  0.00256400  0.63969100  1
  H  H21  1  0.18248800  0.99743600  0.86030900  1
  H  H22  1  0.55877500  0.66934100  0.40098400  1
  H  H23  1  0.05877500  0.33065900  0.09901600  1
  H  H24  1  0.44122500  0.33065900  0.59901600  1
  H  H25  1  0.94122500  0.66934100  0.90098400  1
  H  H26  1  0.63861100  0.67518300  0.52537500  1
  H  H27  1  0.13861100  0.32481700  0.97462500  1
  H  H28  1  0.36138900  0.32481700  0.47462500  1
  H  H29  1  0.86138900  0.67518300  0.02537500  1
  Se  Se30  1  0.35891400  0.26140800  0.90566600  1
  Se  Se31  1  0.85891400  0.73859200  0.59433400  1
  Se  Se32  1  0.64108600  0.73859200  0.09433400  1
  Se  Se33  1  0.14108600  0.26140800  0.40566600  1
  O  O34  1  0.25747100  0.42159900  0.91036800  1
  O  O35  1  0.75747100  0.57840100  0.58963200  1
  O  O36  1  0.74252900  0.57840100  0.08963200  1
  O  O37  1  0.24252900  0.42159900  0.41036800  1
  O  O38  1  0.42661400  0.21732100  0.06087000  1
  O  O39  1  0.92661400  0.78267900  0.43913000  1
  O  O40  1  0.57338600  0.78267900  0.93913000  1
  O  O41  1  0.07338600  0.21732100  0.56087000  1
  O  O42  1  0.43829500  0.39337400  0.77002800  1
  O  O43  1  0.93829500  0.60662600  0.72997200  1
  O  O44  1  0.56170500  0.60662600  0.22997200  1
  O  O45  1  0.06170500  0.39337400  0.27002800  1
  O  O46  1  0.31847000  0.02884700  0.87726600  1
  O  O47  1  0.81847000  0.97115300  0.62273400  1
  O  O48  1  0.68153000  0.97115300  0.12273400  1
  O  O49  1  0.18153000  0.02884700  0.37726600  1
  O  O50  1  0.39621500  0.83282600  0.66139100  1
  O  O51  1  0.89621500  0.16717400  0.83860900  1
  O  O52  1  0.60378500  0.16717400  0.33860900  1
  O  O53  1  0.10378500  0.83282600  0.16139100  1
  O  O54  1  0.39190300  0.97738300  0.33966300  1
  O  O55  1  0.89190300  0.02261700  0.16033700  1
  O  O56  1  0.60809700  0.02261700  0.66033700  1
  O  O57  1  0.10809700  0.97738300  0.83966300  1
  O  O58  1  0.56675100  0.71582000  0.49085700  1
  O  O59  1  0.06675100  0.28418000  0.00914300  1
  O  O60  1  0.43324900  0.28418000  0.50914300  1
  O  O61  1  0.93324900  0.71582000  0.99085700  1
