# generated using pymatgen
data_Ca2NbCrO6
_symmetry_space_group_name_H-M   'P 1'
_cell_length_a   7.82048099
_cell_length_b   9.52954747
_cell_length_c   7.82091445
_cell_angle_alpha   113.63077871
_cell_angle_beta   91.18029836
_cell_angle_gamma   113.63032076
_symmetry_Int_Tables_number   1
_chemical_formula_structural   Ca2NbCrO6
_chemical_formula_sum   'Ca8 Nb4 Cr4 O24'
_cell_volume   477.66504802
_cell_formula_units_Z   4
loop_
 _symmetry_equiv_pos_site_id
 _symmetry_equiv_pos_as_xyz
  1  'x, y, z'
loop_
 _atom_site_type_symbol
 _atom_site_label
 _atom_site_symmetry_multiplicity
 _atom_site_fract_x
 _atom_site_fract_y
 _atom_site_fract_z
 _atom_site_occupancy
  Ca  Ca0  1  0.39240100  0.24842400  0.84634300  1
  Ca  Ca1  1  0.89240500  0.24842800  0.34630400  1
  Ca  Ca2  1  0.10751400  0.75154200  0.65363400  1
  Ca  Ca3  1  0.60756300  0.75155300  0.15365400  1
  Ca  Ca4  1  0.90364200  0.25155000  0.85758700  1
  Ca  Ca5  1  0.40363400  0.25153400  0.35752800  1
  Ca  Ca6  1  0.59634500  0.74842900  0.64240200  1
  Ca  Ca7  1  0.09629800  0.74842600  0.14239900  1
  Nb  Nb8  1  0.74996500  0.50001300  0.75000300  1
  Nb  Nb9  1  0.24993300  0.49993400  0.24999300  1
  Nb  Nb10  1  0.99995600  0.99989600  0.49990700  1
  Nb  Nb11  1  0.50000400  0.00001900  0.99999400  1
  Cr  Cr12  1  0.49994100  0.99996300  0.49998000  1
  Cr  Cr13  1  0.25015300  0.50005500  0.74990300  1
  Cr  Cr14  1  0.99999300  0.00007800  0.00017100  1
  Cr  Cr15  1  0.75001000  0.49998600  0.24989200  1
  O  O16  1  0.06688700  0.04348600  0.77246900  1
  O  O17  1  0.56693900  0.04349500  0.27249400  1
  O  O18  1  0.43302300  0.95647400  0.72751400  1
  O  O19  1  0.93301800  0.95648000  0.22761700  1
  O  O20  1  0.47747800  0.45646800  0.68303400  1
  O  O21  1  0.97761500  0.45647400  0.18302100  1
  O  O22  1  0.02255200  0.54349100  0.81695300  1
  O  O23  1  0.52242500  0.54346700  0.31689200  1
  O  O24  1  0.27191900  0.04652500  0.47812100  1
  O  O25  1  0.77181900  0.04652100  0.97808300  1
  O  O26  1  0.22822600  0.95354200  0.02194400  1
  O  O27  1  0.72814500  0.95356900  0.52196700  1
  O  O28  1  0.27194300  0.45354800  0.97811300  1
  O  O29  1  0.77194800  0.45354900  0.47824400  1
  O  O30  1  0.22810200  0.54650800  0.52194000  1
  O  O31  1  0.72809200  0.54651900  0.02179600  1
  O  O32  1  0.15571400  0.25049500  0.18120600  1
  O  O33  1  0.65565800  0.25038600  0.68114600  1
  O  O34  1  0.34429800  0.74957000  0.31872300  1
  O  O35  1  0.84445100  0.74954900  0.81872000  1
  O  O36  1  0.06885600  0.24962900  0.59443800  1
  O  O37  1  0.56882000  0.24958700  0.09447700  1
  O  O38  1  0.43109700  0.75031900  0.90564300  1
  O  O39  1  0.93121900  0.75052000  0.40575200  1
