# generated using pymatgen
data_RbDy2CuSe4
_symmetry_space_group_name_H-M   'P 1'
_cell_length_a   7.45626157
_cell_length_b   7.45626157
_cell_length_c   14.43578600
_cell_angle_alpha   90.00000000
_cell_angle_beta   90.00000000
_cell_angle_gamma   147.76451304
_symmetry_Int_Tables_number   1
_chemical_formula_structural   RbDy2CuSe4
_chemical_formula_sum   'Rb2 Dy4 Cu2 Se8'
_cell_volume   428.09084551
_cell_formula_units_Z   2
loop_
 _symmetry_equiv_pos_site_id
 _symmetry_equiv_pos_as_xyz
  1  'x, y, z'
loop_
 _atom_site_type_symbol
 _atom_site_label
 _atom_site_symmetry_multiplicity
 _atom_site_fract_x
 _atom_site_fract_y
 _atom_site_fract_z
 _atom_site_occupancy
  Rb  Rb0  1  0.88971400  0.11028600  0.75000000  1
  Rb  Rb1  1  0.11028600  0.88971400  0.25000000  1
  Dy  Dy2  1  0.36602800  0.63397200  0.06385300  1
  Dy  Dy3  1  0.63397200  0.36602800  0.93614700  1
  Dy  Dy4  1  0.36602800  0.63397200  0.43614700  1
  Dy  Dy5  1  0.63397200  0.36602800  0.56385300  1
  Cu  Cu6  1  0.16321700  0.83678300  0.75000000  1
  Cu  Cu7  1  0.83678300  0.16321700  0.25000000  1
  Se  Se8  1  0.42950800  0.57049200  0.25000000  1
  Se  Se9  1  0.57049200  0.42950800  0.75000000  1
  Se  Se10  1  0.73828400  0.26171600  0.10903400  1
  Se  Se11  1  0.26171600  0.73828400  0.89096600  1
  Se  Se12  1  0.00000000  0.00000000  0.50000000  1
  Se  Se13  1  0.00000000  0.00000000  0.00000000  1
  Se  Se14  1  0.73828400  0.26171600  0.39096600  1
  Se  Se15  1  0.26171600  0.73828400  0.60903400  1
