# generated using pymatgen
data_Hf6Be15Ni8
_symmetry_space_group_name_H-M   'P 1'
_cell_length_a   7.74349949
_cell_length_b   7.74349949
_cell_length_c   7.74349949
_cell_angle_alpha   60.00000000
_cell_angle_beta   60.00000000
_cell_angle_gamma   60.00000000
_symmetry_Int_Tables_number   1
_chemical_formula_structural   Hf6Be15Ni8
_chemical_formula_sum   'Hf6 Be15 Ni8'
_cell_volume   328.31961100
_cell_formula_units_Z   1
loop_
 _symmetry_equiv_pos_site_id
 _symmetry_equiv_pos_as_xyz
  1  'x, y, z'
loop_
 _atom_site_type_symbol
 _atom_site_label
 _atom_site_symmetry_multiplicity
 _atom_site_fract_x
 _atom_site_fract_y
 _atom_site_fract_z
 _atom_site_occupancy
  Hf  Hf0  1  0.70912100  0.29087900  0.29087900  1
  Hf  Hf1  1  0.29087900  0.70912100  0.70912100  1
  Hf  Hf2  1  0.29087900  0.70912100  0.29087900  1
  Hf  Hf3  1  0.70912100  0.29087900  0.70912100  1
  Hf  Hf4  1  0.29087900  0.29087900  0.70912100  1
  Hf  Hf5  1  0.70912100  0.70912100  0.29087900  1
  Be  Be6  1  0.32330900  0.32330900  0.32330900  1
  Be  Be7  1  0.67669100  0.67669100  0.67669100  1
  Be  Be8  1  0.32330900  0.32330900  0.03007200  1
  Be  Be9  1  0.32330900  0.03007200  0.32330900  1
  Be  Be10  1  0.67669100  0.67669100  0.96992800  1
  Be  Be11  1  0.67669100  0.96992800  0.67669100  1
  Be  Be12  1  0.03007200  0.32330900  0.32330900  1
  Be  Be13  1  0.96992800  0.67669100  0.67669100  1
  Be  Be14  1  0.50000000  0.00000000  0.00000000  1
  Be  Be15  1  0.00000000  0.50000000  0.50000000  1
  Be  Be16  1  0.00000000  0.50000000  0.00000000  1
  Be  Be17  1  0.50000000  0.00000000  0.50000000  1
  Be  Be18  1  0.00000000  0.00000000  0.50000000  1
  Be  Be19  1  0.50000000  0.50000000  0.00000000  1
  Be  Be20  1  0.00000000  0.00000000  0.00000000  1
  Ni  Ni21  1  0.12399800  0.12399800  0.12399800  1
  Ni  Ni22  1  0.87600200  0.87600200  0.87600200  1
  Ni  Ni23  1  0.12399800  0.12399800  0.62800700  1
  Ni  Ni24  1  0.12399800  0.62800700  0.12399800  1
  Ni  Ni25  1  0.87600200  0.87600200  0.37199300  1
  Ni  Ni26  1  0.87600200  0.37199300  0.87600200  1
  Ni  Ni27  1  0.62800700  0.12399800  0.12399800  1
  Ni  Ni28  1  0.37199300  0.87600200  0.87600200  1
