# generated using pymatgen
data_LaAsRh
_symmetry_space_group_name_H-M   'P 1'
_cell_length_a   8.11798675
_cell_length_b   8.11798675
_cell_length_c   8.11798675
_cell_angle_alpha   149.89280343
_cell_angle_beta   149.89280343
_cell_angle_gamma   43.09877843
_symmetry_Int_Tables_number   1
_chemical_formula_structural   LaAsRh
_chemical_formula_sum   'La2 As2 Rh2'
_cell_volume   134.26242326
_cell_formula_units_Z   2
loop_
 _symmetry_equiv_pos_site_id
 _symmetry_equiv_pos_as_xyz
  1  'x, y, z'
loop_
 _atom_site_type_symbol
 _atom_site_label
 _atom_site_symmetry_multiplicity
 _atom_site_fract_x
 _atom_site_fract_y
 _atom_site_fract_z
 _atom_site_occupancy
  La  La0  1  0.75032700  0.25032700  0.50000000  1
  La  La1  1  0.00032700  0.00032700  0.00000000  1
  As  As2  1  0.33025600  0.83025600  0.50000000  1
  As  As3  1  0.58025600  0.58025600  0.00000000  1
  Rh  Rh4  1  0.16521600  0.66521600  0.50000000  1
  Rh  Rh5  1  0.41521600  0.41521600  0.00000000  1
