# generated using pymatgen
data_Dy2OsC2
_symmetry_space_group_name_H-M   'P 1'
_cell_length_a   5.13271100
_cell_length_b   6.44144900
_cell_length_c   9.81629200
_cell_angle_alpha   90.00000000
_cell_angle_beta   90.00000000
_cell_angle_gamma   90.00000000
_symmetry_Int_Tables_number   1
_chemical_formula_structural   Dy2OsC2
_chemical_formula_sum   'Dy8 Os4 C8'
_cell_volume   324.54718983
_cell_formula_units_Z   4
loop_
 _symmetry_equiv_pos_site_id
 _symmetry_equiv_pos_as_xyz
  1  'x, y, z'
loop_
 _atom_site_type_symbol
 _atom_site_label
 _atom_site_symmetry_multiplicity
 _atom_site_fract_x
 _atom_site_fract_y
 _atom_site_fract_z
 _atom_site_occupancy
  Dy  Dy0  1  0.25000000  0.68653500  0.55210300  1
  Dy  Dy1  1  0.75000000  0.31346500  0.44789700  1
  Dy  Dy2  1  0.75000000  0.81346500  0.05210300  1
  Dy  Dy3  1  0.25000000  0.18653500  0.94789700  1
  Dy  Dy4  1  0.25000000  0.52251600  0.22156400  1
  Dy  Dy5  1  0.75000000  0.47748400  0.77843600  1
  Dy  Dy6  1  0.75000000  0.97748400  0.72156400  1
  Dy  Dy7  1  0.25000000  0.02251600  0.27843600  1
  Os  Os8  1  0.25000000  0.72778900  0.86443800  1
  Os  Os9  1  0.75000000  0.27221100  0.13556200  1
  Os  Os10  1  0.75000000  0.77221100  0.36443800  1
  Os  Os11  1  0.25000000  0.22778900  0.63556200  1
  C  C12  1  0.25000000  0.46503100  0.75753800  1
  C  C13  1  0.75000000  0.53496900  0.24246200  1
  C  C14  1  0.75000000  0.03496900  0.25753800  1
  C  C15  1  0.25000000  0.96503100  0.74246200  1
  C  C16  1  0.25000000  0.82245300  0.05236500  1
  C  C17  1  0.75000000  0.17754700  0.94763500  1
  C  C18  1  0.75000000  0.67754700  0.55236500  1
  C  C19  1  0.25000000  0.32245300  0.44763500  1
