# generated using pymatgen
data_HoCu4Pd
_symmetry_space_group_name_H-M   'P 1'
_cell_length_a   4.97844610
_cell_length_b   4.97844610
_cell_length_c   4.97844610
_cell_angle_alpha   60.00000000
_cell_angle_beta   60.00000000
_cell_angle_gamma   60.00000000
_symmetry_Int_Tables_number   1
_chemical_formula_structural   HoCu4Pd
_chemical_formula_sum   'Ho1 Cu4 Pd1'
_cell_volume   87.25020014
_cell_formula_units_Z   1
loop_
 _symmetry_equiv_pos_site_id
 _symmetry_equiv_pos_as_xyz
  1  'x, y, z'
loop_
 _atom_site_type_symbol
 _atom_site_label
 _atom_site_symmetry_multiplicity
 _atom_site_fract_x
 _atom_site_fract_y
 _atom_site_fract_z
 _atom_site_occupancy
  Ho  Ho0  1  0.25000000  0.25000000  0.25000000  1
  Cu  Cu1  1  0.62578600  0.62578600  0.62578600  1
  Cu  Cu2  1  0.62578600  0.62578600  0.12264100  1
  Cu  Cu3  1  0.62578600  0.12264100  0.62578600  1
  Cu  Cu4  1  0.12264100  0.62578600  0.62578600  1
  Pd  Pd5  1  0.00000000  0.00000000  0.00000000  1
