# generated using pymatgen
data_K2MgP4(HO2)8
_symmetry_space_group_name_H-M   'P 1'
_cell_length_a   6.94140200
_cell_length_b   7.48056310
_cell_length_c   7.62956927
_cell_angle_alpha   81.65115933
_cell_angle_beta   73.56040644
_cell_angle_gamma   83.58821831
_symmetry_Int_Tables_number   1
_chemical_formula_structural   K2MgP4(HO2)8
_chemical_formula_sum   'K2 Mg1 P4 H8 O16'
_cell_volume   374.90581756
_cell_formula_units_Z   1
loop_
 _symmetry_equiv_pos_site_id
 _symmetry_equiv_pos_as_xyz
  1  'x, y, z'
loop_
 _atom_site_type_symbol
 _atom_site_label
 _atom_site_symmetry_multiplicity
 _atom_site_fract_x
 _atom_site_fract_y
 _atom_site_fract_z
 _atom_site_occupancy
  K  K0  1  0.61454800  0.23721600  0.79345900  1
  K  K1  1  0.38545200  0.76278400  0.20654100  1
  Mg  Mg2  1  0.00000000  0.00000000  0.00000000  1
  P  P3  1  0.24595000  0.68479800  0.74368500  1
  P  P4  1  0.75405000  0.31520200  0.25631500  1
  P  P5  1  0.82189000  0.76960500  0.74582000  1
  P  P6  1  0.17811000  0.23039500  0.25418000  1
  H  H7  1  0.54788300  0.76673000  0.57947500  1
  H  H8  1  0.45211700  0.23327000  0.42052500  1
  H  H9  1  0.74833700  0.54799200  0.97224500  1
  H  H10  1  0.25166300  0.45200800  0.02775500  1
  H  H11  1  0.87357000  0.82290900  0.35768100  1
  H  H12  1  0.12643000  0.17709100  0.64231900  1
  H  H13  1  0.89100900  0.68701900  0.21237500  1
  H  H14  1  0.10899100  0.31298100  0.78762500  1
  O  O15  1  0.23413800  0.82331300  0.87274000  1
  O  O16  1  0.76586200  0.17668700  0.12726000  1
  O  O17  1  0.42443000  0.70948500  0.56380000  1
  O  O18  1  0.57557000  0.29051500  0.43620000  1
  O  O19  1  0.24430900  0.48787500  0.83222700  1
  O  O20  1  0.75569100  0.51212500  0.16777300  1
  O  O21  1  0.05950000  0.72303100  0.64954300  1
  O  O22  1  0.94050000  0.27696900  0.35045700  1
  O  O23  1  0.79960500  0.89496500  0.89052700  1
  O  O24  1  0.20039500  0.10503500  0.10947300  1
  O  O25  1  0.73364000  0.84147500  0.58680400  1
  O  O26  1  0.26636000  0.15852500  0.41319600  1
  O  O27  1  0.73236600  0.58259000  0.83896700  1
  O  O28  1  0.26763400  0.41741000  0.16103300  1
  O  O29  1  0.94768900  0.79653100  0.23103100  1
  O  O30  1  0.05231100  0.20346900  0.76896900  1
