# generated using pymatgen
data_Ti3Fe5P4
_symmetry_space_group_name_H-M   'P 1'
_cell_length_a   3.57908400
_cell_length_b   5.93455800
_cell_length_c   6.71124298
_cell_angle_alpha   89.20811619
_cell_angle_beta   90.00000000
_cell_angle_gamma   90.00000000
_symmetry_Int_Tables_number   1
_chemical_formula_structural   Ti3Fe5P4
_chemical_formula_sum   'Ti3 Fe5 P4'
_cell_volume   142.53507608
_cell_formula_units_Z   1
loop_
 _symmetry_equiv_pos_site_id
 _symmetry_equiv_pos_as_xyz
  1  'x, y, z'
loop_
 _atom_site_type_symbol
 _atom_site_label
 _atom_site_symmetry_multiplicity
 _atom_site_fract_x
 _atom_site_fract_y
 _atom_site_fract_z
 _atom_site_occupancy
  Ti  Ti0  1  0.00000000  0.97910000  0.31694800  1
  Ti  Ti1  1  0.50000000  0.52369500  0.82809200  1
  Ti  Ti2  1  0.50000000  0.02840100  0.67750000  1
  Fe  Fe3  1  0.00000000  0.35490700  0.55802400  1
  Fe  Fe4  1  0.00000000  0.85043000  0.94166100  1
  Fe  Fe5  1  0.50000000  0.64299600  0.43859700  1
  Fe  Fe6  1  0.50000000  0.14573600  0.06205800  1
  Fe  Fe7  1  0.00000000  0.46800400  0.17437200  1
  P  P8  1  0.00000000  0.72849500  0.62230800  1
  P  P9  1  0.00000000  0.22870200  0.88786000  1
  P  P10  1  0.50000000  0.28406200  0.36605200  1
  P  P11  1  0.50000000  0.76547200  0.12652800  1
