# generated using pymatgen
data_Mg3Fe2H4(Se3O10)2
_symmetry_space_group_name_H-M   'P 1'
_cell_length_a   6.57251383
_cell_length_b   8.08513797
_cell_length_c   9.05727050
_cell_angle_alpha   85.70578821
_cell_angle_beta   78.93042403
_cell_angle_gamma   76.39357296
_symmetry_Int_Tables_number   1
_chemical_formula_structural   Mg3Fe2H4(Se3O10)2
_chemical_formula_sum   'Mg3 Fe2 H4 Se6 O20'
_cell_volume   458.86644649
_cell_formula_units_Z   1
loop_
 _symmetry_equiv_pos_site_id
 _symmetry_equiv_pos_as_xyz
  1  'x, y, z'
loop_
 _atom_site_type_symbol
 _atom_site_label
 _atom_site_symmetry_multiplicity
 _atom_site_fract_x
 _atom_site_fract_y
 _atom_site_fract_z
 _atom_site_occupancy
  Mg  Mg0  1  0.50000000  0.00000000  0.00000000  1
  Mg  Mg1  1  0.31286000  0.67583600  0.26499900  1
  Mg  Mg2  1  0.68714000  0.32416400  0.73500100  1
  Fe  Fe3  1  0.13469800  0.39685900  0.11784000  1
  Fe  Fe4  1  0.86530200  0.60314100  0.88216000  1
  H  H5  1  0.31604400  0.46765100  0.53640300  1
  H  H6  1  0.68395600  0.53234900  0.46359700  1
  H  H7  1  0.14822100  0.64208000  0.55663700  1
  H  H8  1  0.85178000  0.35792000  0.44336300  1
  Se  Se9  1  0.23635100  0.07711500  0.36558900  1
  Se  Se10  1  0.76364900  0.92288500  0.63441100  1
  Se  Se11  1  0.66669300  0.29110800  0.12847600  1
  Se  Se12  1  0.33330700  0.70889200  0.87152400  1
  Se  Se13  1  0.19991700  0.21748100  0.77659600  1
  Se  Se14  1  0.80008300  0.78251900  0.22340400  1
  O  O15  1  0.33430800  0.79636700  0.03757500  1
  O  O16  1  0.66569200  0.20363300  0.96242500  1
  O  O17  1  0.45583600  0.05652800  0.22059700  1
  O  O18  1  0.54416400  0.94347200  0.77940300  1
  O  O19  1  0.13541500  0.90786900  0.34653900  1
  O  O20  1  0.86458500  0.09213100  0.65346100  1
  O  O21  1  0.05687100  0.24829700  0.29245400  1
  O  O22  1  0.94312900  0.75170300  0.70754600  1
  O  O23  1  0.23060400  0.20348700  0.96907200  1
  O  O24  1  0.76939600  0.79651300  0.03092800  1
  O  O25  1  0.82998800  0.43985100  0.07047100  1
  O  O26  1  0.17001200  0.56014900  0.92952900  1
  O  O27  1  0.41610200  0.43290500  0.16139400  1
  O  O28  1  0.58389800  0.56709500  0.83860600  1
  O  O29  1  0.39383400  0.31504100  0.68816000  1
  O  O30  1  0.60616600  0.68495900  0.31184000  1
  O  O31  1  0.26035500  0.57392400  0.48265400  1
  O  O32  1  0.73964500  0.42607600  0.51734600  1
  O  O33  1  0.02610900  0.61834200  0.23106500  1
  O  O34  1  0.97389100  0.38165800  0.76893500  1
