# generated using pymatgen
data_SrCdP2O7
_symmetry_space_group_name_H-M   'P 1'
_cell_length_a   8.67225500
_cell_length_b   5.50838600
_cell_length_c   14.24837001
_cell_angle_alpha   67.42782112
_cell_angle_beta   90.00000000
_cell_angle_gamma   90.00000000
_symmetry_Int_Tables_number   1
_chemical_formula_structural   SrCdP2O7
_chemical_formula_sum   'Sr4 Cd4 P8 O28'
_cell_volume   628.50670194
_cell_formula_units_Z   4
loop_
 _symmetry_equiv_pos_site_id
 _symmetry_equiv_pos_as_xyz
  1  'x, y, z'
loop_
 _atom_site_type_symbol
 _atom_site_label
 _atom_site_symmetry_multiplicity
 _atom_site_fract_x
 _atom_site_fract_y
 _atom_site_fract_z
 _atom_site_occupancy
  Sr  Sr0  1  0.32416100  0.51294800  0.77014800  1
  Sr  Sr1  1  0.82416100  0.48705200  0.72985200  1
  Sr  Sr2  1  0.67583900  0.48705200  0.22985200  1
  Sr  Sr3  1  0.17583900  0.51294800  0.27014800  1
  Cd  Cd4  1  0.35536400  0.21964500  0.09363000  1
  Cd  Cd5  1  0.85536400  0.78035500  0.40637000  1
  Cd  Cd6  1  0.64463600  0.78035500  0.90637000  1
  Cd  Cd7  1  0.14463600  0.21964500  0.59363000  1
  P  P8  1  0.21637600  0.82391300  0.47326300  1
  P  P9  1  0.71637600  0.17608700  0.02673700  1
  P  P10  1  0.78362400  0.17608700  0.52673700  1
  P  P11  1  0.28362400  0.82391300  0.97326300  1
  P  P12  1  0.46883600  0.93309500  0.32489300  1
  P  P13  1  0.96883600  0.06690500  0.17510700  1
  P  P14  1  0.53116400  0.06690500  0.67510700  1
  P  P15  1  0.03116400  0.93309500  0.82489300  1
  O  O16  1  0.11642000  0.71972800  0.40657600  1
  O  O17  1  0.61642000  0.28027200  0.09342400  1
  O  O18  1  0.88358000  0.28027200  0.59342400  1
  O  O19  1  0.38358000  0.71972800  0.90657600  1
  O  O20  1  0.17446700  0.10921900  0.45646800  1
  O  O21  1  0.67446700  0.89078100  0.04353200  1
  O  O22  1  0.82553300  0.89078100  0.54353200  1
  O  O23  1  0.32553300  0.10921900  0.95646800  1
  O  O24  1  0.21333900  0.63176000  0.58454000  1
  O  O25  1  0.71333900  0.36824000  0.91546000  1
  O  O26  1  0.78666100  0.36824000  0.41546000  1
  O  O27  1  0.28666100  0.63176000  0.08454000  1
  O  O28  1  0.44656400  0.72686400  0.27851400  1
  O  O29  1  0.94656400  0.27313600  0.22148600  1
  O  O30  1  0.55343600  0.27313600  0.72148600  1
  O  O31  1  0.05343600  0.72686400  0.77851400  1
  O  O32  1  0.10666600  0.81794200  0.93810000  1
  O  O33  1  0.60666600  0.18205800  0.56190000  1
  O  O34  1  0.89333400  0.18205800  0.06190000  1
  O  O35  1  0.39333400  0.81794200  0.43810000  1
  O  O36  1  0.86302100  0.98996500  0.84095800  1
  O  O37  1  0.36302100  0.01003500  0.65904200  1
  O  O38  1  0.13697900  0.01003500  0.15904200  1
  O  O39  1  0.63697900  0.98996500  0.34095800  1
  O  O40  1  0.11172700  0.19597200  0.76308700  1
  O  O41  1  0.61172700  0.80402800  0.73691300  1
  O  O42  1  0.88827300  0.80402800  0.23691300  1
  O  O43  1  0.38827300  0.19597200  0.26308700  1
