# generated using pymatgen
data_Pr(FeAs3)4
_symmetry_space_group_name_H-M   'P 1'
_cell_length_a   7.25921719
_cell_length_b   7.25921719
_cell_length_c   7.25921719
_cell_angle_alpha   109.47122063
_cell_angle_beta   109.47122063
_cell_angle_gamma   109.47122063
_symmetry_Int_Tables_number   1
_chemical_formula_structural   Pr(FeAs3)4
_chemical_formula_sum   'Pr1 Fe4 As12'
_cell_volume   294.47435599
_cell_formula_units_Z   1
loop_
 _symmetry_equiv_pos_site_id
 _symmetry_equiv_pos_as_xyz
  1  'x, y, z'
loop_
 _atom_site_type_symbol
 _atom_site_label
 _atom_site_symmetry_multiplicity
 _atom_site_fract_x
 _atom_site_fract_y
 _atom_site_fract_z
 _atom_site_occupancy
  Pr  Pr0  1  0.00000000  0.00000000  0.00000000  1
  Fe  Fe1  1  0.00000000  0.00000000  0.50000000  1
  Fe  Fe2  1  0.50000000  0.00000000  0.00000000  1
  Fe  Fe3  1  0.00000000  0.50000000  0.00000000  1
  Fe  Fe4  1  0.50000000  0.50000000  0.50000000  1
  As  As5  1  0.34268100  0.18598800  0.84330700  1
  As  As6  1  0.65731900  0.81401200  0.15669300  1
  As  As7  1  0.65731900  0.50062600  0.84330700  1
  As  As8  1  0.34268100  0.49937400  0.15669300  1
  As  As9  1  0.18598800  0.84330700  0.34268100  1
  As  As10  1  0.81401200  0.15669300  0.65731900  1
  As  As11  1  0.50062600  0.84330700  0.65731900  1
  As  As12  1  0.49937400  0.15669300  0.34268100  1
  As  As13  1  0.84330700  0.34268100  0.18598800  1
  As  As14  1  0.15669300  0.65731900  0.81401200  1
  As  As15  1  0.84330700  0.65731900  0.50062600  1
  As  As16  1  0.15669300  0.34268100  0.49937400  1
