# generated using pymatgen
data_DyAgS2
_symmetry_space_group_name_H-M   'P 1'
_cell_length_a   7.63636300
_cell_length_b   7.64471100
_cell_length_c   12.71427359
_cell_angle_alpha   89.91027276
_cell_angle_beta   90.00000000
_cell_angle_gamma   90.00000000
_symmetry_Int_Tables_number   1
_chemical_formula_structural   DyAgS2
_chemical_formula_sum   'Dy8 Ag8 S16'
_cell_volume   742.23026098
_cell_formula_units_Z   8
loop_
 _symmetry_equiv_pos_site_id
 _symmetry_equiv_pos_as_xyz
  1  'x, y, z'
loop_
 _atom_site_type_symbol
 _atom_site_label
 _atom_site_symmetry_multiplicity
 _atom_site_fract_x
 _atom_site_fract_y
 _atom_site_fract_z
 _atom_site_occupancy
  Dy  Dy0  1  0.50424200  0.74649300  0.00343700  1
  Dy  Dy1  1  0.00424200  0.25350700  0.99656300  1
  Dy  Dy2  1  0.25652900  0.00181300  0.75374900  1
  Dy  Dy3  1  0.75652900  0.99818700  0.24625100  1
  Dy  Dy4  1  0.74864300  0.50203100  0.74706500  1
  Dy  Dy5  1  0.24864300  0.49796900  0.25293500  1
  Dy  Dy6  1  0.00260400  0.75267400  0.50318400  1
  Dy  Dy7  1  0.50260400  0.24732600  0.49681600  1
  Ag  Ag8  1  0.25176200  0.49868500  0.79002400  1
  Ag  Ag9  1  0.75176200  0.50131500  0.20997600  1
  Ag  Ag10  1  0.75265300  0.99761100  0.69682300  1
  Ag  Ag11  1  0.25265300  0.00238900  0.30317700  1
  Ag  Ag12  1  0.00299600  0.75423900  0.03117200  1
  Ag  Ag13  1  0.50299600  0.24576100  0.96882800  1
  Ag  Ag14  1  0.50197000  0.74515500  0.52809600  1
  Ag  Ag15  1  0.00197000  0.25484500  0.47190400  1
  S  S16  1  0.77682300  0.02408800  0.46396500  1
  S  S17  1  0.27682300  0.97591200  0.53603500  1
  S  S18  1  0.23217700  0.47986300  0.47125300  1
  S  S19  1  0.73217700  0.52013700  0.52874700  1
  S  S20  1  0.52277100  0.72810500  0.22154400  1
  S  S21  1  0.02277100  0.27189500  0.77845600  1
  S  S22  1  0.47937800  0.72819900  0.78687800  1
  S  S23  1  0.97937800  0.27180100  0.21312200  1
  S  S24  1  0.98211200  0.77223800  0.72081000  1
  S  S25  1  0.48211200  0.22776200  0.27919000  1
  S  S26  1  0.52578100  0.22803800  0.71315100  1
  S  S27  1  0.02578100  0.77196200  0.28684900  1
  S  S28  1  0.27288400  0.01925100  0.97101300  1
  S  S29  1  0.77288400  0.98074900  0.02898700  1
  S  S30  1  0.72967500  0.47630800  0.96380900  1
  S  S31  1  0.22967500  0.52369200  0.03619100  1
