# generated using pymatgen
data_Dy3Ru
_symmetry_space_group_name_H-M   'P 1'
_cell_length_a   6.30760500
_cell_length_b   7.30287600
_cell_length_c   9.20555800
_cell_angle_alpha   90.00000000
_cell_angle_beta   90.00000000
_cell_angle_gamma   90.00000000
_symmetry_Int_Tables_number   1
_chemical_formula_structural   Dy3Ru
_chemical_formula_sum   'Dy12 Ru4'
_cell_volume   424.04166779
_cell_formula_units_Z   4
loop_
 _symmetry_equiv_pos_site_id
 _symmetry_equiv_pos_as_xyz
  1  'x, y, z'
loop_
 _atom_site_type_symbol
 _atom_site_label
 _atom_site_symmetry_multiplicity
 _atom_site_fract_x
 _atom_site_fract_y
 _atom_site_fract_z
 _atom_site_occupancy
  Dy  Dy0  1  0.33003100  0.67700400  0.06479500  1
  Dy  Dy1  1  0.16996900  0.17700400  0.43520500  1
  Dy  Dy2  1  0.66996900  0.32299600  0.56479500  1
  Dy  Dy3  1  0.83003100  0.82299600  0.93520500  1
  Dy  Dy4  1  0.66996900  0.32299600  0.93520500  1
  Dy  Dy5  1  0.83003100  0.82299600  0.56479500  1
  Dy  Dy6  1  0.33003100  0.67700400  0.43520500  1
  Dy  Dy7  1  0.16996900  0.17700400  0.06479500  1
  Dy  Dy8  1  0.86456400  0.54032700  0.25000000  1
  Dy  Dy9  1  0.63543600  0.04032700  0.25000000  1
  Dy  Dy10  1  0.13543600  0.45967300  0.75000000  1
  Dy  Dy11  1  0.36456400  0.95967300  0.75000000  1
  Ru  Ru12  1  0.04001100  0.88544400  0.25000000  1
  Ru  Ru13  1  0.45998900  0.38544400  0.25000000  1
  Ru  Ru14  1  0.95998900  0.11455600  0.75000000  1
  Ru  Ru15  1  0.54001100  0.61455600  0.75000000  1
