# generated using pymatgen
data_YbInBr3
_symmetry_space_group_name_H-M   'P 1'
_cell_length_a   7.43768090
_cell_length_b   7.43768090
_cell_length_c   10.85887600
_cell_angle_alpha   90.00000000
_cell_angle_beta   90.00000000
_cell_angle_gamma   146.39078258
_symmetry_Int_Tables_number   1
_chemical_formula_structural   YbInBr3
_chemical_formula_sum   'Yb2 In2 Br6'
_cell_volume   332.50457088
_cell_formula_units_Z   2
loop_
 _symmetry_equiv_pos_site_id
 _symmetry_equiv_pos_as_xyz
  1  'x, y, z'
loop_
 _atom_site_type_symbol
 _atom_site_label
 _atom_site_symmetry_multiplicity
 _atom_site_fract_x
 _atom_site_fract_y
 _atom_site_fract_z
 _atom_site_occupancy
  Yb  Yb0  1  0.00000000  0.00000000  0.00000000  1
  Yb  Yb1  1  0.00000000  0.00000000  0.50000000  1
  In  In2  1  0.25025000  0.74975000  0.25000000  1
  In  In3  1  0.74975000  0.25025000  0.75000000  1
  Br  Br4  1  0.63220700  0.36779300  0.05123500  1
  Br  Br5  1  0.36779300  0.63220700  0.94876500  1
  Br  Br6  1  0.36779300  0.63220700  0.55123500  1
  Br  Br7  1  0.63220700  0.36779300  0.44876500  1
  Br  Br8  1  0.92611200  0.07388800  0.25000000  1
  Br  Br9  1  0.07388800  0.92611200  0.75000000  1
