# generated using pymatgen
data_CsLi(B3O5)2
_symmetry_space_group_name_H-M   'P 1'
_cell_length_a   9.25537400
_cell_length_b   10.54246800
_cell_length_c   10.56470500
_cell_angle_alpha   90.00000000
_cell_angle_beta   90.00000000
_cell_angle_gamma   90.00000000
_symmetry_Int_Tables_number   1
_chemical_formula_structural   CsLi(B3O5)2
_chemical_formula_sum   'Cs4 Li4 B24 O40'
_cell_volume   1030.84564134
_cell_formula_units_Z   4
loop_
 _symmetry_equiv_pos_site_id
 _symmetry_equiv_pos_as_xyz
  1  'x, y, z'
loop_
 _atom_site_type_symbol
 _atom_site_label
 _atom_site_symmetry_multiplicity
 _atom_site_fract_x
 _atom_site_fract_y
 _atom_site_fract_z
 _atom_site_occupancy
  Cs  Cs0  1  0.37691800  0.24720600  0.25270500  1
  Cs  Cs1  1  0.62308200  0.24720600  0.74729500  1
  Cs  Cs2  1  0.87691800  0.75279400  0.74729500  1
  Cs  Cs3  1  0.12308200  0.75279400  0.25270500  1
  Li  Li4  1  0.88094700  0.24908000  0.25097600  1
  Li  Li5  1  0.11905300  0.24908000  0.74902400  1
  Li  Li6  1  0.38094700  0.75092000  0.74902400  1
  Li  Li7  1  0.61905300  0.75092000  0.25097600  1
  B  B8  1  0.93542500  0.01836600  0.09986400  1
  B  B9  1  0.06457500  0.01836600  0.90013600  1
  B  B10  1  0.43542500  0.98163400  0.90013600  1
  B  B11  1  0.56457500  0.98163400  0.09986400  1
  B  B12  1  0.75000000  0.50000000  0.22806500  1
  B  B13  1  0.25000000  0.50000000  0.77193500  1
  B  B14  1  0.00000000  0.27149500  0.50000000  1
  B  B15  1  0.50000000  0.72850500  0.50000000  1
  B  B16  1  0.00000000  0.22795600  0.00000000  1
  B  B17  1  0.50000000  0.77204400  0.00000000  1
  B  B18  1  0.75000000  0.00000000  0.27084100  1
  B  B19  1  0.25000000  0.00000000  0.72915900  1
  B  B20  1  0.18477200  0.09993900  0.52039600  1
  B  B21  1  0.81522800  0.09993900  0.47960400  1
  B  B22  1  0.68477200  0.90006100  0.47960400  1
  B  B23  1  0.31522800  0.90006100  0.52039600  1
  B  B24  1  0.56451400  0.51929800  0.39965300  1
  B  B25  1  0.43548600  0.51929800  0.60034700  1
  B  B26  1  0.06451400  0.48070200  0.60034700  1
  B  B27  1  0.93548600  0.48070200  0.39965300  1
  B  B28  1  0.81466800  0.39978200  0.01952100  1
  B  B29  1  0.18533200  0.39978200  0.98047900  1
  B  B30  1  0.31466800  0.60021800  0.98047900  1
  B  B31  1  0.68533200  0.60021800  0.01952100  1
  O  O32  1  0.11674500  0.18991400  0.44971400  1
  O  O33  1  0.88325500  0.18991400  0.55028600  1
  O  O34  1  0.61674500  0.81008600  0.55028600  1
  O  O35  1  0.38325500  0.81008600  0.44971400  1
  O  O36  1  0.11686700  0.30911400  0.05063000  1
  O  O37  1  0.88313300  0.30911400  0.94937000  1
  O  O38  1  0.61686700  0.69088600  0.94937000  1
  O  O39  1  0.38313300  0.69088600  0.05063000  1
  O  O40  1  0.94781400  0.35092400  0.39399400  1
  O  O41  1  0.05218600  0.35092400  0.60600600  1
  O  O42  1  0.44781400  0.64907600  0.60600600  1
  O  O43  1  0.55218600  0.64907600  0.39399400  1
  O  O44  1  0.63292700  0.44944500  0.30958100  1
  O  O45  1  0.36707300  0.44944500  0.69041900  1
  O  O46  1  0.13292700  0.55055500  0.69041900  1
  O  O47  1  0.86707300  0.55055500  0.30958100  1
  O  O48  1  0.94803100  0.14800700  0.10603000  1
  O  O49  1  0.05196900  0.14800700  0.89397000  1
  O  O50  1  0.44803100  0.85199300  0.89397000  1
  O  O51  1  0.55196900  0.85199300  0.10603000  1
  O  O52  1  0.80417300  0.10579100  0.35031200  1
  O  O53  1  0.19582700  0.10579100  0.64968800  1
  O  O54  1  0.30417300  0.89420900  0.64968800  1
  O  O55  1  0.69582700  0.89420900  0.35031200  1
  O  O56  1  0.63343700  0.05145400  0.18999900  1
  O  O57  1  0.36656300  0.05145400  0.81000100  1
  O  O58  1  0.13343700  0.94854600  0.81000100  1
  O  O59  1  0.86656300  0.94854600  0.18999900  1
  O  O60  1  0.80365100  0.39386100  0.14891600  1
  O  O61  1  0.19634900  0.39386100  0.85108400  1
  O  O62  1  0.30365100  0.60613900  0.85108400  1
  O  O63  1  0.69634900  0.60613900  0.14891600  1
  O  O64  1  0.25000000  0.00000000  0.45389200  1
  O  O65  1  0.75000000  0.00000000  0.54610800  1
  O  O66  1  0.00000000  0.95141200  0.00000000  1
  O  O67  1  0.50000000  0.04858800  0.00000000  1
  O  O68  1  0.50000000  0.45271200  0.50000000  1
  O  O69  1  0.00000000  0.54728800  0.50000000  1
  O  O70  1  0.75000000  0.50000000  0.95294200  1
  O  O71  1  0.25000000  0.50000000  0.04705800  1
