# generated using pymatgen
data_VAgOF4
_symmetry_space_group_name_H-M   'P 1'
_cell_length_a   5.18452500
_cell_length_b   5.73497800
_cell_length_c   14.09550305
_cell_angle_alpha   80.38265751
_cell_angle_beta   90.00000000
_cell_angle_gamma   90.00000000
_symmetry_Int_Tables_number   1
_chemical_formula_structural   VAgOF4
_chemical_formula_sum   'V4 Ag4 O4 F16'
_cell_volume   413.21323611
_cell_formula_units_Z   4
loop_
 _symmetry_equiv_pos_site_id
 _symmetry_equiv_pos_as_xyz
  1  'x, y, z'
loop_
 _atom_site_type_symbol
 _atom_site_label
 _atom_site_symmetry_multiplicity
 _atom_site_fract_x
 _atom_site_fract_y
 _atom_site_fract_z
 _atom_site_occupancy
  V  V0  1  0.94435200  0.17688200  0.14251500  1
  V  V1  1  0.44435200  0.82311800  0.35748500  1
  V  V2  1  0.05564800  0.82311800  0.85748500  1
  V  V3  1  0.55564800  0.17688200  0.64251500  1
  Ag  Ag4  1  0.43435100  0.65379100  0.11237000  1
  Ag  Ag5  1  0.93435100  0.34620900  0.38763000  1
  Ag  Ag6  1  0.56564900  0.34620900  0.88763000  1
  Ag  Ag7  1  0.06564900  0.65379100  0.61237000  1
  O  O8  1  0.15418300  0.35102000  0.08189600  1
  O  O9  1  0.65418300  0.64898000  0.41810400  1
  O  O10  1  0.84581700  0.64898000  0.91810400  1
  O  O11  1  0.34581700  0.35102000  0.58189600  1
  F  F12  1  0.03367200  0.88626200  0.11611100  1
  F  F13  1  0.53367200  0.11373800  0.38388900  1
  F  F14  1  0.96632800  0.11373800  0.88388900  1
  F  F15  1  0.46632800  0.88626200  0.61611100  1
  F  F16  1  0.75400400  0.39151600  0.19939700  1
  F  F17  1  0.25400400  0.60848400  0.30060300  1
  F  F18  1  0.24599600  0.60848400  0.80060300  1
  F  F19  1  0.74599600  0.39151600  0.69939700  1
  F  F20  1  0.67298900  0.17964000  0.05785600  1
  F  F21  1  0.17298900  0.82036000  0.44214400  1
  F  F22  1  0.32701100  0.82036000  0.94214400  1
  F  F23  1  0.82701100  0.17964000  0.55785600  1
  F  F24  1  0.10556700  0.09873800  0.26191800  1
  F  F25  1  0.60556700  0.90126200  0.23808200  1
  F  F26  1  0.89443300  0.90126200  0.73808200  1
  F  F27  1  0.39443300  0.09873800  0.76191800  1
