# generated using pymatgen
data_Mo(NO4)2
_symmetry_space_group_name_H-M   'P 1'
_cell_length_a   5.40336000
_cell_length_b   8.66987000
_cell_length_c   15.35938881
_cell_angle_alpha   66.56387208
_cell_angle_beta   90.00000000
_cell_angle_gamma   90.00000000
_symmetry_Int_Tables_number   1
_chemical_formula_structural   Mo(NO4)2
_chemical_formula_sum   'Mo4 N8 O32'
_cell_volume   660.17397491
_cell_formula_units_Z   4
loop_
 _symmetry_equiv_pos_site_id
 _symmetry_equiv_pos_as_xyz
  1  'x, y, z'
loop_
 _atom_site_type_symbol
 _atom_site_label
 _atom_site_symmetry_multiplicity
 _atom_site_fract_x
 _atom_site_fract_y
 _atom_site_fract_z
 _atom_site_occupancy
  Mo  Mo0  1  0.66848300  0.44017600  0.17573700  1
  Mo  Mo1  1  0.83151700  0.44017600  0.67573700  1
  Mo  Mo2  1  0.33151700  0.55982400  0.82426300  1
  Mo  Mo3  1  0.16848300  0.55982400  0.32426300  1
  N  N4  1  0.88660000  0.14783100  0.27597900  1
  N  N5  1  0.61340000  0.14783100  0.77597900  1
  N  N6  1  0.11340000  0.85216900  0.72402100  1
  N  N7  1  0.38660000  0.85216900  0.22402100  1
  N  N8  1  0.86205400  0.71494800  0.04401200  1
  N  N9  1  0.63794600  0.71494800  0.54401200  1
  N  N10  1  0.13794600  0.28505200  0.95598800  1
  N  N11  1  0.36205400  0.28505200  0.45598800  1
  O  O12  1  0.98073200  0.01555000  0.32401100  1
  O  O13  1  0.51926800  0.01555000  0.82401100  1
  O  O14  1  0.01926800  0.98445000  0.67598900  1
  O  O15  1  0.48073200  0.98445000  0.17598900  1
  O  O16  1  0.67146700  0.19848200  0.29538600  1
  O  O17  1  0.82853300  0.19848200  0.79538600  1
  O  O18  1  0.32853300  0.80151800  0.70461400  1
  O  O19  1  0.17146700  0.80151800  0.20461400  1
  O  O20  1  0.98206700  0.25976400  0.19926500  1
  O  O21  1  0.51793300  0.25976400  0.69926500  1
  O  O22  1  0.01793300  0.74023600  0.80073500  1
  O  O23  1  0.48206700  0.74023600  0.30073500  1
  O  O24  1  0.64749700  0.70560700  0.08693300  1
  O  O25  1  0.85250300  0.70560700  0.58693300  1
  O  O26  1  0.35250300  0.29439300  0.91306700  1
  O  O27  1  0.14749700  0.29439300  0.41306700  1
  O  O28  1  0.97067700  0.56902100  0.07520200  1
  O  O29  1  0.52932300  0.56902100  0.57520200  1
  O  O30  1  0.02932300  0.43097900  0.92479800  1
  O  O31  1  0.47067700  0.43097900  0.42479800  1
  O  O32  1  0.94469900  0.84212100  0.98504200  1
  O  O33  1  0.55530100  0.84212100  0.48504200  1
  O  O34  1  0.05530100  0.15787900  0.01495800  1
  O  O35  1  0.44469900  0.15787900  0.51495800  1
  O  O36  1  0.53658900  0.37061500  0.09708500  1
  O  O37  1  0.96341100  0.37061500  0.59708500  1
  O  O38  1  0.46341100  0.62938500  0.90291500  1
  O  O39  1  0.03658900  0.62938500  0.40291500  1
  O  O40  1  0.40727900  0.48263000  0.23472200  1
  O  O41  1  0.09272100  0.48263000  0.73472200  1
  O  O42  1  0.59272100  0.51737000  0.76527800  1
  O  O43  1  0.90727900  0.51737000  0.26527800  1
