# generated using pymatgen
data_Y2(Al3Ir)3
_symmetry_space_group_name_H-M   'P 1'
_cell_length_a   7.56752424
_cell_length_b   7.56752424
_cell_length_c   9.50005400
_cell_angle_alpha   90.00000000
_cell_angle_beta   90.00000000
_cell_angle_gamma   119.55541645
_symmetry_Int_Tables_number   1
_chemical_formula_structural   Y2(Al3Ir)3
_chemical_formula_sum   'Y4 Al18 Ir6'
_cell_volume   473.25212279
_cell_formula_units_Z   2
loop_
 _symmetry_equiv_pos_site_id
 _symmetry_equiv_pos_as_xyz
  1  'x, y, z'
loop_
 _atom_site_type_symbol
 _atom_site_label
 _atom_site_symmetry_multiplicity
 _atom_site_fract_x
 _atom_site_fract_y
 _atom_site_fract_z
 _atom_site_occupancy
  Y  Y0  1  0.99509800  0.66974500  0.25000000  1
  Y  Y1  1  0.00490200  0.33025500  0.75000000  1
  Y  Y2  1  0.66974500  0.99509800  0.25000000  1
  Y  Y3  1  0.33025500  0.00490200  0.75000000  1
  Al  Al4  1  0.12764000  0.12764000  0.25000000  1
  Al  Al5  1  0.87236000  0.87236000  0.75000000  1
  Al  Al6  1  0.00141600  0.33489900  0.07369900  1
  Al  Al7  1  0.99858400  0.66510100  0.92630100  1
  Al  Al8  1  0.99858400  0.66510100  0.57369900  1
  Al  Al9  1  0.33489900  0.00141600  0.42630100  1
  Al  Al10  1  0.00141600  0.33489900  0.42630100  1
  Al  Al11  1  0.66510100  0.99858400  0.57369900  1
  Al  Al12  1  0.66510100  0.99858400  0.92630100  1
  Al  Al13  1  0.33489900  0.00141600  0.07369900  1
  Al  Al14  1  0.33351300  0.33351300  0.55280600  1
  Al  Al15  1  0.66648700  0.66648700  0.44719400  1
  Al  Al16  1  0.66648700  0.66648700  0.05280600  1
  Al  Al17  1  0.33351300  0.33351300  0.94719400  1
  Al  Al18  1  0.33812000  0.54661100  0.25000000  1
  Al  Al19  1  0.66188000  0.45338900  0.75000000  1
  Al  Al20  1  0.54661100  0.33812000  0.25000000  1
  Al  Al21  1  0.45338900  0.66188000  0.75000000  1
  Ir  Ir22  1  0.67168600  0.32831400  0.00000000  1
  Ir  Ir23  1  0.32831400  0.67168600  0.00000000  1
  Ir  Ir24  1  0.32831400  0.67168600  0.50000000  1
  Ir  Ir25  1  0.67168600  0.32831400  0.50000000  1
  Ir  Ir26  1  0.00000000  0.00000000  0.00000000  1
  Ir  Ir27  1  0.00000000  0.00000000  0.50000000  1
