# generated using pymatgen
data_Pr3(Al3Ru)4
_symmetry_space_group_name_H-M   'P 1'
_cell_length_a   8.90966952
_cell_length_b   8.90966952
_cell_length_c   9.70902600
_cell_angle_alpha   90.00000000
_cell_angle_beta   90.00000000
_cell_angle_gamma   119.99999640
_symmetry_Int_Tables_number   1
_chemical_formula_structural   Pr3(Al3Ru)4
_chemical_formula_sum   'Pr6 Al24 Ru8'
_cell_volume   667.46654363
_cell_formula_units_Z   2
loop_
 _symmetry_equiv_pos_site_id
 _symmetry_equiv_pos_as_xyz
  1  'x, y, z'
loop_
 _atom_site_type_symbol
 _atom_site_label
 _atom_site_symmetry_multiplicity
 _atom_site_fract_x
 _atom_site_fract_y
 _atom_site_fract_z
 _atom_site_occupancy
  Pr  Pr0  1  0.19218200  0.38436300  0.25000000  1
  Pr  Pr1  1  0.80781800  0.61563700  0.75000000  1
  Pr  Pr2  1  0.61563700  0.80781800  0.25000000  1
  Pr  Pr3  1  0.38436300  0.19218200  0.75000000  1
  Pr  Pr4  1  0.19218200  0.80781800  0.25000000  1
  Pr  Pr5  1  0.80781800  0.19218200  0.75000000  1
  Al  Al6  1  0.33333300  0.66666700  0.00934900  1
  Al  Al7  1  0.66666700  0.33333300  0.99065100  1
  Al  Al8  1  0.66666700  0.33333300  0.50934900  1
  Al  Al9  1  0.33333300  0.66666700  0.49065100  1
  Al  Al10  1  0.16227700  0.32455300  0.57586900  1
  Al  Al11  1  0.83772300  0.67544700  0.42413100  1
  Al  Al12  1  0.67544700  0.83772300  0.57586900  1
  Al  Al13  1  0.83772300  0.67544700  0.07586900  1
  Al  Al14  1  0.32455300  0.16227700  0.42413100  1
  Al  Al15  1  0.16227700  0.32455300  0.92413100  1
  Al  Al16  1  0.16227700  0.83772300  0.57586900  1
  Al  Al17  1  0.32455300  0.16227700  0.07586900  1
  Al  Al18  1  0.83772300  0.16227700  0.42413100  1
  Al  Al19  1  0.67544700  0.83772300  0.92413100  1
  Al  Al20  1  0.83772300  0.16227700  0.07586900  1
  Al  Al21  1  0.16227700  0.83772300  0.92413100  1
  Al  Al22  1  0.56269400  0.12538800  0.25000000  1
  Al  Al23  1  0.43730600  0.87461200  0.75000000  1
  Al  Al24  1  0.87461200  0.43730600  0.25000000  1
  Al  Al25  1  0.12538800  0.56269400  0.75000000  1
  Al  Al26  1  0.56269400  0.43730600  0.25000000  1
  Al  Al27  1  0.43730600  0.56269400  0.75000000  1
  Al  Al28  1  0.00000000  0.00000000  0.25000000  1
  Al  Al29  1  0.00000000  0.00000000  0.75000000  1
  Ru  Ru30  1  0.50000000  0.00000000  0.00000000  1
  Ru  Ru31  1  0.00000000  0.50000000  0.00000000  1
  Ru  Ru32  1  0.50000000  0.00000000  0.50000000  1
  Ru  Ru33  1  0.50000000  0.50000000  0.00000000  1
  Ru  Ru34  1  0.00000000  0.50000000  0.50000000  1
  Ru  Ru35  1  0.50000000  0.50000000  0.50000000  1
  Ru  Ru36  1  0.00000000  0.00000000  0.00000000  1
  Ru  Ru37  1  0.00000000  0.00000000  0.50000000  1
