# generated using pymatgen
data_Pr3Ir
_symmetry_space_group_name_H-M   'P 1'
_cell_length_a   6.58856300
_cell_length_b   7.42721600
_cell_length_c   9.99093300
_cell_angle_alpha   90.00000000
_cell_angle_beta   90.00000000
_cell_angle_gamma   90.00000000
_symmetry_Int_Tables_number   1
_chemical_formula_structural   Pr3Ir
_chemical_formula_sum   'Pr12 Ir4'
_cell_volume   488.90311456
_cell_formula_units_Z   4
loop_
 _symmetry_equiv_pos_site_id
 _symmetry_equiv_pos_as_xyz
  1  'x, y, z'
loop_
 _atom_site_type_symbol
 _atom_site_label
 _atom_site_symmetry_multiplicity
 _atom_site_fract_x
 _atom_site_fract_y
 _atom_site_fract_z
 _atom_site_occupancy
  Pr  Pr0  1  0.32879500  0.67493600  0.06612500  1
  Pr  Pr1  1  0.17120500  0.17493600  0.43387500  1
  Pr  Pr2  1  0.67120500  0.32506400  0.56612500  1
  Pr  Pr3  1  0.82879500  0.82506400  0.93387500  1
  Pr  Pr4  1  0.67120500  0.32506400  0.93387500  1
  Pr  Pr5  1  0.82879500  0.82506400  0.56612500  1
  Pr  Pr6  1  0.32879500  0.67493600  0.43387500  1
  Pr  Pr7  1  0.17120500  0.17493600  0.06612500  1
  Pr  Pr8  1  0.86092400  0.53385700  0.25000000  1
  Pr  Pr9  1  0.63907600  0.03385700  0.25000000  1
  Pr  Pr10  1  0.13907600  0.46614300  0.75000000  1
  Pr  Pr11  1  0.36092400  0.96614300  0.75000000  1
  Ir  Ir12  1  0.06373000  0.88284000  0.25000000  1
  Ir  Ir13  1  0.43627000  0.38284000  0.25000000  1
  Ir  Ir14  1  0.93627000  0.11716000  0.75000000  1
  Ir  Ir15  1  0.56373000  0.61716000  0.75000000  1
