# generated using pymatgen
data_Na5U5O18
_symmetry_space_group_name_H-M   'P 1'
_cell_length_a   11.70118074
_cell_length_b   11.70118074
_cell_length_c   6.89542610
_cell_angle_alpha   84.16470329
_cell_angle_beta   84.16470329
_cell_angle_gamma   115.80916520
_symmetry_Int_Tables_number   1
_chemical_formula_structural   Na5U5O18
_chemical_formula_sum   'Na10 U10 O36'
_cell_volume   834.22526415
_cell_formula_units_Z   2
loop_
 _symmetry_equiv_pos_site_id
 _symmetry_equiv_pos_as_xyz
  1  'x, y, z'
loop_
 _atom_site_type_symbol
 _atom_site_label
 _atom_site_symmetry_multiplicity
 _atom_site_fract_x
 _atom_site_fract_y
 _atom_site_fract_z
 _atom_site_occupancy
  Na  Na0  1  0.55119600  0.44822000  0.75757800  1
  Na  Na1  1  0.44822000  0.55119600  0.25757800  1
  Na  Na2  1  0.05716100  0.94419500  0.25030600  1
  Na  Na3  1  0.94419500  0.05716100  0.75030600  1
  Na  Na4  1  0.14039200  0.86006700  0.75100400  1
  Na  Na5  1  0.86006700  0.14039200  0.25100400  1
  Na  Na6  1  0.25102200  0.75003400  0.25362800  1
  Na  Na7  1  0.75003400  0.25102200  0.75362800  1
  Na  Na8  1  0.65362700  0.36648000  0.27506700  1
  Na  Na9  1  0.36648000  0.65362700  0.77506700  1
  U  U10  1  0.90865600  0.60318400  0.53054000  1
  U  U11  1  0.39772500  0.09222700  0.97106000  1
  U  U12  1  0.09222700  0.39772500  0.47106000  1
  U  U13  1  0.60318400  0.90865600  0.03054000  1
  U  U14  1  0.00090300  0.50122400  0.00071400  1
  U  U15  1  0.50122400  0.00090300  0.50071400  1
  U  U16  1  0.79553400  0.70800900  0.99338100  1
  U  U17  1  0.29297400  0.20536400  0.50778200  1
  U  U18  1  0.20536400  0.29297400  0.00778200  1
  U  U19  1  0.70800900  0.79553400  0.49338100  1
  O  O20  1  0.78878500  0.68972800  0.67066800  1
  O  O21  1  0.31010800  0.21121400  0.83085900  1
  O  O22  1  0.21121400  0.31010800  0.33085900  1
  O  O23  1  0.68972800  0.78878500  0.17066800  1
  O  O24  1  0.75518100  0.44757900  0.57682600  1
  O  O25  1  0.55253700  0.24473000  0.91898700  1
  O  O26  1  0.24473000  0.55253700  0.41898700  1
  O  O27  1  0.44757900  0.75518100  0.07682600  1
  O  O28  1  0.64665300  0.54651300  0.05168000  1
  O  O29  1  0.45394700  0.35491600  0.45296800  1
  O  O30  1  0.35491600  0.45394700  0.95296800  1
  O  O31  1  0.54651300  0.64665300  0.55168000  1
  O  O32  1  0.06381900  0.75880600  0.47653200  1
  O  O33  1  0.24225900  0.93702300  0.02517500  1
  O  O34  1  0.93702300  0.24225900  0.52517500  1
  O  O35  1  0.75880600  0.06381900  0.97653200  1
  O  O36  1  0.84091700  0.67926800  0.28812100  1
  O  O37  1  0.32059200  0.16016600  0.21275500  1
  O  O38  1  0.16016600  0.32059200  0.71275500  1
  O  O39  1  0.67926800  0.84091700  0.78812100  1
  O  O40  1  0.92435800  0.62556800  0.88290500  1
  O  O41  1  0.37605700  0.07710100  0.61721300  1
  O  O42  1  0.07710100  0.37605700  0.11721300  1
  O  O43  1  0.62556800  0.92435800  0.38290500  1
  O  O44  1  0.94226900  0.86931100  0.93380600  1
  O  O45  1  0.13188500  0.05818000  0.56705600  1
  O  O46  1  0.05818000  0.13188500  0.06705600  1
  O  O47  1  0.86931100  0.94226900  0.43380600  1
  O  O48  1  0.16879300  0.64020300  0.94221800  1
  O  O49  1  0.36300700  0.83246100  0.56189500  1
  O  O50  1  0.83246100  0.36300700  0.06189500  1
  O  O51  1  0.64020300  0.16879300  0.44221800  1
  O  O52  1  0.00328200  0.47575000  0.68953500  1
  O  O53  1  0.52526300  0.99717200  0.81254200  1
  O  O54  1  0.99717200  0.52526300  0.31254200  1
  O  O55  1  0.47575000  0.00328200  0.18953500  1
