# generated using pymatgen
data_K4Te8O23
_symmetry_space_group_name_H-M   'P 1'
_cell_length_a   7.40928400
_cell_length_b   14.86449800
_cell_length_c   20.00382900
_cell_angle_alpha   90.00000000
_cell_angle_beta   90.00000000
_cell_angle_gamma   90.00000000
_symmetry_Int_Tables_number   1
_chemical_formula_structural   K4Te8O23
_chemical_formula_sum   'K16 Te32 O92'
_cell_volume   2203.12745200
_cell_formula_units_Z   4
loop_
 _symmetry_equiv_pos_site_id
 _symmetry_equiv_pos_as_xyz
  1  'x, y, z'
loop_
 _atom_site_type_symbol
 _atom_site_label
 _atom_site_symmetry_multiplicity
 _atom_site_fract_x
 _atom_site_fract_y
 _atom_site_fract_z
 _atom_site_occupancy
  K  K0  1  0.75000000  0.24848200  0.92901900  1
  K  K1  1  0.25000000  0.75151800  0.07098100  1
  K  K2  1  0.75000000  0.25151800  0.42901900  1
  K  K3  1  0.25000000  0.74848200  0.57098100  1
  K  K4  1  0.25000000  0.99474700  0.68525700  1
  K  K5  1  0.75000000  0.00525300  0.31474300  1
  K  K6  1  0.25000000  0.50525300  0.18525700  1
  K  K7  1  0.75000000  0.49474700  0.81474300  1
  K  K8  1  0.25000000  0.24077500  0.56221100  1
  K  K9  1  0.75000000  0.75922500  0.43778900  1
  K  K10  1  0.25000000  0.25922500  0.06221100  1
  K  K11  1  0.75000000  0.74077500  0.93778900  1
  K  K12  1  0.25000000  0.49893700  0.67244900  1
  K  K13  1  0.75000000  0.50106300  0.32755100  1
  K  K14  1  0.25000000  0.00106300  0.17244900  1
  K  K15  1  0.75000000  0.99893700  0.82755100  1
  Te  Te16  1  0.25000000  0.37533800  0.86442300  1
  Te  Te17  1  0.75000000  0.62466200  0.13557700  1
  Te  Te18  1  0.25000000  0.12466200  0.36442300  1
  Te  Te19  1  0.75000000  0.87533800  0.63557700  1
  Te  Te20  1  0.00145800  0.23733800  0.74380200  1
  Te  Te21  1  0.50145800  0.76266200  0.25619800  1
  Te  Te22  1  0.00145800  0.26266200  0.24380200  1
  Te  Te23  1  0.50145800  0.73733800  0.75619800  1
  Te  Te24  1  0.50000000  0.50000000  0.50000000  1
  Te  Te25  1  0.00000000  0.50000000  0.50000000  1
  Te  Te26  1  0.50000000  0.00000000  0.00000000  1
  Te  Te27  1  0.00000000  0.00000000  0.00000000  1
  Te  Te28  1  0.50000000  0.00000000  0.50000000  1
  Te  Te29  1  0.00000000  0.00000000  0.50000000  1
  Te  Te30  1  0.50000000  0.50000000  0.00000000  1
  Te  Te31  1  0.00000000  0.50000000  0.00000000  1
  Te  Te32  1  0.25000000  0.11728000  0.87174900  1
  Te  Te33  1  0.75000000  0.88272000  0.12825100  1
  Te  Te34  1  0.25000000  0.38272000  0.37174900  1
  Te  Te35  1  0.75000000  0.61728000  0.62825100  1
  Te  Te36  1  0.75000000  0.12757800  0.60832500  1
  Te  Te37  1  0.25000000  0.87242200  0.39167500  1
  Te  Te38  1  0.75000000  0.37242200  0.10832500  1
  Te  Te39  1  0.25000000  0.62757800  0.89167500  1
  Te  Te40  1  0.49854200  0.23733800  0.74380200  1
  Te  Te41  1  0.99854200  0.76266200  0.25619800  1
  Te  Te42  1  0.49854200  0.26266200  0.24380200  1
  Te  Te43  1  0.99854200  0.73733800  0.75619800  1
  Te  Te44  1  0.75000000  0.37147000  0.62291700  1
  Te  Te45  1  0.25000000  0.62853000  0.37708300  1
  Te  Te46  1  0.75000000  0.12853000  0.12291700  1
  Te  Te47  1  0.25000000  0.87147000  0.87708300  1
  O  O48  1  0.56390600  0.39452600  0.55779600  1
  O  O49  1  0.06390600  0.60547400  0.44220400  1
  O  O50  1  0.56390600  0.10547400  0.05779600  1
  O  O51  1  0.06390600  0.89452600  0.94220400  1
  O  O52  1  0.45204500  0.45227000  0.91082400  1
  O  O53  1  0.95204500  0.54773000  0.08917600  1
  O  O54  1  0.45204500  0.04773000  0.41082400  1
  O  O55  1  0.95204500  0.95227000  0.58917600  1
  O  O56  1  0.56439500  0.34775700  0.68777900  1
  O  O57  1  0.06439500  0.65224300  0.31222100  1
  O  O58  1  0.56439500  0.15224300  0.18777900  1
  O  O59  1  0.06439500  0.84775700  0.81222100  1
  O  O60  1  0.25000000  0.27867400  0.92288700  1
  O  O61  1  0.75000000  0.72132600  0.07711300  1
  O  O62  1  0.25000000  0.22132600  0.42288700  1
  O  O63  1  0.75000000  0.77867400  0.57711300  1
  O  O64  1  0.93560500  0.34775700  0.68777900  1
  O  O65  1  0.43560500  0.65224300  0.31222100  1
  O  O66  1  0.93560500  0.15224300  0.18777900  1
  O  O67  1  0.43560500  0.84775700  0.81222100  1
  O  O68  1  0.99407000  0.16076300  0.66681500  1
  O  O69  1  0.49407000  0.83923700  0.33318500  1
  O  O70  1  0.99407000  0.33923700  0.16681500  1
  O  O71  1  0.49407000  0.66076300  0.83318500  1
  O  O72  1  0.25000000  0.02684400  0.53201400  1
  O  O73  1  0.75000000  0.97315600  0.46798600  1
  O  O74  1  0.25000000  0.47315600  0.03201400  1
  O  O75  1  0.75000000  0.52684400  0.96798600  1
  O  O76  1  0.75000000  0.20390000  0.76538000  1
  O  O77  1  0.25000000  0.79610000  0.23462000  1
  O  O78  1  0.75000000  0.29610000  0.26538000  1
  O  O79  1  0.25000000  0.70390000  0.73462000  1
  O  O80  1  0.50593000  0.16076300  0.66681500  1
  O  O81  1  0.00593000  0.83923700  0.33318500  1
  O  O82  1  0.50593000  0.33923700  0.16681500  1
  O  O83  1  0.00593000  0.66076300  0.83318500  1
  O  O84  1  0.50018000  0.31982800  0.81788700  1
  O  O85  1  0.00018000  0.68017200  0.18211300  1
  O  O86  1  0.50018000  0.18017200  0.31788700  1
  O  O87  1  0.00018000  0.81982800  0.68211300  1
  O  O88  1  0.48022900  0.92485800  0.07555300  1
  O  O89  1  0.98022900  0.07514200  0.92444700  1
  O  O90  1  0.48022900  0.57514200  0.57555300  1
  O  O91  1  0.98022900  0.42485800  0.42444700  1
  O  O92  1  0.93609400  0.39452600  0.55779600  1
  O  O93  1  0.43609400  0.60547400  0.44220400  1
  O  O94  1  0.93609400  0.10547400  0.05779600  1
  O  O95  1  0.43609400  0.89452600  0.94220400  1
  O  O96  1  0.25000000  0.45488600  0.50980400  1
  O  O97  1  0.75000000  0.54511400  0.49019600  1
  O  O98  1  0.25000000  0.04511400  0.00980400  1
  O  O99  1  0.75000000  0.95488600  0.99019600  1
  O  O100  1  0.75000000  0.49158500  0.66195500  1
  O  O101  1  0.25000000  0.50841500  0.33804500  1
  O  O102  1  0.75000000  0.00841500  0.16195500  1
  O  O103  1  0.25000000  0.99158500  0.83804500  1
  O  O104  1  0.75000000  0.25247000  0.58041700  1
  O  O105  1  0.25000000  0.74753000  0.41958300  1
  O  O106  1  0.75000000  0.24753000  0.08041700  1
  O  O107  1  0.25000000  0.75247000  0.91958300  1
  O  O108  1  0.43731500  0.13523900  0.79826800  1
  O  O109  1  0.93731500  0.86476100  0.20173200  1
  O  O110  1  0.43731500  0.36476100  0.29826800  1
  O  O111  1  0.93731500  0.63523900  0.70173200  1
  O  O112  1  0.56268500  0.63523900  0.70173200  1
  O  O113  1  0.06268500  0.36476100  0.29826800  1
  O  O114  1  0.56268500  0.86476100  0.20173200  1
  O  O115  1  0.06268500  0.13523900  0.79826800  1
  O  O116  1  0.93724700  0.11981500  0.53207800  1
  O  O117  1  0.43724700  0.88018500  0.46792200  1
  O  O118  1  0.93724700  0.38018500  0.03207800  1
  O  O119  1  0.43724700  0.61981500  0.96792200  1
  O  O120  1  0.25000000  0.27560500  0.71976500  1
  O  O121  1  0.75000000  0.72439500  0.28023500  1
  O  O122  1  0.25000000  0.22439500  0.21976500  1
  O  O123  1  0.75000000  0.77560500  0.78023500  1
  O  O124  1  0.49982000  0.81982800  0.68211300  1
  O  O125  1  0.99982000  0.18017200  0.31788700  1
  O  O126  1  0.49982000  0.68017200  0.18211300  1
  O  O127  1  0.99982000  0.31982800  0.81788700  1
  O  O128  1  0.56275300  0.11981500  0.53207800  1
  O  O129  1  0.06275300  0.88018500  0.46792200  1
  O  O130  1  0.56275300  0.38018500  0.03207800  1
  O  O131  1  0.06275300  0.61981500  0.96792200  1
  O  O132  1  0.51977100  0.07514200  0.92444700  1
  O  O133  1  0.01977100  0.92485800  0.07555300  1
  O  O134  1  0.51977100  0.42485800  0.42444700  1
  O  O135  1  0.01977100  0.57514200  0.57555300  1
  O  O136  1  0.54795500  0.95227000  0.58917600  1
  O  O137  1  0.04795500  0.04773000  0.41082400  1
  O  O138  1  0.54795500  0.54773000  0.08917600  1
  O  O139  1  0.04795500  0.45227000  0.91082400  1
