# generated using pymatgen
data_K3H(SeO4)2
_symmetry_space_group_name_H-M   'P 1'
_cell_length_a   8.23156044
_cell_length_b   8.23156044
_cell_length_c   10.37487518
_cell_angle_alpha   77.52234374
_cell_angle_beta   77.52234374
_cell_angle_gamma   42.91713675
_symmetry_Int_Tables_number   1
_chemical_formula_structural   K3H(SeO4)2
_chemical_formula_sum   'K6 H2 Se4 O16'
_cell_volume   465.61386430
_cell_formula_units_Z   2
loop_
 _symmetry_equiv_pos_site_id
 _symmetry_equiv_pos_as_xyz
  1  'x, y, z'
loop_
 _atom_site_type_symbol
 _atom_site_label
 _atom_site_symmetry_multiplicity
 _atom_site_fract_x
 _atom_site_fract_y
 _atom_site_fract_z
 _atom_site_occupancy
  K  K0  1  0.93178900  0.46059000  0.84789900  1
  K  K1  1  0.46059000  0.93178900  0.34789900  1
  K  K2  1  0.06977000  0.54005900  0.15183600  1
  K  K3  1  0.54005900  0.06977000  0.65183600  1
  K  K4  1  0.75801100  0.23910800  0.25050100  1
  K  K5  1  0.23910800  0.75801100  0.75050100  1
  H  H6  1  0.02340900  0.97545400  0.00940400  1
  H  H7  1  0.97545400  0.02340900  0.50940400  1
  Se  Se8  1  0.34789200  0.88788100  0.03835300  1
  Se  Se9  1  0.88788100  0.34789200  0.53835300  1
  Se  Se10  1  0.65453200  0.11560500  0.96041000  1
  Se  Se11  1  0.11560500  0.65453200  0.46041000  1
  O  O12  1  0.16723800  0.14843300  0.10159600  1
  O  O13  1  0.14843300  0.16723800  0.60159600  1
  O  O14  1  0.82924900  0.85296100  0.89896500  1
  O  O15  1  0.85296100  0.82924900  0.39896500  1
  O  O16  1  0.59028100  0.66424700  0.11808400  1
  O  O17  1  0.66424700  0.59028100  0.61808400  1
  O  O18  1  0.40607800  0.33476300  0.88225600  1
  O  O19  1  0.33476300  0.40607800  0.38225600  1
  O  O20  1  0.17911100  0.82442000  0.06438400  1
  O  O21  1  0.82442000  0.17911100  0.56438400  1
  O  O22  1  0.82259800  0.17228000  0.93750200  1
  O  O23  1  0.17228000  0.82259800  0.43750200  1
  O  O24  1  0.40430200  0.90300400  0.87510400  1
  O  O25  1  0.90300400  0.40430200  0.37510400  1
  O  O26  1  0.59376800  0.09656800  0.12410700  1
  O  O27  1  0.09656800  0.59376800  0.62410700  1
