# generated using pymatgen
data_Mn2SnPd3
_symmetry_space_group_name_H-M   'P 1'
_cell_length_a   4.48998022
_cell_length_b   4.48998022
_cell_length_c   11.10624100
_cell_angle_alpha   90.00000000
_cell_angle_beta   90.00000000
_cell_angle_gamma   120.00000329
_symmetry_Int_Tables_number   1
_chemical_formula_structural   Mn2SnPd3
_chemical_formula_sum   'Mn4 Sn2 Pd6'
_cell_volume   193.90391006
_cell_formula_units_Z   2
loop_
 _symmetry_equiv_pos_site_id
 _symmetry_equiv_pos_as_xyz
  1  'x, y, z'
loop_
 _atom_site_type_symbol
 _atom_site_label
 _atom_site_symmetry_multiplicity
 _atom_site_fract_x
 _atom_site_fract_y
 _atom_site_fract_z
 _atom_site_occupancy
  Mn  Mn0  1  0.00000000  0.00000000  0.50000000  1
  Mn  Mn1  1  0.33333300  0.66666700  0.16141200  1
  Mn  Mn2  1  0.66666700  0.33333300  0.83858800  1
  Mn  Mn3  1  0.00000000  0.00000000  0.00000000  1
  Sn  Sn4  1  0.33333300  0.66666700  0.66851400  1
  Sn  Sn5  1  0.66666700  0.33333300  0.33148600  1
  Pd  Pd6  1  0.33333300  0.66666700  0.41644300  1
  Pd  Pd7  1  0.66666700  0.33333300  0.07803300  1
  Pd  Pd8  1  0.00000000  0.00000000  0.75509700  1
  Pd  Pd9  1  0.00000000  0.00000000  0.24490300  1
  Pd  Pd10  1  0.33333300  0.66666700  0.92196700  1
  Pd  Pd11  1  0.66666700  0.33333300  0.58355700  1
