# generated using pymatgen
data_Sb2Ir
_symmetry_space_group_name_H-M   'P 1'
_cell_length_a   6.63961300
_cell_length_b   6.69358800
_cell_length_c   6.79475234
_cell_angle_alpha   65.07224746
_cell_angle_beta   90.00000000
_cell_angle_gamma   90.00000000
_symmetry_Int_Tables_number   1
_chemical_formula_structural   Sb2Ir
_chemical_formula_sum   'Sb8 Ir4'
_cell_volume   273.84576512
_cell_formula_units_Z   4
loop_
 _symmetry_equiv_pos_site_id
 _symmetry_equiv_pos_as_xyz
  1  'x, y, z'
loop_
 _atom_site_type_symbol
 _atom_site_label
 _atom_site_symmetry_multiplicity
 _atom_site_fract_x
 _atom_site_fract_y
 _atom_site_fract_z
 _atom_site_occupancy
  Sb  Sb0  1  0.13497100  0.14907300  0.12116100  1
  Sb  Sb1  1  0.63497100  0.85092700  0.37883900  1
  Sb  Sb2  1  0.86502900  0.85092700  0.87883900  1
  Sb  Sb3  1  0.36502900  0.14907300  0.62116100  1
  Sb  Sb4  1  0.63744600  0.34460600  0.82129800  1
  Sb  Sb5  1  0.13744600  0.65539400  0.67870200  1
  Sb  Sb6  1  0.36255400  0.65539400  0.17870200  1
  Sb  Sb7  1  0.86255400  0.34460600  0.32129800  1
  Ir  Ir8  1  0.49901800  0.27169300  0.20893000  1
  Ir  Ir9  1  0.99901800  0.72830700  0.29107000  1
  Ir  Ir10  1  0.50098200  0.72830700  0.79107000  1
  Ir  Ir11  1  0.00098200  0.27169300  0.70893000  1
