# generated using pymatgen
data_SrNi3Ge2
_symmetry_space_group_name_H-M   'P 1'
_cell_length_a   4.05947434
_cell_length_b   4.05947434
_cell_length_c   14.21617700
_cell_angle_alpha   90.00000000
_cell_angle_beta   90.00000000
_cell_angle_gamma   120.00000550
_symmetry_Int_Tables_number   1
_chemical_formula_structural   SrNi3Ge2
_chemical_formula_sum   'Sr2 Ni6 Ge4'
_cell_volume   202.88644400
_cell_formula_units_Z   2
loop_
 _symmetry_equiv_pos_site_id
 _symmetry_equiv_pos_as_xyz
  1  'x, y, z'
loop_
 _atom_site_type_symbol
 _atom_site_label
 _atom_site_symmetry_multiplicity
 _atom_site_fract_x
 _atom_site_fract_y
 _atom_site_fract_z
 _atom_site_occupancy
  Sr  Sr0  1  0.00000000  0.00000000  0.75000000  1
  Sr  Sr1  1  0.00000000  0.00000000  0.25000000  1
  Ni  Ni2  1  0.00000000  0.00000000  0.50000000  1
  Ni  Ni3  1  0.00000000  0.00000000  0.00000000  1
  Ni  Ni4  1  0.33333300  0.66666700  0.42835200  1
  Ni  Ni5  1  0.66666700  0.33333300  0.92835200  1
  Ni  Ni6  1  0.33333300  0.66666700  0.07164800  1
  Ni  Ni7  1  0.66666700  0.33333300  0.57164800  1
  Ge  Ge8  1  0.33333300  0.66666700  0.59653500  1
  Ge  Ge9  1  0.66666700  0.33333300  0.40346500  1
  Ge  Ge10  1  0.66666700  0.33333300  0.09653500  1
  Ge  Ge11  1  0.33333300  0.66666700  0.90346500  1
