# generated using pymatgen
data_Na3Ho(PO4)2
_symmetry_space_group_name_H-M   'P 1'
_cell_length_a   5.30527700
_cell_length_b   13.90276000
_cell_length_c   18.54216900
_cell_angle_alpha   90.00000000
_cell_angle_beta   90.00000000
_cell_angle_gamma   90.00000000
_symmetry_Int_Tables_number   1
_chemical_formula_structural   Na3Ho(PO4)2
_chemical_formula_sum   'Na24 Ho8 P16 O64'
_cell_volume   1367.63316879
_cell_formula_units_Z   8
loop_
 _symmetry_equiv_pos_site_id
 _symmetry_equiv_pos_as_xyz
  1  'x, y, z'
loop_
 _atom_site_type_symbol
 _atom_site_label
 _atom_site_symmetry_multiplicity
 _atom_site_fract_x
 _atom_site_fract_y
 _atom_site_fract_z
 _atom_site_occupancy
  Na  Na0  1  0.00985800  0.78302100  0.50756500  1
  Na  Na1  1  0.99014200  0.21697900  0.00756500  1
  Na  Na2  1  0.99014200  0.28302100  0.50756500  1
  Na  Na3  1  0.00985800  0.71697900  0.00756500  1
  Na  Na4  1  0.00749200  0.04840300  0.85064500  1
  Na  Na5  1  0.99250800  0.95159700  0.35064500  1
  Na  Na6  1  0.99250800  0.54840300  0.85064500  1
  Na  Na7  1  0.00749200  0.45159700  0.35064500  1
  Na  Na8  1  0.00381600  0.13880500  0.67196600  1
  Na  Na9  1  0.99618400  0.86119500  0.17196600  1
  Na  Na10  1  0.99618400  0.63880500  0.67196600  1
  Na  Na11  1  0.00381600  0.36119500  0.17196600  1
  Na  Na12  1  0.51966700  0.20187000  0.77057300  1
  Na  Na13  1  0.48033300  0.79813000  0.27057300  1
  Na  Na14  1  0.48033300  0.70187000  0.77057300  1
  Na  Na15  1  0.51966700  0.29813000  0.27057300  1
  Na  Na16  1  0.46035100  0.03170300  0.61182400  1
  Na  Na17  1  0.53964900  0.96829700  0.11182400  1
  Na  Na18  1  0.53964900  0.53170300  0.61182400  1
  Na  Na19  1  0.46035100  0.46829700  0.11182400  1
  Na  Na20  1  0.49999800  0.11309400  0.95011800  1
  Na  Na21  1  0.50000200  0.88690600  0.45011800  1
  Na  Na22  1  0.50000200  0.61309400  0.95011800  1
  Na  Na23  1  0.49999800  0.38690600  0.45011800  1
  Ho  Ho24  1  0.07198600  0.38899500  0.69553400  1
  Ho  Ho25  1  0.92801400  0.61100500  0.19553400  1
  Ho  Ho26  1  0.92801400  0.88899500  0.69553400  1
  Ho  Ho27  1  0.07198600  0.11100500  0.19553400  1
  Ho  Ho28  1  0.44222200  0.36176700  0.92694200  1
  Ho  Ho29  1  0.55777800  0.63823300  0.42694200  1
  Ho  Ho30  1  0.55777800  0.86176700  0.92694200  1
  Ho  Ho31  1  0.44222200  0.13823300  0.42694200  1
  P  P32  1  0.03112700  0.52470900  0.51891100  1
  P  P33  1  0.96887300  0.47529100  0.01891100  1
  P  P34  1  0.96887300  0.02470900  0.51891100  1
  P  P35  1  0.03112700  0.97529100  0.01891100  1
  P  P36  1  0.00882000  0.77670800  0.84735400  1
  P  P37  1  0.99118000  0.22329200  0.34735400  1
  P  P38  1  0.99118000  0.27670800  0.84735400  1
  P  P39  1  0.00882000  0.72329200  0.34735400  1
  P  P40  1  0.52089600  0.47387300  0.77548000  1
  P  P41  1  0.47910400  0.52612700  0.27548000  1
  P  P42  1  0.47910400  0.97387300  0.77548000  1
  P  P43  1  0.52089600  0.02612700  0.27548000  1
  P  P44  1  0.53885900  0.27349400  0.60378800  1
  P  P45  1  0.46114100  0.72650600  0.10378800  1
  P  P46  1  0.46114100  0.77349400  0.60378800  1
  P  P47  1  0.53885900  0.22650600  0.10378800  1
  O  O48  1  0.42443500  0.19217700  0.64943700  1
  O  O49  1  0.57556500  0.80782300  0.14943700  1
  O  O50  1  0.57556500  0.69217700  0.64943700  1
  O  O51  1  0.42443500  0.30782300  0.14943700  1
  O  O52  1  0.30171600  0.52756000  0.73635200  1
  O  O53  1  0.69828400  0.47244000  0.23635200  1
  O  O54  1  0.69828400  0.02756000  0.73635200  1
  O  O55  1  0.30171600  0.97244000  0.23635200  1
  O  O56  1  0.11923600  0.11955100  0.50512900  1
  O  O57  1  0.88076400  0.88044900  0.00512900  1
  O  O58  1  0.88076400  0.61955100  0.50512900  1
  O  O59  1  0.11923600  0.38044900  0.00512900  1
  O  O60  1  0.20625500  0.22279400  0.88870100  1
  O  O61  1  0.79374500  0.77720600  0.38870100  1
  O  O62  1  0.79374500  0.72279400  0.88870100  1
  O  O63  1  0.20625500  0.27720600  0.38870100  1
  O  O64  1  0.31632800  0.54051000  0.49986000  1
  O  O65  1  0.68367200  0.45949000  0.99986000  1
  O  O66  1  0.68367200  0.04051000  0.49986000  1
  O  O67  1  0.31632800  0.95949000  0.99986000  1
  O  O68  1  0.08159900  0.55704300  0.97269500  1
  O  O69  1  0.91840100  0.44295700  0.47269500  1
  O  O70  1  0.91840100  0.05704300  0.97269500  1
  O  O71  1  0.08159900  0.94295700  0.47269500  1
  O  O72  1  0.22532300  0.00074200  0.73875800  1
  O  O73  1  0.77467700  0.99925800  0.23875800  1
  O  O74  1  0.77467700  0.50074200  0.73875800  1
  O  O75  1  0.22532300  0.49925800  0.23875800  1
  O  O76  1  0.38759800  0.36839200  0.61555600  1
  O  O77  1  0.61240200  0.63160800  0.11555600  1
  O  O78  1  0.61240200  0.86839200  0.61555600  1
  O  O79  1  0.38759800  0.13160800  0.11555600  1
  O  O80  1  0.46663500  0.36526300  0.77018100  1
  O  O81  1  0.53336500  0.63473700  0.27018100  1
  O  O82  1  0.53336500  0.86526300  0.77018100  1
  O  O83  1  0.46663500  0.13473700  0.27018100  1
  O  O84  1  0.04749100  0.38518300  0.85275600  1
  O  O85  1  0.95250900  0.61481700  0.35275600  1
  O  O86  1  0.95250900  0.88518300  0.85275600  1
  O  O87  1  0.04749100  0.11481700  0.35275600  1
  O  O88  1  0.17799600  0.79056000  0.62529900  1
  O  O89  1  0.82200400  0.20944000  0.12529900  1
  O  O90  1  0.82200400  0.29056000  0.62529900  1
  O  O91  1  0.17799600  0.70944000  0.12529900  1
  O  O92  1  0.00888900  0.74630500  0.76665000  1
  O  O93  1  0.99111100  0.25369500  0.26665000  1
  O  O94  1  0.99111100  0.24630500  0.76665000  1
  O  O95  1  0.00888900  0.75369500  0.26665000  1
  O  O96  1  0.47282400  0.00371500  0.85669700  1
  O  O97  1  0.52717600  0.99628500  0.35669700  1
  O  O98  1  0.52717600  0.50371500  0.85669700  1
  O  O99  1  0.47282400  0.49628500  0.35669700  1
  O  O100  1  0.99616800  0.00181300  0.60089400  1
  O  O101  1  0.00383200  0.99818700  0.10089400  1
  O  O102  1  0.00383200  0.50181300  0.60089400  1
  O  O103  1  0.99616800  0.49818700  0.10089400  1
  O  O104  1  0.73395600  0.25011900  0.88232900  1
  O  O105  1  0.26604400  0.74988100  0.38232900  1
  O  O106  1  0.26604400  0.75011900  0.88232900  1
  O  O107  1  0.73395600  0.24988100  0.38232900  1
  O  O108  1  0.53085600  0.24975200  0.52140500  1
  O  O109  1  0.46914400  0.75024800  0.02140500  1
  O  O110  1  0.46914400  0.74975200  0.52140500  1
  O  O111  1  0.53085600  0.25024800  0.02140500  1
