# generated using pymatgen
data_Er4(Al8Pd3)3
_symmetry_space_group_name_H-M   'P 1'
_cell_length_a   7.47048961
_cell_length_b   7.54982967
_cell_length_c   13.22816946
_cell_angle_alpha   84.60195673
_cell_angle_beta   79.37364761
_cell_angle_gamma   60.02276773
_symmetry_Int_Tables_number   1
_chemical_formula_structural   Er4(Al8Pd3)3
_chemical_formula_sum   'Er4 Al24 Pd9'
_cell_volume   635.18845185
_cell_formula_units_Z   1
loop_
 _symmetry_equiv_pos_site_id
 _symmetry_equiv_pos_as_xyz
  1  'x, y, z'
loop_
 _atom_site_type_symbol
 _atom_site_label
 _atom_site_symmetry_multiplicity
 _atom_site_fract_x
 _atom_site_fract_y
 _atom_site_fract_z
 _atom_site_occupancy
  Er  Er0  1  0.39313100  0.16896600  0.80864400  1
  Er  Er1  1  0.60686900  0.83103400  0.19135600  1
  Er  Er2  1  0.73406800  0.49805700  0.80824500  1
  Er  Er3  1  0.26593200  0.50194300  0.19175500  1
  Al  Al4  1  0.68475400  0.83379300  0.94471900  1
  Al  Al5  1  0.31524600  0.16620700  0.05528100  1
  Al  Al6  1  0.14625800  0.83311700  0.56069000  1
  Al  Al7  1  0.85374200  0.16688300  0.43931000  1
  Al  Al8  1  0.47919400  0.16678100  0.55853400  1
  Al  Al9  1  0.52080600  0.83321900  0.44146600  1
  Al  Al10  1  0.21626700  0.16554100  0.32927000  1
  Al  Al11  1  0.78373300  0.83445900  0.67073000  1
  Al  Al12  1  0.43738300  0.50579100  0.67071800  1
  Al  Al13  1  0.56261700  0.49420900  0.32928200  1
  Al  Al14  1  0.10917300  0.15971200  0.66983700  1
  Al  Al15  1  0.89082700  0.84028800  0.33016300  1
  Al  Al16  1  0.35365300  0.49908700  0.94491100  1
  Al  Al17  1  0.64634700  0.50091300  0.05508900  1
  Al  Al18  1  0.01527500  0.16777500  0.95317800  1
  Al  Al19  1  0.98472500  0.83222500  0.04682200  1
  Al  Al20  1  0.18692700  0.49921300  0.44101600  1
  Al  Al21  1  0.81307300  0.50078700  0.55898400  1
  Al  Al22  1  0.73367000  0.16352600  0.18298500  1
  Al  Al23  1  0.26633000  0.83647400  0.81701500  1
  Al  Al24  1  0.06158500  0.63124800  0.81549100  1
  Al  Al25  1  0.93841500  0.36875200  0.18450900  1
  Al  Al26  1  0.85439600  0.04188200  0.81615400  1
  Al  Al27  1  0.14560400  0.95811800  0.18384600  1
  Pd  Pd28  1  0.12010200  0.49254900  0.63862100  1
  Pd  Pd29  1  0.87989800  0.50745100  0.36137900  1
  Pd  Pd30  1  0.65755900  0.17096500  0.99967200  1
  Pd  Pd31  1  0.34244100  0.82903500  0.00032800  1
  Pd  Pd32  1  0.53853300  0.16684100  0.36113000  1
  Pd  Pd33  1  0.46146700  0.83315900  0.63887000  1
  Pd  Pd34  1  0.77888700  0.17428200  0.63745300  1
  Pd  Pd35  1  0.22111300  0.82571800  0.36254700  1
  Pd  Pd36  1  0.00000000  0.50000000  0.00000000  1
