# generated using pymatgen
data_CsTbSiS4
_symmetry_space_group_name_H-M   'P 1'
_cell_length_a   6.39746200
_cell_length_b   6.74206900
_cell_length_c   17.84204000
_cell_angle_alpha   90.00000000
_cell_angle_beta   90.00000000
_cell_angle_gamma   90.00000000
_symmetry_Int_Tables_number   1
_chemical_formula_structural   CsTbSiS4
_chemical_formula_sum   'Cs4 Tb4 Si4 S16'
_cell_volume   769.56519283
_cell_formula_units_Z   4
loop_
 _symmetry_equiv_pos_site_id
 _symmetry_equiv_pos_as_xyz
  1  'x, y, z'
loop_
 _atom_site_type_symbol
 _atom_site_label
 _atom_site_symmetry_multiplicity
 _atom_site_fract_x
 _atom_site_fract_y
 _atom_site_fract_z
 _atom_site_occupancy
  Cs  Cs0  1  0.50256800  0.49265700  0.96788600  1
  Cs  Cs1  1  0.99743200  0.50734300  0.46788600  1
  Cs  Cs2  1  0.00256800  0.00734300  0.03211400  1
  Cs  Cs3  1  0.49743200  0.99265700  0.53211400  1
  Tb  Tb4  1  0.29250500  0.48203100  0.22823300  1
  Tb  Tb5  1  0.20749500  0.51796900  0.72823300  1
  Tb  Tb6  1  0.79250500  0.01796900  0.77176700  1
  Tb  Tb7  1  0.70749500  0.98203100  0.27176700  1
  Si  Si8  1  0.78989000  0.51649600  0.16676300  1
  Si  Si9  1  0.71011000  0.48350400  0.66676300  1
  Si  Si10  1  0.28989000  0.98350400  0.83323700  1
  Si  Si11  1  0.21011000  0.01649600  0.33323700  1
  S  S12  1  0.05426100  0.51214400  0.09575300  1
  S  S13  1  0.44573900  0.48785600  0.59575300  1
  S  S14  1  0.55426100  0.98785600  0.90424700  1
  S  S15  1  0.94573900  0.01214400  0.40424700  1
  S  S16  1  0.61037500  0.43032300  0.77939800  1
  S  S17  1  0.88962500  0.56967700  0.27939800  1
  S  S18  1  0.11037500  0.06967700  0.22060200  1
  S  S19  1  0.38962500  0.93032300  0.72060200  1
  S  S20  1  0.56989400  0.74968200  0.14656600  1
  S  S21  1  0.93010600  0.25031800  0.64656600  1
  S  S22  1  0.06989400  0.75031800  0.85343400  1
  S  S23  1  0.43010600  0.24968200  0.35343400  1
  S  S24  1  0.60314700  0.25399900  0.15469000  1
  S  S25  1  0.89685300  0.74600100  0.65469000  1
  S  S26  1  0.10314700  0.24600100  0.84531000  1
  S  S27  1  0.39685300  0.75399900  0.34531000  1
