# generated using pymatgen
data_Dy3(Al3Os)4
_symmetry_space_group_name_H-M   'P 1'
_cell_length_a   8.84318537
_cell_length_b   8.84318537
_cell_length_c   9.56805300
_cell_angle_alpha   90.00000000
_cell_angle_beta   90.00000000
_cell_angle_gamma   119.99999529
_symmetry_Int_Tables_number   1
_chemical_formula_structural   Dy3(Al3Os)4
_chemical_formula_sum   'Dy6 Al24 Os8'
_cell_volume   647.99504086
_cell_formula_units_Z   2
loop_
 _symmetry_equiv_pos_site_id
 _symmetry_equiv_pos_as_xyz
  1  'x, y, z'
loop_
 _atom_site_type_symbol
 _atom_site_label
 _atom_site_symmetry_multiplicity
 _atom_site_fract_x
 _atom_site_fract_y
 _atom_site_fract_z
 _atom_site_occupancy
  Dy  Dy0  1  0.19323900  0.38647900  0.25000000  1
  Dy  Dy1  1  0.80676100  0.61352100  0.75000000  1
  Dy  Dy2  1  0.61352100  0.80676100  0.25000000  1
  Dy  Dy3  1  0.38647900  0.19323900  0.75000000  1
  Dy  Dy4  1  0.19323900  0.80676100  0.25000000  1
  Dy  Dy5  1  0.80676100  0.19323900  0.75000000  1
  Al  Al6  1  0.33333300  0.66666700  0.01455000  1
  Al  Al7  1  0.66666700  0.33333300  0.98545000  1
  Al  Al8  1  0.66666700  0.33333300  0.51455000  1
  Al  Al9  1  0.33333300  0.66666700  0.48545000  1
  Al  Al10  1  0.16271800  0.32543700  0.57584800  1
  Al  Al11  1  0.83728200  0.67456300  0.42415200  1
  Al  Al12  1  0.67456300  0.83728200  0.57584800  1
  Al  Al13  1  0.83728200  0.67456300  0.07584800  1
  Al  Al14  1  0.32543700  0.16271800  0.42415200  1
  Al  Al15  1  0.16271800  0.32543700  0.92415200  1
  Al  Al16  1  0.16271800  0.83728200  0.57584800  1
  Al  Al17  1  0.32543700  0.16271800  0.07584800  1
  Al  Al18  1  0.83728200  0.16271800  0.42415200  1
  Al  Al19  1  0.67456300  0.83728200  0.92415200  1
  Al  Al20  1  0.83728200  0.16271800  0.07584800  1
  Al  Al21  1  0.16271800  0.83728200  0.92415200  1
  Al  Al22  1  0.55998600  0.11997200  0.25000000  1
  Al  Al23  1  0.44001400  0.88002800  0.75000000  1
  Al  Al24  1  0.88002800  0.44001400  0.25000000  1
  Al  Al25  1  0.11997200  0.55998600  0.75000000  1
  Al  Al26  1  0.55998600  0.44001400  0.25000000  1
  Al  Al27  1  0.44001400  0.55998600  0.75000000  1
  Al  Al28  1  0.00000000  0.00000000  0.25000000  1
  Al  Al29  1  0.00000000  0.00000000  0.75000000  1
  Os  Os30  1  0.50000000  0.00000000  0.00000000  1
  Os  Os31  1  0.00000000  0.50000000  0.00000000  1
  Os  Os32  1  0.50000000  0.00000000  0.50000000  1
  Os  Os33  1  0.50000000  0.50000000  0.00000000  1
  Os  Os34  1  0.00000000  0.50000000  0.50000000  1
  Os  Os35  1  0.50000000  0.50000000  0.50000000  1
  Os  Os36  1  0.00000000  0.00000000  0.00000000  1
  Os  Os37  1  0.00000000  0.00000000  0.50000000  1
