# generated using pymatgen
data_CaAgAsO4
_symmetry_space_group_name_H-M   'P 1'
_cell_length_a   5.61533021
_cell_length_b   5.61533021
_cell_length_c   7.15422300
_cell_angle_alpha   90.00000000
_cell_angle_beta   90.00000000
_cell_angle_gamma   116.05701306
_symmetry_Int_Tables_number   1
_chemical_formula_structural   CaAgAsO4
_chemical_formula_sum   'Ca2 Ag2 As2 O8'
_cell_volume   202.65728490
_cell_formula_units_Z   2
loop_
 _symmetry_equiv_pos_site_id
 _symmetry_equiv_pos_as_xyz
  1  'x, y, z'
loop_
 _atom_site_type_symbol
 _atom_site_label
 _atom_site_symmetry_multiplicity
 _atom_site_fract_x
 _atom_site_fract_y
 _atom_site_fract_z
 _atom_site_occupancy
  Ca  Ca0  1  0.00000000  0.00000000  0.50000000  1
  Ca  Ca1  1  0.00000000  0.00000000  0.00000000  1
  Ag  Ag2  1  0.31181500  0.68818500  0.75000000  1
  Ag  Ag3  1  0.68818500  0.31181500  0.25000000  1
  As  As4  1  0.65154000  0.34846000  0.75000000  1
  As  As5  1  0.34846000  0.65154000  0.25000000  1
  O  O6  1  0.75832600  0.24167400  0.55768500  1
  O  O7  1  0.24167400  0.75832600  0.44231500  1
  O  O8  1  0.24167400  0.75832600  0.05768500  1
  O  O9  1  0.75832600  0.24167400  0.94231500  1
  O  O10  1  0.77504800  0.69265900  0.75000000  1
  O  O11  1  0.22495200  0.30734100  0.25000000  1
  O  O12  1  0.30734100  0.22495200  0.75000000  1
  O  O13  1  0.69265800  0.77504800  0.25000000  1
