# generated using pymatgen
data_Ba6Sm2Ga4O15
_symmetry_space_group_name_H-M   'P 1'
_cell_length_a   6.09238600
_cell_length_b   8.11720906
_cell_length_c   18.78267479
_cell_angle_alpha   91.06882161
_cell_angle_beta   90.00000000
_cell_angle_gamma   90.00000000
_symmetry_Int_Tables_number   1
_chemical_formula_structural   Ba6Sm2Ga4O15
_chemical_formula_sum   'Ba12 Sm4 Ga8 O30'
_cell_volume   928.70121313
_cell_formula_units_Z   2
loop_
 _symmetry_equiv_pos_site_id
 _symmetry_equiv_pos_as_xyz
  1  'x, y, z'
loop_
 _atom_site_type_symbol
 _atom_site_label
 _atom_site_symmetry_multiplicity
 _atom_site_fract_x
 _atom_site_fract_y
 _atom_site_fract_z
 _atom_site_occupancy
  Ba  Ba0  1  0.75591200  0.49877000  0.42057800  1
  Ba  Ba1  1  0.24408800  0.50123000  0.57942200  1
  Ba  Ba2  1  0.75591200  0.50123000  0.07942200  1
  Ba  Ba3  1  0.24408800  0.49877000  0.92057800  1
  Ba  Ba4  1  0.74199100  0.96920900  0.40949400  1
  Ba  Ba5  1  0.25800900  0.03079100  0.59050600  1
  Ba  Ba6  1  0.74199100  0.03079100  0.09050600  1
  Ba  Ba7  1  0.25800900  0.96920900  0.90949400  1
  Ba  Ba8  1  0.72378100  0.00000000  0.75000000  1
  Ba  Ba9  1  0.27621900  0.00000000  0.25000000  1
  Ba  Ba10  1  0.66643000  0.50000000  0.75000000  1
  Ba  Ba11  1  0.33357000  0.50000000  0.25000000  1
  Sm  Sm12  1  0.74413700  0.75145700  0.59035000  1
  Sm  Sm13  1  0.25586300  0.24854300  0.40965000  1
  Sm  Sm14  1  0.74413700  0.24854300  0.90965000  1
  Sm  Sm15  1  0.25586300  0.75145700  0.09035000  1
  Ga  Ga16  1  0.75403500  0.75366100  0.94002600  1
  Ga  Ga17  1  0.24596500  0.24633900  0.05997400  1
  Ga  Ga18  1  0.75403500  0.24633900  0.55997400  1
  Ga  Ga19  1  0.24596500  0.75366100  0.44002600  1
  Ga  Ga20  1  0.77724000  0.77089500  0.23559200  1
  Ga  Ga21  1  0.22276000  0.22910500  0.76440800  1
  Ga  Ga22  1  0.77724000  0.22910500  0.26440800  1
  Ga  Ga23  1  0.22276000  0.77089500  0.73559200  1
  O  O24  1  0.21062300  0.00000000  0.75000000  1
  O  O25  1  0.78937700  0.00000000  0.25000000  1
  O  O26  1  0.49420800  0.76523100  0.49958900  1
  O  O27  1  0.50579200  0.23476800  0.50041100  1
  O  O28  1  0.49420800  0.23476800  0.00041100  1
  O  O29  1  0.50579200  0.76523100  0.99958900  1
  O  O30  1  0.75976800  0.95050700  0.88978000  1
  O  O31  1  0.24023200  0.04949300  0.11022000  1
  O  O32  1  0.75976800  0.04949300  0.61022000  1
  O  O33  1  0.24023200  0.95050700  0.38978000  1
  O  O34  1  0.99825800  0.76300300  0.50114100  1
  O  O35  1  0.00174200  0.23699700  0.49885900  1
  O  O36  1  0.99825800  0.23699700  0.99885900  1
  O  O37  1  0.00174200  0.76300300  0.00114100  1
  O  O38  1  0.32354400  0.69022200  0.81959800  1
  O  O39  1  0.67645600  0.30977800  0.18040200  1
  O  O40  1  0.32354400  0.30977800  0.68040200  1
  O  O41  1  0.67645600  0.69022200  0.31959800  1
  O  O42  1  0.44362400  0.74684600  0.66577300  1
  O  O43  1  0.55637600  0.25315400  0.33422700  1
  O  O44  1  0.44362400  0.25315400  0.83422700  1
  O  O45  1  0.55637600  0.74684600  0.16577300  1
  O  O46  1  0.95319800  0.72729600  0.69380600  1
  O  O47  1  0.04680200  0.27270400  0.30619400  1
  O  O48  1  0.95319800  0.27270400  0.80619400  1
  O  O49  1  0.04680200  0.72729600  0.19380600  1
  O  O50  1  0.75704900  0.53564800  0.90565600  1
  O  O51  1  0.24295100  0.46435200  0.09434400  1
  O  O52  1  0.75704900  0.46435200  0.59434400  1
  O  O53  1  0.24295100  0.53564800  0.40565600  1
