# generated using pymatgen
data_Cs2PtCl4
_symmetry_space_group_name_H-M   'P 1'
_cell_length_a   7.53945335
_cell_length_b   7.53945344
_cell_length_c   9.66508900
_cell_angle_alpha   90.00000000
_cell_angle_beta   90.00000000
_cell_angle_gamma   89.98392573
_symmetry_Int_Tables_number   1
_chemical_formula_structural   Cs2PtCl4
_chemical_formula_sum   'Cs4 Pt2 Cl8'
_cell_volume   549.39608764
_cell_formula_units_Z   2
loop_
 _symmetry_equiv_pos_site_id
 _symmetry_equiv_pos_as_xyz
  1  'x, y, z'
loop_
 _atom_site_type_symbol
 _atom_site_label
 _atom_site_symmetry_multiplicity
 _atom_site_fract_x
 _atom_site_fract_y
 _atom_site_fract_z
 _atom_site_occupancy
  Cs  Cs0  1  0.50008400  0.99996700  0.75000000  1
  Cs  Cs1  1  0.00003300  0.49991600  0.25000000  1
  Cs  Cs2  1  0.49991600  0.00003300  0.25000000  1
  Cs  Cs3  1  0.99996700  0.50008400  0.75000000  1
  Pt  Pt4  1  0.00000000  0.00000000  0.50000000  1
  Pt  Pt5  1  0.00000000  0.00000000  0.00000000  1
  Cl  Cl6  1  0.78134100  0.78134100  0.50000100  1
  Cl  Cl7  1  0.78134100  0.78134100  0.99999900  1
  Cl  Cl8  1  0.21872000  0.78128000  0.00000000  1
  Cl  Cl9  1  0.78128000  0.21872000  0.50000000  1
  Cl  Cl10  1  0.78128000  0.21872000  0.00000000  1
  Cl  Cl11  1  0.21865900  0.21865900  0.49999900  1
  Cl  Cl12  1  0.21865900  0.21865900  0.00000100  1
  Cl  Cl13  1  0.21872000  0.78128000  0.50000000  1
