# generated using pymatgen
data_SrMn(GeO3)2
_symmetry_space_group_name_H-M   'P 1'
_cell_length_a   7.10376006
_cell_length_b   8.16587467
_cell_length_c   9.85595157
_cell_angle_alpha   76.37016419
_cell_angle_beta   79.62858137
_cell_angle_gamma   92.55765455
_symmetry_Int_Tables_number   1
_chemical_formula_structural   SrMn(GeO3)2
_chemical_formula_sum   'Sr4 Mn4 Ge8 O24'
_cell_volume   544.27858045
_cell_formula_units_Z   4
loop_
 _symmetry_equiv_pos_site_id
 _symmetry_equiv_pos_as_xyz
  1  'x, y, z'
loop_
 _atom_site_type_symbol
 _atom_site_label
 _atom_site_symmetry_multiplicity
 _atom_site_fract_x
 _atom_site_fract_y
 _atom_site_fract_z
 _atom_site_occupancy
  Sr  Sr0  1  0.19095200  0.27963200  0.52974400  1
  Sr  Sr1  1  0.19101100  0.77958500  0.02972900  1
  Sr  Sr2  1  0.80903200  0.72038900  0.47026000  1
  Sr  Sr3  1  0.80901100  0.22042900  0.97028300  1
  Mn  Mn4  1  0.59337000  0.57844800  0.82761700  1
  Mn  Mn5  1  0.40640300  0.42169500  0.17231100  1
  Mn  Mn6  1  0.59343500  0.07806100  0.32794700  1
  Mn  Mn7  1  0.40661800  0.92185100  0.67201400  1
  Ge  Ge8  1  0.12216200  0.04734700  0.26636700  1
  Ge  Ge9  1  0.12214500  0.54734200  0.76637900  1
  Ge  Ge10  1  0.87790600  0.95265200  0.73361300  1
  Ge  Ge11  1  0.87781000  0.45262600  0.23363200  1
  Ge  Ge12  1  0.68645600  0.29819100  0.57921500  1
  Ge  Ge13  1  0.68649400  0.79824900  0.07921300  1
  Ge  Ge14  1  0.31355400  0.70175600  0.42078300  1
  Ge  Ge15  1  0.31355700  0.20175900  0.92079400  1
  O  O16  1  0.87597900  0.40662400  0.42442600  1
  O  O17  1  0.87601700  0.90668700  0.92438700  1
  O  O18  1  0.12402600  0.59338800  0.57558100  1
  O  O19  1  0.12403000  0.09331900  0.07562300  1
  O  O20  1  0.16880500  0.82095400  0.30325400  1
  O  O21  1  0.16879100  0.32096400  0.80323700  1
  O  O22  1  0.83121200  0.17904500  0.69675000  1
  O  O23  1  0.83123900  0.67903800  0.19677100  1
  O  O24  1  0.30151100  0.16928100  0.30806000  1
  O  O25  1  0.30148400  0.66933300  0.80800400  1
  O  O26  1  0.69847900  0.83071500  0.69195900  1
  O  O27  1  0.69852100  0.33066000  0.19200500  1
  O  O28  1  0.52287100  0.16825600  0.52974200  1
  O  O29  1  0.52292500  0.66830600  0.02977500  1
  O  O30  1  0.47709700  0.83174600  0.47027500  1
  O  O31  1  0.47709200  0.33169700  0.97024400  1
  O  O32  1  0.88695200  0.03672600  0.35682400  1
  O  O33  1  0.88689400  0.53673700  0.85681400  1
  O  O34  1  0.11303900  0.96329600  0.64316500  1
  O  O35  1  0.11309700  0.46324900  0.14320500  1
  O  O36  1  0.60618700  0.96639800  0.14626000  1
  O  O37  1  0.60617200  0.46635400  0.64619200  1
  O  O38  1  0.39382900  0.03357300  0.85374300  1
  O  O39  1  0.39383200  0.53364100  0.35380400  1
