# generated using pymatgen
data_Zr(TlS)4
_symmetry_space_group_name_H-M   'P 1'
_cell_length_a   9.28054700
_cell_length_b   9.28091998
_cell_length_c   15.85869176
_cell_angle_alpha   104.08207904
_cell_angle_beta   104.79071581
_cell_angle_gamma   90.03742995
_symmetry_Int_Tables_number   1
_chemical_formula_structural   Zr(TlS)4
_chemical_formula_sum   'Zr5 Tl20 S20'
_cell_volume   1278.11897186
_cell_formula_units_Z   5
loop_
 _symmetry_equiv_pos_site_id
 _symmetry_equiv_pos_as_xyz
  1  'x, y, z'
loop_
 _atom_site_type_symbol
 _atom_site_label
 _atom_site_symmetry_multiplicity
 _atom_site_fract_x
 _atom_site_fract_y
 _atom_site_fract_z
 _atom_site_occupancy
  Zr  Zr0  1  0.98409500  0.31763900  0.40039800  1
  Zr  Zr1  1  0.01590500  0.68236100  0.59960200  1
  Zr  Zr2  1  0.82629300  0.69101700  0.80062900  1
  Zr  Zr3  1  0.17370700  0.30898300  0.19937100  1
  Zr  Zr4  1  0.00000000  0.50000000  0.00000000  1
  Tl  Tl5  1  0.95809200  0.92212300  0.20025900  1
  Tl  Tl6  1  0.04190800  0.07787700  0.79974100  1
  Tl  Tl7  1  0.78799600  0.28419600  0.59877700  1
  Tl  Tl8  1  0.21200400  0.71580400  0.40122300  1
  Tl  Tl9  1  0.78723000  0.91509000  0.40524400  1
  Tl  Tl10  1  0.21277000  0.08491000  0.59475600  1
  Tl  Tl11  1  0.78072800  0.54154500  0.20309800  1
  Tl  Tl12  1  0.21927200  0.45845500  0.79690200  1
  Tl  Tl13  1  0.62669700  0.89890500  0.61170800  1
  Tl  Tl14  1  0.37330300  0.10109500  0.38829200  1
  Tl  Tl15  1  0.61713200  0.30248000  0.80933800  1
  Tl  Tl16  1  0.38286800  0.69752000  0.19066200  1
  Tl  Tl17  1  0.58908200  0.52901900  0.40023700  1
  Tl  Tl18  1  0.41091800  0.47098100  0.59976300  1
  Tl  Tl19  1  0.41980900  0.89251900  0.79744800  1
  Tl  Tl20  1  0.58019100  0.10748100  0.20255200  1
  Tl  Tl21  1  0.39018500  0.28676200  0.00319700  1
  Tl  Tl22  1  0.60981500  0.71323800  0.99680300  1
  Tl  Tl23  1  0.21878700  0.89517000  0.99308500  1
  Tl  Tl24  1  0.78121300  0.10483000  0.00691500  1
  S  S25  1  0.93652900  0.94512600  0.59678400  1
  S  S26  1  0.06347100  0.05487400  0.40321600  1
  S  S27  1  0.93115400  0.60213600  0.42320800  1
  S  S28  1  0.06884600  0.39786400  0.57679200  1
  S  S29  1  0.92540600  0.76359700  0.97821100  1
  S  S30  1  0.07459400  0.23640300  0.02178900  1
  S  S31  1  0.91312800  0.42253000  0.82294200  1
  S  S32  1  0.08687200  0.57747000  0.17705800  1
  S  S33  1  0.75960800  0.95747700  0.80575700  1
  S  S34  1  0.24039200  0.04252300  0.19424300  1
  S  S35  1  0.75129300  0.61334900  0.62387300  1
  S  S36  1  0.24870700  0.38665100  0.37612700  1
  S  S37  1  0.56164700  0.61756800  0.80166900  1
  S  S38  1  0.43835300  0.38243200  0.19833100  1
  S  S39  1  0.28226700  0.75542400  0.60395700  1
  S  S40  1  0.71773300  0.24457600  0.39604300  1
  S  S41  1  0.26872500  0.57139300  0.99726700  1
  S  S42  1  0.73127500  0.42860700  0.00273300  1
  S  S43  1  0.09208500  0.73887400  0.77575700  1
  S  S44  1  0.90791500  0.26112600  0.22424300  1
