# generated using pymatgen
data_Sm3Zn22
_symmetry_space_group_name_H-M   'P 1'
_cell_length_a   12.29317751
_cell_length_b   12.29317751
_cell_length_c   12.29317751
_cell_angle_alpha   137.54293509
_cell_angle_beta   137.54293509
_cell_angle_gamma   61.60374068
_symmetry_Int_Tables_number   1
_chemical_formula_structural   Sm3Zn22
_chemical_formula_sum   'Sm6 Zn44'
_cell_volume   836.84897810
_cell_formula_units_Z   2
loop_
 _symmetry_equiv_pos_site_id
 _symmetry_equiv_pos_as_xyz
  1  'x, y, z'
loop_
 _atom_site_type_symbol
 _atom_site_label
 _atom_site_symmetry_multiplicity
 _atom_site_fract_x
 _atom_site_fract_y
 _atom_site_fract_z
 _atom_site_occupancy
  Sm  Sm0  1  0.61946100  0.61946100  0.00000000  1
  Sm  Sm1  1  0.36946100  0.86946100  0.50000000  1
  Sm  Sm2  1  0.13053900  0.63053900  0.50000000  1
  Sm  Sm3  1  0.38053900  0.38053900  0.00000000  1
  Sm  Sm4  1  0.75000000  0.25000000  0.50000000  1
  Sm  Sm5  1  0.00000000  0.00000000  0.00000000  1
  Zn  Zn6  1  0.07243400  0.54823700  0.99276100  1
  Zn  Zn7  1  0.55547600  0.54823700  0.47580300  1
  Zn  Zn8  1  0.29823700  0.32243400  0.49276100  1
  Zn  Zn9  1  0.82967300  0.32243400  0.02419700  1
  Zn  Zn10  1  0.07243400  0.07967300  0.52419700  1
  Zn  Zn11  1  0.55547600  0.07967300  0.00723900  1
  Zn  Zn12  1  0.29823700  0.80547600  0.97580300  1
  Zn  Zn13  1  0.82967300  0.80547600  0.50723900  1
  Zn  Zn14  1  0.67756600  0.70176300  0.50723900  1
  Zn  Zn15  1  0.19452400  0.70176300  0.02419700  1
  Zn  Zn16  1  0.45176300  0.92756600  0.00723900  1
  Zn  Zn17  1  0.92032700  0.92756600  0.47580300  1
  Zn  Zn18  1  0.67756600  0.17032700  0.97580300  1
  Zn  Zn19  1  0.19452400  0.17032700  0.49276100  1
  Zn  Zn20  1  0.45176300  0.44452400  0.52419700  1
  Zn  Zn21  1  0.92032700  0.44452400  0.99276100  1
  Zn  Zn22  1  0.49894800  0.27347200  0.77452400  1
  Zn  Zn23  1  0.02347200  0.74894800  0.27452400  1
  Zn  Zn24  1  0.47442400  0.74894800  0.72547600  1
  Zn  Zn25  1  0.49894800  0.72442400  0.22547600  1
  Zn  Zn26  1  0.25105200  0.97652800  0.72547600  1
  Zn  Zn27  1  0.72652800  0.50105200  0.22547600  1
  Zn  Zn28  1  0.27557600  0.50105200  0.77452400  1
  Zn  Zn29  1  0.25105200  0.52557600  0.27452400  1
  Zn  Zn30  1  0.75599500  0.60708400  0.85108900  1
  Zn  Zn31  1  0.35708400  0.00599500  0.35108900  1
  Zn  Zn32  1  0.65490600  0.00599500  0.64891100  1
  Zn  Zn33  1  0.75599500  0.90490600  0.14891100  1
  Zn  Zn34  1  0.99400500  0.64291600  0.64891100  1
  Zn  Zn35  1  0.39291600  0.24400500  0.14891100  1
  Zn  Zn36  1  0.09509400  0.24400500  0.85108900  1
  Zn  Zn37  1  0.99400500  0.34509400  0.35108900  1
  Zn  Zn38  1  0.61397800  0.96168000  0.34770200  1
  Zn  Zn39  1  0.71168000  0.86397800  0.84770200  1
  Zn  Zn40  1  0.01627600  0.86397800  0.15229800  1
  Zn  Zn41  1  0.61397800  0.26627600  0.65229800  1
  Zn  Zn42  1  0.13602200  0.28832000  0.15229800  1
  Zn  Zn43  1  0.03832000  0.38602200  0.65229800  1
  Zn  Zn44  1  0.73372400  0.38602200  0.34770200  1
  Zn  Zn45  1  0.13602200  0.98372400  0.84770200  1
  Zn  Zn46  1  0.87500000  0.62500000  0.75000000  1
  Zn  Zn47  1  0.37500000  0.12500000  0.25000000  1
  Zn  Zn48  1  0.87500000  0.12500000  0.75000000  1
  Zn  Zn49  1  0.87500000  0.12500000  0.25000000  1
