# generated using pymatgen
data_Re3Br7
_symmetry_space_group_name_H-M   'P 1'
_cell_length_a   10.18700200
_cell_length_b   10.76618656
_cell_length_c   14.90829485
_cell_angle_alpha   92.83595787
_cell_angle_beta   102.15779956
_cell_angle_gamma   101.51257067
_symmetry_Int_Tables_number   1
_chemical_formula_structural   Re3Br7
_chemical_formula_sum   'Re12 Br28'
_cell_volume   1559.07560669
_cell_formula_units_Z   4
loop_
 _symmetry_equiv_pos_site_id
 _symmetry_equiv_pos_as_xyz
  1  'x, y, z'
loop_
 _atom_site_type_symbol
 _atom_site_label
 _atom_site_symmetry_multiplicity
 _atom_site_fract_x
 _atom_site_fract_y
 _atom_site_fract_z
 _atom_site_occupancy
  Re  Re0  1  0.32312300  0.24567800  0.11704300  1
  Re  Re1  1  0.67687700  0.75432200  0.88295700  1
  Re  Re2  1  0.56552300  0.13447200  0.28414100  1
  Re  Re3  1  0.43447700  0.86552800  0.71585900  1
  Re  Re4  1  0.32111200  0.04237900  0.16129500  1
  Re  Re5  1  0.67888800  0.95762000  0.83870500  1
  Re  Re6  1  0.33205500  0.17669200  0.31731600  1
  Re  Re7  1  0.66794500  0.82330800  0.68268400  1
  Re  Re8  1  0.33138700  0.38905700  0.27276000  1
  Re  Re9  1  0.66861300  0.61094300  0.72724000  1
  Re  Re10  1  0.56611200  0.33640500  0.23884200  1
  Re  Re11  1  0.43388800  0.66359500  0.76115800  1
  Br  Br12  1  0.21732600  0.14222200  0.44896700  1
  Br  Br13  1  0.78267400  0.85777800  0.55103300  1
  Br  Br14  1  0.11032100  0.31627800  0.14729300  1
  Br  Br15  1  0.88967900  0.68372200  0.85270700  1
  Br  Br16  1  0.54797800  0.29285000  0.06978200  1
  Br  Br17  1  0.45202200  0.70715000  0.93021800  1
  Br  Br18  1  0.56688300  0.48369300  0.37872300  1
  Br  Br19  1  0.43311700  0.51630700  0.62127700  1
  Br  Br20  1  0.54974800  0.00771200  0.13308400  1
  Br  Br21  1  0.45025200  0.99228800  0.86691600  1
  Br  Br22  1  0.60541200  0.10613400  0.69686500  1
  Br  Br23  1  0.39458800  0.89386600  0.30313500  1
  Br  Br24  1  0.19504900  0.54673300  0.75225700  1
  Br  Br25  1  0.80495100  0.45326700  0.24774300  1
  Br  Br26  1  0.21795800  0.23598200  0.94993000  1
  Br  Br27  1  0.78204200  0.76401800  0.05007000  1
  Br  Br28  1  0.21325000  0.48682100  0.37409400  1
  Br  Br29  1  0.78675000  0.51317900  0.62590600  1
  Br  Br30  1  0.10909400  0.03312300  0.22664900  1
  Br  Br31  1  0.89090600  0.96687700  0.77335100  1
  Br  Br32  1  0.80447300  0.10704100  0.33946400  1
  Br  Br33  1  0.19552700  0.89295900  0.66053600  1
  Br  Br34  1  0.54459100  0.19165600  0.44572900  1
  Br  Br35  1  0.45540900  0.80834400  0.55427100  1
  Br  Br36  1  0.40690100  0.54926100  0.16103200  1
  Br  Br37  1  0.59309900  0.45073900  0.83896800  1
  Br  Br38  1  0.19635000  0.88420600  0.02849400  1
  Br  Br39  1  0.80365000  0.11579400  0.97150600  1
