# generated using pymatgen
data_Y2Nb3Ge4
_symmetry_space_group_name_H-M   'P 1'
_cell_length_a   7.02846700
_cell_length_b   7.20206900
_cell_length_c   13.62619700
_cell_angle_alpha   90.00000000
_cell_angle_beta   90.00000000
_cell_angle_gamma   90.00000000
_symmetry_Int_Tables_number   1
_chemical_formula_structural   Y2Nb3Ge4
_chemical_formula_sum   'Y8 Nb12 Ge16'
_cell_volume   689.75133761
_cell_formula_units_Z   4
loop_
 _symmetry_equiv_pos_site_id
 _symmetry_equiv_pos_as_xyz
  1  'x, y, z'
loop_
 _atom_site_type_symbol
 _atom_site_label
 _atom_site_symmetry_multiplicity
 _atom_site_fract_x
 _atom_site_fract_y
 _atom_site_fract_z
 _atom_site_occupancy
  Y  Y0  1  0.49709600  0.32630500  0.09485200  1
  Y  Y1  1  0.99709600  0.17369500  0.40514800  1
  Y  Y2  1  0.50290400  0.67369500  0.59485200  1
  Y  Y3  1  0.00290400  0.82630500  0.90514800  1
  Y  Y4  1  0.50290400  0.67369500  0.90514800  1
  Y  Y5  1  0.00290400  0.82630500  0.59485200  1
  Y  Y6  1  0.49709600  0.32630500  0.40514800  1
  Y  Y7  1  0.99709600  0.17369500  0.09485200  1
  Nb  Nb8  1  0.66438000  0.01244400  0.75000000  1
  Nb  Nb9  1  0.16438000  0.48755600  0.75000000  1
  Nb  Nb10  1  0.33562000  0.98755600  0.25000000  1
  Nb  Nb11  1  0.83562000  0.51244400  0.25000000  1
  Nb  Nb12  1  0.84011400  0.32865200  0.62652000  1
  Nb  Nb13  1  0.34011400  0.17134800  0.87348000  1
  Nb  Nb14  1  0.15988600  0.67134800  0.12652000  1
  Nb  Nb15  1  0.65988600  0.82865200  0.37348000  1
  Nb  Nb16  1  0.15988600  0.67134800  0.37348000  1
  Nb  Nb17  1  0.65988600  0.82865200  0.12652000  1
  Nb  Nb18  1  0.84011400  0.32865200  0.87348000  1
  Nb  Nb19  1  0.34011400  0.17134800  0.62652000  1
  Ge  Ge20  1  0.80469600  0.63702900  0.75000000  1
  Ge  Ge21  1  0.30469600  0.86297100  0.75000000  1
  Ge  Ge22  1  0.19530400  0.36297100  0.25000000  1
  Ge  Ge23  1  0.69530400  0.13702900  0.25000000  1
  Ge  Ge24  1  0.54014900  0.37739600  0.75000000  1
  Ge  Ge25  1  0.04014900  0.12260400  0.75000000  1
  Ge  Ge26  1  0.45985100  0.62260400  0.25000000  1
  Ge  Ge27  1  0.95985100  0.87739600  0.25000000  1
  Ge  Ge28  1  0.67377300  0.03894900  0.54169700  1
  Ge  Ge29  1  0.17377300  0.46105100  0.95830300  1
  Ge  Ge30  1  0.32622700  0.96105100  0.04169700  1
  Ge  Ge31  1  0.82622700  0.53894900  0.45830300  1
  Ge  Ge32  1  0.32622700  0.96105100  0.45830300  1
  Ge  Ge33  1  0.82622700  0.53894900  0.04169700  1
  Ge  Ge34  1  0.67377300  0.03894900  0.95830300  1
  Ge  Ge35  1  0.17377300  0.46105100  0.54169700  1
