# generated using pymatgen
data_K4BaNb5O15
_symmetry_space_group_name_H-M   'P 1'
_cell_length_a   9.11866043
_cell_length_b   9.11866043
_cell_length_c   7.06692390
_cell_angle_alpha   75.03899594
_cell_angle_beta   75.03899594
_cell_angle_gamma   36.85808709
_symmetry_Int_Tables_number   1
_chemical_formula_structural   K4BaNb5O15
_chemical_formula_sum   'K4 Ba1 Nb5 O15'
_cell_volume   339.17098995
_cell_formula_units_Z   1
loop_
 _symmetry_equiv_pos_site_id
 _symmetry_equiv_pos_as_xyz
  1  'x, y, z'
loop_
 _atom_site_type_symbol
 _atom_site_label
 _atom_site_symmetry_multiplicity
 _atom_site_fract_x
 _atom_site_fract_y
 _atom_site_fract_z
 _atom_site_occupancy
  K  K0  1  0.60017700  0.60017700  0.59913200  1
  K  K1  1  0.20040700  0.20040700  0.20040100  1
  K  K2  1  0.79959300  0.79959300  0.79959900  1
  K  K3  1  0.39982300  0.39982300  0.40086800  1
  Ba  Ba4  1  0.00000000  0.00000000  0.00000000  1
  Nb  Nb5  1  0.20162000  0.20162000  0.69645100  1
  Nb  Nb6  1  0.79838000  0.79838000  0.30354900  1
  Nb  Nb7  1  0.39787400  0.39787400  0.90008500  1
  Nb  Nb8  1  0.00000000  0.00000000  0.50000000  1
  Nb  Nb9  1  0.60212600  0.60212600  0.09991500  1
  O  O10  1  0.39801600  0.90056600  0.90072400  1
  O  O11  1  0.00000000  0.50000000  0.50000000  1
  O  O12  1  0.60198400  0.09943400  0.09927600  1
  O  O13  1  0.19872400  0.70169400  0.70161200  1
  O  O14  1  0.80127600  0.29830600  0.29838800  1
  O  O15  1  0.29996300  0.29996300  0.79966600  1
  O  O16  1  0.90055400  0.90055400  0.39776400  1
  O  O17  1  0.50000000  0.50000000  0.00000000  1
  O  O18  1  0.09944600  0.09944600  0.60223600  1
  O  O19  1  0.70003700  0.70003700  0.20033400  1
  O  O20  1  0.50000000  0.00000000  0.50000000  1
  O  O21  1  0.09943400  0.60198400  0.09927600  1
  O  O22  1  0.70169400  0.19872400  0.70161200  1
  O  O23  1  0.29830600  0.80127600  0.29838800  1
  O  O24  1  0.90056600  0.39801600  0.90072400  1
