# generated using pymatgen
data_Sr(Ni2B)6
_symmetry_space_group_name_H-M   'P 1'
_cell_length_a   6.05447833
_cell_length_b   6.05447833
_cell_length_c   6.05447836
_cell_angle_alpha   104.35870564
_cell_angle_beta   104.35870564
_cell_angle_gamma   104.35871029
_symmetry_Int_Tables_number   1
_chemical_formula_structural   Sr(Ni2B)6
_chemical_formula_sum   'Sr1 Ni12 B6'
_cell_volume   196.63656142
_cell_formula_units_Z   1
loop_
 _symmetry_equiv_pos_site_id
 _symmetry_equiv_pos_as_xyz
  1  'x, y, z'
loop_
 _atom_site_type_symbol
 _atom_site_label
 _atom_site_symmetry_multiplicity
 _atom_site_fract_x
 _atom_site_fract_y
 _atom_site_fract_z
 _atom_site_occupancy
  Sr  Sr0  1  0.00000000  0.00000000  0.00000000  1
  Ni  Ni1  1  0.13137500  0.50000000  0.86862500  1
  Ni  Ni2  1  0.18773300  0.46031500  0.46031500  1
  Ni  Ni3  1  0.50000000  0.86862500  0.13137500  1
  Ni  Ni4  1  0.46031500  0.18773300  0.46031500  1
  Ni  Ni5  1  0.53968500  0.81226700  0.53968500  1
  Ni  Ni6  1  0.81226700  0.53968500  0.53968500  1
  Ni  Ni7  1  0.53968500  0.53968500  0.81226700  1
  Ni  Ni8  1  0.50000000  0.13137500  0.86862500  1
  Ni  Ni9  1  0.86862500  0.50000000  0.13137500  1
  Ni  Ni10  1  0.13137500  0.86862500  0.50000000  1
  Ni  Ni11  1  0.46031500  0.46031500  0.18773300  1
  Ni  Ni12  1  0.86862500  0.13137500  0.50000000  1
  B  B13  1  0.76638700  0.76638700  0.34087100  1
  B  B14  1  0.23361300  0.65912900  0.23361300  1
  B  B15  1  0.23361300  0.23361300  0.65912900  1
  B  B16  1  0.65912900  0.23361300  0.23361300  1
  B  B17  1  0.34087100  0.76638700  0.76638700  1
  B  B18  1  0.76638700  0.34087100  0.76638700  1
