# generated using pymatgen
data_SrHN
_symmetry_space_group_name_H-M   'P 1'
_cell_length_a   3.94514500
_cell_length_b   5.72302300
_cell_length_c   7.57366100
_cell_angle_alpha   90.00000000
_cell_angle_beta   90.00000000
_cell_angle_gamma   90.00000000
_symmetry_Int_Tables_number   1
_chemical_formula_structural   SrHN
_chemical_formula_sum   'Sr4 H4 N4'
_cell_volume   170.99929632
_cell_formula_units_Z   4
loop_
 _symmetry_equiv_pos_site_id
 _symmetry_equiv_pos_as_xyz
  1  'x, y, z'
loop_
 _atom_site_type_symbol
 _atom_site_label
 _atom_site_symmetry_multiplicity
 _atom_site_fract_x
 _atom_site_fract_y
 _atom_site_fract_z
 _atom_site_occupancy
  Sr  Sr0  1  0.75000000  0.18085100  0.35052300  1
  Sr  Sr1  1  0.75000000  0.31914900  0.85052300  1
  Sr  Sr2  1  0.25000000  0.68085100  0.14947700  1
  Sr  Sr3  1  0.25000000  0.81914900  0.64947700  1
  H  H4  1  0.25000000  0.10251200  0.02237700  1
  H  H5  1  0.25000000  0.39748800  0.52237700  1
  H  H6  1  0.75000000  0.60251200  0.47762300  1
  H  H7  1  0.75000000  0.89748800  0.97762300  1
  N  N8  1  0.25000000  0.23985600  0.11191000  1
  N  N9  1  0.25000000  0.26014400  0.61191000  1
  N  N10  1  0.75000000  0.73985600  0.38809000  1
  N  N11  1  0.75000000  0.76014400  0.88809000  1
