# generated using pymatgen
data_Fe3NiP2
_symmetry_space_group_name_H-M   'P 1'
_cell_length_a   3.55173400
_cell_length_b   5.74662100
_cell_length_c   6.52342300
_cell_angle_alpha   90.00000000
_cell_angle_beta   90.00000000
_cell_angle_gamma   90.00000000
_symmetry_Int_Tables_number   1
_chemical_formula_structural   Fe3NiP2
_chemical_formula_sum   'Fe6 Ni2 P4'
_cell_volume   133.14612416
_cell_formula_units_Z   2
loop_
 _symmetry_equiv_pos_site_id
 _symmetry_equiv_pos_as_xyz
  1  'x, y, z'
loop_
 _atom_site_type_symbol
 _atom_site_label
 _atom_site_symmetry_multiplicity
 _atom_site_fract_x
 _atom_site_fract_y
 _atom_site_fract_z
 _atom_site_occupancy
  Fe  Fe0  1  0.25000000  0.97245700  0.16353300  1
  Fe  Fe1  1  0.25000000  0.47245700  0.33646700  1
  Fe  Fe2  1  0.75000000  0.14551900  0.43144300  1
  Fe  Fe3  1  0.75000000  0.64551900  0.06855700  1
  Fe  Fe4  1  0.25000000  0.85297500  0.56727700  1
  Fe  Fe5  1  0.25000000  0.35297500  0.93272300  1
  Ni  Ni6  1  0.75000000  0.02761200  0.83566700  1
  Ni  Ni7  1  0.75000000  0.52761200  0.66433300  1
  P  P8  1  0.75000000  0.26532800  0.11876000  1
  P  P9  1  0.75000000  0.76532800  0.38124000  1
  P  P10  1  0.25000000  0.73611000  0.88173600  1
  P  P11  1  0.25000000  0.23611000  0.61826400  1
