# generated using pymatgen
data_Dy2ReB6
_symmetry_space_group_name_H-M   'P 1'
_cell_length_a   3.67936300
_cell_length_b   9.18397600
_cell_length_c   11.57372400
_cell_angle_alpha   90.00000000
_cell_angle_beta   90.00000000
_cell_angle_gamma   90.00000000
_symmetry_Int_Tables_number   1
_chemical_formula_structural   Dy2ReB6
_chemical_formula_sum   'Dy8 Re4 B24'
_cell_volume   391.08980817
_cell_formula_units_Z   4
loop_
 _symmetry_equiv_pos_site_id
 _symmetry_equiv_pos_as_xyz
  1  'x, y, z'
loop_
 _atom_site_type_symbol
 _atom_site_label
 _atom_site_symmetry_multiplicity
 _atom_site_fract_x
 _atom_site_fract_y
 _atom_site_fract_z
 _atom_site_occupancy
  Dy  Dy0  1  0.00000000  0.32437800  0.41377700  1
  Dy  Dy1  1  0.00000000  0.67562200  0.58622300  1
  Dy  Dy2  1  0.00000000  0.82437800  0.08622300  1
  Dy  Dy3  1  0.00000000  0.17562200  0.91377700  1
  Dy  Dy4  1  0.00000000  0.94392400  0.37000000  1
  Dy  Dy5  1  0.00000000  0.05607600  0.63000000  1
  Dy  Dy6  1  0.00000000  0.44392400  0.13000000  1
  Dy  Dy7  1  0.00000000  0.55607600  0.87000000  1
  Re  Re8  1  0.00000000  0.63886200  0.32126400  1
  Re  Re9  1  0.00000000  0.36113800  0.67873600  1
  Re  Re10  1  0.00000000  0.13886200  0.17873600  1
  Re  Re11  1  0.00000000  0.86113800  0.82126400  1
  B  B12  1  0.50000000  0.55362000  0.43298500  1
  B  B13  1  0.50000000  0.44638000  0.56701500  1
  B  B14  1  0.50000000  0.05362000  0.06701500  1
  B  B15  1  0.50000000  0.94638000  0.93298500  1
  B  B16  1  0.50000000  0.74960200  0.41935000  1
  B  B17  1  0.50000000  0.25039800  0.58065000  1
  B  B18  1  0.50000000  0.24960200  0.08065000  1
  B  B19  1  0.50000000  0.75039800  0.91935000  1
  B  B20  1  0.50000000  0.79293600  0.26614300  1
  B  B21  1  0.50000000  0.20706400  0.73385700  1
  B  B22  1  0.50000000  0.29293600  0.23385700  1
  B  B23  1  0.50000000  0.70706400  0.76614300  1
  B  B24  1  0.50000000  0.63214600  0.18630000  1
  B  B25  1  0.50000000  0.36785400  0.81370000  1
  B  B26  1  0.50000000  0.13214600  0.31370000  1
  B  B27  1  0.50000000  0.86785400  0.68630000  1
  B  B28  1  0.50000000  0.98352800  0.21200600  1
  B  B29  1  0.50000000  0.01647200  0.78799400  1
  B  B30  1  0.50000000  0.48352800  0.28799400  1
  B  B31  1  0.50000000  0.51647200  0.71200600  1
  B  B32  1  0.50000000  0.60157500  0.02849300  1
  B  B33  1  0.50000000  0.39842500  0.97150700  1
  B  B34  1  0.50000000  0.10157500  0.47150700  1
  B  B35  1  0.50000000  0.89842500  0.52849300  1
