# generated using pymatgen
data_GaHSeO4
_symmetry_space_group_name_H-M   'P 1'
_cell_length_a   4.54657300
_cell_length_b   6.16234700
_cell_length_c   12.01820000
_cell_angle_alpha   90.00000000
_cell_angle_beta   90.00000000
_cell_angle_gamma   90.00000000
_symmetry_Int_Tables_number   1
_chemical_formula_structural   GaHSeO4
_chemical_formula_sum   'Ga4 H4 Se4 O16'
_cell_volume   336.72064544
_cell_formula_units_Z   4
loop_
 _symmetry_equiv_pos_site_id
 _symmetry_equiv_pos_as_xyz
  1  'x, y, z'
loop_
 _atom_site_type_symbol
 _atom_site_label
 _atom_site_symmetry_multiplicity
 _atom_site_fract_x
 _atom_site_fract_y
 _atom_site_fract_z
 _atom_site_occupancy
  Ga  Ga0  1  0.00000000  0.50000000  0.00000000  1
  Ga  Ga1  1  0.50000000  0.00000000  0.50000000  1
  Ga  Ga2  1  0.00000000  0.00000000  0.00000000  1
  Ga  Ga3  1  0.50000000  0.50000000  0.50000000  1
  H  H4  1  0.38955700  0.75000000  0.08484200  1
  H  H5  1  0.11044300  0.75000000  0.58484200  1
  H  H6  1  0.61044300  0.25000000  0.91515800  1
  H  H7  1  0.88955700  0.25000000  0.41515800  1
  Se  Se8  1  0.47909600  0.75000000  0.83102600  1
  Se  Se9  1  0.02090400  0.75000000  0.33102600  1
  Se  Se10  1  0.52090400  0.25000000  0.16897400  1
  Se  Se11  1  0.97909600  0.25000000  0.66897400  1
  O  O12  1  0.74360800  0.75000000  0.94414500  1
  O  O13  1  0.75639200  0.75000000  0.44414500  1
  O  O14  1  0.25639200  0.25000000  0.05585500  1
  O  O15  1  0.24360800  0.25000000  0.55585500  1
  O  O16  1  0.17415100  0.75000000  0.08021300  1
  O  O17  1  0.32584900  0.75000000  0.58021300  1
  O  O18  1  0.82584900  0.25000000  0.91978700  1
  O  O19  1  0.67415100  0.25000000  0.41978700  1
  O  O20  1  0.27505300  0.52813100  0.86859400  1
  O  O21  1  0.22494700  0.97186900  0.36859400  1
  O  O22  1  0.72494700  0.02813100  0.13140600  1
  O  O23  1  0.77505300  0.47186900  0.63140600  1
  O  O24  1  0.72494700  0.47186900  0.13140600  1
  O  O25  1  0.77505300  0.02813100  0.63140600  1
  O  O26  1  0.27505300  0.97186900  0.86859400  1
  O  O27  1  0.22494700  0.52813100  0.36859400  1
