# generated using pymatgen
data_Dy2MgCu2
_symmetry_space_group_name_H-M   'P 1'
_cell_length_a   7.73388800
_cell_length_b   7.73388800
_cell_length_c   3.61747600
_cell_angle_alpha   90.00000000
_cell_angle_beta   90.00000000
_cell_angle_gamma   90.00000000
_symmetry_Int_Tables_number   1
_chemical_formula_structural   Dy2MgCu2
_chemical_formula_sum   'Dy4 Mg2 Cu4'
_cell_volume   216.37217735
_cell_formula_units_Z   2
loop_
 _symmetry_equiv_pos_site_id
 _symmetry_equiv_pos_as_xyz
  1  'x, y, z'
loop_
 _atom_site_type_symbol
 _atom_site_label
 _atom_site_symmetry_multiplicity
 _atom_site_fract_x
 _atom_site_fract_y
 _atom_site_fract_z
 _atom_site_occupancy
  Dy  Dy0  1  0.67059800  0.17059800  0.50000000  1
  Dy  Dy1  1  0.32940200  0.82940200  0.50000000  1
  Dy  Dy2  1  0.17059800  0.32940200  0.50000000  1
  Dy  Dy3  1  0.82940200  0.67059800  0.50000000  1
  Mg  Mg4  1  0.00000000  0.00000000  0.00000000  1
  Mg  Mg5  1  0.50000000  0.50000000  0.00000000  1
  Cu  Cu6  1  0.12115800  0.62115800  0.00000000  1
  Cu  Cu7  1  0.87884200  0.37884200  0.00000000  1
  Cu  Cu8  1  0.62115800  0.87884200  0.00000000  1
  Cu  Cu9  1  0.37884200  0.12115800  0.00000000  1
