# generated using pymatgen
data_Ho5(SiSb)2
_symmetry_space_group_name_H-M   'P 1'
_cell_length_a   8.49989726
_cell_length_b   8.49989726
_cell_length_c   7.84007700
_cell_angle_alpha   90.00000000
_cell_angle_beta   90.00000000
_cell_angle_gamma   125.25297260
_symmetry_Int_Tables_number   1
_chemical_formula_structural   Ho5(SiSb)2
_chemical_formula_sum   'Ho10 Si4 Sb4'
_cell_volume   462.55484131
_cell_formula_units_Z   2
loop_
 _symmetry_equiv_pos_site_id
 _symmetry_equiv_pos_as_xyz
  1  'x, y, z'
loop_
 _atom_site_type_symbol
 _atom_site_label
 _atom_site_symmetry_multiplicity
 _atom_site_fract_x
 _atom_site_fract_y
 _atom_site_fract_z
 _atom_site_occupancy
  Ho  Ho0  1  0.03970800  0.29087300  0.33544700  1
  Ho  Ho1  1  0.96029200  0.70912700  0.66455300  1
  Ho  Ho2  1  0.46029200  0.20912700  0.83544700  1
  Ho  Ho3  1  0.79087300  0.53970800  0.16455300  1
  Ho  Ho4  1  0.53970800  0.79087300  0.16455300  1
  Ho  Ho5  1  0.20912700  0.46029200  0.83544700  1
  Ho  Ho6  1  0.70912700  0.96029200  0.66455300  1
  Ho  Ho7  1  0.29087300  0.03970800  0.33544700  1
  Ho  Ho8  1  0.00000000  0.00000000  0.00000000  1
  Ho  Ho9  1  0.50000000  0.50000000  0.50000000  1
  Si  Si10  1  0.36685600  0.36685600  0.13210000  1
  Si  Si11  1  0.63314400  0.63314400  0.86790000  1
  Si  Si12  1  0.13314400  0.13314400  0.63210000  1
  Si  Si13  1  0.86685600  0.86685600  0.36790000  1
  Sb  Sb14  1  0.79435800  0.20564200  0.00000000  1
  Sb  Sb15  1  0.20564200  0.79435800  0.00000000  1
  Sb  Sb16  1  0.70564200  0.29435800  0.50000000  1
  Sb  Sb17  1  0.29435800  0.70564200  0.50000000  1
