# generated using pymatgen
data_BaErCuS3
_symmetry_space_group_name_H-M   'P 1'
_cell_length_a   7.08279090
_cell_length_b   7.08279090
_cell_length_c   10.17968200
_cell_angle_alpha   90.00000000
_cell_angle_beta   90.00000000
_cell_angle_gamma   147.15863631
_symmetry_Int_Tables_number   1
_chemical_formula_structural   BaErCuS3
_chemical_formula_sum   'Ba2 Er2 Cu2 S6'
_cell_volume   276.94567724
_cell_formula_units_Z   2
loop_
 _symmetry_equiv_pos_site_id
 _symmetry_equiv_pos_as_xyz
  1  'x, y, z'
loop_
 _atom_site_type_symbol
 _atom_site_label
 _atom_site_symmetry_multiplicity
 _atom_site_fract_x
 _atom_site_fract_y
 _atom_site_fract_z
 _atom_site_occupancy
  Ba  Ba0  1  0.25538600  0.74461400  0.25000000  1
  Ba  Ba1  1  0.74461400  0.25538600  0.75000000  1
  Er  Er2  1  0.00000000  0.00000000  0.50000000  1
  Er  Er3  1  0.00000000  0.00000000  0.00000000  1
  Cu  Cu4  1  0.46841800  0.53158200  0.75000000  1
  Cu  Cu5  1  0.53158200  0.46841800  0.25000000  1
  S  S6  1  0.06582700  0.93417300  0.75000000  1
  S  S7  1  0.93417300  0.06582700  0.25000000  1
  S  S8  1  0.36975200  0.63024800  0.56199200  1
  S  S9  1  0.36975200  0.63024800  0.93800800  1
  S  S10  1  0.63024800  0.36975200  0.06199200  1
  S  S11  1  0.63024800  0.36975200  0.43800800  1
