# generated using pymatgen
data_PrGa3Au
_symmetry_space_group_name_H-M   'P 1'
_cell_length_a   4.33560600
_cell_length_b   4.33560600
_cell_length_c   6.33731830
_cell_angle_alpha   69.99699346
_cell_angle_beta   69.99699346
_cell_angle_gamma   90.00000000
_symmetry_Int_Tables_number   1
_chemical_formula_structural   PrGa3Au
_chemical_formula_sum   'Pr1 Ga3 Au1'
_cell_volume   104.25886600
_cell_formula_units_Z   1
loop_
 _symmetry_equiv_pos_site_id
 _symmetry_equiv_pos_as_xyz
  1  'x, y, z'
loop_
 _atom_site_type_symbol
 _atom_site_label
 _atom_site_symmetry_multiplicity
 _atom_site_fract_x
 _atom_site_fract_y
 _atom_site_fract_z
 _atom_site_occupancy
  Pr  Pr0  1  0.98791800  0.98791800  0.02416300  1
  Ga  Ga1  1  0.75006700  0.25006700  0.49986500  1
  Ga  Ga2  1  0.25006700  0.75006700  0.49986500  1
  Ga  Ga3  1  0.39234900  0.39234900  0.21530300  1
  Au  Au4  1  0.61959800  0.61959800  0.76080300  1
