# generated using pymatgen
data_NaTh2(PO4)3
_symmetry_space_group_name_H-M   'P 1'
_cell_length_a   9.43267332
_cell_length_b   9.43267332
_cell_length_c   8.25395189
_cell_angle_alpha   79.31424204
_cell_angle_beta   79.31424204
_cell_angle_gamma   42.59401267
_symmetry_Int_Tables_number   1
_chemical_formula_structural   NaTh2(PO4)3
_chemical_formula_sum   'Na2 Th4 P6 O24'
_cell_volume   487.09755039
_cell_formula_units_Z   2
loop_
 _symmetry_equiv_pos_site_id
 _symmetry_equiv_pos_as_xyz
  1  'x, y, z'
loop_
 _atom_site_type_symbol
 _atom_site_label
 _atom_site_symmetry_multiplicity
 _atom_site_fract_x
 _atom_site_fract_y
 _atom_site_fract_z
 _atom_site_occupancy
  Na  Na0  1  0.39054400  0.58953300  0.86960300  1
  Na  Na1  1  0.58953300  0.39054400  0.36960300  1
  Th  Th2  1  0.06794000  0.24353700  0.46933500  1
  Th  Th3  1  0.24353700  0.06794000  0.96933500  1
  Th  Th4  1  0.94591800  0.75170500  0.54132500  1
  Th  Th5  1  0.75170500  0.94591800  0.04132500  1
  P  P6  1  0.77478300  0.60522900  0.81806100  1
  P  P7  1  0.60522900  0.77478300  0.31806100  1
  P  P8  1  0.89969300  0.10057700  0.74775500  1
  P  P9  1  0.10057700  0.89969300  0.24775500  1
  P  P10  1  0.22408300  0.40319800  0.19371000  1
  P  P11  1  0.40319800  0.22408300  0.69371000  1
  O  O12  1  0.82201200  0.22199800  0.57683400  1
  O  O13  1  0.22199800  0.82201200  0.07683400  1
  O  O14  1  0.17374500  0.28239800  0.17451500  1
  O  O15  1  0.28239800  0.17374500  0.67451500  1
  O  O16  1  0.81326400  0.73832100  0.83235600  1
  O  O17  1  0.73832100  0.81326400  0.33235600  1
  O  O18  1  0.09536000  0.60941400  0.08474400  1
  O  O19  1  0.60941400  0.09536000  0.58474400  1
  O  O20  1  0.15600800  0.44401000  0.38245000  1
  O  O21  1  0.44401000  0.15600800  0.88245000  1
  O  O22  1  0.91068400  0.40420400  0.93298600  1
  O  O23  1  0.40420400  0.91068400  0.43298600  1
  O  O24  1  0.45956000  0.26638600  0.16399900  1
  O  O25  1  0.26638600  0.45956000  0.66399900  1
  O  O26  1  0.72909700  0.21570000  0.89239400  1
  O  O27  1  0.21570000  0.72909700  0.39239400  1
  O  O28  1  0.97795200  0.88414200  0.76029700  1
  O  O29  1  0.88414200  0.97795200  0.26029700  1
  O  O30  1  0.54178500  0.73242100  0.84589600  1
  O  O31  1  0.73242100  0.54178500  0.34589600  1
  O  O32  1  0.08876500  0.06291400  0.75913200  1
  O  O33  1  0.06291400  0.08876500  0.25913200  1
  O  O34  1  0.85622500  0.55109400  0.63191000  1
  O  O35  1  0.55109400  0.85622500  0.13191000  1
