# generated using pymatgen
data_KLiHoF5
_symmetry_space_group_name_H-M   'P 1'
_cell_length_a   6.51509235
_cell_length_b   6.35924830
_cell_length_c   11.90250300
_cell_angle_alpha   90.00000000
_cell_angle_beta   90.00000000
_cell_angle_gamma   113.83431737
_symmetry_Int_Tables_number   1
_chemical_formula_structural   KLiHoF5
_chemical_formula_sum   'K4 Li4 Ho4 F20'
_cell_volume   451.07814777
_cell_formula_units_Z   4
loop_
 _symmetry_equiv_pos_site_id
 _symmetry_equiv_pos_as_xyz
  1  'x, y, z'
loop_
 _atom_site_type_symbol
 _atom_site_label
 _atom_site_symmetry_multiplicity
 _atom_site_fract_x
 _atom_site_fract_y
 _atom_site_fract_z
 _atom_site_occupancy
  K  K0  1  0.94717900  0.96320700  0.34984000  1
  K  K1  1  0.05282100  0.03679300  0.65016000  1
  K  K2  1  0.05282100  0.53679300  0.84984000  1
  K  K3  1  0.94717900  0.46320700  0.15016000  1
  Li  Li4  1  0.55808000  0.96181600  0.74582200  1
  Li  Li5  1  0.44192000  0.03818400  0.25417800  1
  Li  Li6  1  0.44192000  0.53818400  0.24582200  1
  Li  Li7  1  0.55808000  0.46181600  0.75417800  1
  Ho  Ho8  1  0.68244400  0.82100700  0.99760900  1
  Ho  Ho9  1  0.31755600  0.17899300  0.00239100  1
  Ho  Ho10  1  0.31755600  0.67899300  0.49760900  1
  Ho  Ho11  1  0.68244400  0.32100700  0.50239100  1
  F  F12  1  0.72101900  0.77810000  0.80580400  1
  F  F13  1  0.27898100  0.22190000  0.19419600  1
  F  F14  1  0.27898100  0.72190000  0.30580400  1
  F  F15  1  0.72101900  0.27810000  0.69419600  1
  F  F16  1  0.66433000  0.95241700  0.53145400  1
  F  F17  1  0.33567000  0.04758300  0.46854600  1
  F  F18  1  0.33567000  0.54758300  0.03145400  1
  F  F19  1  0.66433000  0.45241700  0.96854600  1
  F  F20  1  0.95566700  0.67280600  0.50682700  1
  F  F21  1  0.04433300  0.32719400  0.49317300  1
  F  F22  1  0.04433300  0.82719400  0.00682700  1
  F  F23  1  0.95566700  0.17280600  0.99317300  1
  F  F24  1  0.46444400  0.96606200  0.89594400  1
  F  F25  1  0.53555600  0.03393800  0.10405600  1
  F  F26  1  0.53555600  0.53393800  0.39594400  1
  F  F27  1  0.46444400  0.46606200  0.60405600  1
  F  F28  1  0.28721800  0.77772800  0.67396900  1
  F  F29  1  0.71278200  0.22227200  0.32603100  1
  F  F30  1  0.71278200  0.72227200  0.17396900  1
  F  F31  1  0.28721800  0.27772800  0.82603100  1
