# generated using pymatgen
data_LaCdPd
_symmetry_space_group_name_H-M   'P 1'
_cell_length_a   7.84318076
_cell_length_b   7.84318076
_cell_length_c   4.13386800
_cell_angle_alpha   90.00000000
_cell_angle_beta   90.00000000
_cell_angle_gamma   120.00000638
_symmetry_Int_Tables_number   1
_chemical_formula_structural   LaCdPd
_chemical_formula_sum   'La3 Cd3 Pd3'
_cell_volume   220.22755474
_cell_formula_units_Z   3
loop_
 _symmetry_equiv_pos_site_id
 _symmetry_equiv_pos_as_xyz
  1  'x, y, z'
loop_
 _atom_site_type_symbol
 _atom_site_label
 _atom_site_symmetry_multiplicity
 _atom_site_fract_x
 _atom_site_fract_y
 _atom_site_fract_z
 _atom_site_occupancy
  La  La0  1  0.40840000  0.40840000  0.50000000  1
  La  La1  1  0.59160000  0.00000000  0.50000000  1
  La  La2  1  0.00000000  0.59160000  0.50000000  1
  Cd  Cd3  1  0.75153000  0.75153000  0.00000000  1
  Cd  Cd4  1  0.24847000  0.00000000  0.00000000  1
  Cd  Cd5  1  0.00000000  0.24847000  0.00000000  1
  Pd  Pd6  1  0.66666700  0.33333300  0.00000000  1
  Pd  Pd7  1  0.33333300  0.66666700  0.00000000  1
  Pd  Pd8  1  0.00000000  0.00000000  0.50000000  1
