# generated using pymatgen
data_La2MgCu2
_symmetry_space_group_name_H-M   'P 1'
_cell_length_a   7.93713300
_cell_length_b   7.93713300
_cell_length_c   3.91188400
_cell_angle_alpha   90.00000000
_cell_angle_beta   90.00000000
_cell_angle_gamma   90.00000000
_symmetry_Int_Tables_number   1
_chemical_formula_structural   La2MgCu2
_chemical_formula_sum   'La4 Mg2 Cu4'
_cell_volume   246.44118220
_cell_formula_units_Z   2
loop_
 _symmetry_equiv_pos_site_id
 _symmetry_equiv_pos_as_xyz
  1  'x, y, z'
loop_
 _atom_site_type_symbol
 _atom_site_label
 _atom_site_symmetry_multiplicity
 _atom_site_fract_x
 _atom_site_fract_y
 _atom_site_fract_z
 _atom_site_occupancy
  La  La0  1  0.32677400  0.82677400  0.50000000  1
  La  La1  1  0.82677400  0.67322600  0.50000000  1
  La  La2  1  0.17322600  0.32677400  0.50000000  1
  La  La3  1  0.67322600  0.17322600  0.50000000  1
  Mg  Mg4  1  0.50000000  0.50000000  0.00000000  1
  Mg  Mg5  1  0.00000000  0.00000000  0.00000000  1
  Cu  Cu6  1  0.11958200  0.61958200  0.00000000  1
  Cu  Cu7  1  0.61958200  0.88041800  0.00000000  1
  Cu  Cu8  1  0.88041800  0.38041800  0.00000000  1
  Cu  Cu9  1  0.38041800  0.11958200  0.00000000  1
