# generated using pymatgen
data_NdP2(HO2)3
_symmetry_space_group_name_H-M   'P 1'
_cell_length_a   8.43976279
_cell_length_b   8.97506820
_cell_length_c   9.38386400
_cell_angle_alpha   90.00000000
_cell_angle_beta   90.00000000
_cell_angle_gamma   114.35463330
_symmetry_Int_Tables_number   1
_chemical_formula_structural   NdP2(HO2)3
_chemical_formula_sum   'Nd4 P8 H12 O24'
_cell_volume   647.54964787
_cell_formula_units_Z   4
loop_
 _symmetry_equiv_pos_site_id
 _symmetry_equiv_pos_as_xyz
  1  'x, y, z'
loop_
 _atom_site_type_symbol
 _atom_site_label
 _atom_site_symmetry_multiplicity
 _atom_site_fract_x
 _atom_site_fract_y
 _atom_site_fract_z
 _atom_site_occupancy
  Nd  Nd0  1  0.74785700  0.00052900  0.53258000  1
  Nd  Nd1  1  0.25214300  0.49947100  0.03258000  1
  Nd  Nd2  1  0.25214300  0.99947100  0.46742000  1
  Nd  Nd3  1  0.74785700  0.50052900  0.96742000  1
  P  P4  1  0.44707600  0.69250300  0.38772700  1
  P  P5  1  0.55292400  0.80749700  0.88772700  1
  P  P6  1  0.55292400  0.30749700  0.61227300  1
  P  P7  1  0.44707600  0.19250300  0.11227300  1
  P  P8  1  0.95619200  0.09914000  0.22513100  1
  P  P9  1  0.04380800  0.40086000  0.72513100  1
  P  P10  1  0.04380800  0.90086000  0.77486900  1
  P  P11  1  0.95619200  0.59914000  0.27486900  1
  H  H12  1  0.91916600  0.96019800  0.13925300  1
  H  H13  1  0.08083400  0.53980200  0.63925300  1
  H  H14  1  0.08083400  0.03980200  0.86074700  1
  H  H15  1  0.91916600  0.46019800  0.36074700  1
  H  H16  1  0.35103700  0.56639700  0.48293400  1
  H  H17  1  0.64896300  0.93360300  0.98293400  1
  H  H18  1  0.64896300  0.43360300  0.51706600  1
  H  H19  1  0.35103700  0.06639700  0.01706600  1
  H  H20  1  0.71395100  0.15294800  0.19311400  1
  H  H21  1  0.28604900  0.34705200  0.69311400  1
  H  H22  1  0.28604900  0.84705200  0.80688600  1
  H  H23  1  0.71395100  0.65294800  0.30688600  1
  O  O24  1  0.37575000  0.63656900  0.23979000  1
  O  O25  1  0.62425000  0.86343100  0.73979000  1
  O  O26  1  0.62425000  0.36343100  0.76021000  1
  O  O27  1  0.37575000  0.13656900  0.26021000  1
  O  O28  1  0.07002500  0.24774500  0.14099800  1
  O  O29  1  0.92997500  0.25225500  0.64099800  1
  O  O30  1  0.92997500  0.75225500  0.85900200  1
  O  O31  1  0.07002500  0.74774500  0.35900200  1
  O  O32  1  0.77366600  0.09993300  0.26726400  1
  O  O33  1  0.22633400  0.40006700  0.76726400  1
  O  O34  1  0.22633400  0.90006700  0.73273600  1
  O  O35  1  0.77366600  0.59993300  0.23273600  1
  O  O36  1  0.64274000  0.72564500  0.40429300  1
  O  O37  1  0.35726000  0.77435500  0.90429300  1
  O  O38  1  0.35726000  0.27435500  0.59570700  1
  O  O39  1  0.64274000  0.22564500  0.09570700  1
  O  O40  1  0.01833700  0.06640100  0.37017800  1
  O  O41  1  0.98166300  0.43359900  0.87017800  1
  O  O42  1  0.98166300  0.93359900  0.62982200  1
  O  O43  1  0.01833700  0.56640100  0.12982200  1
  O  O44  1  0.43727100  0.85102800  0.44217500  1
  O  O45  1  0.56272900  0.64897200  0.94217500  1
  O  O46  1  0.56272900  0.14897200  0.55782500  1
  O  O47  1  0.43727100  0.35102800  0.05782500  1
