# generated using pymatgen
data_TbGa2Ni
_symmetry_space_group_name_H-M   'P 1'
_cell_length_a   5.46715671
_cell_length_b   5.46715671
_cell_length_c   6.65119200
_cell_angle_alpha   90.00000000
_cell_angle_beta   90.00000000
_cell_angle_gamma   135.95629796
_symmetry_Int_Tables_number   1
_chemical_formula_structural   TbGa2Ni
_chemical_formula_sum   'Tb2 Ga4 Ni2'
_cell_volume   138.20907707
_cell_formula_units_Z   2
loop_
 _symmetry_equiv_pos_site_id
 _symmetry_equiv_pos_as_xyz
  1  'x, y, z'
loop_
 _atom_site_type_symbol
 _atom_site_label
 _atom_site_symmetry_multiplicity
 _atom_site_fract_x
 _atom_site_fract_y
 _atom_site_fract_z
 _atom_site_occupancy
  Tb  Tb0  1  0.57219700  0.42780300  0.25000000  1
  Tb  Tb1  1  0.42780300  0.57219700  0.75000000  1
  Ga  Ga2  1  0.85537200  0.14462800  0.44443900  1
  Ga  Ga3  1  0.14462800  0.85537200  0.55556100  1
  Ga  Ga4  1  0.85537200  0.14462800  0.05556100  1
  Ga  Ga5  1  0.14462800  0.85537200  0.94443900  1
  Ni  Ni6  1  0.29071500  0.70928500  0.25000000  1
  Ni  Ni7  1  0.70928500  0.29071500  0.75000000  1
