# generated using pymatgen
data_CdPPd5
_symmetry_space_group_name_H-M   'P 1'
_cell_length_a   3.97026600
_cell_length_b   3.97026600
_cell_length_c   7.06008900
_cell_angle_alpha   90.00000000
_cell_angle_beta   90.00000000
_cell_angle_gamma   90.00000000
_symmetry_Int_Tables_number   1
_chemical_formula_structural   CdPPd5
_chemical_formula_sum   'Cd1 P1 Pd5'
_cell_volume   111.28826841
_cell_formula_units_Z   1
loop_
 _symmetry_equiv_pos_site_id
 _symmetry_equiv_pos_as_xyz
  1  'x, y, z'
loop_
 _atom_site_type_symbol
 _atom_site_label
 _atom_site_symmetry_multiplicity
 _atom_site_fract_x
 _atom_site_fract_y
 _atom_site_fract_z
 _atom_site_occupancy
  Cd  Cd0  1  0.50000000  0.50000000  0.00000000  1
  P  P1  1  0.00000000  0.00000000  0.50000000  1
  Pd  Pd2  1  0.00000000  0.00000000  0.00000000  1
  Pd  Pd3  1  0.50000000  0.00000000  0.69917100  1
  Pd  Pd4  1  0.00000000  0.50000000  0.69917100  1
  Pd  Pd5  1  0.50000000  0.00000000  0.30082900  1
  Pd  Pd6  1  0.00000000  0.50000000  0.30082900  1
