# generated using pymatgen
data_Zr3(CuSi)4
_symmetry_space_group_name_H-M   'P 1'
_cell_length_a   7.56948591
_cell_length_b   7.56948591
_cell_length_c   7.56948591
_cell_angle_alpha   149.78347622
_cell_angle_beta   129.84793294
_cell_angle_gamma   59.67648641
_symmetry_Int_Tables_number   1
_chemical_formula_structural   Zr3(CuSi)4
_chemical_formula_sum   'Zr3 Cu4 Si4'
_cell_volume   166.23584908
_cell_formula_units_Z   1
loop_
 _symmetry_equiv_pos_site_id
 _symmetry_equiv_pos_as_xyz
  1  'x, y, z'
loop_
 _atom_site_type_symbol
 _atom_site_label
 _atom_site_symmetry_multiplicity
 _atom_site_fract_x
 _atom_site_fract_y
 _atom_site_fract_z
 _atom_site_occupancy
  Zr  Zr0  1  0.87573600  0.87573600  0.00000000  1
  Zr  Zr1  1  0.12426400  0.12426400  0.00000000  1
  Zr  Zr2  1  0.50000000  0.00000000  0.50000000  1
  Cu  Cu3  1  0.52234600  0.33040600  0.19194000  1
  Cu  Cu4  1  0.86153500  0.66959400  0.19194000  1
  Cu  Cu5  1  0.13846500  0.33040500  0.80806000  1
  Cu  Cu6  1  0.47765400  0.66959400  0.80806000  1
  Si  Si7  1  0.80930600  0.50000000  0.30930600  1
  Si  Si8  1  0.19069400  0.50000000  0.69069400  1
  Si  Si9  1  0.28399400  0.78399400  0.50000000  1
  Si  Si10  1  0.71600600  0.21600600  0.50000000  1
