# generated using pymatgen
data_Er12Co5Bi
_symmetry_space_group_name_H-M   'P 1'
_cell_length_a   8.22336110
_cell_length_b   8.22336110
_cell_length_c   8.22336110
_cell_angle_alpha   110.85123899
_cell_angle_beta   110.79925791
_cell_angle_gamma   106.79584187
_symmetry_Int_Tables_number   1
_chemical_formula_structural   Er12Co5Bi
_chemical_formula_sum   'Er12 Co5 Bi1'
_cell_volume   427.38524239
_cell_formula_units_Z   1
loop_
 _symmetry_equiv_pos_site_id
 _symmetry_equiv_pos_as_xyz
  1  'x, y, z'
loop_
 _atom_site_type_symbol
 _atom_site_label
 _atom_site_symmetry_multiplicity
 _atom_site_fract_x
 _atom_site_fract_y
 _atom_site_fract_z
 _atom_site_occupancy
  Er  Er0  1  0.28419300  0.18235200  0.46654500  1
  Er  Er1  1  0.71580700  0.81764800  0.53345500  1
  Er  Er2  1  0.28419300  0.81764800  0.10184100  1
  Er  Er3  1  0.71580700  0.18235200  0.89815900  1
  Er  Er4  1  0.61935900  0.31173000  0.30762900  1
  Er  Er5  1  0.38064100  0.68827000  0.69237100  1
  Er  Er6  1  0.00410200  0.31173000  0.69237100  1
  Er  Er7  1  0.99589800  0.68827000  0.30762900  1
  Er  Er8  1  0.21152200  0.40852400  0.19700200  1
  Er  Er9  1  0.78847800  0.59147600  0.80299800  1
  Er  Er10  1  0.21152200  0.01452000  0.80299800  1
  Er  Er11  1  0.78847800  0.98548000  0.19700200  1
  Co  Co12  1  0.00000000  0.37556300  0.37556300  1
  Co  Co13  1  0.00000000  0.62443700  0.62443700  1
  Co  Co14  1  0.38798400  0.88798400  0.50000000  1
  Co  Co15  1  0.61201600  0.11201600  0.50000000  1
  Co  Co16  1  0.00000000  0.00000000  0.00000000  1
  Bi  Bi17  1  0.50000000  0.50000000  0.00000000  1
