# generated using pymatgen
data_SmAsS
_symmetry_space_group_name_H-M   'P 1'
_cell_length_a   3.89334800
_cell_length_b   3.92194300
_cell_length_c   17.39085000
_cell_angle_alpha   90.00000000
_cell_angle_beta   90.00000000
_cell_angle_gamma   90.00000000
_symmetry_Int_Tables_number   1
_chemical_formula_structural   SmAsS
_chemical_formula_sum   'Sm4 As4 S4'
_cell_volume   265.54939165
_cell_formula_units_Z   4
loop_
 _symmetry_equiv_pos_site_id
 _symmetry_equiv_pos_as_xyz
  1  'x, y, z'
loop_
 _atom_site_type_symbol
 _atom_site_label
 _atom_site_symmetry_multiplicity
 _atom_site_fract_x
 _atom_site_fract_y
 _atom_site_fract_z
 _atom_site_occupancy
  Sm  Sm0  1  0.25000000  0.24463400  0.85452600  1
  Sm  Sm1  1  0.75000000  0.74463400  0.64547400  1
  Sm  Sm2  1  0.75000000  0.75536600  0.14547400  1
  Sm  Sm3  1  0.25000000  0.25536600  0.35452600  1
  As  As4  1  0.25000000  0.78495200  0.49894900  1
  As  As5  1  0.75000000  0.21504800  0.50105100  1
  As  As6  1  0.25000000  0.71504800  0.99894900  1
  As  As7  1  0.75000000  0.28495200  0.00105100  1
  S  S8  1  0.25000000  0.24716200  0.68664300  1
  S  S9  1  0.25000000  0.25283800  0.18664300  1
  S  S10  1  0.75000000  0.75283800  0.31335700  1
  S  S11  1  0.75000000  0.74716200  0.81335700  1
