# generated using pymatgen
data_LaGa3Cu
_symmetry_space_group_name_H-M   'P 1'
_cell_length_a   6.11124437
_cell_length_b   6.11124437
_cell_length_c   6.11124437
_cell_angle_alpha   139.11644430
_cell_angle_beta   139.11644430
_cell_angle_gamma   59.19734237
_symmetry_Int_Tables_number   1
_chemical_formula_structural   LaGa3Cu
_chemical_formula_sum   'La1 Ga3 Cu1'
_cell_volume   96.82955528
_cell_formula_units_Z   1
loop_
 _symmetry_equiv_pos_site_id
 _symmetry_equiv_pos_as_xyz
  1  'x, y, z'
loop_
 _atom_site_type_symbol
 _atom_site_label
 _atom_site_symmetry_multiplicity
 _atom_site_fract_x
 _atom_site_fract_y
 _atom_site_fract_z
 _atom_site_occupancy
  La  La0  1  0.00000000  0.00000000  0.00000000  1
  Ga  Ga1  1  0.61908100  0.61908100  0.00000000  1
  Ga  Ga2  1  0.38091900  0.38091900  0.00000000  1
  Ga  Ga3  1  0.75000000  0.25000000  0.50000000  1
  Cu  Cu4  1  0.25000000  0.75000000  0.50000000  1
