# generated using pymatgen
data_BrCl
_symmetry_space_group_name_H-M   'P 1'
_cell_length_a   4.74663166
_cell_length_b   4.74663166
_cell_length_c   7.82112300
_cell_angle_alpha   90.00000000
_cell_angle_beta   90.00000000
_cell_angle_gamma   116.00747421
_symmetry_Int_Tables_number   1
_chemical_formula_structural   BrCl
_chemical_formula_sum   'Br2 Cl2'
_cell_volume   158.36993217
_cell_formula_units_Z   2
loop_
 _symmetry_equiv_pos_site_id
 _symmetry_equiv_pos_as_xyz
  1  'x, y, z'
loop_
 _atom_site_type_symbol
 _atom_site_label
 _atom_site_symmetry_multiplicity
 _atom_site_fract_x
 _atom_site_fract_y
 _atom_site_fract_z
 _atom_site_occupancy
  Br  Br0  1  0.00614300  0.00614300  0.37347600  1
  Br  Br1  1  0.99385700  0.99385700  0.87347600  1
  Cl  Cl2  1  0.71749400  0.71749400  0.62652400  1
  Cl  Cl3  1  0.28250600  0.28250600  0.12652400  1
