# generated using pymatgen
data_K5In(MoO4)4
_symmetry_space_group_name_H-M   'P 1'
_cell_length_a   9.68745074
_cell_length_b   9.68745074
_cell_length_c   10.70709980
_cell_angle_alpha   71.73105659
_cell_angle_beta   71.73105659
_cell_angle_gamma   79.07666373
_symmetry_Int_Tables_number   1
_chemical_formula_structural   K5In(MoO4)4
_chemical_formula_sum   'K10 In2 Mo8 O32'
_cell_volume   901.43457942
_cell_formula_units_Z   2
loop_
 _symmetry_equiv_pos_site_id
 _symmetry_equiv_pos_as_xyz
  1  'x, y, z'
loop_
 _atom_site_type_symbol
 _atom_site_label
 _atom_site_symmetry_multiplicity
 _atom_site_fract_x
 _atom_site_fract_y
 _atom_site_fract_z
 _atom_site_occupancy
  K  K0  1  0.38926000  0.60885500  0.75017500  1
  K  K1  1  0.60885500  0.38926000  0.25017500  1
  K  K2  1  0.33559900  0.07575200  0.43520100  1
  K  K3  1  0.07575200  0.33559900  0.93520100  1
  K  K4  1  0.82035900  0.61558700  0.44157200  1
  K  K5  1  0.61558700  0.82035900  0.94157200  1
  K  K6  1  0.65022600  0.93040800  0.57371400  1
  K  K7  1  0.93040800  0.65022600  0.07371400  1
  K  K8  1  0.18098400  0.38302200  0.56920200  1
  K  K9  1  0.38302200  0.18098400  0.06920200  1
  In  In10  1  0.88500200  0.11520900  0.75121100  1
  In  In11  1  0.11520900  0.88500200  0.25121100  1
  Mo  Mo12  1  0.53334100  0.26347100  0.66093700  1
  Mo  Mo13  1  0.26347100  0.53334100  0.16093700  1
  Mo  Mo14  1  0.04522600  0.78036000  0.63601500  1
  Mo  Mo15  1  0.78036000  0.04522600  0.13601500  1
  Mo  Mo16  1  0.46918800  0.73799500  0.34345500  1
  Mo  Mo17  1  0.73799500  0.46918800  0.84345500  1
  Mo  Mo18  1  0.95733400  0.21680000  0.37005500  1
  Mo  Mo19  1  0.21680000  0.95733400  0.87005500  1
  O  O20  1  0.62016100  0.42568700  0.57963100  1
  O  O21  1  0.42568700  0.62016100  0.07963100  1
  O  O22  1  0.36831800  0.29992200  0.78735500  1
  O  O23  1  0.29992200  0.36831800  0.28735500  1
  O  O24  1  0.47884800  0.21254600  0.53792100  1
  O  O25  1  0.21254600  0.47884800  0.03792100  1
  O  O26  1  0.66564400  0.12078200  0.73571200  1
  O  O27  1  0.12078200  0.66564400  0.23571200  1
  O  O28  1  0.21299400  0.84568300  0.60375900  1
  O  O29  1  0.84568300  0.21299400  0.10375900  1
  O  O30  1  0.01220700  0.80249000  0.47067700  1
  O  O31  1  0.80249000  0.01220700  0.97067700  1
  O  O32  1  0.90196700  0.88939800  0.73450800  1
  O  O33  1  0.88939800  0.90196700  0.23450800  1
  O  O34  1  0.06330300  0.59131800  0.72355500  1
  O  O35  1  0.59131800  0.06330300  0.22355500  1
  O  O36  1  0.38789800  0.57256500  0.42390300  1
  O  O37  1  0.57256500  0.38789800  0.92390300  1
  O  O38  1  0.63682300  0.70531800  0.21830800  1
  O  O39  1  0.70531800  0.63682300  0.71830800  1
  O  O40  1  0.51822800  0.79014500  0.46880100  1
  O  O41  1  0.79014500  0.51822800  0.96880100  1
  O  O42  1  0.33559400  0.87655900  0.26600900  1
  O  O43  1  0.87655900  0.33559400  0.76600900  1
  O  O44  1  0.78872300  0.15182800  0.40566100  1
  O  O45  1  0.15182800  0.78872300  0.90566100  1
  O  O46  1  0.99725500  0.19449900  0.53261100  1
  O  O47  1  0.19449900  0.99725500  0.03261100  1
  O  O48  1  0.10014700  0.10959900  0.26925100  1
  O  O49  1  0.10959900  0.10014700  0.76925100  1
  O  O50  1  0.94113300  0.40549700  0.28288000  1
  O  O51  1  0.40549700  0.94113300  0.78288000  1
