# generated using pymatgen
data_TbB2C
_symmetry_space_group_name_H-M   'P 1'
_cell_length_a   6.80701300
_cell_length_b   6.80701300
_cell_length_c   7.54674200
_cell_angle_alpha   90.00000000
_cell_angle_beta   90.00000000
_cell_angle_gamma   90.00000000
_symmetry_Int_Tables_number   1
_chemical_formula_structural   TbB2C
_chemical_formula_sum   'Tb8 B16 C8'
_cell_volume   349.68150535
_cell_formula_units_Z   8
loop_
 _symmetry_equiv_pos_site_id
 _symmetry_equiv_pos_as_xyz
  1  'x, y, z'
loop_
 _atom_site_type_symbol
 _atom_site_label
 _atom_site_symmetry_multiplicity
 _atom_site_fract_x
 _atom_site_fract_y
 _atom_site_fract_z
 _atom_site_occupancy
  Tb  Tb0  1  0.30986000  0.80986000  0.75000000  1
  Tb  Tb1  1  0.19014000  0.30986000  0.25000000  1
  Tb  Tb2  1  0.80986000  0.69014000  0.25000000  1
  Tb  Tb3  1  0.69014000  0.19014000  0.75000000  1
  Tb  Tb4  1  0.69014000  0.19014000  0.25000000  1
  Tb  Tb5  1  0.80986000  0.69014000  0.75000000  1
  Tb  Tb6  1  0.19014000  0.30986000  0.75000000  1
  Tb  Tb7  1  0.30986000  0.80986000  0.25000000  1
  B  B8  1  0.15138700  0.03475300  0.00000000  1
  B  B9  1  0.53475300  0.65138700  0.50000000  1
  B  B10  1  0.84861300  0.96524700  0.00000000  1
  B  B11  1  0.34861300  0.53475300  0.00000000  1
  B  B12  1  0.65138700  0.46524700  0.00000000  1
  B  B13  1  0.03475300  0.84861300  0.50000000  1
  B  B14  1  0.96524700  0.15138700  0.50000000  1
  B  B15  1  0.46524700  0.34861300  0.50000000  1
  B  B16  1  0.09706600  0.59534300  0.00000000  1
  B  B17  1  0.40465700  0.09706600  0.50000000  1
  B  B18  1  0.59534300  0.90293400  0.50000000  1
  B  B19  1  0.59706600  0.90465700  0.00000000  1
  B  B20  1  0.40293400  0.09534300  0.00000000  1
  B  B21  1  0.90293400  0.40465700  0.00000000  1
  B  B22  1  0.09534300  0.59706600  0.50000000  1
  B  B23  1  0.90465700  0.40293400  0.50000000  1
  C  C24  1  0.17729200  0.04057400  0.50000000  1
  C  C25  1  0.67729200  0.45942600  0.50000000  1
  C  C26  1  0.32270800  0.54057400  0.50000000  1
  C  C27  1  0.95942600  0.17729200  0.00000000  1
  C  C28  1  0.04057400  0.82270800  0.00000000  1
  C  C29  1  0.54057400  0.67729200  0.00000000  1
  C  C30  1  0.82270800  0.95942600  0.50000000  1
  C  C31  1  0.45942600  0.32270800  0.00000000  1
