# generated using pymatgen
data_DyVB4
_symmetry_space_group_name_H-M   'P 1'
_cell_length_a   3.45166500
_cell_length_b   6.00595600
_cell_length_c   11.62956000
_cell_angle_alpha   90.00000000
_cell_angle_beta   90.00000000
_cell_angle_gamma   90.00000000
_symmetry_Int_Tables_number   1
_chemical_formula_structural   DyVB4
_chemical_formula_sum   'Dy4 V4 B16'
_cell_volume   241.08715316
_cell_formula_units_Z   4
loop_
 _symmetry_equiv_pos_site_id
 _symmetry_equiv_pos_as_xyz
  1  'x, y, z'
loop_
 _atom_site_type_symbol
 _atom_site_label
 _atom_site_symmetry_multiplicity
 _atom_site_fract_x
 _atom_site_fract_y
 _atom_site_fract_z
 _atom_site_occupancy
  Dy  Dy0  1  0.00000000  0.62439700  0.34848800  1
  Dy  Dy1  1  0.00000000  0.37560300  0.65151200  1
  Dy  Dy2  1  0.00000000  0.12439700  0.15151200  1
  Dy  Dy3  1  0.00000000  0.87560300  0.84848800  1
  V  V4  1  0.00000000  0.62703900  0.08267100  1
  V  V5  1  0.00000000  0.37296100  0.91732900  1
  V  V6  1  0.00000000  0.12703900  0.41732900  1
  V  V7  1  0.00000000  0.87296100  0.58267100  1
  B  B8  1  0.50000000  0.78624200  0.18552000  1
  B  B9  1  0.50000000  0.21375800  0.81448000  1
  B  B10  1  0.50000000  0.28624200  0.31448000  1
  B  B11  1  0.50000000  0.71375800  0.68552000  1
  B  B12  1  0.50000000  0.86413700  0.03257900  1
  B  B13  1  0.50000000  0.13586300  0.96742100  1
  B  B14  1  0.50000000  0.36413700  0.46742100  1
  B  B15  1  0.50000000  0.63586300  0.53257900  1
  B  B16  1  0.50000000  0.88549000  0.45242500  1
  B  B17  1  0.50000000  0.11451000  0.54757500  1
  B  B18  1  0.50000000  0.38549000  0.04757500  1
  B  B19  1  0.50000000  0.61451000  0.95242500  1
  B  B20  1  0.50000000  0.97759900  0.30772600  1
  B  B21  1  0.50000000  0.02240100  0.69227400  1
  B  B22  1  0.50000000  0.47759900  0.19227400  1
  B  B23  1  0.50000000  0.52240100  0.80772600  1
