# generated using pymatgen
data_Sc5P12Ir19
_symmetry_space_group_name_H-M   'P 1'
_cell_length_a   12.66554189
_cell_length_b   12.66554189
_cell_length_c   3.90533000
_cell_angle_alpha   90.00000000
_cell_angle_beta   90.00000000
_cell_angle_gamma   119.99999944
_symmetry_Int_Tables_number   1
_chemical_formula_structural   Sc5P12Ir19
_chemical_formula_sum   'Sc5 P12 Ir19'
_cell_volume   542.54519704
_cell_formula_units_Z   1
loop_
 _symmetry_equiv_pos_site_id
 _symmetry_equiv_pos_as_xyz
  1  'x, y, z'
loop_
 _atom_site_type_symbol
 _atom_site_label
 _atom_site_symmetry_multiplicity
 _atom_site_fract_x
 _atom_site_fract_y
 _atom_site_fract_z
 _atom_site_occupancy
  Sc  Sc0  1  0.33333300  0.66666700  0.00000000  1
  Sc  Sc1  1  0.66666700  0.33333300  0.00000000  1
  Sc  Sc2  1  0.81670200  0.00000000  0.50000000  1
  Sc  Sc3  1  0.00000000  0.81670200  0.50000000  1
  Sc  Sc4  1  0.18329800  0.18329800  0.50000000  1
  P  P5  1  0.17595400  0.00000000  0.00000000  1
  P  P6  1  0.00000000  0.17595400  0.00000000  1
  P  P7  1  0.82404600  0.82404600  0.00000000  1
  P  P8  1  0.17161700  0.48374300  0.50000000  1
  P  P9  1  0.51625700  0.68787300  0.50000000  1
  P  P10  1  0.31212700  0.82838300  0.50000000  1
  P  P11  1  0.68787300  0.51625700  0.50000000  1
  P  P12  1  0.82838300  0.31212700  0.50000000  1
  P  P13  1  0.48374300  0.17161700  0.50000000  1
  P  P14  1  0.64498000  0.00000000  0.00000000  1
  P  P15  1  0.00000000  0.64498000  0.00000000  1
  P  P16  1  0.35502000  0.35502000  0.00000000  1
  Ir  Ir17  1  0.46396900  0.00000000  0.00000000  1
  Ir  Ir18  1  0.00000000  0.46396900  0.00000000  1
  Ir  Ir19  1  0.53603100  0.53603100  0.00000000  1
  Ir  Ir20  1  0.35956200  0.49593700  0.50000000  1
  Ir  Ir21  1  0.50406300  0.86362500  0.50000000  1
  Ir  Ir22  1  0.13637500  0.64043800  0.50000000  1
  Ir  Ir23  1  0.86362500  0.50406300  0.50000000  1
  Ir  Ir24  1  0.64043800  0.13637500  0.50000000  1
  Ir  Ir25  1  0.49593700  0.35956200  0.50000000  1
  Ir  Ir26  1  0.18146900  0.37171600  0.00000000  1
  Ir  Ir27  1  0.62828400  0.80975400  0.00000000  1
  Ir  Ir28  1  0.19024600  0.81853100  0.00000000  1
  Ir  Ir29  1  0.80975400  0.62828400  0.00000000  1
  Ir  Ir30  1  0.81853100  0.19024600  0.00000000  1
  Ir  Ir31  1  0.37171600  0.18146900  0.00000000  1
  Ir  Ir32  1  0.28396000  0.00000000  0.50000000  1
  Ir  Ir33  1  0.00000000  0.28396000  0.50000000  1
  Ir  Ir34  1  0.71604000  0.71604000  0.50000000  1
  Ir  Ir35  1  0.00000000  0.00000000  0.00000000  1
