# generated using pymatgen
data_Rb8Ta6O19
_symmetry_space_group_name_H-M   'P 1'
_cell_length_a   9.76275131
_cell_length_b   9.76275131
_cell_length_c   9.76275131
_cell_angle_alpha   119.66492829
_cell_angle_beta   119.66492829
_cell_angle_gamma   90.58134765
_symmetry_Int_Tables_number   1
_chemical_formula_structural   Rb8Ta6O19
_chemical_formula_sum   'Rb8 Ta6 O19'
_cell_volume   661.25878535
_cell_formula_units_Z   1
loop_
 _symmetry_equiv_pos_site_id
 _symmetry_equiv_pos_as_xyz
  1  'x, y, z'
loop_
 _atom_site_type_symbol
 _atom_site_label
 _atom_site_symmetry_multiplicity
 _atom_site_fract_x
 _atom_site_fract_y
 _atom_site_fract_z
 _atom_site_occupancy
  Rb  Rb0  1  0.63413800  0.44110300  0.36452700  1
  Rb  Rb1  1  0.36586200  0.55889700  0.63547300  1
  Rb  Rb2  1  0.07657600  0.26961000  0.63547300  1
  Rb  Rb3  1  0.44110300  0.07657600  0.80696500  1
  Rb  Rb4  1  0.92342400  0.73039000  0.36452700  1
  Rb  Rb5  1  0.55889700  0.92342400  0.19303500  1
  Rb  Rb6  1  0.26961000  0.63413800  0.19303500  1
  Rb  Rb7  1  0.73039000  0.36586200  0.80696500  1
  Ta  Ta8  1  0.17100400  0.17100400  0.00000000  1
  Ta  Ta9  1  0.82899600  0.82899600  0.00000000  1
  Ta  Ta10  1  0.22008600  0.10614700  0.32623300  1
  Ta  Ta11  1  0.77991400  0.89385300  0.67376700  1
  Ta  Ta12  1  0.10614700  0.77991400  0.88606100  1
  Ta  Ta13  1  0.89385300  0.22008600  0.11393900  1
  O  O14  1  0.09042100  0.26678600  0.35720700  1
  O  O15  1  0.90957900  0.73321400  0.64279300  1
  O  O16  1  0.26678600  0.90957900  0.17636500  1
  O  O17  1  0.73321400  0.09042100  0.82363500  1
  O  O18  1  0.32520400  0.23404000  0.27166400  1
  O  O19  1  0.67479600  0.76596000  0.72833600  1
  O  O20  1  0.96237600  0.05354000  0.72833600  1
  O  O21  1  0.23404000  0.96237600  0.90883600  1
  O  O22  1  0.03762400  0.94646000  0.27166400  1
  O  O23  1  0.76596000  0.03762400  0.09116400  1
  O  O24  1  0.05354000  0.32520400  0.09116400  1
  O  O25  1  0.94646000  0.67479600  0.90883600  1
  O  O26  1  0.38117100  0.20031500  0.58148700  1
  O  O27  1  0.61882900  0.79968500  0.41851300  1
  O  O28  1  0.20031500  0.61882900  0.81914400  1
  O  O29  1  0.79968500  0.38117100  0.18085600  1
  O  O30  1  0.30482100  0.30482100  0.00000000  1
  O  O31  1  0.69517900  0.69517900  0.00000000  1
  O  O32  1  0.00000000  0.00000000  0.00000000  1
