# generated using pymatgen
data_Gd3ScS6
_symmetry_space_group_name_H-M   'P 1'
_cell_length_a   3.84698700
_cell_length_b   13.60278900
_cell_length_c   16.35337000
_cell_angle_alpha   90.00000000
_cell_angle_beta   90.00000000
_cell_angle_gamma   90.00000000
_symmetry_Int_Tables_number   1
_chemical_formula_structural   Gd3ScS6
_chemical_formula_sum   'Gd12 Sc4 S24'
_cell_volume   855.76780377
_cell_formula_units_Z   4
loop_
 _symmetry_equiv_pos_site_id
 _symmetry_equiv_pos_as_xyz
  1  'x, y, z'
loop_
 _atom_site_type_symbol
 _atom_site_label
 _atom_site_symmetry_multiplicity
 _atom_site_fract_x
 _atom_site_fract_y
 _atom_site_fract_z
 _atom_site_occupancy
  Gd  Gd0  1  0.00000000  0.31642200  0.14969400  1
  Gd  Gd1  1  0.00000000  0.68357800  0.85030600  1
  Gd  Gd2  1  0.50000000  0.18357800  0.64969400  1
  Gd  Gd3  1  0.50000000  0.81642200  0.35030600  1
  Gd  Gd4  1  0.00000000  0.75238000  0.10164000  1
  Gd  Gd5  1  0.00000000  0.24762000  0.89836000  1
  Gd  Gd6  1  0.50000000  0.74762000  0.60164000  1
  Gd  Gd7  1  0.50000000  0.25238000  0.39836000  1
  Gd  Gd8  1  0.00000000  0.54635600  0.28055600  1
  Gd  Gd9  1  0.00000000  0.45364400  0.71944400  1
  Gd  Gd10  1  0.50000000  0.95364400  0.78055600  1
  Gd  Gd11  1  0.50000000  0.04635600  0.21944400  1
  Sc  Sc12  1  0.00000000  0.00000000  0.50000000  1
  Sc  Sc13  1  0.50000000  0.50000000  0.00000000  1
  Sc  Sc14  1  0.00000000  0.00000000  0.00000000  1
  Sc  Sc15  1  0.50000000  0.50000000  0.50000000  1
  S  S16  1  0.00000000  0.18590600  0.28941300  1
  S  S17  1  0.00000000  0.81409400  0.71058700  1
  S  S18  1  0.50000000  0.31409400  0.78941300  1
  S  S19  1  0.50000000  0.68590600  0.21058700  1
  S  S20  1  0.00000000  0.10673000  0.75237100  1
  S  S21  1  0.00000000  0.89327000  0.24762900  1
  S  S22  1  0.50000000  0.39327000  0.25237100  1
  S  S23  1  0.50000000  0.60673000  0.74762900  1
  S  S24  1  0.00000000  0.40854600  0.42183300  1
  S  S25  1  0.00000000  0.59145400  0.57816700  1
  S  S26  1  0.50000000  0.09145400  0.92183300  1
  S  S27  1  0.50000000  0.90854600  0.07816700  1
  S  S28  1  0.00000000  0.18653100  0.52236200  1
  S  S29  1  0.00000000  0.81346900  0.47763800  1
  S  S30  1  0.50000000  0.31346900  0.02236200  1
  S  S31  1  0.50000000  0.68653100  0.97763800  1
  S  S32  1  0.00000000  0.12170800  0.11097200  1
  S  S33  1  0.00000000  0.87829200  0.88902800  1
  S  S34  1  0.50000000  0.37829200  0.61097200  1
  S  S35  1  0.50000000  0.62170800  0.38902800  1
  S  S36  1  0.00000000  0.52080400  0.10387500  1
  S  S37  1  0.00000000  0.47919600  0.89612500  1
  S  S38  1  0.50000000  0.97919600  0.60387500  1
  S  S39  1  0.50000000  0.02080400  0.39612500  1
