# generated using pymatgen
data_Gd(Re2Si)2
_symmetry_space_group_name_H-M   'P 1'
_cell_length_a   7.43161700
_cell_length_b   7.43161700
_cell_length_c   4.14446500
_cell_angle_alpha   90.00000000
_cell_angle_beta   90.00000000
_cell_angle_gamma   90.00000000
_symmetry_Int_Tables_number   1
_chemical_formula_structural   Gd(Re2Si)2
_chemical_formula_sum   'Gd2 Re8 Si4'
_cell_volume   228.89437249
_cell_formula_units_Z   2
loop_
 _symmetry_equiv_pos_site_id
 _symmetry_equiv_pos_as_xyz
  1  'x, y, z'
loop_
 _atom_site_type_symbol
 _atom_site_label
 _atom_site_symmetry_multiplicity
 _atom_site_fract_x
 _atom_site_fract_y
 _atom_site_fract_z
 _atom_site_occupancy
  Gd  Gd0  1  0.50000000  0.50000000  0.00000000  1
  Gd  Gd1  1  0.00000000  0.00000000  0.50000000  1
  Re  Re2  1  0.59312700  0.15853600  0.50000000  1
  Re  Re3  1  0.40687300  0.84146400  0.50000000  1
  Re  Re4  1  0.09312700  0.34146400  0.00000000  1
  Re  Re5  1  0.90687300  0.65853600  0.00000000  1
  Re  Re6  1  0.15853600  0.59312700  0.50000000  1
  Re  Re7  1  0.84146400  0.40687300  0.50000000  1
  Re  Re8  1  0.34146400  0.09312700  0.00000000  1
  Re  Re9  1  0.65853600  0.90687300  0.00000000  1
  Si  Si10  1  0.71083700  0.71083700  0.50000000  1
  Si  Si11  1  0.28916300  0.28916300  0.50000000  1
  Si  Si12  1  0.21083700  0.78916300  0.00000000  1
  Si  Si13  1  0.78916300  0.21083700  0.00000000  1
