# generated using pymatgen
data_Rb5GaO4
_symmetry_space_group_name_H-M   'P 1'
_cell_length_a   7.07078700
_cell_length_b   12.10172000
_cell_length_c   21.62031500
_cell_angle_alpha   90.00000000
_cell_angle_beta   90.00000000
_cell_angle_gamma   90.00000000
_symmetry_Int_Tables_number   1
_chemical_formula_structural   Rb5GaO4
_chemical_formula_sum   'Rb40 Ga8 O32'
_cell_volume   1850.02191202
_cell_formula_units_Z   8
loop_
 _symmetry_equiv_pos_site_id
 _symmetry_equiv_pos_as_xyz
  1  'x, y, z'
loop_
 _atom_site_type_symbol
 _atom_site_label
 _atom_site_symmetry_multiplicity
 _atom_site_fract_x
 _atom_site_fract_y
 _atom_site_fract_z
 _atom_site_occupancy
  Rb  Rb0  1  0.56695900  0.29592700  0.36802600  1
  Rb  Rb1  1  0.06695900  0.70407300  0.13197400  1
  Rb  Rb2  1  0.43304100  0.20407300  0.86802600  1
  Rb  Rb3  1  0.93304100  0.79592700  0.63197400  1
  Rb  Rb4  1  0.43304100  0.70407300  0.63197400  1
  Rb  Rb5  1  0.93304100  0.29592700  0.86802600  1
  Rb  Rb6  1  0.56695900  0.79592700  0.13197400  1
  Rb  Rb7  1  0.06695900  0.20407300  0.36802600  1
  Rb  Rb8  1  0.57184900  0.36408600  0.00288800  1
  Rb  Rb9  1  0.07184900  0.63591400  0.49711200  1
  Rb  Rb10  1  0.42815100  0.13591400  0.50288800  1
  Rb  Rb11  1  0.92815100  0.86408600  0.99711200  1
  Rb  Rb12  1  0.42815100  0.63591400  0.99711200  1
  Rb  Rb13  1  0.92815100  0.36408600  0.50288800  1
  Rb  Rb14  1  0.57184900  0.86408600  0.49711200  1
  Rb  Rb15  1  0.07184900  0.13591400  0.00288800  1
  Rb  Rb16  1  0.57922000  0.06843700  0.06616100  1
  Rb  Rb17  1  0.07922000  0.93156300  0.43383900  1
  Rb  Rb18  1  0.42078000  0.43156300  0.56616100  1
  Rb  Rb19  1  0.92078000  0.56843700  0.93383900  1
  Rb  Rb20  1  0.42078000  0.93156300  0.93383900  1
  Rb  Rb21  1  0.92078000  0.06843700  0.56616100  1
  Rb  Rb22  1  0.57922000  0.56843700  0.43383900  1
  Rb  Rb23  1  0.07922000  0.43156300  0.06616100  1
  Rb  Rb24  1  0.88616600  0.41700100  0.25366100  1
  Rb  Rb25  1  0.38616600  0.58299900  0.24633900  1
  Rb  Rb26  1  0.11383400  0.08299900  0.75366100  1
  Rb  Rb27  1  0.61383400  0.91700100  0.74633900  1
  Rb  Rb28  1  0.11383400  0.58299900  0.74633900  1
  Rb  Rb29  1  0.61383400  0.41700100  0.75366100  1
  Rb  Rb30  1  0.88616600  0.91700100  0.24633900  1
  Rb  Rb31  1  0.38616600  0.08299900  0.25366100  1
  Rb  Rb32  1  0.89193300  0.17221600  0.17608100  1
  Rb  Rb33  1  0.39193300  0.82778400  0.32391900  1
  Rb  Rb34  1  0.10806700  0.32778400  0.67608100  1
  Rb  Rb35  1  0.60806700  0.67221600  0.82391900  1
  Rb  Rb36  1  0.10806700  0.82778400  0.82391900  1
  Rb  Rb37  1  0.60806700  0.17221600  0.67608100  1
  Rb  Rb38  1  0.89193300  0.67221600  0.32391900  1
  Rb  Rb39  1  0.39193300  0.32778400  0.17608100  1
  Ga  Ga40  1  0.67626800  0.53089700  0.12496000  1
  Ga  Ga41  1  0.17626800  0.46910300  0.37504000  1
  Ga  Ga42  1  0.32373200  0.96910300  0.62496000  1
  Ga  Ga43  1  0.82373200  0.03089700  0.87504000  1
  Ga  Ga44  1  0.32373200  0.46910300  0.87504000  1
  Ga  Ga45  1  0.82373200  0.53089700  0.62496000  1
  Ga  Ga46  1  0.67626800  0.03089700  0.37504000  1
  Ga  Ga47  1  0.17626800  0.96910300  0.12496000  1
  O  O48  1  0.74731900  0.37740700  0.13074400  1
  O  O49  1  0.24731900  0.62259300  0.36925600  1
  O  O50  1  0.25268100  0.12259300  0.63074400  1
  O  O51  1  0.75268100  0.87740700  0.86925600  1
  O  O52  1  0.25268100  0.62259300  0.86925600  1
  O  O53  1  0.75268100  0.37740700  0.63074400  1
  O  O54  1  0.74731900  0.87740700  0.36925600  1
  O  O55  1  0.24731900  0.12259300  0.13074400  1
  O  O56  1  0.75528000  0.10895900  0.30157100  1
  O  O57  1  0.25528000  0.89104100  0.19842900  1
  O  O58  1  0.24472000  0.39104100  0.80157100  1
  O  O59  1  0.74472000  0.60895900  0.69842900  1
  O  O60  1  0.24472000  0.89104100  0.69842900  1
  O  O61  1  0.74472000  0.10895900  0.80157100  1
  O  O62  1  0.75528000  0.60895900  0.19842900  1
  O  O63  1  0.25528000  0.39104100  0.30157100  1
  O  O64  1  0.78939700  0.09723600  0.44631900  1
  O  O65  1  0.28939700  0.90276400  0.05368100  1
  O  O66  1  0.21060300  0.40276400  0.94631900  1
  O  O67  1  0.71060300  0.59723600  0.55368100  1
  O  O68  1  0.21060300  0.90276400  0.55368100  1
  O  O69  1  0.71060300  0.09723600  0.94631900  1
  O  O70  1  0.78939700  0.59723600  0.05368100  1
  O  O71  1  0.28939700  0.40276400  0.44631900  1
  O  O72  1  0.90595600  0.46162800  0.38412500  1
  O  O73  1  0.40595600  0.53837200  0.11587500  1
  O  O74  1  0.09404400  0.03837200  0.88412500  1
  O  O75  1  0.59404400  0.96162800  0.61587500  1
  O  O76  1  0.09404400  0.53837200  0.61587500  1
  O  O77  1  0.59404400  0.46162800  0.88412500  1
  O  O78  1  0.90595600  0.96162800  0.11587500  1
  O  O79  1  0.40595600  0.03837200  0.38412500  1
