# generated using pymatgen
data_Er2SbO2
_symmetry_space_group_name_H-M   'P 1'
_cell_length_a   7.16931156
_cell_length_b   7.16931156
_cell_length_c   7.16931156
_cell_angle_alpha   149.09385744
_cell_angle_beta   148.95592926
_cell_angle_gamma   44.37476747
_symmetry_Int_Tables_number   1
_chemical_formula_structural   Er2SbO2
_chemical_formula_sum   'Er2 Sb1 O2'
_cell_volume   97.31872708
_cell_formula_units_Z   1
loop_
 _symmetry_equiv_pos_site_id
 _symmetry_equiv_pos_as_xyz
  1  'x, y, z'
loop_
 _atom_site_type_symbol
 _atom_site_label
 _atom_site_symmetry_multiplicity
 _atom_site_fract_x
 _atom_site_fract_y
 _atom_site_fract_z
 _atom_site_occupancy
  Er  Er0  1  0.33299400  0.33800000  0.00500600  1
  Er  Er1  1  0.66700600  0.67201200  0.00500600  1
  Sb  Sb2  1  0.00000000  0.05120700  0.05120700  1
  O  O3  1  0.75011100  0.25700100  0.50689000  1
  O  O4  1  0.24988900  0.75677900  0.50689000  1
