# generated using pymatgen
data_Dy2Ti3Si4
_symmetry_space_group_name_H-M   'P 1'
_cell_length_a   7.05106000
_cell_length_b   7.05106000
_cell_length_c   12.96682300
_cell_angle_alpha   90.00000000
_cell_angle_beta   90.00000000
_cell_angle_gamma   90.00000000
_symmetry_Int_Tables_number   1
_chemical_formula_structural   Dy2Ti3Si4
_chemical_formula_sum   'Dy8 Ti12 Si16'
_cell_volume   644.67733686
_cell_formula_units_Z   4
loop_
 _symmetry_equiv_pos_site_id
 _symmetry_equiv_pos_as_xyz
  1  'x, y, z'
loop_
 _atom_site_type_symbol
 _atom_site_label
 _atom_site_symmetry_multiplicity
 _atom_site_fract_x
 _atom_site_fract_y
 _atom_site_fract_z
 _atom_site_occupancy
  Dy  Dy0  1  0.99741600  0.65971900  0.03343700  1
  Dy  Dy1  1  0.00258400  0.34028100  0.53343700  1
  Dy  Dy2  1  0.65971900  0.99741600  0.96656300  1
  Dy  Dy3  1  0.15971900  0.50258400  0.78343700  1
  Dy  Dy4  1  0.84028100  0.49741600  0.28343700  1
  Dy  Dy5  1  0.50258400  0.15971900  0.21656300  1
  Dy  Dy6  1  0.49741600  0.84028100  0.71656300  1
  Dy  Dy7  1  0.34028100  0.00258400  0.46656300  1
  Ti  Ti8  1  0.34771900  0.50836300  0.37342100  1
  Ti  Ti9  1  0.84771900  0.99163700  0.37657900  1
  Ti  Ti10  1  0.00836300  0.15228100  0.12342100  1
  Ti  Ti11  1  0.99163700  0.84771900  0.62342100  1
  Ti  Ti12  1  0.50836300  0.34771900  0.62657900  1
  Ti  Ti13  1  0.15228100  0.00836300  0.87657900  1
  Ti  Ti14  1  0.67282400  0.67282400  0.50000000  1
  Ti  Ti15  1  0.82717600  0.17282400  0.75000000  1
  Ti  Ti16  1  0.17282400  0.82717600  0.25000000  1
  Ti  Ti17  1  0.32717600  0.32717600  0.00000000  1
  Ti  Ti18  1  0.49163700  0.65228100  0.12657900  1
  Ti  Ti19  1  0.65228100  0.49163700  0.87342100  1
  Si  Si20  1  0.04681900  0.70909600  0.43501500  1
  Si  Si21  1  0.95318100  0.29090400  0.93501500  1
  Si  Si22  1  0.70909600  0.04681900  0.56498500  1
  Si  Si23  1  0.20909600  0.45318100  0.18501500  1
  Si  Si24  1  0.79090400  0.54681900  0.68501500  1
  Si  Si25  1  0.45318100  0.20909600  0.81498500  1
  Si  Si26  1  0.54681900  0.79090400  0.31498500  1
  Si  Si27  1  0.29090400  0.95318100  0.06498500  1
  Si  Si28  1  0.79758000  0.86981100  0.18477500  1
  Si  Si29  1  0.29758000  0.63018900  0.56522500  1
  Si  Si30  1  0.70242000  0.36981100  0.06522500  1
  Si  Si31  1  0.63018900  0.29758000  0.43477500  1
  Si  Si32  1  0.36981100  0.70242000  0.93477500  1
  Si  Si33  1  0.13018900  0.20242000  0.31522500  1
  Si  Si34  1  0.20242000  0.13018900  0.68477500  1
  Si  Si35  1  0.86981100  0.79758000  0.81522500  1
