# generated using pymatgen
data_Ba3B3Pb2ClO9
_symmetry_space_group_name_H-M   'P 1'
_cell_length_a   8.99898234
_cell_length_b   8.99898234
_cell_length_c   8.02874200
_cell_angle_alpha   90.00000000
_cell_angle_beta   90.00000000
_cell_angle_gamma   108.03173004
_symmetry_Int_Tables_number   1
_chemical_formula_structural   Ba3B3Pb2ClO9
_chemical_formula_sum   'Ba6 B6 Pb4 Cl2 O18'
_cell_volume   618.24755371
_cell_formula_units_Z   2
loop_
 _symmetry_equiv_pos_site_id
 _symmetry_equiv_pos_as_xyz
  1  'x, y, z'
loop_
 _atom_site_type_symbol
 _atom_site_label
 _atom_site_symmetry_multiplicity
 _atom_site_fract_x
 _atom_site_fract_y
 _atom_site_fract_z
 _atom_site_occupancy
  Ba  Ba0  1  0.23403300  0.23403300  0.00000000  1
  Ba  Ba1  1  0.76596700  0.76596700  0.50000000  1
  Ba  Ba2  1  0.35644600  0.64355400  0.25000000  1
  Ba  Ba3  1  0.64355400  0.35644600  0.75000000  1
  Ba  Ba4  1  0.64946100  0.35053900  0.25000000  1
  Ba  Ba5  1  0.35053900  0.64946100  0.75000000  1
  B  B6  1  0.62473300  0.62473300  0.00000000  1
  B  B7  1  0.37526700  0.37526700  0.50000000  1
  B  B8  1  0.57597800  0.00839100  0.45787400  1
  B  B9  1  0.00839100  0.57597800  0.54212600  1
  B  B10  1  0.42402200  0.99160900  0.95787400  1
  B  B11  1  0.99160900  0.42402200  0.04212600  1
  Pb  Pb12  1  0.73346600  0.97648200  0.07509400  1
  Pb  Pb13  1  0.97648200  0.73346600  0.92490600  1
  Pb  Pb14  1  0.26653400  0.02351800  0.57509400  1
  Pb  Pb15  1  0.02351800  0.26653400  0.42490600  1
  Cl  Cl16  1  0.94093500  0.05906500  0.75000000  1
  Cl  Cl17  1  0.05906500  0.94093500  0.25000000  1
  O  O18  1  0.51615400  0.14061100  0.00403400  1
  O  O19  1  0.14061100  0.51615400  0.99596600  1
  O  O20  1  0.48384600  0.85938900  0.50403400  1
  O  O21  1  0.85938900  0.48384600  0.49596600  1
  O  O22  1  0.46234100  0.86110700  0.01150300  1
  O  O23  1  0.86110700  0.46234100  0.98849700  1
  O  O24  1  0.53765900  0.13889300  0.51150300  1
  O  O25  1  0.13889300  0.53765900  0.48849700  1
  O  O26  1  0.49285100  0.49285100  0.00000000  1
  O  O27  1  0.50714900  0.50714900  0.50000000  1
  O  O28  1  0.68236200  0.69518800  0.15206900  1
  O  O29  1  0.69518800  0.68236200  0.84793100  1
  O  O30  1  0.31763800  0.30481200  0.65206900  1
  O  O31  1  0.30481200  0.31763800  0.34793100  1
  O  O32  1  0.70775800  0.03013400  0.35787100  1
  O  O33  1  0.03013400  0.70775800  0.64212900  1
  O  O34  1  0.29224200  0.96986600  0.85787100  1
  O  O35  1  0.96986600  0.29224200  0.14212900  1
