# generated using pymatgen
data_Dy5(SiSb)2
_symmetry_space_group_name_H-M   'P 1'
_cell_length_a   8.54006687
_cell_length_b   8.54006687
_cell_length_c   7.83837200
_cell_angle_alpha   90.00000000
_cell_angle_beta   90.00000000
_cell_angle_gamma   125.57827243
_symmetry_Int_Tables_number   1
_chemical_formula_structural   Dy5(SiSb)2
_chemical_formula_sum   'Dy10 Si4 Sb4'
_cell_volume   464.95469941
_cell_formula_units_Z   2
loop_
 _symmetry_equiv_pos_site_id
 _symmetry_equiv_pos_as_xyz
  1  'x, y, z'
loop_
 _atom_site_type_symbol
 _atom_site_label
 _atom_site_symmetry_multiplicity
 _atom_site_fract_x
 _atom_site_fract_y
 _atom_site_fract_z
 _atom_site_occupancy
  Dy  Dy0  1  0.04021600  0.29282500  0.33442900  1
  Dy  Dy1  1  0.95978400  0.70717500  0.66557100  1
  Dy  Dy2  1  0.45978400  0.20717500  0.83442900  1
  Dy  Dy3  1  0.79282500  0.54021600  0.16557100  1
  Dy  Dy4  1  0.54021600  0.79282500  0.16557100  1
  Dy  Dy5  1  0.20717500  0.45978400  0.83442900  1
  Dy  Dy6  1  0.70717500  0.95978400  0.66557100  1
  Dy  Dy7  1  0.29282500  0.04021600  0.33442900  1
  Dy  Dy8  1  0.00000000  0.00000000  0.00000000  1
  Dy  Dy9  1  0.50000000  0.50000000  0.50000000  1
  Si  Si10  1  0.36766100  0.36766100  0.13119800  1
  Si  Si11  1  0.63233900  0.63233900  0.86880200  1
  Si  Si12  1  0.13233900  0.13233900  0.63119800  1
  Si  Si13  1  0.86766100  0.86766100  0.36880200  1
  Sb  Sb14  1  0.79428800  0.20571200  0.00000000  1
  Sb  Sb15  1  0.20571200  0.79428800  0.00000000  1
  Sb  Sb16  1  0.70571200  0.29428800  0.50000000  1
  Sb  Sb17  1  0.29428800  0.70571200  0.50000000  1
