# generated using pymatgen
data_Ca2GePt2
_symmetry_space_group_name_H-M   'P 1'
_cell_length_a   5.63016278
_cell_length_b   5.63016278
_cell_length_c   8.00292881
_cell_angle_alpha   79.51842080
_cell_angle_beta   79.51842080
_cell_angle_gamma   60.51860268
_symmetry_Int_Tables_number   1
_chemical_formula_structural   Ca2GePt2
_chemical_formula_sum   'Ca4 Ge2 Pt4'
_cell_volume   215.88121315
_cell_formula_units_Z   2
loop_
 _symmetry_equiv_pos_site_id
 _symmetry_equiv_pos_as_xyz
  1  'x, y, z'
loop_
 _atom_site_type_symbol
 _atom_site_label
 _atom_site_symmetry_multiplicity
 _atom_site_fract_x
 _atom_site_fract_y
 _atom_site_fract_z
 _atom_site_occupancy
  Ca  Ca0  1  0.78197700  0.52208700  0.84650000  1
  Ca  Ca1  1  0.47791300  0.21802300  0.65350000  1
  Ca  Ca2  1  0.21802300  0.47791300  0.15350000  1
  Ca  Ca3  1  0.52208700  0.78197700  0.34650000  1
  Ge  Ge4  1  0.12551800  0.87448200  0.75000000  1
  Ge  Ge5  1  0.87448200  0.12551800  0.25000000  1
  Pt  Pt6  1  0.00465000  0.73910400  0.50050400  1
  Pt  Pt7  1  0.26089600  0.99535000  0.99949600  1
  Pt  Pt8  1  0.99535000  0.26089600  0.49949600  1
  Pt  Pt9  1  0.73910400  0.00465000  0.00050400  1
