# generated using pymatgen
data_Tb(Zn10Fe)2
_symmetry_space_group_name_H-M   'P 1'
_cell_length_a   9.95280513
_cell_length_b   9.95280513
_cell_length_c   9.95280513
_cell_angle_alpha   60.00000000
_cell_angle_beta   60.00000000
_cell_angle_gamma   60.00000000
_symmetry_Int_Tables_number   1
_chemical_formula_structural   Tb(Zn10Fe)2
_chemical_formula_sum   'Tb2 Zn40 Fe4'
_cell_volume   697.14241264
_cell_formula_units_Z   2
loop_
 _symmetry_equiv_pos_site_id
 _symmetry_equiv_pos_as_xyz
  1  'x, y, z'
loop_
 _atom_site_type_symbol
 _atom_site_label
 _atom_site_symmetry_multiplicity
 _atom_site_fract_x
 _atom_site_fract_y
 _atom_site_fract_z
 _atom_site_occupancy
  Tb  Tb0  1  0.75000000  0.75000000  0.75000000  1
  Tb  Tb1  1  0.50000000  0.50000000  0.50000000  1
  Zn  Zn2  1  0.62500000  0.62500000  0.62500000  1
  Zn  Zn3  1  0.12500000  0.62500000  0.62500000  1
  Zn  Zn4  1  0.29810100  0.56907400  0.83472400  1
  Zn  Zn5  1  0.95189900  0.95189900  0.68092600  1
  Zn  Zn6  1  0.68092600  0.41527600  0.95189900  1
  Zn  Zn7  1  0.95189900  0.41527600  0.95189900  1
  Zn  Zn8  1  0.41527600  0.95189900  0.68092600  1
  Zn  Zn9  1  0.41527600  0.95189900  0.95189900  1
  Zn  Zn10  1  0.68092600  0.95189900  0.95189900  1
  Zn  Zn11  1  0.83472400  0.56907400  0.29810100  1
  Zn  Zn12  1  0.29810100  0.56907400  0.29810100  1
  Zn  Zn13  1  0.56907400  0.29810100  0.83472400  1
  Zn  Zn14  1  0.29810100  0.29810100  0.83472400  1
  Zn  Zn15  1  0.56907400  0.83472400  0.29810100  1
  Zn  Zn16  1  0.83472400  0.29810100  0.56907400  1
  Zn  Zn17  1  0.29810100  0.29810100  0.56907400  1
  Zn  Zn18  1  0.29810100  0.83472400  0.29810100  1
  Zn  Zn19  1  0.68092600  0.95189900  0.41527600  1
  Zn  Zn20  1  0.95189900  0.95189900  0.41527600  1
  Zn  Zn21  1  0.95189900  0.41527600  0.68092600  1
  Zn  Zn22  1  0.95189900  0.68092600  0.41527600  1
  Zn  Zn23  1  0.41527600  0.68092600  0.95189900  1
  Zn  Zn24  1  0.95189900  0.68092600  0.95189900  1
  Zn  Zn25  1  0.83472400  0.29810100  0.29810100  1
  Zn  Zn26  1  0.56907400  0.29810100  0.29810100  1
  Zn  Zn27  1  0.29810100  0.83472400  0.56907400  1
  Zn  Zn28  1  0.86438100  0.86438100  0.13561900  1
  Zn  Zn29  1  0.11438100  0.38561900  0.38561900  1
  Zn  Zn30  1  0.38561900  0.11438100  0.11438100  1
  Zn  Zn31  1  0.11438100  0.11438100  0.38561900  1
  Zn  Zn32  1  0.11438100  0.38561900  0.11438100  1
  Zn  Zn33  1  0.38561900  0.11438100  0.38561900  1
  Zn  Zn34  1  0.13561900  0.86438100  0.13561900  1
  Zn  Zn35  1  0.13561900  0.86438100  0.86438100  1
  Zn  Zn36  1  0.86438100  0.13561900  0.13561900  1
  Zn  Zn37  1  0.86438100  0.13561900  0.86438100  1
  Zn  Zn38  1  0.38561900  0.38561900  0.11438100  1
  Zn  Zn39  1  0.13561900  0.13561900  0.86438100  1
  Zn  Zn40  1  0.62500000  0.12500000  0.62500000  1
  Zn  Zn41  1  0.62500000  0.62500000  0.12500000  1
  Fe  Fe42  1  0.12500000  0.62500000  0.12500000  1
  Fe  Fe43  1  0.12500000  0.12500000  0.12500000  1
  Fe  Fe44  1  0.62500000  0.12500000  0.12500000  1
  Fe  Fe45  1  0.12500000  0.12500000  0.62500000  1
