# generated using pymatgen
data_DyCd3
_symmetry_space_group_name_H-M   'P 1'
_cell_length_a   6.53810380
_cell_length_b   6.53810380
_cell_length_c   4.89287400
_cell_angle_alpha   90.00000000
_cell_angle_beta   90.00000000
_cell_angle_gamma   113.35304594
_symmetry_Int_Tables_number   1
_chemical_formula_structural   DyCd3
_chemical_formula_sum   'Dy2 Cd6'
_cell_volume   192.02071316
_cell_formula_units_Z   2
loop_
 _symmetry_equiv_pos_site_id
 _symmetry_equiv_pos_as_xyz
  1  'x, y, z'
loop_
 _atom_site_type_symbol
 _atom_site_label
 _atom_site_symmetry_multiplicity
 _atom_site_fract_x
 _atom_site_fract_y
 _atom_site_fract_z
 _atom_site_occupancy
  Dy  Dy0  1  0.63439500  0.36560500  0.25000000  1
  Dy  Dy1  1  0.36560500  0.63439500  0.75000000  1
  Cd  Cd2  1  0.17623600  0.82376400  0.25000000  1
  Cd  Cd3  1  0.82376400  0.17623600  0.75000000  1
  Cd  Cd4  1  0.12007700  0.31032300  0.25000000  1
  Cd  Cd5  1  0.87992300  0.68967700  0.75000000  1
  Cd  Cd6  1  0.31032300  0.12007700  0.75000000  1
  Cd  Cd7  1  0.68967700  0.87992300  0.25000000  1
