# generated using pymatgen
data_Ta3Sb(PO4)6
_symmetry_space_group_name_H-M   'P 1'
_cell_length_a   9.12106866
_cell_length_b   9.12106866
_cell_length_c   9.12106874
_cell_angle_alpha   58.31086711
_cell_angle_beta   58.31086711
_cell_angle_gamma   58.31086677
_symmetry_Int_Tables_number   1
_chemical_formula_structural   Ta3Sb(PO4)6
_chemical_formula_sum   'Ta3 Sb1 P6 O24'
_cell_volume   515.80988897
_cell_formula_units_Z   1
loop_
 _symmetry_equiv_pos_site_id
 _symmetry_equiv_pos_as_xyz
  1  'x, y, z'
loop_
 _atom_site_type_symbol
 _atom_site_label
 _atom_site_symmetry_multiplicity
 _atom_site_fract_x
 _atom_site_fract_y
 _atom_site_fract_z
 _atom_site_occupancy
  Ta  Ta0  1  0.85663100  0.85663100  0.85663100  1
  Ta  Ta1  1  0.64157700  0.64157700  0.64157700  1
  Ta  Ta2  1  0.14337700  0.14337700  0.14337700  1
  Sb  Sb3  1  0.36063700  0.36063700  0.36063700  1
  P  P4  1  0.95766800  0.53750800  0.25281100  1
  P  P5  1  0.25281100  0.95766800  0.53750800  1
  P  P6  1  0.53750800  0.25281100  0.95766800  1
  P  P7  1  0.76657600  0.02252300  0.46179100  1
  P  P8  1  0.46179100  0.76657600  0.02252300  1
  P  P9  1  0.02252300  0.46179100  0.76657600  1
  O  O10  1  0.12000500  0.53721800  0.25836500  1
  O  O11  1  0.25836500  0.12000500  0.53721800  1
  O  O12  1  0.53721800  0.25836500  0.12000500  1
  O  O13  1  0.81525100  0.97398300  0.62356000  1
  O  O14  1  0.62356000  0.81525100  0.97398300  1
  O  O15  1  0.97398300  0.62356000  0.81525100  1
  O  O16  1  0.85735000  0.49446400  0.72903400  1
  O  O17  1  0.72903400  0.85735000  0.49446400  1
  O  O18  1  0.49446400  0.72903400  0.85735000  1
  O  O19  1  0.23092500  0.99713000  0.36006800  1
  O  O20  1  0.36006800  0.23092500  0.99713000  1
  O  O21  1  0.99713000  0.36006800  0.23092500  1
  O  O22  1  0.20011200  0.44374200  0.60683100  1
  O  O23  1  0.60683100  0.20011200  0.44374200  1
  O  O24  1  0.44374200  0.60683100  0.20011200  1
  O  O25  1  0.09214800  0.89954100  0.71032400  1
  O  O26  1  0.71032400  0.09214800  0.89954100  1
  O  O27  1  0.89954100  0.71032400  0.09214800  1
  O  O28  1  0.78700900  0.55566000  0.43107600  1
  O  O29  1  0.43107600  0.78700900  0.55566000  1
  O  O30  1  0.55566000  0.43107600  0.78700900  1
  O  O31  1  0.94312400  0.04261300  0.28936800  1
  O  O32  1  0.28936800  0.94312400  0.04261300  1
  O  O33  1  0.04261300  0.28936800  0.94312400  1
