# generated using pymatgen
data_SrPrCuSe3
_symmetry_space_group_name_H-M   'P 1'
_cell_length_a   4.18116000
_cell_length_b   11.10425300
_cell_length_c   13.64281700
_cell_angle_alpha   90.00000000
_cell_angle_beta   90.00000000
_cell_angle_gamma   90.00000000
_symmetry_Int_Tables_number   1
_chemical_formula_structural   SrPrCuSe3
_chemical_formula_sum   'Sr4 Pr4 Cu4 Se12'
_cell_volume   633.41769111
_cell_formula_units_Z   4
loop_
 _symmetry_equiv_pos_site_id
 _symmetry_equiv_pos_as_xyz
  1  'x, y, z'
loop_
 _atom_site_type_symbol
 _atom_site_label
 _atom_site_symmetry_multiplicity
 _atom_site_fract_x
 _atom_site_fract_y
 _atom_site_fract_z
 _atom_site_occupancy
  Sr  Sr0  1  0.75000000  0.21547500  0.50014800  1
  Sr  Sr1  1  0.25000000  0.78452500  0.49985200  1
  Sr  Sr2  1  0.75000000  0.71547500  0.99985200  1
  Sr  Sr3  1  0.25000000  0.28452500  0.00014800  1
  Pr  Pr4  1  0.75000000  0.48101700  0.26281800  1
  Pr  Pr5  1  0.25000000  0.51898300  0.73718200  1
  Pr  Pr6  1  0.75000000  0.98101700  0.23718200  1
  Pr  Pr7  1  0.25000000  0.01898300  0.76281800  1
  Cu  Cu8  1  0.25000000  0.23384200  0.27664300  1
  Cu  Cu9  1  0.75000000  0.76615800  0.72335700  1
  Cu  Cu10  1  0.25000000  0.73384200  0.22335700  1
  Cu  Cu11  1  0.75000000  0.26615800  0.77664300  1
  Se  Se12  1  0.75000000  0.10283600  0.89921100  1
  Se  Se13  1  0.25000000  0.89716400  0.10078900  1
  Se  Se14  1  0.75000000  0.60283600  0.60078900  1
  Se  Se15  1  0.25000000  0.39716400  0.39921100  1
  Se  Se16  1  0.25000000  0.05226100  0.38413500  1
  Se  Se17  1  0.75000000  0.94773900  0.61586500  1
  Se  Se18  1  0.25000000  0.55226100  0.11586500  1
  Se  Se19  1  0.75000000  0.44773900  0.88413500  1
  Se  Se20  1  0.75000000  0.23742900  0.17014700  1
  Se  Se21  1  0.25000000  0.76257100  0.82985300  1
  Se  Se22  1  0.75000000  0.73742900  0.32985300  1
  Se  Se23  1  0.25000000  0.26257100  0.67014700  1
