# generated using pymatgen
data_DyAlPd
_symmetry_space_group_name_H-M   'P 1'
_cell_length_a   4.46219500
_cell_length_b   6.89513200
_cell_length_c   7.81882900
_cell_angle_alpha   90.00000000
_cell_angle_beta   90.00000000
_cell_angle_gamma   90.00000000
_symmetry_Int_Tables_number   1
_chemical_formula_structural   DyAlPd
_chemical_formula_sum   'Dy4 Al4 Pd4'
_cell_volume   240.56522339
_cell_formula_units_Z   4
loop_
 _symmetry_equiv_pos_site_id
 _symmetry_equiv_pos_as_xyz
  1  'x, y, z'
loop_
 _atom_site_type_symbol
 _atom_site_label
 _atom_site_symmetry_multiplicity
 _atom_site_fract_x
 _atom_site_fract_y
 _atom_site_fract_z
 _atom_site_occupancy
  Dy  Dy0  1  0.25000000  0.03386800  0.32140800  1
  Dy  Dy1  1  0.25000000  0.53386800  0.17859200  1
  Dy  Dy2  1  0.75000000  0.96613200  0.67859200  1
  Dy  Dy3  1  0.75000000  0.46613200  0.82140800  1
  Al  Al4  1  0.25000000  0.14295900  0.93954000  1
  Al  Al5  1  0.25000000  0.64295900  0.56046000  1
  Al  Al6  1  0.75000000  0.85704100  0.06046000  1
  Al  Al7  1  0.75000000  0.35704100  0.43954000  1
  Pd  Pd8  1  0.25000000  0.27187600  0.62063500  1
  Pd  Pd9  1  0.25000000  0.77187600  0.87936500  1
  Pd  Pd10  1  0.75000000  0.72812400  0.37936500  1
  Pd  Pd11  1  0.75000000  0.22812400  0.12063500  1
