# generated using pymatgen
data_NiCO3
_symmetry_space_group_name_H-M   'P 1'
_cell_length_a   5.64331670
_cell_length_b   5.64331670
_cell_length_c   5.64331665
_cell_angle_alpha   48.71225688
_cell_angle_beta   48.71225688
_cell_angle_gamma   48.71225055
_symmetry_Int_Tables_number   1
_chemical_formula_structural   NiCO3
_chemical_formula_sum   'Ni2 C2 O6'
_cell_volume   93.11067886
_cell_formula_units_Z   2
loop_
 _symmetry_equiv_pos_site_id
 _symmetry_equiv_pos_as_xyz
  1  'x, y, z'
loop_
 _atom_site_type_symbol
 _atom_site_label
 _atom_site_symmetry_multiplicity
 _atom_site_fract_x
 _atom_site_fract_y
 _atom_site_fract_z
 _atom_site_occupancy
  Ni  Ni0  1  0.00000000  0.00000000  0.00000000  1
  Ni  Ni1  1  0.50000000  0.50000000  0.50000000  1
  C  C2  1  0.25000000  0.25000000  0.25000000  1
  C  C3  1  0.75000000  0.75000000  0.75000000  1
  O  O4  1  0.52846900  0.97153100  0.25000000  1
  O  O5  1  0.97153100  0.25000000  0.52846900  1
  O  O6  1  0.75000000  0.47153100  0.02846900  1
  O  O7  1  0.47153100  0.02846900  0.75000000  1
  O  O8  1  0.02846900  0.75000000  0.47153100  1
  O  O9  1  0.25000000  0.52846900  0.97153100  1
