# generated using pymatgen
data_Hf7Au10
_symmetry_space_group_name_H-M   'P 1'
_cell_length_a   8.32359988
_cell_length_b   8.32359988
_cell_length_c   9.89672900
_cell_angle_alpha   90.00000000
_cell_angle_beta   90.00000000
_cell_angle_gamma   107.16606789
_symmetry_Int_Tables_number   1
_chemical_formula_structural   Hf7Au10
_chemical_formula_sum   'Hf14 Au20'
_cell_volume   655.12404936
_cell_formula_units_Z   2
loop_
 _symmetry_equiv_pos_site_id
 _symmetry_equiv_pos_as_xyz
  1  'x, y, z'
loop_
 _atom_site_type_symbol
 _atom_site_label
 _atom_site_symmetry_multiplicity
 _atom_site_fract_x
 _atom_site_fract_y
 _atom_site_fract_z
 _atom_site_occupancy
  Hf  Hf0  1  0.68975000  0.31025000  0.00000000  1
  Hf  Hf1  1  0.31025000  0.68975000  0.00000000  1
  Hf  Hf2  1  0.81025000  0.18975000  0.50000000  1
  Hf  Hf3  1  0.18975000  0.81025000  0.50000000  1
  Hf  Hf4  1  0.00000000  0.00000000  0.00000000  1
  Hf  Hf5  1  0.50000000  0.50000000  0.50000000  1
  Hf  Hf6  1  0.00685400  0.50685400  0.25000000  1
  Hf  Hf7  1  0.99314600  0.49314600  0.75000000  1
  Hf  Hf8  1  0.49314600  0.99314600  0.75000000  1
  Hf  Hf9  1  0.50685400  0.00685400  0.25000000  1
  Hf  Hf10  1  0.31346200  0.31346200  0.18879400  1
  Hf  Hf11  1  0.68653800  0.68653800  0.81120600  1
  Hf  Hf12  1  0.18653800  0.18653800  0.68879400  1
  Hf  Hf13  1  0.81346200  0.81346200  0.31120600  1
  Au  Au14  1  0.85817700  0.15032000  0.20795000  1
  Au  Au15  1  0.14182300  0.84968000  0.79205000  1
  Au  Au16  1  0.64182300  0.34968000  0.70795000  1
  Au  Au17  1  0.65032000  0.35817700  0.29205000  1
  Au  Au18  1  0.35817700  0.65032000  0.29205000  1
  Au  Au19  1  0.34968000  0.64182300  0.70795000  1
  Au  Au20  1  0.84968000  0.14182300  0.79205000  1
  Au  Au21  1  0.15032000  0.85817700  0.20795000  1
  Au  Au22  1  0.94069900  0.64714500  0.00027500  1
  Au  Au23  1  0.05930100  0.35285500  0.99972500  1
  Au  Au24  1  0.55930100  0.85285500  0.50027500  1
  Au  Au25  1  0.14714500  0.44069900  0.49972500  1
  Au  Au26  1  0.44069900  0.14714500  0.49972500  1
  Au  Au27  1  0.85285500  0.55930100  0.50027500  1
  Au  Au28  1  0.35285500  0.05930100  0.99972500  1
  Au  Au29  1  0.64714500  0.94069900  0.00027500  1
  Au  Au30  1  0.10478000  0.10478000  0.39768800  1
  Au  Au31  1  0.89522000  0.89522000  0.60231200  1
  Au  Au32  1  0.39522000  0.39522000  0.89768800  1
  Au  Au33  1  0.60478000  0.60478000  0.10231200  1
