# generated using pymatgen
data_Rb2VCuS4
_symmetry_space_group_name_H-M   'P 1'
_cell_length_a   13.76106155
_cell_length_b   12.26238729
_cell_length_c   7.33926788
_cell_angle_alpha   85.26302931
_cell_angle_beta   62.62915234
_cell_angle_gamma   32.10781835
_symmetry_Int_Tables_number   1
_chemical_formula_structural   Rb2VCuS4
_chemical_formula_sum   'Rb4 V2 Cu2 S8'
_cell_volume   444.18674511
_cell_formula_units_Z   2
loop_
 _symmetry_equiv_pos_site_id
 _symmetry_equiv_pos_as_xyz
  1  'x, y, z'
loop_
 _atom_site_type_symbol
 _atom_site_label
 _atom_site_symmetry_multiplicity
 _atom_site_fract_x
 _atom_site_fract_y
 _atom_site_fract_z
 _atom_site_occupancy
  Rb  Rb0  1  0.57241700  0.57241700  0.92758300  1
  Rb  Rb1  1  0.92758300  0.92758300  0.57241700  1
  Rb  Rb2  1  0.32241700  0.32241700  0.67758300  1
  Rb  Rb3  1  0.67758300  0.67758300  0.32241700  1
  V  V4  1  0.75000000  0.75000000  0.75000000  1
  V  V5  1  0.50000000  0.50000000  0.50000000  1
  Cu  Cu6  1  0.00000000  0.00000000  0.00000000  1
  Cu  Cu7  1  0.25000000  0.25000000  0.25000000  1
  S  S8  1  0.22839400  0.87634100  0.58578500  1
  S  S9  1  0.30948000  0.58578500  0.87634100  1
  S  S10  1  0.58578500  0.30948000  0.22839400  1
  S  S11  1  0.87634100  0.22839400  0.30948000  1
  S  S12  1  0.37365900  0.02160600  0.94052000  1
  S  S13  1  0.94052000  0.66421500  0.37365900  1
  S  S14  1  0.66421500  0.94052000  0.02160600  1
  S  S15  1  0.02160600  0.37365900  0.66421500  1
