# generated using pymatgen
data_Rb2MnSi5O12
_symmetry_space_group_name_H-M   'P 1'
_cell_length_a   13.62735324
_cell_length_b   13.86193149
_cell_length_c   13.98079319
_cell_angle_alpha   90.00000000
_cell_angle_beta   90.00000000
_cell_angle_gamma   90.00000000
_symmetry_Int_Tables_number   1
_chemical_formula_structural   Rb2MnSi5O12
_chemical_formula_sum   'Rb16 Mn8 Si40 O96'
_cell_volume   2640.99192403
_cell_formula_units_Z   8
loop_
 _symmetry_equiv_pos_site_id
 _symmetry_equiv_pos_as_xyz
  1  'x, y, z'
loop_
 _atom_site_type_symbol
 _atom_site_label
 _atom_site_symmetry_multiplicity
 _atom_site_fract_x
 _atom_site_fract_y
 _atom_site_fract_z
 _atom_site_occupancy
  Rb  Rb0  1  0.37205418  0.65162865  0.86153868  1
  Rb  Rb1  1  0.87205418  0.34837135  0.63846132  1
  Rb  Rb2  1  0.62794582  0.84837135  0.36153868  1
  Rb  Rb3  1  0.12794582  0.15162865  0.13846132  1
  Rb  Rb4  1  0.62794582  0.34837135  0.13846132  1
  Rb  Rb5  1  0.12794582  0.65162865  0.36153868  1
  Rb  Rb6  1  0.37205418  0.15162865  0.63846132  1
  Rb  Rb7  1  0.87205418  0.84837135  0.86153868  1
  Rb  Rb8  1  0.11805865  0.89387056  0.60289671  1
  Rb  Rb9  1  0.61805865  0.10612944  0.89710329  1
  Rb  Rb10  1  0.88194135  0.60612944  0.10289671  1
  Rb  Rb11  1  0.38194135  0.39387056  0.39710329  1
  Rb  Rb12  1  0.88194135  0.10612944  0.39710329  1
  Rb  Rb13  1  0.38194135  0.89387056  0.10289671  1
  Rb  Rb14  1  0.11805865  0.39387056  0.89710329  1
  Rb  Rb15  1  0.61805865  0.60612944  0.60289671  1
  Mn  Mn16  1  0.12646730  0.44067535  0.16797906  1
  Mn  Mn17  1  0.62646730  0.55932465  0.33202094  1
  Mn  Mn18  1  0.87353270  0.05932465  0.66797906  1
  Mn  Mn19  1  0.37353270  0.94067535  0.83202094  1
  Mn  Mn20  1  0.87353270  0.55932465  0.83202094  1
  Mn  Mn21  1  0.37353270  0.44067535  0.66797906  1
  Mn  Mn22  1  0.12646730  0.94067535  0.33202094  1
  Mn  Mn23  1  0.62646730  0.05932465  0.16797906  1
  Si  Si24  1  0.37347316  0.10317329  0.33307298  1
  Si  Si25  1  0.87347316  0.89682671  0.16692702  1
  Si  Si26  1  0.62652684  0.39682671  0.83307298  1
  Si  Si27  1  0.12652684  0.60317329  0.66692702  1
  Si  Si28  1  0.62652684  0.89682671  0.66692702  1
  Si  Si29  1  0.12652684  0.10317329  0.83307298  1
  Si  Si30  1  0.37347316  0.60317329  0.16692702  1
  Si  Si31  1  0.87347316  0.39682671  0.33307298  1
  Si  Si32  1  0.90956818  0.13209458  0.88580551  1
  Si  Si33  1  0.40956818  0.86790542  0.61419449  1
  Si  Si34  1  0.09043182  0.36790542  0.38580551  1
  Si  Si35  1  0.59043182  0.63209458  0.11419449  1
  Si  Si36  1  0.09043182  0.86790542  0.11419449  1
  Si  Si37  1  0.59043182  0.13209458  0.38580551  1
  Si  Si38  1  0.90956818  0.63209458  0.61419449  1
  Si  Si39  1  0.40956818  0.36790542  0.88580551  1
  Si  Si40  1  0.85049985  0.60568522  0.40426810  1
  Si  Si41  1  0.35049985  0.39431478  0.09573190  1
  Si  Si42  1  0.14950015  0.89431478  0.90426810  1
  Si  Si43  1  0.64950015  0.10568522  0.59573190  1
  Si  Si44  1  0.14950015  0.39431478  0.59573190  1
  Si  Si45  1  0.64950015  0.60568522  0.90426810  1
  Si  Si46  1  0.85049985  0.10568522  0.09573190  1
  Si  Si47  1  0.35049985  0.89431478  0.40426810  1
  Si  Si48  1  0.59526435  0.31665152  0.63506678  1
  Si  Si49  1  0.09526435  0.68334848  0.86493322  1
  Si  Si50  1  0.40473565  0.18334848  0.13506678  1
  Si  Si51  1  0.90473565  0.81665152  0.36493322  1
  Si  Si52  1  0.40473565  0.68334848  0.36493322  1
  Si  Si53  1  0.90473565  0.31665152  0.13506678  1
  Si  Si54  1  0.59526435  0.81665152  0.86493322  1
  Si  Si55  1  0.09526435  0.18334848  0.63506678  1
  Si  Si56  1  0.67154662  0.84303371  0.07582630  1
  Si  Si57  1  0.17154662  0.15696629  0.42417370  1
  Si  Si58  1  0.32845338  0.65696629  0.57582630  1
  Si  Si59  1  0.82845338  0.34303371  0.92417370  1
  Si  Si60  1  0.32845338  0.15696629  0.92417370  1
  Si  Si61  1  0.82845338  0.84303371  0.57582630  1
  Si  Si62  1  0.67154662  0.34303371  0.42417370  1
  Si  Si63  1  0.17154662  0.65696629  0.07582630  1
  O  O64  1  0.02556866  0.66026498  0.63901340  1
  O  O65  1  0.52556866  0.33973502  0.86098660  1
  O  O66  1  0.97443134  0.83973502  0.13901340  1
  O  O67  1  0.47443134  0.16026498  0.36098660  1
  O  O68  1  0.97443134  0.33973502  0.36098660  1
  O  O69  1  0.47443134  0.66026498  0.13901340  1
  O  O70  1  0.02556866  0.16026498  0.86098660  1
  O  O71  1  0.52556866  0.83973502  0.63901340  1
  O  O72  1  0.41378943  0.90758049  0.50344987  1
  O  O73  1  0.91378943  0.09241951  0.99655013  1
  O  O74  1  0.58621057  0.59241951  0.00344987  1
  O  O75  1  0.08621057  0.40758049  0.49655013  1
  O  O76  1  0.58621057  0.09241951  0.49655013  1
  O  O77  1  0.08621057  0.90758049  0.00344987  1
  O  O78  1  0.41378943  0.40758049  0.99655013  1
  O  O79  1  0.91378943  0.59241951  0.50344987  1
  O  O80  1  0.11510963  0.98622136  0.83549900  1
  O  O81  1  0.61510963  0.01377864  0.66450100  1
  O  O82  1  0.88489037  0.51377864  0.33549900  1
  O  O83  1  0.38489037  0.48622136  0.16450100  1
  O  O84  1  0.88489037  0.01377864  0.16450100  1
  O  O85  1  0.38489037  0.98622136  0.33549900  1
  O  O86  1  0.11510963  0.48622136  0.66450100  1
  O  O87  1  0.61510963  0.51377864  0.83549900  1
  O  O88  1  0.76528666  0.11327643  0.57990669  1
  O  O89  1  0.26528666  0.88672357  0.92009331  1
  O  O90  1  0.23471334  0.38672357  0.07990669  1
  O  O91  1  0.73471334  0.61327643  0.42009331  1
  O  O92  1  0.23471334  0.88672357  0.42009331  1
  O  O93  1  0.73471334  0.11327643  0.07990669  1
  O  O94  1  0.76528666  0.61327643  0.92009331  1
  O  O95  1  0.26528666  0.38672357  0.57990669  1
  O  O96  1  0.84164968  0.86687137  0.27590283  1
  O  O97  1  0.34164968  0.13312863  0.22409717  1
  O  O98  1  0.15835032  0.63312863  0.77590283  1
  O  O99  1  0.65835032  0.36687137  0.72409717  1
  O  O100  1  0.15835032  0.13312863  0.72409717  1
  O  O101  1  0.65835032  0.86687137  0.77590283  1
  O  O102  1  0.84164968  0.36687137  0.22409717  1
  O  O103  1  0.34164968  0.63312863  0.27590283  1
  O  O104  1  0.15282432  0.26666782  0.38420810  1
  O  O105  1  0.65282432  0.73333218  0.11579190  1
  O  O106  1  0.84717568  0.23333218  0.88420810  1
  O  O107  1  0.34717568  0.76666782  0.61579190  1
  O  O108  1  0.84717568  0.73333218  0.61579190  1
  O  O109  1  0.34717568  0.26666782  0.88420810  1
  O  O110  1  0.15282432  0.76666782  0.11579190  1
  O  O111  1  0.65282432  0.23333218  0.38420810  1
  O  O112  1  0.51548749  0.14848828  0.12597250  1
  O  O113  1  0.01548749  0.85151172  0.37402750  1
  O  O114  1  0.48451251  0.35151172  0.62597250  1
  O  O115  1  0.98451251  0.64848828  0.87402750  1
  O  O116  1  0.48451251  0.85151172  0.87402750  1
  O  O117  1  0.98451251  0.14848828  0.62597250  1
  O  O118  1  0.51548749  0.64848828  0.37402750  1
  O  O119  1  0.01548749  0.35151172  0.12597250  1
  O  O120  1  0.83719016  0.34572067  0.04174273  1
  O  O121  1  0.33719016  0.65427933  0.45825727  1
  O  O122  1  0.16280984  0.15427933  0.54174273  1
  O  O123  1  0.66280984  0.84572067  0.95825727  1
  O  O124  1  0.16280984  0.65427933  0.95825727  1
  O  O125  1  0.66280984  0.34572067  0.54174273  1
  O  O126  1  0.83719016  0.84572067  0.45825727  1
  O  O127  1  0.33719016  0.15427933  0.04174273  1
  O  O128  1  0.60224520  0.41809562  0.37022948  1
  O  O129  1  0.10224520  0.58190438  0.12977052  1
  O  O130  1  0.39775480  0.08190438  0.87022948  1
  O  O131  1  0.89775480  0.91809562  0.62977052  1
  O  O132  1  0.39775480  0.58190438  0.62977052  1
  O  O133  1  0.89775480  0.41809562  0.87022948  1
  O  O134  1  0.60224520  0.91809562  0.12977052  1
  O  O135  1  0.10224520  0.08190438  0.37022948  1
  O  O136  1  0.29121519  0.63922555  0.09029073  1
  O  O137  1  0.79121519  0.36077445  0.40970927  1
  O  O138  1  0.70878481  0.86077445  0.59029073  1
  O  O139  1  0.20878481  0.13922555  0.90970927  1
  O  O140  1  0.70878481  0.36077445  0.90970927  1
  O  O141  1  0.20878481  0.63922555  0.59029073  1
  O  O142  1  0.29121519  0.13922555  0.40970927  1
  O  O143  1  0.79121519  0.86077445  0.09029073  1
  O  O144  1  0.36220288  0.44456064  0.81427226  1
  O  O145  1  0.86220288  0.55543936  0.68572774  1
  O  O146  1  0.63779712  0.05543936  0.31427226  1
  O  O147  1  0.13779712  0.94456064  0.18572774  1
  O  O148  1  0.63779712  0.55543936  0.18572774  1
  O  O149  1  0.13779712  0.44456064  0.31427226  1
  O  O150  1  0.36220288  0.94456064  0.68572774  1
  O  O151  1  0.86220288  0.05543936  0.81427226  1
  O  O152  1  0.60165459  0.69896043  0.84680945  1
  O  O153  1  0.10165459  0.30103957  0.65319055  1
  O  O154  1  0.39834541  0.80103957  0.34680945  1
  O  O155  1  0.89834541  0.19896043  0.15319055  1
  O  O156  1  0.39834541  0.30103957  0.15319055  1
  O  O157  1  0.89834541  0.69896043  0.34680945  1
  O  O158  1  0.60165459  0.19896043  0.65319055  1
  O  O159  1  0.10165459  0.80103957  0.84680945  1
