# generated using pymatgen
data_Yb2Ga
_symmetry_space_group_name_H-M   'P 1'
_cell_length_a   5.07411200
_cell_length_b   6.95053900
_cell_length_c   9.45971100
_cell_angle_alpha   90.00000000
_cell_angle_beta   90.00000000
_cell_angle_gamma   90.00000000
_symmetry_Int_Tables_number   1
_chemical_formula_structural   Yb2Ga
_chemical_formula_sum   'Yb8 Ga4'
_cell_volume   333.62332186
_cell_formula_units_Z   4
loop_
 _symmetry_equiv_pos_site_id
 _symmetry_equiv_pos_as_xyz
  1  'x, y, z'
loop_
 _atom_site_type_symbol
 _atom_site_label
 _atom_site_symmetry_multiplicity
 _atom_site_fract_x
 _atom_site_fract_y
 _atom_site_fract_z
 _atom_site_occupancy
  Yb  Yb0  1  0.25000000  0.83008300  0.92996100  1
  Yb  Yb1  1  0.25000000  0.33008300  0.57003900  1
  Yb  Yb2  1  0.75000000  0.16991700  0.07003900  1
  Yb  Yb3  1  0.75000000  0.66991700  0.42996100  1
  Yb  Yb4  1  0.25000000  0.97584000  0.30498000  1
  Yb  Yb5  1  0.25000000  0.47584000  0.19502000  1
  Yb  Yb6  1  0.75000000  0.02416000  0.69502000  1
  Yb  Yb7  1  0.75000000  0.52416000  0.80498000  1
  Ga  Ga8  1  0.25000000  0.26893400  0.89349500  1
  Ga  Ga9  1  0.25000000  0.76893400  0.60650500  1
  Ga  Ga10  1  0.75000000  0.73106600  0.10650500  1
  Ga  Ga11  1  0.75000000  0.23106600  0.39349500  1
