# generated using pymatgen
data_NdGe2Pd
_symmetry_space_group_name_H-M   'P 1'
_cell_length_a   8.96524159
_cell_length_b   8.96524159
_cell_length_c   4.42003600
_cell_angle_alpha   90.00000000
_cell_angle_beta   90.00000000
_cell_angle_gamma   151.92372483
_symmetry_Int_Tables_number   1
_chemical_formula_structural   NdGe2Pd
_chemical_formula_sum   'Nd2 Ge4 Pd2'
_cell_volume   167.20324482
_cell_formula_units_Z   2
loop_
 _symmetry_equiv_pos_site_id
 _symmetry_equiv_pos_as_xyz
  1  'x, y, z'
loop_
 _atom_site_type_symbol
 _atom_site_label
 _atom_site_symmetry_multiplicity
 _atom_site_fract_x
 _atom_site_fract_y
 _atom_site_fract_z
 _atom_site_occupancy
  Nd  Nd0  1  0.89250700  0.10749300  0.25000000  1
  Nd  Nd1  1  0.10749300  0.89250700  0.75000000  1
  Ge  Ge2  1  0.53627400  0.46372600  0.25000000  1
  Ge  Ge3  1  0.46372600  0.53627400  0.75000000  1
  Ge  Ge4  1  0.25227100  0.74772900  0.25000000  1
  Ge  Ge5  1  0.74772900  0.25227100  0.75000000  1
  Pd  Pd6  1  0.67720000  0.32280000  0.25000000  1
  Pd  Pd7  1  0.32280000  0.67720000  0.75000000  1
