# generated using pymatgen
data_Ce(PO3)4
_symmetry_space_group_name_H-M   'P 1'
_cell_length_a   16.64961663
_cell_length_b   16.64961663
_cell_length_c   9.13782295
_cell_angle_alpha   89.96271169
_cell_angle_beta   89.96271169
_cell_angle_gamma   130.27324914
_symmetry_Int_Tables_number   1
_chemical_formula_structural   Ce(PO3)4
_chemical_formula_sum   'Ce8 P32 O96'
_cell_volume   1932.67258186
_cell_formula_units_Z   8
loop_
 _symmetry_equiv_pos_site_id
 _symmetry_equiv_pos_as_xyz
  1  'x, y, z'
loop_
 _atom_site_type_symbol
 _atom_site_label
 _atom_site_symmetry_multiplicity
 _atom_site_fract_x
 _atom_site_fract_y
 _atom_site_fract_z
 _atom_site_occupancy
  Ce  Ce0  1  0.06945900  0.93054100  0.25000000  1
  Ce  Ce1  1  0.93054100  0.06945900  0.75000000  1
  Ce  Ce2  1  0.05952100  0.42090800  0.25036500  1
  Ce  Ce3  1  0.57909200  0.94047900  0.24963500  1
  Ce  Ce4  1  0.94047900  0.57909200  0.74963500  1
  Ce  Ce5  1  0.42090800  0.05952100  0.75036500  1
  Ce  Ce6  1  0.56815100  0.43184900  0.25000000  1
  Ce  Ce7  1  0.43184900  0.56815100  0.75000000  1
  P  P8  1  0.84690200  0.36493300  0.01194200  1
  P  P9  1  0.63506700  0.15309800  0.48805800  1
  P  P10  1  0.15309800  0.63506700  0.98805800  1
  P  P11  1  0.36493300  0.84690200  0.51194200  1
  P  P12  1  0.34809400  0.86566500  0.02744900  1
  P  P13  1  0.13433500  0.65190600  0.47255100  1
  P  P14  1  0.65190700  0.13433500  0.97255100  1
  P  P15  1  0.86566500  0.34809400  0.52744900  1
  P  P16  1  0.13715700  0.15043300  0.01705000  1
  P  P17  1  0.84956700  0.86284300  0.48295000  1
  P  P18  1  0.86284300  0.84956700  0.98295000  1
  P  P19  1  0.15043300  0.13715700  0.51705000  1
  P  P20  1  0.63302700  0.65555700  0.02212600  1
  P  P21  1  0.34444300  0.36697300  0.47787400  1
  P  P22  1  0.36697300  0.34444300  0.97787400  1
  P  P23  1  0.65555700  0.63302700  0.52212600  1
  P  P24  1  0.01647600  0.33032900  0.63986500  1
  P  P25  1  0.66967100  0.98352400  0.86013500  1
  P  P26  1  0.98352400  0.66967100  0.36013500  1
  P  P27  1  0.33032900  0.01647600  0.13986500  1
  P  P28  1  0.51554100  0.82925700  0.63344900  1
  P  P29  1  0.17074300  0.48445900  0.86655100  1
  P  P30  1  0.48445900  0.17074300  0.36655100  1
  P  P31  1  0.82925700  0.51554100  0.13344900  1
  P  P32  1  0.32652100  0.51648900  0.36188000  1
  P  P33  1  0.48351100  0.67347900  0.13812000  1
  P  P34  1  0.67347900  0.48351100  0.63812000  1
  P  P35  1  0.51648900  0.32652100  0.86188000  1
  P  P36  1  0.83345300  0.01502800  0.36515100  1
  P  P37  1  0.98497200  0.16654700  0.13484900  1
  P  P38  1  0.16654700  0.98497200  0.63484900  1
  P  P39  1  0.01502800  0.83345300  0.86515100  1
  O  O40  1  0.26035800  0.74159500  0.04835200  1
  O  O41  1  0.25840500  0.73964200  0.45164800  1
  O  O42  1  0.73964200  0.25840500  0.95164800  1
  O  O43  1  0.74159500  0.26035800  0.54835200  1
  O  O44  1  0.43215700  0.08019900  0.24410900  1
  O  O45  1  0.91980100  0.56784300  0.25589100  1
  O  O46  1  0.56784300  0.91980100  0.75589100  1
  O  O47  1  0.08019900  0.43215700  0.74410900  1
  O  O48  1  0.92850900  0.07149100  0.25000000  1
  O  O49  1  0.07149100  0.92850900  0.75000000  1
  O  O50  1  0.42459800  0.57540200  0.25000000  1
  O  O51  1  0.57540200  0.42459800  0.75000000  1
  O  O52  1  0.70292900  0.59710400  0.63268100  1
  O  O53  1  0.40289600  0.29707100  0.86731900  1
  O  O54  1  0.29707100  0.40289600  0.36731900  1
  O  O55  1  0.59710400  0.70292900  0.13268100  1
  O  O56  1  0.19556500  0.09747000  0.62473800  1
  O  O57  1  0.90253000  0.80443500  0.87526200  1
  O  O58  1  0.80443500  0.90253000  0.37526200  1
  O  O59  1  0.09747000  0.19556500  0.12473800  1
  O  O60  1  0.19920800  0.59732700  0.87816300  1
  O  O61  1  0.40267300  0.80079200  0.62183700  1
  O  O62  1  0.80079200  0.40267300  0.12183700  1
  O  O63  1  0.59732700  0.19920800  0.37816300  1
  O  O64  1  0.69698300  0.09590700  0.86237200  1
  O  O65  1  0.90409300  0.30301700  0.63762800  1
  O  O66  1  0.30301700  0.90409300  0.13762800  1
  O  O67  1  0.09590700  0.69698300  0.36237200  1
  O  O68  1  0.24248100  0.25927200  0.95657900  1
  O  O69  1  0.74072800  0.75751900  0.54342100  1
  O  O70  1  0.75751900  0.74072800  0.04342100  1
  O  O71  1  0.25927200  0.24248100  0.45657900  1
  O  O72  1  0.89840500  0.43858700  0.88262200  1
  O  O73  1  0.56141300  0.10159500  0.61737800  1
  O  O74  1  0.10159500  0.56141300  0.11737800  1
  O  O75  1  0.43858700  0.89840500  0.38262200  1
  O  O76  1  0.08957900  0.65570400  0.90918700  1
  O  O77  1  0.34429600  0.91042100  0.59081300  1
  O  O78  1  0.91042100  0.34429600  0.09081300  1
  O  O79  1  0.65570400  0.08957900  0.40918700  1
  O  O80  1  0.35015100  0.90075900  0.87500200  1
  O  O81  1  0.09924100  0.64984900  0.62499800  1
  O  O82  1  0.64984900  0.09924100  0.12499800  1
  O  O83  1  0.90075900  0.35015100  0.37500200  1
  O  O84  1  0.44814800  0.89401600  0.08393300  1
  O  O85  1  0.10598400  0.55185200  0.41606700  1
  O  O86  1  0.55185200  0.10598400  0.91606700  1
  O  O87  1  0.89401600  0.44814800  0.58393300  1
  O  O88  1  0.90373500  0.93760500  0.61078100  1
  O  O89  1  0.06239500  0.09626500  0.88921900  1
  O  O90  1  0.09626500  0.06239500  0.38921900  1
  O  O91  1  0.93760500  0.90373500  0.11078100  1
  O  O92  1  0.91007300  0.84042900  0.39887900  1
  O  O93  1  0.15957100  0.08992600  0.10112100  1
  O  O94  1  0.08992600  0.15957100  0.60112100  1
  O  O95  1  0.84042900  0.91007400  0.89887900  1
  O  O96  1  0.34553700  0.39988500  0.63152000  1
  O  O97  1  0.60011500  0.65446300  0.86848000  1
  O  O98  1  0.65446300  0.60011500  0.36848000  1
  O  O99  1  0.39988500  0.34553700  0.13152000  1
  O  O100  1  0.44637600  0.39952400  0.41939500  1
  O  O101  1  0.60047600  0.55362400  0.08060500  1
  O  O102  1  0.55362400  0.60047600  0.58060500  1
  O  O103  1  0.39952400  0.44637600  0.91939500  1
  O  O104  1  0.06515800  0.36013500  0.49055700  1
  O  O105  1  0.63986500  0.93484200  0.00944300  1
  O  O106  1  0.93484200  0.63986500  0.50944300  1
  O  O107  1  0.36013500  0.06515800  0.99055700  1
  O  O108  1  0.75872100  0.00073800  0.77974600  1
  O  O109  1  0.99926200  0.24127900  0.72025400  1
  O  O110  1  0.24127900  0.99926200  0.22025400  1
  O  O111  1  0.00073800  0.75872100  0.27974600  1
  O  O112  1  0.57408200  0.87143200  0.49161300  1
  O  O113  1  0.12856800  0.42591800  0.00838700  1
  O  O114  1  0.42591800  0.12856800  0.50838700  1
  O  O115  1  0.87143200  0.57408200  0.99161300  1
  O  O116  1  0.26357700  0.50205600  0.79869400  1
  O  O117  1  0.49794400  0.73642300  0.70130600  1
  O  O118  1  0.73642300  0.49794400  0.20130600  1
  O  O119  1  0.50205600  0.26357700  0.29869400  1
  O  O120  1  0.56797300  0.36268900  0.00932400  1
  O  O121  1  0.63731100  0.43202700  0.49067600  1
  O  O122  1  0.43202700  0.63731100  0.99067600  1
  O  O123  1  0.36268900  0.56797300  0.50932400  1
  O  O124  1  0.76337400  0.49884600  0.71190700  1
  O  O125  1  0.50115400  0.23662600  0.78809300  1
  O  O126  1  0.23662600  0.50115400  0.28809300  1
  O  O127  1  0.49884600  0.76337400  0.21190700  1
  O  O128  1  0.07058000  0.87026500  0.00974300  1
  O  O129  1  0.12973500  0.92942000  0.49025700  1
  O  O130  1  0.92942000  0.12973500  0.99025700  1
  O  O131  1  0.87026500  0.07058000  0.50974300  1
  O  O132  1  0.25733200  0.00277800  0.70933400  1
  O  O133  1  0.99722200  0.74266800  0.79066600  1
  O  O134  1  0.74266800  0.99722200  0.29066600  1
  O  O135  1  0.00277800  0.25733200  0.20933400  1
