# generated using pymatgen
data_La3MgAlS7
_symmetry_space_group_name_H-M   'P 1'
_cell_length_a   10.32703778
_cell_length_b   10.32703778
_cell_length_c   6.00804200
_cell_angle_alpha   90.00000000
_cell_angle_beta   90.00000000
_cell_angle_gamma   119.99999859
_symmetry_Int_Tables_number   1
_chemical_formula_structural   La3MgAlS7
_chemical_formula_sum   'La6 Mg2 Al2 S14'
_cell_volume   554.90051711
_cell_formula_units_Z   2
loop_
 _symmetry_equiv_pos_site_id
 _symmetry_equiv_pos_as_xyz
  1  'x, y, z'
loop_
 _atom_site_type_symbol
 _atom_site_label
 _atom_site_symmetry_multiplicity
 _atom_site_fract_x
 _atom_site_fract_y
 _atom_site_fract_z
 _atom_site_occupancy
  La  La0  1  0.75567200  0.12890000  0.24000200  1
  La  La1  1  0.37322800  0.24432800  0.24000200  1
  La  La2  1  0.87110000  0.62677200  0.24000200  1
  La  La3  1  0.24432800  0.87110000  0.74000200  1
  La  La4  1  0.62677200  0.75567200  0.74000200  1
  La  La5  1  0.12890000  0.37322800  0.74000200  1
  Mg  Mg6  1  0.00000000  0.00000000  0.99913100  1
  Mg  Mg7  1  0.00000000  0.00000000  0.49913100  1
  Al  Al8  1  0.66666700  0.33333300  0.65787700  1
  Al  Al9  1  0.33333300  0.66666700  0.15787700  1
  S  S10  1  0.84605300  0.07988700  0.75035500  1
  S  S11  1  0.23383400  0.15394700  0.75035500  1
  S  S12  1  0.92011300  0.76616600  0.75035500  1
  S  S13  1  0.15394700  0.92011300  0.25035500  1
  S  S14  1  0.76616600  0.84605300  0.25035500  1
  S  S15  1  0.07988700  0.23383400  0.25035500  1
  S  S16  1  0.89459100  0.40977400  0.50866800  1
  S  S17  1  0.51518300  0.10540900  0.50866800  1
  S  S18  1  0.59022600  0.48481700  0.50866800  1
  S  S19  1  0.10540900  0.59022600  0.00866800  1
  S  S20  1  0.48481700  0.89459100  0.00866800  1
  S  S21  1  0.40977400  0.51518300  0.00866800  1
  S  S22  1  0.66666700  0.33333300  0.02795800  1
  S  S23  1  0.33333300  0.66666700  0.52795800  1
