# generated using pymatgen
data_La3Zn22
_symmetry_space_group_name_H-M   'P 1'
_cell_length_a   12.45418206
_cell_length_b   12.45418206
_cell_length_c   12.45418206
_cell_angle_alpha   137.66103540
_cell_angle_beta   137.66103540
_cell_angle_gamma   61.42253709
_symmetry_Int_Tables_number   1
_chemical_formula_structural   La3Zn22
_chemical_formula_sum   'La6 Zn44'
_cell_volume   866.36499684
_cell_formula_units_Z   2
loop_
 _symmetry_equiv_pos_site_id
 _symmetry_equiv_pos_as_xyz
  1  'x, y, z'
loop_
 _atom_site_type_symbol
 _atom_site_label
 _atom_site_symmetry_multiplicity
 _atom_site_fract_x
 _atom_site_fract_y
 _atom_site_fract_z
 _atom_site_occupancy
  La  La0  1  0.62017500  0.62017500  0.00000000  1
  La  La1  1  0.37017500  0.87017500  0.50000000  1
  La  La2  1  0.12982500  0.62982500  0.50000000  1
  La  La3  1  0.37982500  0.37982500  0.00000000  1
  La  La4  1  0.75000000  0.25000000  0.50000000  1
  La  La5  1  0.00000000  0.00000000  0.00000000  1
  Zn  Zn6  1  0.07048700  0.54605300  0.98917800  1
  Zn  Zn7  1  0.55687500  0.54605300  0.47556700  1
  Zn  Zn8  1  0.29605300  0.32048700  0.48917800  1
  Zn  Zn9  1  0.83130800  0.32048700  0.02443300  1
  Zn  Zn10  1  0.07048700  0.08130800  0.52443300  1
  Zn  Zn11  1  0.55687500  0.08130800  0.01082200  1
  Zn  Zn12  1  0.29605300  0.80687500  0.97556700  1
  Zn  Zn13  1  0.83130800  0.80687500  0.51082200  1
  Zn  Zn14  1  0.67951300  0.70394700  0.51082200  1
  Zn  Zn15  1  0.19312500  0.70394700  0.02443300  1
  Zn  Zn16  1  0.45394700  0.92951300  0.01082200  1
  Zn  Zn17  1  0.91869200  0.92951300  0.47556700  1
  Zn  Zn18  1  0.67951300  0.16869200  0.97556700  1
  Zn  Zn19  1  0.19312500  0.16869200  0.48917800  1
  Zn  Zn20  1  0.45394700  0.44312500  0.52443300  1
  Zn  Zn21  1  0.91869200  0.44312500  0.98917800  1
  Zn  Zn22  1  0.49818300  0.27188000  0.77369700  1
  Zn  Zn23  1  0.02188000  0.74818300  0.27369700  1
  Zn  Zn24  1  0.47448600  0.74818300  0.72630300  1
  Zn  Zn25  1  0.49818300  0.72448600  0.22630300  1
  Zn  Zn26  1  0.25181700  0.97812000  0.72630300  1
  Zn  Zn27  1  0.72812000  0.50181700  0.22630300  1
  Zn  Zn28  1  0.27551400  0.50181700  0.77369700  1
  Zn  Zn29  1  0.25181700  0.52551400  0.27369700  1
  Zn  Zn30  1  0.75831600  0.61140300  0.85308700  1
  Zn  Zn31  1  0.36140300  0.00831600  0.35308700  1
  Zn  Zn32  1  0.65522900  0.00831600  0.64691300  1
  Zn  Zn33  1  0.75831600  0.90522900  0.14691300  1
  Zn  Zn34  1  0.99168400  0.63859700  0.64691300  1
  Zn  Zn35  1  0.38859700  0.24168400  0.14691300  1
  Zn  Zn36  1  0.09477100  0.24168400  0.85308700  1
  Zn  Zn37  1  0.99168400  0.34477100  0.35308700  1
  Zn  Zn38  1  0.61169900  0.96138800  0.34968900  1
  Zn  Zn39  1  0.71138800  0.86169900  0.84968900  1
  Zn  Zn40  1  0.01200900  0.86169900  0.15031100  1
  Zn  Zn41  1  0.61169900  0.26200900  0.65031100  1
  Zn  Zn42  1  0.13830100  0.28861200  0.15031100  1
  Zn  Zn43  1  0.03861200  0.38830100  0.65031100  1
  Zn  Zn44  1  0.73799100  0.38830100  0.34968900  1
  Zn  Zn45  1  0.13830100  0.98799100  0.84968900  1
  Zn  Zn46  1  0.87500000  0.62500000  0.75000000  1
  Zn  Zn47  1  0.37500000  0.12500000  0.25000000  1
  Zn  Zn48  1  0.87500000  0.12500000  0.75000000  1
  Zn  Zn49  1  0.87500000  0.12500000  0.25000000  1
