# generated using pymatgen
data_Ca2Nb2O7
_symmetry_space_group_name_H-M   'P 1'
_cell_length_a   5.54829300
_cell_length_b   7.77114000
_cell_length_c   13.66032975
_cell_angle_alpha   81.72311434
_cell_angle_beta   90.00000000
_cell_angle_gamma   90.00000000
_symmetry_Int_Tables_number   1
_chemical_formula_structural   Ca2Nb2O7
_chemical_formula_sum   'Ca8 Nb8 O28'
_cell_volume   582.85153459
_cell_formula_units_Z   4
loop_
 _symmetry_equiv_pos_site_id
 _symmetry_equiv_pos_as_xyz
  1  'x, y, z'
loop_
 _atom_site_type_symbol
 _atom_site_label
 _atom_site_symmetry_multiplicity
 _atom_site_fract_x
 _atom_site_fract_y
 _atom_site_fract_z
 _atom_site_occupancy
  Ca  Ca0  1  0.76724300  0.76962100  0.91641600  1
  Ca  Ca1  1  0.26724300  0.23037900  0.08358400  1
  Ca  Ca2  1  0.34798700  0.86061400  0.56537700  1
  Ca  Ca3  1  0.84798700  0.13938600  0.43462300  1
  Ca  Ca4  1  0.74866500  0.28311400  0.87553300  1
  Ca  Ca5  1  0.24866500  0.71688600  0.12446700  1
  Ca  Ca6  1  0.27431800  0.35999800  0.59961600  1
  Ca  Ca7  1  0.77431800  0.64000200  0.40038400  1
  Nb  Nb8  1  0.26371500  0.52599200  0.88155900  1
  Nb  Nb9  1  0.76371500  0.47400800  0.11844100  1
  Nb  Nb10  1  0.78875200  0.58847400  0.67444000  1
  Nb  Nb11  1  0.28875200  0.41152600  0.32556000  1
  Nb  Nb12  1  0.26419100  0.03248700  0.88363600  1
  Nb  Nb13  1  0.76419100  0.96751300  0.11636400  1
  Nb  Nb14  1  0.78476400  0.07873500  0.67674300  1
  Nb  Nb15  1  0.28476400  0.92126500  0.32325700  1
  O  O16  1  0.55341700  0.92699700  0.40591800  1
  O  O17  1  0.05341700  0.07300300  0.59408200  1
  O  O18  1  0.44184900  0.98565000  0.18090400  1
  O  O19  1  0.94184900  0.01435000  0.81909600  1
  O  O20  1  0.35484400  0.67300500  0.30213800  1
  O  O21  1  0.85484400  0.32699500  0.69786200  1
  O  O22  1  0.65591700  0.72834600  0.08733600  1
  O  O23  1  0.15591700  0.27165400  0.91266400  1
  O  O24  1  0.06164200  0.86184300  0.42670800  1
  O  O25  1  0.56164200  0.13815700  0.57329200  1
  O  O26  1  0.95641000  0.88249200  0.22461500  1
  O  O27  1  0.45641000  0.11750800  0.77538500  1
  O  O28  1  0.03063100  0.94736400  0.02022500  1
  O  O29  1  0.53063100  0.05263600  0.97977500  1
  O  O30  1  0.58130200  0.36525400  0.38539600  1
  O  O31  1  0.08130200  0.63474600  0.61460400  1
  O  O32  1  0.52911500  0.45822900  0.97818900  1
  O  O33  1  0.02911500  0.54177100  0.02181100  1
  O  O34  1  0.45288400  0.49577700  0.77211700  1
  O  O35  1  0.95288400  0.50422300  0.22788300  1
  O  O36  1  0.58445500  0.58545700  0.56166700  1
  O  O37  1  0.08445500  0.41454300  0.43833300  1
  O  O38  1  0.33235300  0.77765100  0.88889000  1
  O  O39  1  0.83235300  0.22234900  0.11111000  1
  O  O40  1  0.67782100  0.82798300  0.69127700  1
  O  O41  1  0.17782100  0.17201700  0.30872300  1
  O  O42  1  0.93812500  0.57418100  0.82158000  1
  O  O43  1  0.43812500  0.42581900  0.17842000  1
