# generated using pymatgen
data_Re2Sb4O13
_symmetry_space_group_name_H-M   'P 1'
_cell_length_a   7.89214500
_cell_length_b   9.57433371
_cell_length_c   10.21282504
_cell_angle_alpha   72.58799642
_cell_angle_beta   68.81976869
_cell_angle_gamma   66.57984615
_symmetry_Int_Tables_number   1
_chemical_formula_structural   Re2Sb4O13
_chemical_formula_sum   'Re4 Sb8 O26'
_cell_volume   649.27532313
_cell_formula_units_Z   2
loop_
 _symmetry_equiv_pos_site_id
 _symmetry_equiv_pos_as_xyz
  1  'x, y, z'
loop_
 _atom_site_type_symbol
 _atom_site_label
 _atom_site_symmetry_multiplicity
 _atom_site_fract_x
 _atom_site_fract_y
 _atom_site_fract_z
 _atom_site_occupancy
  Re  Re0  1  0.31860700  0.54560700  0.21763800  1
  Re  Re1  1  0.68139300  0.45439300  0.78236200  1
  Re  Re2  1  0.15405700  0.67068800  0.63275200  1
  Re  Re3  1  0.84594300  0.32931200  0.36724800  1
  Sb  Sb4  1  0.78985000  0.09538400  0.10982100  1
  Sb  Sb5  1  0.21015000  0.90461600  0.89017900  1
  Sb  Sb6  1  0.69860800  0.84675300  0.44160100  1
  Sb  Sb7  1  0.30139200  0.15324700  0.55839900  1
  Sb  Sb8  1  0.79117100  0.73789800  0.03923500  1
  Sb  Sb9  1  0.20882900  0.26210200  0.96076500  1
  Sb  Sb10  1  0.66995500  0.03966000  0.73349200  1
  Sb  Sb11  1  0.33004500  0.96034000  0.26650800  1
  O  O12  1  0.92725800  0.90626600  0.99539000  1
  O  O13  1  0.07274200  0.09373400  0.00461000  1
  O  O14  1  0.57293900  0.99426400  0.59237300  1
  O  O15  1  0.42706100  0.00573600  0.40762700  1
  O  O16  1  0.84564600  0.97693000  0.29286700  1
  O  O17  1  0.15435400  0.02307000  0.70713300  1
  O  O18  1  0.65830300  0.85620200  0.88860100  1
  O  O19  1  0.34169700  0.14379800  0.11139900  1
  O  O20  1  0.61931700  0.86637900  0.19371000  1
  O  O21  1  0.38068300  0.13362100  0.80629000  1
  O  O22  1  0.48083400  0.65270100  0.14903200  1
  O  O23  1  0.51916600  0.34729900  0.85096800  1
  O  O24  1  0.14036800  0.62244900  0.36329500  1
  O  O25  1  0.85963200  0.37755100  0.63670500  1
  O  O26  1  0.43464100  0.34878500  0.27121900  1
  O  O27  1  0.56535900  0.65121500  0.72878100  1
  O  O28  1  0.21136100  0.56771000  0.08624000  1
  O  O29  1  0.78863900  0.43229000  0.91376000  1
  O  O30  1  0.13955700  0.70325500  0.79804400  1
  O  O31  1  0.86044300  0.29674500  0.20195600  1
  O  O32  1  0.94635400  0.80782300  0.58224500  1
  O  O33  1  0.05364600  0.19217700  0.41775500  1
  O  O34  1  0.15912400  0.48047500  0.66198700  1
  O  O35  1  0.84087600  0.51952500  0.33801300  1
  O  O36  1  0.36432500  0.69624800  0.50647900  1
  O  O37  1  0.63567500  0.30375200  0.49352100  1
