# generated using pymatgen
data_Er6MnSb2
_symmetry_space_group_name_H-M   'P 1'
_cell_length_a   8.08909992
_cell_length_b   8.08909992
_cell_length_c   4.20736500
_cell_angle_alpha   90.00000000
_cell_angle_beta   90.00000000
_cell_angle_gamma   119.99999934
_symmetry_Int_Tables_number   1
_chemical_formula_structural   Er6MnSb2
_chemical_formula_sum   'Er6 Mn1 Sb2'
_cell_volume   238.41919890
_cell_formula_units_Z   1
loop_
 _symmetry_equiv_pos_site_id
 _symmetry_equiv_pos_as_xyz
  1  'x, y, z'
loop_
 _atom_site_type_symbol
 _atom_site_label
 _atom_site_symmetry_multiplicity
 _atom_site_fract_x
 _atom_site_fract_y
 _atom_site_fract_z
 _atom_site_occupancy
  Er  Er0  1  0.23554100  0.00000000  0.50000000  1
  Er  Er1  1  0.00000000  0.23554100  0.50000000  1
  Er  Er2  1  0.76445900  0.76445900  0.50000000  1
  Er  Er3  1  0.60166500  0.00000000  0.00000000  1
  Er  Er4  1  0.00000000  0.60166500  0.00000000  1
  Er  Er5  1  0.39833500  0.39833500  0.00000000  1
  Mn  Mn6  1  0.00000000  0.00000000  0.00000000  1
  Sb  Sb7  1  0.33333300  0.66666700  0.50000000  1
  Sb  Sb8  1  0.66666700  0.33333300  0.50000000  1
