# generated using pymatgen
data_TmGaAu
_symmetry_space_group_name_H-M   'P 1'
_cell_length_a   5.66669095
_cell_length_b   5.66669095
_cell_length_c   7.01717147
_cell_angle_alpha   52.43578754
_cell_angle_beta   52.43578754
_cell_angle_gamma   46.76764795
_symmetry_Int_Tables_number   1
_chemical_formula_structural   TmGaAu
_chemical_formula_sum   'Tm2 Ga2 Au2'
_cell_volume   122.72722994
_cell_formula_units_Z   2
loop_
 _symmetry_equiv_pos_site_id
 _symmetry_equiv_pos_as_xyz
  1  'x, y, z'
loop_
 _atom_site_type_symbol
 _atom_site_label
 _atom_site_symmetry_multiplicity
 _atom_site_fract_x
 _atom_site_fract_y
 _atom_site_fract_z
 _atom_site_occupancy
  Tm  Tm0  1  0.46374300  0.46374300  0.29582000  1
  Tm  Tm1  1  0.53625700  0.53625700  0.70418000  1
  Ga  Ga2  1  0.15798300  0.15798300  0.89146000  1
  Ga  Ga3  1  0.84201700  0.84201700  0.10854000  1
  Au  Au4  1  0.82194700  0.82194700  0.71552900  1
  Au  Au5  1  0.17805300  0.17805300  0.28447100  1
