# generated using pymatgen
data_Na2YbCdSb2
_symmetry_space_group_name_H-M   'P 1'
_cell_length_a   4.71419600
_cell_length_b   7.86102600
_cell_length_c   9.18646400
_cell_angle_alpha   90.00000000
_cell_angle_beta   90.00000000
_cell_angle_gamma   90.00000000
_symmetry_Int_Tables_number   1
_chemical_formula_structural   Na2YbCdSb2
_chemical_formula_sum   'Na4 Yb2 Cd2 Sb4'
_cell_volume   340.43581665
_cell_formula_units_Z   2
loop_
 _symmetry_equiv_pos_site_id
 _symmetry_equiv_pos_as_xyz
  1  'x, y, z'
loop_
 _atom_site_type_symbol
 _atom_site_label
 _atom_site_symmetry_multiplicity
 _atom_site_fract_x
 _atom_site_fract_y
 _atom_site_fract_z
 _atom_site_occupancy
  Na  Na0  1  0.50000000  0.44941300  0.57982200  1
  Na  Na1  1  0.50000000  0.94941300  0.42017800  1
  Na  Na2  1  0.00000000  0.13160100  0.66869900  1
  Na  Na3  1  0.00000000  0.63160100  0.33130100  1
  Yb  Yb4  1  0.00000000  0.50031400  0.94453500  1
  Yb  Yb5  1  0.00000000  0.00031400  0.05546500  1
  Cd  Cd6  1  0.50000000  0.83979900  0.81479200  1
  Cd  Cd7  1  0.50000000  0.33979900  0.18520800  1
  Sb  Sb8  1  0.50000000  0.21609700  0.88003700  1
  Sb  Sb9  1  0.50000000  0.71609700  0.11996300  1
  Sb  Sb10  1  0.00000000  0.23030600  0.34182400  1
  Sb  Sb11  1  0.00000000  0.73030600  0.65817600  1
