# generated using pymatgen
data_Ta6Fe7
_symmetry_space_group_name_H-M   'P 1'
_cell_length_a   4.86234090
_cell_length_b   4.86234100
_cell_length_c   9.18064007
_cell_angle_alpha   74.64404741
_cell_angle_beta   74.64404644
_cell_angle_gamma   60.00000612
_symmetry_Int_Tables_number   1
_chemical_formula_structural   Ta6Fe7
_chemical_formula_sum   'Ta6 Fe7'
_cell_volume   178.96896502
_cell_formula_units_Z   1
loop_
 _symmetry_equiv_pos_site_id
 _symmetry_equiv_pos_as_xyz
  1  'x, y, z'
loop_
 _atom_site_type_symbol
 _atom_site_label
 _atom_site_symmetry_multiplicity
 _atom_site_fract_x
 _atom_site_fract_y
 _atom_site_fract_z
 _atom_site_occupancy
  Ta  Ta0  1  0.83357500  0.83357500  0.49927600  1
  Ta  Ta1  1  0.16642500  0.16642500  0.50072400  1
  Ta  Ta2  1  0.65466300  0.65466300  0.03601000  1
  Ta  Ta3  1  0.34533700  0.34533700  0.96399000  1
  Ta  Ta4  1  0.55062500  0.55062500  0.34812600  1
  Ta  Ta5  1  0.44937500  0.44937500  0.65187400  1
  Fe  Fe6  1  0.00000000  0.00000000  0.00000000  1
  Fe  Fe7  1  0.91010300  0.91010300  0.77506100  1
  Fe  Fe8  1  0.40473300  0.91010300  0.77506100  1
  Fe  Fe9  1  0.91010300  0.40473300  0.77506100  1
  Fe  Fe10  1  0.08989700  0.08989700  0.22493900  1
  Fe  Fe11  1  0.59526700  0.08989700  0.22493900  1
  Fe  Fe12  1  0.08989700  0.59526700  0.22493900  1
