# generated using pymatgen
data_Pr2USe5
_symmetry_space_group_name_H-M   'P 1'
_cell_length_a   7.89366900
_cell_length_b   8.48254000
_cell_length_c   12.46125300
_cell_angle_alpha   90.00000000
_cell_angle_beta   90.00000000
_cell_angle_gamma   90.00000000
_symmetry_Int_Tables_number   1
_chemical_formula_structural   Pr2USe5
_chemical_formula_sum   'Pr8 U4 Se20'
_cell_volume   834.38510230
_cell_formula_units_Z   4
loop_
 _symmetry_equiv_pos_site_id
 _symmetry_equiv_pos_as_xyz
  1  'x, y, z'
loop_
 _atom_site_type_symbol
 _atom_site_label
 _atom_site_symmetry_multiplicity
 _atom_site_fract_x
 _atom_site_fract_y
 _atom_site_fract_z
 _atom_site_occupancy
  Pr  Pr0  1  0.52910700  0.49856700  0.32221700  1
  Pr  Pr1  1  0.97089300  0.00143300  0.82221700  1
  Pr  Pr2  1  0.47089300  0.99856700  0.67778300  1
  Pr  Pr3  1  0.02910700  0.50143300  0.17778300  1
  Pr  Pr4  1  0.47089300  0.50143300  0.67778300  1
  Pr  Pr5  1  0.02910700  0.99856700  0.17778300  1
  Pr  Pr6  1  0.52910700  0.00143300  0.32221700  1
  Pr  Pr7  1  0.97089300  0.49856700  0.82221700  1
  U  U8  1  0.07404400  0.75000000  0.49052800  1
  U  U9  1  0.42595600  0.75000000  0.99052800  1
  U  U10  1  0.92595600  0.25000000  0.50947200  1
  U  U11  1  0.57404400  0.25000000  0.00947200  1
  Se  Se12  1  0.83312700  0.95520800  0.59161900  1
  Se  Se13  1  0.66687300  0.54479200  0.09161900  1
  Se  Se14  1  0.16687300  0.45520800  0.40838100  1
  Se  Se15  1  0.33312700  0.04479200  0.90838100  1
  Se  Se16  1  0.16687300  0.04479200  0.40838100  1
  Se  Se17  1  0.33312700  0.45520800  0.90838100  1
  Se  Se18  1  0.83312700  0.54479200  0.59161900  1
  Se  Se19  1  0.66687300  0.95520800  0.09161900  1
  Se  Se20  1  0.83283700  0.75000000  0.31359400  1
  Se  Se21  1  0.66716300  0.75000000  0.81359400  1
  Se  Se22  1  0.16716300  0.25000000  0.68640600  1
  Se  Se23  1  0.33283700  0.25000000  0.18640600  1
  Se  Se24  1  0.45688700  0.75000000  0.49985500  1
  Se  Se25  1  0.04311300  0.75000000  0.99985500  1
  Se  Se26  1  0.54311300  0.25000000  0.50014500  1
  Se  Se27  1  0.95688700  0.25000000  0.00014500  1
  Se  Se28  1  0.19276300  0.75000000  0.71603500  1
  Se  Se29  1  0.30723700  0.75000000  0.21603500  1
  Se  Se30  1  0.80723700  0.25000000  0.28396500  1
  Se  Se31  1  0.69276300  0.25000000  0.78396500  1
