# generated using pymatgen
data_Tm2AlSi2
_symmetry_space_group_name_H-M   'P 1'
_cell_length_a   5.52566244
_cell_length_b   5.52566244
_cell_length_c   5.52566244
_cell_angle_alpha   137.31637801
_cell_angle_beta   116.87946164
_cell_angle_gamma   79.20920957
_symmetry_Int_Tables_number   1
_chemical_formula_structural   Tm2AlSi2
_chemical_formula_sum   'Tm2 Al1 Si2'
_cell_volume   99.04055393
_cell_formula_units_Z   1
loop_
 _symmetry_equiv_pos_site_id
 _symmetry_equiv_pos_as_xyz
  1  'x, y, z'
loop_
 _atom_site_type_symbol
 _atom_site_label
 _atom_site_symmetry_multiplicity
 _atom_site_fract_x
 _atom_site_fract_y
 _atom_site_fract_z
 _atom_site_occupancy
  Tm  Tm0  1  0.71117500  0.21117500  0.50000000  1
  Tm  Tm1  1  0.28882500  0.78882500  0.50000000  1
  Al  Al2  1  0.00000000  0.00000000  0.00000000  1
  Si  Si3  1  0.28904200  0.50000000  0.78904200  1
  Si  Si4  1  0.71095800  0.50000000  0.21095800  1
