# generated using pymatgen
data_Te2MoO7
_symmetry_space_group_name_H-M   'P 1'
_cell_length_a   9.19409100
_cell_length_b   4.38922100
_cell_length_c   16.05700020
_cell_angle_alpha   83.57863039
_cell_angle_beta   90.00000000
_cell_angle_gamma   90.00000000
_symmetry_Int_Tables_number   1
_chemical_formula_structural   Te2MoO7
_chemical_formula_sum   'Te8 Mo4 O28'
_cell_volume   643.91335455
_cell_formula_units_Z   4
loop_
 _symmetry_equiv_pos_site_id
 _symmetry_equiv_pos_as_xyz
  1  'x, y, z'
loop_
 _atom_site_type_symbol
 _atom_site_label
 _atom_site_symmetry_multiplicity
 _atom_site_fract_x
 _atom_site_fract_y
 _atom_site_fract_z
 _atom_site_occupancy
  Te  Te0  1  0.02807700  0.16589800  0.22064900  1
  Te  Te1  1  0.52807700  0.83410200  0.27935100  1
  Te  Te2  1  0.97192300  0.83410200  0.77935100  1
  Te  Te3  1  0.47192300  0.16589800  0.72064900  1
  Te  Te4  1  0.28816600  0.29149800  0.38756500  1
  Te  Te5  1  0.78816600  0.70850200  0.11243500  1
  Te  Te6  1  0.71183400  0.70850200  0.61243500  1
  Te  Te7  1  0.21183400  0.29149800  0.88756500  1
  Mo  Mo8  1  0.36886700  0.88137800  0.06857700  1
  Mo  Mo9  1  0.86886700  0.11862200  0.43142300  1
  Mo  Mo10  1  0.63113300  0.11862200  0.93142300  1
  Mo  Mo11  1  0.13113300  0.88137800  0.56857700  1
  O  O12  1  0.15912000  0.40901800  0.29806200  1
  O  O13  1  0.65912000  0.59098200  0.20193800  1
  O  O14  1  0.84088000  0.59098200  0.70193800  1
  O  O15  1  0.34088000  0.40901800  0.79806200  1
  O  O16  1  0.46737800  0.41737700  0.31226000  1
  O  O17  1  0.96737800  0.58262300  0.18774000  1
  O  O18  1  0.53262200  0.58262300  0.68774000  1
  O  O19  1  0.03262200  0.41737700  0.81226000  1
  O  O20  1  0.34757500  0.89439600  0.35856500  1
  O  O21  1  0.84757500  0.10560400  0.14143500  1
  O  O22  1  0.65242500  0.10560400  0.64143500  1
  O  O23  1  0.15242500  0.89439600  0.85856500  1
  O  O24  1  0.31611200  0.97674000  0.56251900  1
  O  O25  1  0.81611200  0.02326000  0.93748100  1
  O  O26  1  0.68388800  0.02326000  0.43748100  1
  O  O27  1  0.18388800  0.97674000  0.06251900  1
  O  O28  1  0.12549900  0.48500500  0.56857300  1
  O  O29  1  0.62549900  0.51499500  0.93142700  1
  O  O30  1  0.87450100  0.51499500  0.43142700  1
  O  O31  1  0.37450100  0.48500500  0.06857300  1
  O  O32  1  0.39940800  0.03068900  0.94862600  1
  O  O33  1  0.89940800  0.96931100  0.55137400  1
  O  O34  1  0.60059200  0.96931100  0.05137400  1
  O  O35  1  0.10059200  0.03068900  0.44862600  1
  O  O36  1  0.10109500  0.93706000  0.68625700  1
  O  O37  1  0.60109500  0.06294000  0.81374300  1
  O  O38  1  0.89890500  0.06294000  0.31374300  1
  O  O39  1  0.39890500  0.93706000  0.18625700  1
