# generated using pymatgen
data_Nb2Pb2Se4O15
_symmetry_space_group_name_H-M   'P 1'
_cell_length_a   13.98835246
_cell_length_b   13.98835246
_cell_length_c   7.87915218
_cell_angle_alpha   85.72774519
_cell_angle_beta   85.72774519
_cell_angle_gamma   29.77463651
_symmetry_Int_Tables_number   1
_chemical_formula_structural   Nb2Pb2Se4O15
_chemical_formula_sum   'Nb4 Pb4 Se8 O30'
_cell_volume   763.33696165
_cell_formula_units_Z   2
loop_
 _symmetry_equiv_pos_site_id
 _symmetry_equiv_pos_as_xyz
  1  'x, y, z'
loop_
 _atom_site_type_symbol
 _atom_site_label
 _atom_site_symmetry_multiplicity
 _atom_site_fract_x
 _atom_site_fract_y
 _atom_site_fract_z
 _atom_site_occupancy
  Nb  Nb0  1  0.92166800  0.93629900  0.73726300  1
  Nb  Nb1  1  0.06370100  0.07833200  0.76273700  1
  Nb  Nb2  1  0.07833200  0.06370100  0.26273700  1
  Nb  Nb3  1  0.93629900  0.92166800  0.23726300  1
  Pb  Pb4  1  0.81251900  0.59431000  0.68364300  1
  Pb  Pb5  1  0.40569000  0.18748100  0.81635700  1
  Pb  Pb6  1  0.18748100  0.40569000  0.31635700  1
  Pb  Pb7  1  0.59431000  0.81251900  0.18364300  1
  Se  Se8  1  0.91920200  0.70299900  0.93731800  1
  Se  Se9  1  0.29700100  0.08079800  0.56268200  1
  Se  Se10  1  0.08079800  0.29700100  0.06268200  1
  Se  Se11  1  0.70299900  0.91920200  0.43731800  1
  Se  Se12  1  0.34286500  0.49855700  0.51363700  1
  Se  Se13  1  0.50144300  0.65713500  0.98636300  1
  Se  Se14  1  0.65713500  0.50144300  0.48636300  1
  Se  Se15  1  0.49855700  0.34286500  0.01363700  1
  O  O16  1  0.04754100  0.51780000  0.81296500  1
  O  O17  1  0.48220000  0.95245900  0.68703500  1
  O  O18  1  0.95245900  0.48220000  0.18703500  1
  O  O19  1  0.51780000  0.04754100  0.31296500  1
  O  O20  1  0.70203200  0.82988400  0.95023200  1
  O  O21  1  0.17011600  0.29796800  0.54976800  1
  O  O22  1  0.29796800  0.17011600  0.04976800  1
  O  O23  1  0.82988400  0.70203200  0.45023200  1
  O  O24  1  0.84500400  0.85776000  0.78665400  1
  O  O25  1  0.14224000  0.15499600  0.71334600  1
  O  O26  1  0.15499600  0.14224000  0.21334600  1
  O  O27  1  0.85776000  0.84500400  0.28665400  1
  O  O28  1  0.20016800  0.64943200  0.33608600  1
  O  O29  1  0.35056800  0.79983200  0.16391400  1
  O  O30  1  0.79983200  0.35056800  0.66391400  1
  O  O31  1  0.64943200  0.20016800  0.83608600  1
  O  O32  1  0.34013000  0.37954000  0.53073100  1
  O  O33  1  0.62046000  0.65987000  0.96926900  1
  O  O34  1  0.65987000  0.62046000  0.46926900  1
  O  O35  1  0.37954000  0.34013000  0.03073100  1
  O  O36  1  0.19608400  0.65545700  0.68887300  1
  O  O37  1  0.34454300  0.80391600  0.81112700  1
  O  O38  1  0.80391600  0.34454300  0.31112700  1
  O  O39  1  0.65545700  0.19608400  0.18887300  1
  O  O40  1  0.85094200  0.99949100  0.51584600  1
  O  O41  1  0.00050900  0.14905800  0.98415400  1
  O  O42  1  0.14905800  0.00050900  0.48415400  1
  O  O43  1  0.99949100  0.85094200  0.01584600  1
  O  O44  1  0.99642100  0.00357900  0.75000000  1
  O  O45  1  0.00357900  0.99642100  0.25000000  1
