# generated using pymatgen
data_Eu4As7Ir8
_symmetry_space_group_name_H-M   'P 1'
_cell_length_a   4.16048000
_cell_length_b   13.28463837
_cell_length_c   13.65896366
_cell_angle_alpha   98.64603010
_cell_angle_beta   90.00000000
_cell_angle_gamma   90.00000000
_symmetry_Int_Tables_number   1
_chemical_formula_structural   Eu4As7Ir8
_chemical_formula_sum   'Eu8 As14 Ir16'
_cell_volume   746.35820952
_cell_formula_units_Z   2
loop_
 _symmetry_equiv_pos_site_id
 _symmetry_equiv_pos_as_xyz
  1  'x, y, z'
loop_
 _atom_site_type_symbol
 _atom_site_label
 _atom_site_symmetry_multiplicity
 _atom_site_fract_x
 _atom_site_fract_y
 _atom_site_fract_z
 _atom_site_occupancy
  Eu  Eu0  1  0.75000000  0.21281600  0.56463100  1
  Eu  Eu1  1  0.25000000  0.78718400  0.43536900  1
  Eu  Eu2  1  0.75000000  0.51386200  0.70898100  1
  Eu  Eu3  1  0.25000000  0.48613800  0.29101900  1
  Eu  Eu4  1  0.75000000  0.28577800  0.89575900  1
  Eu  Eu5  1  0.25000000  0.71422200  0.10424100  1
  Eu  Eu6  1  0.75000000  0.10267000  0.20595900  1
  Eu  Eu7  1  0.25000000  0.89733000  0.79404100  1
  As  As8  1  0.75000000  0.74448200  0.91756800  1
  As  As9  1  0.25000000  0.25551800  0.08243200  1
  As  As10  1  0.75000000  0.90461400  0.58677200  1
  As  As11  1  0.25000000  0.09538600  0.41322800  1
  As  As12  1  0.75000000  0.53020500  0.12813100  1
  As  As13  1  0.25000000  0.46979500  0.87186900  1
  As  As14  1  0.75000000  0.84814400  0.27986400  1
  As  As15  1  0.25000000  0.15185600  0.72013600  1
  As  As16  1  0.75000000  0.60914300  0.43658400  1
  As  As17  1  0.25000000  0.39085700  0.56341600  1
  As  As18  1  0.75000000  0.31078600  0.31046400  1
  As  As19  1  0.25000000  0.68921400  0.68953600  1
  As  As20  1  0.75000000  0.05743600  0.89981400  1
  As  As21  1  0.25000000  0.94256400  0.10018600  1
  Ir  Ir22  1  0.75000000  0.34449800  0.13860700  1
  Ir  Ir23  1  0.25000000  0.65550200  0.86139300  1
  Ir  Ir24  1  0.75000000  0.72190200  0.60218900  1
  Ir  Ir25  1  0.25000000  0.27809800  0.39781100  1
  Ir  Ir26  1  0.75000000  0.92032300  0.00198100  1
  Ir  Ir27  1  0.25000000  0.07967700  0.99801900  1
  Ir  Ir28  1  0.75000000  0.42625400  0.47145800  1
  Ir  Ir29  1  0.25000000  0.57374600  0.52854200  1
  Ir  Ir30  1  0.75000000  0.05514200  0.72042400  1
  Ir  Ir31  1  0.25000000  0.94485800  0.27957600  1
  Ir  Ir32  1  0.75000000  0.55360200  0.95173000  1
  Ir  Ir33  1  0.25000000  0.44639800  0.04827000  1
  Ir  Ir34  1  0.75000000  0.66518400  0.27147400  1
  Ir  Ir35  1  0.25000000  0.33481600  0.72852600  1
  Ir  Ir36  1  0.75000000  0.98473700  0.42759200  1
  Ir  Ir37  1  0.25000000  0.01526300  0.57240800  1
