# generated using pymatgen
data_Mn2InSnPd4
_symmetry_space_group_name_H-M   'P 1'
_cell_length_a   7.89033812
_cell_length_b   7.89033812
_cell_length_c   7.89033807
_cell_angle_alpha   33.41022420
_cell_angle_beta   33.41022420
_cell_angle_gamma   33.41022478
_symmetry_Int_Tables_number   1
_chemical_formula_structural   Mn2InSnPd4
_chemical_formula_sum   'Mn2 In1 Sn1 Pd4'
_cell_volume   132.63074671
_cell_formula_units_Z   1
loop_
 _symmetry_equiv_pos_site_id
 _symmetry_equiv_pos_as_xyz
  1  'x, y, z'
loop_
 _atom_site_type_symbol
 _atom_site_label
 _atom_site_symmetry_multiplicity
 _atom_site_fract_x
 _atom_site_fract_y
 _atom_site_fract_z
 _atom_site_occupancy
  Mn  Mn0  1  0.25035300  0.25035300  0.25035300  1
  Mn  Mn1  1  0.74964700  0.74964700  0.74964700  1
  In  In2  1  0.00000000  0.00000000  0.00000000  1
  Sn  Sn3  1  0.50000000  0.50000000  0.50000000  1
  Pd  Pd4  1  0.62473600  0.62473600  0.62473600  1
  Pd  Pd5  1  0.12521600  0.12521600  0.12521600  1
  Pd  Pd6  1  0.87478400  0.87478400  0.87478400  1
  Pd  Pd7  1  0.37526400  0.37526400  0.37526400  1
