# generated using pymatgen
data_Ba6Y2Ti4O17
_symmetry_space_group_name_H-M   'P 1'
_cell_length_a   6.00232841
_cell_length_b   6.00232841
_cell_length_c   30.01966900
_cell_angle_alpha   90.00000000
_cell_angle_beta   90.00000000
_cell_angle_gamma   120.00000449
_symmetry_Int_Tables_number   1
_chemical_formula_structural   Ba6Y2Ti4O17
_chemical_formula_sum   'Ba12 Y4 Ti8 O34'
_cell_volume   936.64715486
_cell_formula_units_Z   2
loop_
 _symmetry_equiv_pos_site_id
 _symmetry_equiv_pos_as_xyz
  1  'x, y, z'
loop_
 _atom_site_type_symbol
 _atom_site_label
 _atom_site_symmetry_multiplicity
 _atom_site_fract_x
 _atom_site_fract_y
 _atom_site_fract_z
 _atom_site_occupancy
  Ba  Ba0  1  0.66666700  0.33333300  0.81547800  1
  Ba  Ba1  1  0.33333300  0.66666700  0.18452200  1
  Ba  Ba2  1  0.66666700  0.33333300  0.41038900  1
  Ba  Ba3  1  0.33333300  0.66666700  0.91038900  1
  Ba  Ba4  1  0.33333300  0.66666700  0.58961100  1
  Ba  Ba5  1  0.66666700  0.33333300  0.08961100  1
  Ba  Ba6  1  0.00000000  0.00000000  0.50000000  1
  Ba  Ba7  1  0.00000000  0.00000000  0.00000000  1
  Ba  Ba8  1  0.33333300  0.66666700  0.31547800  1
  Ba  Ba9  1  0.00000000  0.00000000  0.25000000  1
  Ba  Ba10  1  0.00000000  0.00000000  0.75000000  1
  Ba  Ba11  1  0.66666700  0.33333300  0.68452200  1
  Y  Y12  1  0.00000000  0.00000000  0.62687300  1
  Y  Y13  1  0.00000000  0.00000000  0.87312700  1
  Y  Y14  1  0.00000000  0.00000000  0.37312700  1
  Y  Y15  1  0.00000000  0.00000000  0.12687300  1
  Ti  Ti16  1  0.66666700  0.33333300  0.29615600  1
  Ti  Ti17  1  0.33333300  0.66666700  0.79615600  1
  Ti  Ti18  1  0.33333300  0.66666700  0.70384400  1
  Ti  Ti19  1  0.66666700  0.33333300  0.20384400  1
  Ti  Ti20  1  0.66666700  0.33333300  0.55473900  1
  Ti  Ti21  1  0.66666700  0.33333300  0.94526100  1
  Ti  Ti22  1  0.33333300  0.66666700  0.05473900  1
  Ti  Ti23  1  0.33333300  0.66666700  0.44526100  1
  O  O24  1  0.48160300  0.96320500  0.75000000  1
  O  O25  1  0.51839700  0.48160300  0.25000000  1
  O  O26  1  0.96320500  0.48160300  0.25000000  1
  O  O27  1  0.03679500  0.51839700  0.75000000  1
  O  O28  1  0.48160300  0.51839700  0.75000000  1
  O  O29  1  0.51839700  0.03679500  0.25000000  1
  O  O30  1  0.35159200  0.17579600  0.33027300  1
  O  O31  1  0.82420400  0.17579600  0.33027300  1
  O  O32  1  0.82420400  0.64840800  0.33027300  1
  O  O33  1  0.17579600  0.35159200  0.83027300  1
  O  O34  1  0.64840800  0.82420400  0.66972700  1
  O  O35  1  0.64840800  0.82420400  0.83027300  1
  O  O36  1  0.17579600  0.82420400  0.83027300  1
  O  O37  1  0.82420400  0.64840800  0.16972700  1
  O  O38  1  0.82420400  0.17579600  0.16972700  1
  O  O39  1  0.17579600  0.82420400  0.66972700  1
  O  O40  1  0.17579600  0.35159200  0.66972700  1
  O  O41  1  0.35159200  0.17579600  0.16972700  1
  O  O42  1  0.66369500  0.83184800  0.42256700  1
  O  O43  1  0.16815200  0.83184800  0.42256700  1
  O  O44  1  0.16815200  0.33630500  0.42256700  1
  O  O45  1  0.83184800  0.66369500  0.92256700  1
  O  O46  1  0.33630500  0.16815200  0.57743300  1
  O  O47  1  0.33630500  0.16815200  0.92256700  1
  O  O48  1  0.33333300  0.66666700  0.99557400  1
  O  O49  1  0.66666700  0.33333300  0.49557400  1
  O  O50  1  0.66666700  0.33333300  0.00442600  1
  O  O51  1  0.33333300  0.66666700  0.50442600  1
  O  O52  1  0.66369500  0.83184800  0.07743300  1
  O  O53  1  0.83184800  0.66369500  0.57743300  1
  O  O54  1  0.83184800  0.16815200  0.57743300  1
  O  O55  1  0.16815200  0.83184800  0.07743300  1
  O  O56  1  0.16815200  0.33630500  0.07743300  1
  O  O57  1  0.83184800  0.16815200  0.92256700  1
