# generated using pymatgen
data_KMgAs
_symmetry_space_group_name_H-M   'P 1'
_cell_length_a   4.58608200
_cell_length_b   4.58608200
_cell_length_c   7.82881600
_cell_angle_alpha   90.00000000
_cell_angle_beta   90.00000000
_cell_angle_gamma   90.00000000
_symmetry_Int_Tables_number   1
_chemical_formula_structural   KMgAs
_chemical_formula_sum   'K2 Mg2 As2'
_cell_volume   164.65681764
_cell_formula_units_Z   2
loop_
 _symmetry_equiv_pos_site_id
 _symmetry_equiv_pos_as_xyz
  1  'x, y, z'
loop_
 _atom_site_type_symbol
 _atom_site_label
 _atom_site_symmetry_multiplicity
 _atom_site_fract_x
 _atom_site_fract_y
 _atom_site_fract_z
 _atom_site_occupancy
  K  K0  1  0.00000000  0.50000000  0.35513600  1
  K  K1  1  0.50000000  0.00000000  0.64486400  1
  Mg  Mg2  1  0.00000000  0.00000000  0.00000000  1
  Mg  Mg3  1  0.50000000  0.50000000  0.00000000  1
  As  As4  1  0.00000000  0.50000000  0.80743100  1
  As  As5  1  0.50000000  0.00000000  0.19256900  1
