# generated using pymatgen
data_HfGe2
_symmetry_space_group_name_H-M   'P 1'
_cell_length_a   7.72109571
_cell_length_b   7.72109571
_cell_length_c   3.79449700
_cell_angle_alpha   90.00000000
_cell_angle_beta   90.00000000
_cell_angle_gamma   151.20995079
_symmetry_Int_Tables_number   1
_chemical_formula_structural   HfGe2
_chemical_formula_sum   'Hf2 Ge4'
_cell_volume   108.94314133
_cell_formula_units_Z   2
loop_
 _symmetry_equiv_pos_site_id
 _symmetry_equiv_pos_as_xyz
  1  'x, y, z'
loop_
 _atom_site_type_symbol
 _atom_site_label
 _atom_site_symmetry_multiplicity
 _atom_site_fract_x
 _atom_site_fract_y
 _atom_site_fract_z
 _atom_site_occupancy
  Hf  Hf0  1  0.10414600  0.89585400  0.25000000  1
  Hf  Hf1  1  0.89585400  0.10414600  0.75000000  1
  Ge  Ge2  1  0.43904000  0.56096000  0.25000000  1
  Ge  Ge3  1  0.56096000  0.43904000  0.75000000  1
  Ge  Ge4  1  0.25017400  0.74982600  0.75000000  1
  Ge  Ge5  1  0.74982600  0.25017400  0.25000000  1
