# generated using pymatgen
data_CsPSe6
_symmetry_space_group_name_H-M   'P 1'
_cell_length_a   13.01362700
_cell_length_b   7.16116900
_cell_length_c   13.39521013
_cell_angle_alpha   59.48144200
_cell_angle_beta   90.00000000
_cell_angle_gamma   90.00000000
_symmetry_Int_Tables_number   1
_chemical_formula_structural   CsPSe6
_chemical_formula_sum   'Cs4 P4 Se24'
_cell_volume   1075.39820397
_cell_formula_units_Z   4
loop_
 _symmetry_equiv_pos_site_id
 _symmetry_equiv_pos_as_xyz
  1  'x, y, z'
loop_
 _atom_site_type_symbol
 _atom_site_label
 _atom_site_symmetry_multiplicity
 _atom_site_fract_x
 _atom_site_fract_y
 _atom_site_fract_z
 _atom_site_occupancy
  Cs  Cs0  1  0.97365200  0.00003300  0.74997500  1
  Cs  Cs1  1  0.02634800  0.00003300  0.24997500  1
  Cs  Cs2  1  0.50442400  0.52625400  0.99939000  1
  Cs  Cs3  1  0.49557600  0.52625400  0.49939000  1
  P  P4  1  0.15259500  0.49985400  0.75003100  1
  P  P5  1  0.84740500  0.49985400  0.25003100  1
  P  P6  1  0.66115700  0.49966800  0.75030300  1
  P  P7  1  0.33884300  0.49966800  0.25030300  1
  Se  Se8  1  0.76369900  0.50130200  0.89054200  1
  Se  Se9  1  0.23739700  0.49870700  0.10910000  1
  Se  Se10  1  0.76260300  0.49870700  0.60910000  1
  Se  Se11  1  0.23630100  0.50130200  0.39054200  1
  Se  Se12  1  0.67694100  0.06646900  0.42494500  1
  Se  Se13  1  0.32315500  0.93567000  0.57554700  1
  Se  Se14  1  0.67684500  0.93567000  0.07554700  1
  Se  Se15  1  0.32305900  0.06646900  0.92494500  1
  Se  Se16  1  0.25316100  0.74431900  0.76757700  1
  Se  Se17  1  0.74689400  0.25536600  0.23242200  1
  Se  Se18  1  0.25310600  0.25536600  0.73242200  1
  Se  Se19  1  0.74683900  0.74431900  0.26757700  1
  Se  Se20  1  0.57673600  0.80249900  0.68170200  1
  Se  Se21  1  0.42401700  0.19864800  0.31749100  1
  Se  Se22  1  0.57598300  0.19864800  0.81749100  1
  Se  Se23  1  0.42326400  0.80249900  0.18170200  1
  Se  Se24  1  0.82988900  0.13958600  0.97475400  1
  Se  Se25  1  0.17030400  0.85984600  0.02515900  1
  Se  Se26  1  0.82969600  0.85984600  0.52515900  1
  Se  Se27  1  0.17011100  0.13958600  0.47475400  1
  Se  Se28  1  0.06577400  0.35634300  0.91109900  1
  Se  Se29  1  0.93411700  0.64383600  0.08886200  1
  Se  Se30  1  0.06588300  0.64383600  0.58886200  1
  Se  Se31  1  0.93422600  0.35634300  0.41109900  1
