# generated using pymatgen
data_Mg2CrB2Ir5
_symmetry_space_group_name_H-M   'P 1'
_cell_length_a   9.51560800
_cell_length_b   9.51560800
_cell_length_c   2.90846900
_cell_angle_alpha   90.00000000
_cell_angle_beta   90.00000000
_cell_angle_gamma   90.00000000
_symmetry_Int_Tables_number   1
_chemical_formula_structural   Mg2CrB2Ir5
_chemical_formula_sum   'Mg4 Cr2 B4 Ir10'
_cell_volume   263.35254808
_cell_formula_units_Z   2
loop_
 _symmetry_equiv_pos_site_id
 _symmetry_equiv_pos_as_xyz
  1  'x, y, z'
loop_
 _atom_site_type_symbol
 _atom_site_label
 _atom_site_symmetry_multiplicity
 _atom_site_fract_x
 _atom_site_fract_y
 _atom_site_fract_z
 _atom_site_occupancy
  Mg  Mg0  1  0.82465000  0.32465000  0.00000000  1
  Mg  Mg1  1  0.17535000  0.67535000  0.00000000  1
  Mg  Mg2  1  0.32465000  0.17535000  0.00000000  1
  Mg  Mg3  1  0.67535000  0.82465000  0.00000000  1
  Cr  Cr4  1  0.50000000  0.50000000  0.00000000  1
  Cr  Cr5  1  0.00000000  0.00000000  0.00000000  1
  B  B6  1  0.62520500  0.12520500  0.00000000  1
  B  B7  1  0.37479500  0.87479500  0.00000000  1
  B  B8  1  0.12520500  0.37479500  0.00000000  1
  B  B9  1  0.87479500  0.62520500  0.00000000  1
  Ir  Ir10  1  0.50000000  0.00000000  0.50000000  1
  Ir  Ir11  1  0.00000000  0.50000000  0.50000000  1
  Ir  Ir12  1  0.71328000  0.57292400  0.50000000  1
  Ir  Ir13  1  0.28672000  0.42707600  0.50000000  1
  Ir  Ir14  1  0.21328000  0.92707600  0.50000000  1
  Ir  Ir15  1  0.78672000  0.07292400  0.50000000  1
  Ir  Ir16  1  0.42707600  0.71328000  0.50000000  1
  Ir  Ir17  1  0.57292400  0.28672000  0.50000000  1
  Ir  Ir18  1  0.07292400  0.21328000  0.50000000  1
  Ir  Ir19  1  0.92707600  0.78672000  0.50000000  1
