# generated using pymatgen
data_K11Np2H9(S5O22)2
_symmetry_space_group_name_H-M   'P 1'
_cell_length_a   14.30260000
_cell_length_b   8.47160600
_cell_length_c   19.19115113
_cell_angle_alpha   90.00000000
_cell_angle_beta   107.37234740
_cell_angle_gamma   90.00000000
_symmetry_Int_Tables_number   1
_chemical_formula_structural   K11Np2H9(S5O22)2
_chemical_formula_sum   'K22 Np4 H18 S20 O88'
_cell_volume   2219.24456354
_cell_formula_units_Z   2
loop_
 _symmetry_equiv_pos_site_id
 _symmetry_equiv_pos_as_xyz
  1  'x, y, z'
loop_
 _atom_site_type_symbol
 _atom_site_label
 _atom_site_symmetry_multiplicity
 _atom_site_fract_x
 _atom_site_fract_y
 _atom_site_fract_z
 _atom_site_occupancy
  K  K0  1  0.00000000  0.00000000  0.00000000  1
  K  K1  1  0.00000000  0.50000000  0.50000000  1
  K  K2  1  0.32193800  0.87003600  0.13654400  1
  K  K3  1  0.67806200  0.37003600  0.36345600  1
  K  K4  1  0.67806200  0.12996400  0.86345600  1
  K  K5  1  0.32193800  0.62996400  0.63654400  1
  K  K6  1  0.38513200  0.38615200  0.85398300  1
  K  K7  1  0.61486800  0.88615200  0.64601700  1
  K  K8  1  0.61486800  0.61384800  0.14601700  1
  K  K9  1  0.38513200  0.11384800  0.35398300  1
  K  K10  1  0.09394500  0.64185600  0.92779700  1
  K  K11  1  0.90605500  0.14185600  0.57220300  1
  K  K12  1  0.90605500  0.35814400  0.07220300  1
  K  K13  1  0.09394500  0.85814400  0.42779700  1
  K  K14  1  0.33924500  0.91380700  0.81774500  1
  K  K15  1  0.66075500  0.41380700  0.68225500  1
  K  K16  1  0.66075500  0.08619300  0.18225500  1
  K  K17  1  0.33924500  0.58619300  0.31774500  1
  K  K18  1  0.93974800  0.89418600  0.20568100  1
  K  K19  1  0.06025200  0.39418600  0.29431900  1
  K  K20  1  0.06025200  0.10581400  0.79431900  1
  K  K21  1  0.93974800  0.60581400  0.70568100  1
  Np  Np22  1  0.26418400  0.36387500  0.09961300  1
  Np  Np23  1  0.73581600  0.86387500  0.40038700  1
  Np  Np24  1  0.73581600  0.63612500  0.90038700  1
  Np  Np25  1  0.26418400  0.13612500  0.59961300  1
  H  H26  1  0.50000000  0.00000000  0.00000000  1
  H  H27  1  0.50000000  0.50000000  0.50000000  1
  H  H28  1  0.57062900  0.87337200  0.95923200  1
  H  H29  1  0.42937100  0.37337200  0.54076800  1
  H  H30  1  0.42937100  0.12662800  0.04076800  1
  H  H31  1  0.57062900  0.62662800  0.45923200  1
  H  H32  1  0.47819600  0.79969600  0.98271200  1
  H  H33  1  0.52180400  0.29969600  0.51728800  1
  H  H34  1  0.52180400  0.20030400  0.01728800  1
  H  H35  1  0.47819600  0.70030400  0.48271200  1
  H  H36  1  0.18188000  0.63992600  0.79278000  1
  H  H37  1  0.81812000  0.13992600  0.70722000  1
  H  H38  1  0.81812000  0.36007400  0.20722000  1
  H  H39  1  0.18188000  0.86007400  0.29278000  1
  H  H40  1  0.12331900  0.78637600  0.75604400  1
  H  H41  1  0.87668100  0.28637600  0.74395600  1
  H  H42  1  0.87668100  0.21362400  0.24395600  1
  H  H43  1  0.12331900  0.71362400  0.25604400  1
  S  S44  1  0.22899600  0.14049100  0.96177400  1
  S  S45  1  0.77100400  0.64049100  0.53822600  1
  S  S46  1  0.77100400  0.85950900  0.03822600  1
  S  S47  1  0.22899600  0.35950900  0.46177400  1
  S  S48  1  0.16544000  0.14510600  0.19007300  1
  S  S49  1  0.83456000  0.64510600  0.30992700  1
  S  S50  1  0.83456000  0.85489400  0.80992700  1
  S  S51  1  0.16544000  0.35489400  0.69007300  1
  S  S52  1  0.35415000  0.58659700  0.00643100  1
  S  S53  1  0.64585000  0.08659700  0.49356900  1
  S  S54  1  0.64585000  0.41340300  0.99356900  1
  S  S55  1  0.35415000  0.91340300  0.50643100  1
  S  S56  1  0.10985500  0.60999800  0.12054900  1
  S  S57  1  0.89014500  0.10999800  0.37945100  1
  S  S58  1  0.89014500  0.39000200  0.87945100  1
  S  S59  1  0.10985500  0.89000200  0.62054900  1
  S  S60  1  0.46030200  0.34749600  0.21895200  1
  S  S61  1  0.53969800  0.84749600  0.28104800  1
  S  S62  1  0.53969800  0.65250400  0.78104800  1
  S  S63  1  0.46030200  0.15250400  0.71895200  1
  O  O64  1  0.30977200  0.11677700  0.03350500  1
  O  O65  1  0.69022800  0.61677700  0.46649500  1
  O  O66  1  0.69022800  0.88322300  0.96649500  1
  O  O67  1  0.30977200  0.38322300  0.53350500  1
  O  O68  1  0.18017500  0.29222100  0.97559500  1
  O  O69  1  0.81982500  0.79222100  0.52440500  1
  O  O70  1  0.81982500  0.70777900  0.02440500  1
  O  O71  1  0.18017500  0.20777900  0.47559500  1
  O  O72  1  0.26945500  0.15917500  0.90004100  1
  O  O73  1  0.73054500  0.65917500  0.59995900  1
  O  O74  1  0.73054500  0.84082500  0.09995900  1
  O  O75  1  0.26945500  0.34082500  0.40004100  1
  O  O76  1  0.15757100  0.01038700  0.94783700  1
  O  O77  1  0.84242900  0.51038700  0.55216300  1
  O  O78  1  0.84242900  0.98961300  0.05216300  1
  O  O79  1  0.15757100  0.48961300  0.44783700  1
  O  O80  1  0.17279100  0.12922400  0.11276000  1
  O  O81  1  0.82720900  0.62922400  0.38724000  1
  O  O82  1  0.82720900  0.87077600  0.88724000  1
  O  O83  1  0.17279100  0.37077600  0.61276000  1
  O  O84  1  0.21601600  0.30009800  0.21532500  1
  O  O85  1  0.78398400  0.80009800  0.28467500  1
  O  O86  1  0.78398400  0.69990200  0.78467500  1
  O  O87  1  0.21601600  0.19990200  0.71532500  1
  O  O88  1  0.06164300  0.15088400  0.18855200  1
  O  O89  1  0.93835700  0.65088400  0.31144800  1
  O  O90  1  0.93835700  0.84911600  0.81144800  1
  O  O91  1  0.06164300  0.34911600  0.68855200  1
  O  O92  1  0.21861700  0.01354800  0.23548200  1
  O  O93  1  0.78138300  0.51354800  0.26451800  1
  O  O94  1  0.78138300  0.98645200  0.76451800  1
  O  O95  1  0.21861700  0.48645200  0.73548200  1
  O  O96  1  0.26907300  0.61346400  0.03774700  1
  O  O97  1  0.73092700  0.11346400  0.46225300  1
  O  O98  1  0.73092700  0.38653600  0.96225300  1
  O  O99  1  0.26907300  0.88653600  0.53774700  1
  O  O100  1  0.38510800  0.42072600  0.03037600  1
  O  O101  1  0.61489200  0.92072600  0.46962400  1
  O  O102  1  0.61489200  0.57927400  0.96962400  1
  O  O103  1  0.38510800  0.07927400  0.53037600  1
  O  O104  1  0.43368400  0.70041800  0.04039700  1
  O  O105  1  0.56631600  0.20041800  0.45960300  1
  O  O106  1  0.56631600  0.29958200  0.95960300  1
  O  O107  1  0.43368400  0.79958200  0.54039700  1
  O  O108  1  0.32042000  0.60496800  0.92693300  1
  O  O109  1  0.67958000  0.10496800  0.57306700  1
  O  O110  1  0.67958000  0.39503200  0.07306700  1
  O  O111  1  0.32042000  0.89503200  0.42693300  1
  O  O112  1  0.09744300  0.46625500  0.07093100  1
  O  O113  1  0.90255700  0.96625500  0.42906900  1
  O  O114  1  0.90255700  0.53374500  0.92906900  1
  O  O115  1  0.09744300  0.03374500  0.57093100  1
  O  O116  1  0.21651100  0.60497600  0.16454300  1
  O  O117  1  0.78348900  0.10497600  0.33545700  1
  O  O118  1  0.78348900  0.39502400  0.83545700  1
  O  O119  1  0.21651100  0.89502400  0.66454300  1
  O  O120  1  0.04687200  0.59458100  0.16944200  1
  O  O121  1  0.95312800  0.09458100  0.33055800  1
  O  O122  1  0.95312800  0.40541900  0.83055800  1
  O  O123  1  0.04687200  0.90541900  0.66944200  1
  O  O124  1  0.08674900  0.75379000  0.07610700  1
  O  O125  1  0.91325100  0.25379000  0.42389300  1
  O  O126  1  0.91325100  0.24621000  0.92389300  1
  O  O127  1  0.08674900  0.74621000  0.57610700  1
  O  O128  1  0.39981500  0.49115000  0.18473000  1
  O  O129  1  0.60018500  0.99115000  0.31527000  1
  O  O130  1  0.60018500  0.50885000  0.81527000  1
  O  O131  1  0.39981500  0.00885000  0.68473000  1
  O  O132  1  0.39880500  0.21299600  0.17632100  1
  O  O133  1  0.60119500  0.71299600  0.32367900  1
  O  O134  1  0.60119500  0.78700400  0.82367900  1
  O  O135  1  0.39880500  0.28700400  0.67632100  1
  O  O136  1  0.55764000  0.34988900  0.20799500  1
  O  O137  1  0.44236000  0.84988900  0.29200500  1
  O  O138  1  0.44236000  0.65011100  0.79200500  1
  O  O139  1  0.55764000  0.15011100  0.70799500  1
  O  O140  1  0.46706800  0.34171000  0.29681400  1
  O  O141  1  0.53293200  0.84171000  0.20318600  1
  O  O142  1  0.53293200  0.65829000  0.70318600  1
  O  O143  1  0.46706800  0.15829000  0.79681400  1
  O  O144  1  0.50039400  0.89182500  0.95811400  1
  O  O145  1  0.49960600  0.39182500  0.54188600  1
  O  O146  1  0.49960600  0.10817500  0.04188600  1
  O  O147  1  0.50039400  0.60817500  0.45811400  1
  O  O148  1  0.15075400  0.73671700  0.80404900  1
  O  O149  1  0.84924600  0.23671700  0.69595100  1
  O  O150  1  0.84924600  0.26328300  0.19595100  1
  O  O151  1  0.15075400  0.76328300  0.30404900  1
