# generated using pymatgen
data_CsPrCdSe3
_symmetry_space_group_name_H-M   'P 1'
_cell_length_a   8.48594976
_cell_length_b   8.48594976
_cell_length_c   11.55323900
_cell_angle_alpha   90.00000000
_cell_angle_beta   90.00000000
_cell_angle_gamma   149.70878597
_symmetry_Int_Tables_number   1
_chemical_formula_structural   CsPrCdSe3
_chemical_formula_sum   'Cs2 Pr2 Cd2 Se6'
_cell_volume   419.63879690
_cell_formula_units_Z   2
loop_
 _symmetry_equiv_pos_site_id
 _symmetry_equiv_pos_as_xyz
  1  'x, y, z'
loop_
 _atom_site_type_symbol
 _atom_site_label
 _atom_site_symmetry_multiplicity
 _atom_site_fract_x
 _atom_site_fract_y
 _atom_site_fract_z
 _atom_site_occupancy
  Cs  Cs0  1  0.74493500  0.25506500  0.25000000  1
  Cs  Cs1  1  0.25506500  0.74493500  0.75000000  1
  Pr  Pr2  1  0.00000000  0.00000000  0.50000000  1
  Pr  Pr3  1  0.00000000  0.00000000  0.00000000  1
  Cd  Cd4  1  0.53665300  0.46334700  0.75000000  1
  Cd  Cd5  1  0.46334700  0.53665300  0.25000000  1
  Se  Se6  1  0.61946500  0.38053500  0.55419600  1
  Se  Se7  1  0.38053500  0.61946500  0.44580400  1
  Se  Se8  1  0.38053500  0.61946500  0.05419600  1
  Se  Se9  1  0.93811700  0.06188300  0.75000000  1
  Se  Se10  1  0.06188300  0.93811700  0.25000000  1
  Se  Se11  1  0.61946500  0.38053500  0.94580400  1
