# generated using pymatgen
data_CaCrP2O7
_symmetry_space_group_name_H-M   'P 1'
_cell_length_a   6.19081336
_cell_length_b   6.60707231
_cell_length_c   14.76285364
_cell_angle_alpha   81.98964282
_cell_angle_beta   88.26872102
_cell_angle_gamma   68.61530693
_symmetry_Int_Tables_number   1
_chemical_formula_structural   CaCrP2O7
_chemical_formula_sum   'Ca4 Cr4 P8 O28'
_cell_volume   556.64918921
_cell_formula_units_Z   4
loop_
 _symmetry_equiv_pos_site_id
 _symmetry_equiv_pos_as_xyz
  1  'x, y, z'
loop_
 _atom_site_type_symbol
 _atom_site_label
 _atom_site_symmetry_multiplicity
 _atom_site_fract_x
 _atom_site_fract_y
 _atom_site_fract_z
 _atom_site_occupancy
  Ca  Ca0  1  0.29680600  0.71324500  0.31784200  1
  Ca  Ca1  1  0.29680300  0.71325300  0.81784100  1
  Ca  Ca2  1  0.70320200  0.28674400  0.18215900  1
  Ca  Ca3  1  0.70318900  0.28675300  0.68216000  1
  Cr  Cr4  1  0.26781200  0.12520200  0.58569200  1
  Cr  Cr5  1  0.73219000  0.87479700  0.91430500  1
  Cr  Cr6  1  0.26781500  0.12520900  0.08569800  1
  Cr  Cr7  1  0.73218800  0.87480100  0.41429300  1
  P  P8  1  0.16499500  0.65828000  0.05895300  1
  P  P9  1  0.16501300  0.65828200  0.55895700  1
  P  P10  1  0.83500400  0.34172200  0.44104600  1
  P  P11  1  0.83498400  0.34172300  0.94104300  1
  P  P12  1  0.23511500  0.21894100  0.31052500  1
  P  P13  1  0.23511200  0.21891800  0.81052000  1
  P  P14  1  0.76488400  0.78105900  0.18947500  1
  P  P15  1  0.76489000  0.78108300  0.68948000  1
  O  O16  1  0.07574600  0.73499300  0.45873200  1
  O  O17  1  0.07575000  0.73499300  0.95873200  1
  O  O18  1  0.92425100  0.26500900  0.04127200  1
  O  O19  1  0.92424600  0.26501300  0.54126800  1
  O  O20  1  0.25317800  0.81464900  0.09839300  1
  O  O21  1  0.25317800  0.81463800  0.59838400  1
  O  O22  1  0.74681600  0.18534700  0.40160900  1
  O  O23  1  0.74681600  0.18535600  0.90161200  1
  O  O24  1  0.33622700  0.41943800  0.07228300  1
  O  O25  1  0.33622100  0.41945200  0.57227500  1
  O  O26  1  0.66376500  0.58056600  0.42771900  1
  O  O27  1  0.66377700  0.58054900  0.92772200  1
  O  O28  1  0.63849200  0.62907200  0.22636200  1
  O  O29  1  0.63848500  0.62905900  0.72636300  1
  O  O30  1  0.36151500  0.37093200  0.27364200  1
  O  O31  1  0.36151200  0.37093200  0.77364100  1
  O  O32  1  0.09899800  0.16525500  0.23863900  1
  O  O33  1  0.09902000  0.16525800  0.73864400  1
  O  O34  1  0.90099800  0.83474000  0.26136200  1
  O  O35  1  0.90098200  0.83474400  0.76135900  1
  O  O36  1  0.06193600  0.35128700  0.38388600  1
  O  O37  1  0.06193200  0.35128800  0.88388800  1
  O  O38  1  0.93807200  0.64870800  0.11611300  1
  O  O39  1  0.93808200  0.64870200  0.61610900  1
  O  O40  1  0.60363400  0.99999400  0.13564100  1
  O  O41  1  0.60364700  0.99998400  0.63564400  1
  O  O42  1  0.39636700  0.00000500  0.36435900  1
  O  O43  1  0.39636200  0.00001500  0.86435800  1
