# generated using pymatgen
data_K3(CuO2)2
_symmetry_space_group_name_H-M   'P 1'
_cell_length_a   5.52290557
_cell_length_b   5.52290557
_cell_length_c   10.98477700
_cell_angle_alpha   90.00000000
_cell_angle_beta   90.00000000
_cell_angle_gamma   111.48344415
_symmetry_Int_Tables_number   1
_chemical_formula_structural   K3(CuO2)2
_chemical_formula_sum   'K6 Cu4 O8'
_cell_volume   311.78397778
_cell_formula_units_Z   2
loop_
 _symmetry_equiv_pos_site_id
 _symmetry_equiv_pos_as_xyz
  1  'x, y, z'
loop_
 _atom_site_type_symbol
 _atom_site_label
 _atom_site_symmetry_multiplicity
 _atom_site_fract_x
 _atom_site_fract_y
 _atom_site_fract_z
 _atom_site_occupancy
  K  K0  1  0.65425900  0.34574100  0.56953200  1
  K  K1  1  0.34574100  0.65425900  0.43046800  1
  K  K2  1  0.65425900  0.34574100  0.93046800  1
  K  K3  1  0.34574100  0.65425900  0.06953200  1
  K  K4  1  0.30631000  0.69369000  0.75000000  1
  K  K5  1  0.69369000  0.30631000  0.25000000  1
  Cu  Cu6  1  0.00000000  0.00000000  0.50000000  1
  Cu  Cu7  1  0.00000000  0.00000000  0.00000000  1
  Cu  Cu8  1  0.93812900  0.06187100  0.75000000  1
  Cu  Cu9  1  0.06187100  0.93812900  0.25000000  1
  O  O10  1  0.85928600  0.73431600  0.38195600  1
  O  O11  1  0.73431600  0.85928600  0.61804400  1
  O  O12  1  0.85928600  0.73431600  0.11804400  1
  O  O13  1  0.73431600  0.85928600  0.88195600  1
  O  O14  1  0.14071400  0.26568400  0.61804400  1
  O  O15  1  0.26568400  0.14071400  0.38195600  1
  O  O16  1  0.14071400  0.26568400  0.88195600  1
  O  O17  1  0.26568400  0.14071400  0.11804400  1
