# generated using pymatgen
data_Ba2LiAl(CN2)4
_symmetry_space_group_name_H-M   'P 1'
_cell_length_a   6.97114700
_cell_length_b   11.93493200
_cell_length_c   12.10134000
_cell_angle_alpha   90.00000000
_cell_angle_beta   90.00000000
_cell_angle_gamma   90.00000000
_symmetry_Int_Tables_number   1
_chemical_formula_structural   Ba2LiAl(CN2)4
_chemical_formula_sum   'Ba8 Li4 Al4 C16 N32'
_cell_volume   1006.83348965
_cell_formula_units_Z   4
loop_
 _symmetry_equiv_pos_site_id
 _symmetry_equiv_pos_as_xyz
  1  'x, y, z'
loop_
 _atom_site_type_symbol
 _atom_site_label
 _atom_site_symmetry_multiplicity
 _atom_site_fract_x
 _atom_site_fract_y
 _atom_site_fract_z
 _atom_site_occupancy
  Ba  Ba0  1  0.71453300  0.62122300  0.90681600  1
  Ba  Ba1  1  0.78546700  0.37877700  0.40681600  1
  Ba  Ba2  1  0.21453300  0.87877700  0.09318400  1
  Ba  Ba3  1  0.28546700  0.12122300  0.59318400  1
  Ba  Ba4  1  0.70599300  0.12207400  0.08646300  1
  Ba  Ba5  1  0.79400700  0.87792600  0.58646300  1
  Ba  Ba6  1  0.20599300  0.37792600  0.91353700  1
  Ba  Ba7  1  0.29400700  0.62207400  0.41353700  1
  Li  Li8  1  0.46732900  0.37522000  0.16990200  1
  Li  Li9  1  0.03267100  0.62478000  0.66990200  1
  Li  Li10  1  0.96732900  0.12478000  0.83009800  1
  Li  Li11  1  0.53267100  0.87522000  0.33009800  1
  Al  Al12  1  0.97299500  0.62161700  0.16756300  1
  Al  Al13  1  0.52700500  0.37838300  0.66756300  1
  Al  Al14  1  0.47299500  0.87838300  0.83243700  1
  Al  Al15  1  0.02700500  0.12161700  0.33243700  1
  C  C16  1  0.78147400  0.67163900  0.35740800  1
  C  C17  1  0.71852600  0.32836100  0.85740800  1
  C  C18  1  0.28147400  0.82836100  0.64259200  1
  C  C19  1  0.21852600  0.17163900  0.14259200  1
  C  C20  1  0.84059400  0.41814500  0.12340900  1
  C  C21  1  0.65940600  0.58185500  0.62340900  1
  C  C22  1  0.34059400  0.08185500  0.87659100  1
  C  C23  1  0.15940600  0.91814500  0.37659100  1
  C  C24  1  0.34035400  0.57680400  0.11144900  1
  C  C25  1  0.15964600  0.42319600  0.61144900  1
  C  C26  1  0.84035400  0.92319600  0.88855100  1
  C  C27  1  0.65964600  0.07680400  0.38855100  1
  C  C28  1  0.73639700  0.81839700  0.13582200  1
  C  C29  1  0.76360300  0.18160300  0.63582200  1
  C  C30  1  0.23639700  0.68160300  0.86417800  1
  C  C31  1  0.26360300  0.31839700  0.36417800  1
  N  N32  1  0.85575200  0.74586500  0.10521400  1
  N  N33  1  0.64424800  0.25413500  0.60521400  1
  N  N34  1  0.35575200  0.75413500  0.89478600  1
  N  N35  1  0.14424800  0.24586500  0.39478600  1
  N  N36  1  0.23657600  0.64262000  0.16610800  1
  N  N37  1  0.26342400  0.35738000  0.66610800  1
  N  N38  1  0.73657600  0.85738000  0.83389200  1
  N  N39  1  0.76342400  0.14262000  0.33389200  1
  N  N40  1  0.92635500  0.49818400  0.07719200  1
  N  N41  1  0.57364500  0.50181600  0.57719200  1
  N  N42  1  0.42635500  0.00181600  0.92280800  1
  N  N43  1  0.07364500  0.99818400  0.42280800  1
  N  N44  1  0.89269300  0.60132700  0.31316200  1
  N  N45  1  0.60730700  0.39867300  0.81316200  1
  N  N46  1  0.39269300  0.89867300  0.68683800  1
  N  N47  1  0.10730700  0.10132700  0.18683800  1
  N  N48  1  0.67230500  0.73725400  0.40147100  1
  N  N49  1  0.82769500  0.26274600  0.90147100  1
  N  N50  1  0.17230500  0.76274600  0.59852900  1
  N  N51  1  0.32769500  0.23725400  0.09852900  1
  N  N52  1  0.44165700  0.51262900  0.05954700  1
  N  N53  1  0.05834300  0.48737100  0.55954700  1
  N  N54  1  0.94165700  0.98737100  0.94045300  1
  N  N55  1  0.55834300  0.01262900  0.44045300  1
  N  N56  1  0.75863600  0.34149800  0.16922000  1
  N  N57  1  0.74136400  0.65850200  0.66922000  1
  N  N58  1  0.25863600  0.15850200  0.83078000  1
  N  N59  1  0.24136400  0.84149800  0.33078000  1
  N  N60  1  0.62311600  0.89138900  0.16206400  1
  N  N61  1  0.87688400  0.10861100  0.66206400  1
  N  N62  1  0.12311600  0.60861100  0.83793600  1
  N  N63  1  0.37688400  0.39138900  0.33793600  1
