# generated using pymatgen
data_Er6Si11N20O
_symmetry_space_group_name_H-M   'P 1'
_cell_length_a   9.83235370
_cell_length_b   9.83235370
_cell_length_c   10.67765300
_cell_angle_alpha   90.00000000
_cell_angle_beta   90.00000000
_cell_angle_gamma   119.99999800
_symmetry_Int_Tables_number   1
_chemical_formula_structural   Er6Si11N20O
_chemical_formula_sum   'Er12 Si22 N40 O2'
_cell_volume   893.96688162
_cell_formula_units_Z   2
loop_
 _symmetry_equiv_pos_site_id
 _symmetry_equiv_pos_as_xyz
  1  'x, y, z'
loop_
 _atom_site_type_symbol
 _atom_site_label
 _atom_site_symmetry_multiplicity
 _atom_site_fract_x
 _atom_site_fract_y
 _atom_site_fract_z
 _atom_site_occupancy
  Er  Er0  1  0.12867700  0.26223100  0.17412100  1
  Er  Er1  1  0.13355300  0.87132300  0.17412100  1
  Er  Er2  1  0.73776900  0.86644700  0.17412100  1
  Er  Er3  1  0.86644700  0.73776900  0.67412100  1
  Er  Er4  1  0.26223100  0.12867700  0.67412100  1
  Er  Er5  1  0.87132300  0.13355300  0.67412100  1
  Er  Er6  1  0.20318100  0.40054600  0.50036300  1
  Er  Er7  1  0.19736500  0.79681900  0.50036300  1
  Er  Er8  1  0.59945400  0.80263500  0.50036300  1
  Er  Er9  1  0.80263500  0.59945400  0.00036300  1
  Er  Er10  1  0.40054600  0.20318100  0.00036300  1
  Er  Er11  1  0.79681900  0.19736500  0.00036300  1
  Si  Si12  1  0.00000000  0.00000000  0.43381600  1
  Si  Si13  1  0.00000000  0.00000000  0.93381600  1
  Si  Si14  1  0.53610700  0.01044400  0.24546900  1
  Si  Si15  1  0.47433700  0.46389300  0.24546900  1
  Si  Si16  1  0.98955600  0.52566300  0.24546900  1
  Si  Si17  1  0.52566300  0.98955600  0.74546900  1
  Si  Si18  1  0.01044400  0.53610700  0.74546900  1
  Si  Si19  1  0.46389300  0.47433700  0.74546900  1
  Si  Si20  1  0.13188700  0.57376300  0.00725400  1
  Si  Si21  1  0.44187600  0.86811300  0.00725400  1
  Si  Si22  1  0.42623700  0.55812400  0.00725400  1
  Si  Si23  1  0.55812400  0.42623700  0.50725400  1
  Si  Si24  1  0.57376300  0.13188700  0.50725400  1
  Si  Si25  1  0.86811300  0.44187600  0.50725400  1
  Si  Si26  1  0.33333300  0.66666700  0.30841600  1
  Si  Si27  1  0.66666700  0.33333300  0.80841600  1
  Si  Si28  1  0.34122900  0.15798500  0.35682300  1
  Si  Si29  1  0.81675600  0.65877100  0.35682300  1
  Si  Si30  1  0.84201500  0.18324400  0.35682300  1
  Si  Si31  1  0.18324400  0.84201500  0.85682300  1
  Si  Si32  1  0.15798500  0.34122900  0.85682300  1
  Si  Si33  1  0.65877100  0.81675600  0.85682300  1
  N  N34  1  0.01451900  0.17593700  0.37715500  1
  N  N35  1  0.16141800  0.98548100  0.37715500  1
  N  N36  1  0.82406300  0.83858200  0.37715500  1
  N  N37  1  0.83858200  0.82406300  0.87715500  1
  N  N38  1  0.17593700  0.01451900  0.87715500  1
  N  N39  1  0.98548100  0.16141800  0.87715500  1
  N  N40  1  0.36545500  0.25773800  0.21507500  1
  N  N41  1  0.89228300  0.63454500  0.21507500  1
  N  N42  1  0.74226200  0.10771700  0.21507500  1
  N  N43  1  0.10771700  0.74226200  0.71507500  1
  N  N44  1  0.25773800  0.36545500  0.71507500  1
  N  N45  1  0.63454500  0.89228300  0.71507500  1
  N  N46  1  0.00000000  0.00000000  0.09752100  1
  N  N47  1  0.00000000  0.00000000  0.59752100  1
  N  N48  1  0.33333300  0.66666700  0.04289200  1
  N  N49  1  0.66666700  0.33333300  0.54289200  1
  N  N50  1  0.31502600  0.48605400  0.28910000  1
  N  N51  1  0.17102800  0.68497400  0.28910000  1
  N  N52  1  0.51394600  0.82897200  0.28910000  1
  N  N53  1  0.82897200  0.51394600  0.78910000  1
  N  N54  1  0.48605400  0.31502600  0.78910000  1
  N  N55  1  0.68497400  0.17102800  0.78910000  1
  N  N56  1  0.36448400  0.27714500  0.48705800  1
  N  N57  1  0.91266200  0.63551600  0.48705800  1
  N  N58  1  0.72285500  0.08733800  0.48705800  1
  N  N59  1  0.08733800  0.72285500  0.98705800  1
  N  N60  1  0.27714500  0.36448400  0.98705800  1
  N  N61  1  0.63551600  0.91266200  0.98705800  1
  N  N62  1  0.47986800  0.09588000  0.36269100  1
  N  N63  1  0.61601200  0.52013200  0.36269100  1
  N  N64  1  0.90412000  0.38398800  0.36269100  1
  N  N65  1  0.38398800  0.90412000  0.86269100  1
  N  N66  1  0.09588000  0.47986800  0.86269100  1
  N  N67  1  0.52013200  0.61601200  0.86269100  1
  N  N68  1  0.00819300  0.42973300  0.11333300  1
  N  N69  1  0.42154000  0.99180700  0.11333300  1
  N  N70  1  0.57026700  0.57846000  0.11333300  1
  N  N71  1  0.57846000  0.57026700  0.61333300  1
  N  N72  1  0.42973300  0.00819300  0.61333300  1
  N  N73  1  0.99180700  0.42154000  0.61333300  1
  O  O74  1  0.33333300  0.66666700  0.47909700  1
  O  O75  1  0.66666700  0.33333300  0.97909700  1
