# generated using pymatgen
data_TmZnSn
_symmetry_space_group_name_H-M   'P 1'
_cell_length_a   4.51420730
_cell_length_b   4.51420730
_cell_length_c   15.32210000
_cell_angle_alpha   90.00000000
_cell_angle_beta   90.00000000
_cell_angle_gamma   119.99998977
_symmetry_Int_Tables_number   1
_chemical_formula_structural   TmZnSn
_chemical_formula_sum   'Tm4 Zn4 Sn4'
_cell_volume   270.40328713
_cell_formula_units_Z   4
loop_
 _symmetry_equiv_pos_site_id
 _symmetry_equiv_pos_as_xyz
  1  'x, y, z'
loop_
 _atom_site_type_symbol
 _atom_site_label
 _atom_site_symmetry_multiplicity
 _atom_site_fract_x
 _atom_site_fract_y
 _atom_site_fract_z
 _atom_site_occupancy
  Tm  Tm0  1  0.00000000  0.00000000  0.25000000  1
  Tm  Tm1  1  0.00000000  0.00000000  0.75000000  1
  Tm  Tm2  1  0.00000000  0.00000000  0.00000000  1
  Tm  Tm3  1  0.00000000  0.00000000  0.50000000  1
  Zn  Zn4  1  0.33333300  0.66666700  0.15933100  1
  Zn  Zn5  1  0.66666700  0.33333300  0.84066900  1
  Zn  Zn6  1  0.66666700  0.33333300  0.65933100  1
  Zn  Zn7  1  0.33333300  0.66666700  0.34066900  1
  Sn  Sn8  1  0.33333300  0.66666700  0.61081900  1
  Sn  Sn9  1  0.66666700  0.33333300  0.38918100  1
  Sn  Sn10  1  0.66666700  0.33333300  0.11081900  1
  Sn  Sn11  1  0.33333300  0.66666700  0.88918100  1
