# generated using pymatgen
data_AlV2O4
_symmetry_space_group_name_H-M   'P 1'
_cell_length_a   5.90758603
_cell_length_b   5.96036862
_cell_length_c   5.88146275
_cell_angle_alpha   60.89190383
_cell_angle_beta   60.58295468
_cell_angle_gamma   59.64935863
_symmetry_Int_Tables_number   1
_chemical_formula_structural   AlV2O4
_chemical_formula_sum   'Al2 V4 O8'
_cell_volume   147.64208941
_cell_formula_units_Z   2
loop_
 _symmetry_equiv_pos_site_id
 _symmetry_equiv_pos_as_xyz
  1  'x, y, z'
loop_
 _atom_site_type_symbol
 _atom_site_label
 _atom_site_symmetry_multiplicity
 _atom_site_fract_x
 _atom_site_fract_y
 _atom_site_fract_z
 _atom_site_occupancy
  Al  Al0  1  0.62898500  0.62103300  0.62222400  1
  Al  Al1  1  0.37099100  0.37895600  0.37779500  1
  V  V2  1  0.99999800  0.00000500  0.00000400  1
  V  V3  1  0.99999800  0.00000600  0.49999100  1
  V  V4  1  0.99996700  0.50003000  0.00000100  1
  V  V5  1  0.50002600  0.99997300  0.00000000  1
  O  O6  1  0.25368900  0.74746100  0.74449400  1
  O  O7  1  0.24437300  0.25809500  0.74741800  1
  O  O8  1  0.24991900  0.74654000  0.25692100  1
  O  O9  1  0.24396400  0.25726800  0.25197700  1
  O  O10  1  0.75565000  0.74189600  0.25260700  1
  O  O11  1  0.74629200  0.25255600  0.25550600  1
  O  O12  1  0.75009100  0.25345600  0.74307500  1
  O  O13  1  0.75605600  0.74272400  0.74798700  1
