# generated using pymatgen
data_Rb2GeS3
_symmetry_space_group_name_H-M   'P 1'
_cell_length_a   7.73421984
_cell_length_b   7.73421984
_cell_length_c   9.91373784
_cell_angle_alpha   58.68392875
_cell_angle_beta   58.68392875
_cell_angle_gamma   53.95887580
_symmetry_Int_Tables_number   1
_chemical_formula_structural   Rb2GeS3
_chemical_formula_sum   'Rb4 Ge2 S6'
_cell_volume   389.51196744
_cell_formula_units_Z   2
loop_
 _symmetry_equiv_pos_site_id
 _symmetry_equiv_pos_as_xyz
  1  'x, y, z'
loop_
 _atom_site_type_symbol
 _atom_site_label
 _atom_site_symmetry_multiplicity
 _atom_site_fract_x
 _atom_site_fract_y
 _atom_site_fract_z
 _atom_site_occupancy
  Rb  Rb0  1  0.08353300  0.08353300  0.63253300  1
  Rb  Rb1  1  0.91646700  0.91646700  0.36746700  1
  Rb  Rb2  1  0.68861900  0.68861900  0.18498000  1
  Rb  Rb3  1  0.31138100  0.31138100  0.81502000  1
  Ge  Ge4  1  0.38090800  0.38090800  0.18215000  1
  Ge  Ge5  1  0.61909200  0.61909200  0.81785000  1
  S  S6  1  0.61432300  0.61432300  0.60195300  1
  S  S7  1  0.38567700  0.38567700  0.39804700  1
  S  S8  1  0.79310800  0.79310800  0.77657900  1
  S  S9  1  0.74193000  0.25807000  0.00000000  1
  S  S10  1  0.25807000  0.74193000  0.00000000  1
  S  S11  1  0.20689200  0.20689200  0.22342100  1
