# generated using pymatgen
data_NaPr2IrO6
_symmetry_space_group_name_H-M   'P 1'
_cell_length_a   6.01083100
_cell_length_b   5.58127600
_cell_length_c   9.73556900
_cell_angle_alpha   55.84812002
_cell_angle_beta   90.00000000
_cell_angle_gamma   90.00000000
_symmetry_Int_Tables_number   1
_chemical_formula_structural   NaPr2IrO6
_chemical_formula_sum   'Na2 Pr4 Ir2 O12'
_cell_volume   270.28679722
_cell_formula_units_Z   2
loop_
 _symmetry_equiv_pos_site_id
 _symmetry_equiv_pos_as_xyz
  1  'x, y, z'
loop_
 _atom_site_type_symbol
 _atom_site_label
 _atom_site_symmetry_multiplicity
 _atom_site_fract_x
 _atom_site_fract_y
 _atom_site_fract_z
 _atom_site_occupancy
  Na  Na0  1  0.50000000  0.00000000  0.50000000  1
  Na  Na1  1  0.00000000  0.00000000  0.00000000  1
  Pr  Pr2  1  0.42692900  0.77432600  0.24677600  1
  Pr  Pr3  1  0.07307100  0.77432600  0.74677600  1
  Pr  Pr4  1  0.92692900  0.22567400  0.25322400  1
  Pr  Pr5  1  0.57307100  0.22567400  0.75322400  1
  Ir  Ir6  1  0.00000000  0.50000000  0.50000000  1
  Ir  Ir7  1  0.50000000  0.50000000  0.00000000  1
  O  O8  1  0.71900200  0.73016400  0.43360000  1
  O  O9  1  0.21900200  0.26983600  0.06640000  1
  O  O10  1  0.28099800  0.26983600  0.56640000  1
  O  O11  1  0.78099800  0.73016400  0.93360000  1
  O  O12  1  0.04735600  0.61451100  0.26753100  1
  O  O13  1  0.54735600  0.38548900  0.23246900  1
  O  O14  1  0.95264400  0.38548900  0.73246900  1
  O  O15  1  0.45264400  0.61451100  0.76753100  1
  O  O16  1  0.32520400  0.84634400  0.94826500  1
  O  O17  1  0.82520400  0.15365600  0.55173500  1
  O  O18  1  0.67479600  0.15365600  0.05173500  1
  O  O19  1  0.17479600  0.84634400  0.44826500  1
