# generated using pymatgen
data_Dy2Re3Si5
_symmetry_space_group_name_H-M   'P 1'
_cell_length_a   10.99953100
_cell_length_b   10.99953100
_cell_length_c   5.56028900
_cell_angle_alpha   90.00000000
_cell_angle_beta   90.00000000
_cell_angle_gamma   90.00000000
_symmetry_Int_Tables_number   1
_chemical_formula_structural   Dy2Re3Si5
_chemical_formula_sum   'Dy8 Re12 Si20'
_cell_volume   672.73759916
_cell_formula_units_Z   4
loop_
 _symmetry_equiv_pos_site_id
 _symmetry_equiv_pos_as_xyz
  1  'x, y, z'
loop_
 _atom_site_type_symbol
 _atom_site_label
 _atom_site_symmetry_multiplicity
 _atom_site_fract_x
 _atom_site_fract_y
 _atom_site_fract_z
 _atom_site_occupancy
  Dy  Dy0  1  0.57696600  0.73779800  0.50000000  1
  Dy  Dy1  1  0.42303400  0.26220200  0.50000000  1
  Dy  Dy2  1  0.07696600  0.76220200  0.00000000  1
  Dy  Dy3  1  0.92303400  0.23779800  0.00000000  1
  Dy  Dy4  1  0.26220200  0.57696600  0.50000000  1
  Dy  Dy5  1  0.73779800  0.42303400  0.50000000  1
  Dy  Dy6  1  0.23779800  0.07696600  0.00000000  1
  Dy  Dy7  1  0.76220200  0.92303400  0.00000000  1
  Re  Re8  1  0.87577600  0.85318100  0.50000000  1
  Re  Re9  1  0.12422400  0.14681900  0.50000000  1
  Re  Re10  1  0.37577600  0.64681900  0.00000000  1
  Re  Re11  1  0.62422400  0.35318100  0.00000000  1
  Re  Re12  1  0.14681900  0.87577600  0.50000000  1
  Re  Re13  1  0.85318100  0.12422400  0.50000000  1
  Re  Re14  1  0.35318100  0.37577600  0.00000000  1
  Re  Re15  1  0.64681900  0.62422400  0.00000000  1
  Re  Re16  1  0.50000000  0.00000000  0.25000000  1
  Re  Re17  1  0.00000000  0.50000000  0.75000000  1
  Re  Re18  1  0.00000000  0.50000000  0.25000000  1
  Re  Re19  1  0.50000000  0.00000000  0.75000000  1
  Si  Si20  1  0.67297500  0.17297500  0.25000000  1
  Si  Si21  1  0.32702500  0.82702500  0.25000000  1
  Si  Si22  1  0.17297500  0.32702500  0.75000000  1
  Si  Si23  1  0.82702500  0.67297500  0.75000000  1
  Si  Si24  1  0.82702500  0.67297500  0.25000000  1
  Si  Si25  1  0.17297500  0.32702500  0.25000000  1
  Si  Si26  1  0.67297500  0.17297500  0.75000000  1
  Si  Si27  1  0.32702500  0.82702500  0.75000000  1
  Si  Si28  1  0.50000000  0.50000000  0.25618200  1
  Si  Si29  1  0.00000000  0.00000000  0.75618200  1
  Si  Si30  1  0.50000000  0.50000000  0.74381800  1
  Si  Si31  1  0.00000000  0.00000000  0.24381800  1
  Si  Si32  1  0.68525800  0.97296600  0.50000000  1
  Si  Si33  1  0.31474200  0.02703400  0.50000000  1
  Si  Si34  1  0.18525800  0.52703400  0.00000000  1
  Si  Si35  1  0.81474200  0.47296600  0.00000000  1
  Si  Si36  1  0.02703400  0.68525800  0.50000000  1
  Si  Si37  1  0.97296600  0.31474200  0.50000000  1
  Si  Si38  1  0.47296600  0.18525800  0.00000000  1
  Si  Si39  1  0.52703400  0.81474200  0.00000000  1
