# generated using pymatgen
data_Zr6GeI14
_symmetry_space_group_name_H-M   'P 1'
_cell_length_a   10.96460491
_cell_length_b   10.96460491
_cell_length_c   13.25705800
_cell_angle_alpha   90.00000000
_cell_angle_beta   90.00000000
_cell_angle_gamma   95.93984748
_symmetry_Int_Tables_number   1
_chemical_formula_structural   Zr6GeI14
_chemical_formula_sum   'Zr12 Ge2 I28'
_cell_volume   1585.24050260
_cell_formula_units_Z   2
loop_
 _symmetry_equiv_pos_site_id
 _symmetry_equiv_pos_as_xyz
  1  'x, y, z'
loop_
 _atom_site_type_symbol
 _atom_site_label
 _atom_site_symmetry_multiplicity
 _atom_site_fract_x
 _atom_site_fract_y
 _atom_site_fract_z
 _atom_site_occupancy
  Zr  Zr0  1  0.95322500  0.18199600  0.11638600  1
  Zr  Zr1  1  0.04677500  0.81800400  0.88361400  1
  Zr  Zr2  1  0.54677500  0.31800400  0.61638600  1
  Zr  Zr3  1  0.68199600  0.45322500  0.38361400  1
  Zr  Zr4  1  0.45322500  0.68199600  0.38361400  1
  Zr  Zr5  1  0.31800400  0.54677500  0.61638600  1
  Zr  Zr6  1  0.81800400  0.04677500  0.88361400  1
  Zr  Zr7  1  0.18199600  0.95322500  0.11638600  1
  Zr  Zr8  1  0.35480800  0.35480800  0.39381100  1
  Zr  Zr9  1  0.64519200  0.64519200  0.60618900  1
  Zr  Zr10  1  0.14519200  0.14519200  0.89381100  1
  Zr  Zr11  1  0.85480800  0.85480800  0.10618900  1
  Ge  Ge12  1  0.00000000  0.00000000  0.00000000  1
  Ge  Ge13  1  0.50000000  0.50000000  0.50000000  1
  I  I14  1  0.28361700  0.53582400  0.25199100  1
  I  I15  1  0.71638300  0.46417600  0.74800900  1
  I  I16  1  0.21638300  0.96417600  0.75199100  1
  I  I17  1  0.03582400  0.78361700  0.24800900  1
  I  I18  1  0.78361700  0.03582400  0.24800900  1
  I  I19  1  0.96417600  0.21638300  0.75199100  1
  I  I20  1  0.46417600  0.71638300  0.74800900  1
  I  I21  1  0.53582400  0.28361700  0.25199100  1
  I  I22  1  0.11667500  0.36552900  0.00930000  1
  I  I23  1  0.88332500  0.63447100  0.99070000  1
  I  I24  1  0.38332500  0.13447100  0.50930000  1
  I  I25  1  0.86552900  0.61667500  0.49070000  1
  I  I26  1  0.61667500  0.86552900  0.49070000  1
  I  I27  1  0.13447100  0.38332500  0.50930000  1
  I  I28  1  0.63447100  0.88332500  0.99070000  1
  I  I29  1  0.36552900  0.11667500  0.00930000  1
  I  I30  1  0.90192900  0.40192900  0.25000000  1
  I  I31  1  0.09807100  0.59807100  0.75000000  1
  I  I32  1  0.59807100  0.09807100  0.75000000  1
  I  I33  1  0.40192900  0.90192900  0.25000000  1
  I  I34  1  0.74873400  0.25126600  0.00000000  1
  I  I35  1  0.25126600  0.74873400  0.00000000  1
  I  I36  1  0.75126600  0.24873400  0.50000000  1
  I  I37  1  0.24873400  0.75126600  0.50000000  1
  I  I38  1  0.15291800  0.15291800  0.26541000  1
  I  I39  1  0.84708200  0.84708200  0.73459000  1
  I  I40  1  0.34708200  0.34708200  0.76541000  1
  I  I41  1  0.65291800  0.65291800  0.23459000  1
