# generated using pymatgen
data_Li3In2(PO4)3
_symmetry_space_group_name_H-M   'P 1'
_cell_length_a   9.00054800
_cell_length_b   8.70171700
_cell_length_c   15.19617268
_cell_angle_alpha   55.03585534
_cell_angle_beta   90.00000000
_cell_angle_gamma   90.00000000
_symmetry_Int_Tables_number   1
_chemical_formula_structural   Li3In2(PO4)3
_chemical_formula_sum   'Li12 In8 P12 O48'
_cell_volume   975.35523990
_cell_formula_units_Z   4
loop_
 _symmetry_equiv_pos_site_id
 _symmetry_equiv_pos_as_xyz
  1  'x, y, z'
loop_
 _atom_site_type_symbol
 _atom_site_label
 _atom_site_symmetry_multiplicity
 _atom_site_fract_x
 _atom_site_fract_y
 _atom_site_fract_z
 _atom_site_occupancy
  Li  Li0  1  0.21786900  0.35934400  0.82015400  1
  Li  Li1  1  0.71786900  0.64065600  0.67984600  1
  Li  Li2  1  0.78213100  0.64065600  0.17984600  1
  Li  Li3  1  0.28213100  0.35934400  0.32015400  1
  Li  Li4  1  0.98770100  0.58673100  0.84848700  1
  Li  Li5  1  0.48770100  0.41326900  0.65151300  1
  Li  Li6  1  0.01229900  0.41326900  0.15151300  1
  Li  Li7  1  0.51229900  0.58673100  0.34848700  1
  Li  Li8  1  0.91398900  0.77013500  0.31443700  1
  Li  Li9  1  0.41398900  0.22986500  0.18556300  1
  Li  Li10  1  0.08601100  0.22986500  0.68556300  1
  Li  Li11  1  0.58601100  0.77013500  0.81443700  1
  In  In12  1  0.03812500  0.65629300  0.60288000  1
  In  In13  1  0.53812500  0.34370700  0.89712000  1
  In  In14  1  0.96187500  0.34370700  0.39712000  1
  In  In15  1  0.46187500  0.65629300  0.10288000  1
  In  In16  1  0.96890700  0.13605000  0.10165300  1
  In  In17  1  0.46890700  0.86395000  0.39834700  1
  In  In18  1  0.03109300  0.86395000  0.89834700  1
  In  In19  1  0.53109300  0.13605000  0.60165300  1
  P  P20  1  0.24783200  0.46217900  0.99184600  1
  P  P21  1  0.74783200  0.53782100  0.50815400  1
  P  P22  1  0.75216800  0.53782100  0.00815400  1
  P  P23  1  0.25216800  0.46217900  0.49184600  1
  P  P24  1  0.12030600  0.04699600  0.34272900  1
  P  P25  1  0.62030600  0.95300400  0.15727100  1
  P  P26  1  0.87969400  0.95300400  0.65727100  1
  P  P27  1  0.37969400  0.04699600  0.84272900  1
  P  P28  1  0.89289700  0.27037100  0.84620400  1
  P  P29  1  0.39289700  0.72962900  0.65379600  1
  P  P30  1  0.10710300  0.72962900  0.15379600  1
  P  P31  1  0.60710300  0.27037100  0.34620400  1
  O  O32  1  0.79064800  0.93693600  0.18234900  1
  O  O33  1  0.29064800  0.06306400  0.31765100  1
  O  O34  1  0.20935200  0.06306400  0.81765100  1
  O  O35  1  0.70935200  0.93693600  0.68234900  1
  O  O36  1  0.92203100  0.74779100  0.69364400  1
  O  O37  1  0.42203100  0.25220900  0.80635600  1
  O  O38  1  0.07796900  0.25220900  0.30635600  1
  O  O39  1  0.57796900  0.74779100  0.19364400  1
  O  O40  1  0.83027200  0.35419600  0.09688600  1
  O  O41  1  0.33027200  0.64580400  0.40311400  1
  O  O42  1  0.16972800  0.64580400  0.90311400  1
  O  O43  1  0.66972800  0.35419600  0.59688600  1
  O  O44  1  0.12843100  0.48836800  0.55267600  1
  O  O45  1  0.62843100  0.51163200  0.94732400  1
  O  O46  1  0.87156900  0.51163200  0.44732400  1
  O  O47  1  0.37156900  0.48836800  0.05267600  1
  O  O48  1  0.00661200  0.36702100  0.75053800  1
  O  O49  1  0.50661200  0.63297900  0.74946200  1
  O  O50  1  0.99338800  0.63297900  0.24946200  1
  O  O51  1  0.49338800  0.36702100  0.25053800  1
  O  O52  1  0.23908800  0.63130000  0.69311700  1
  O  O53  1  0.73908800  0.36870000  0.80688300  1
  O  O54  1  0.76091200  0.36870000  0.30688300  1
  O  O55  1  0.26091200  0.63130000  0.19311700  1
  O  O56  1  0.95718900  0.31009500  0.92734400  1
  O  O57  1  0.45718900  0.68990500  0.57265600  1
  O  O58  1  0.04281100  0.68990500  0.07265600  1
  O  O59  1  0.54281100  0.31009500  0.42734400  1
  O  O60  1  0.02728400  0.99398600  0.27855500  1
  O  O61  1  0.52728400  0.00601400  0.22144500  1
  O  O62  1  0.97271600  0.00601400  0.72144500  1
  O  O63  1  0.47271600  0.99398600  0.77855500  1
  O  O64  1  0.81192400  0.63389000  0.56051200  1
  O  O65  1  0.31192400  0.36611000  0.93948800  1
  O  O66  1  0.18807600  0.36611000  0.43948800  1
  O  O67  1  0.68807600  0.63389000  0.06051200  1
  O  O68  1  0.11498300  0.94024700  0.10307500  1
  O  O69  1  0.61498300  0.05975300  0.39692500  1
  O  O70  1  0.88501700  0.05975300  0.89692500  1
  O  O71  1  0.38501700  0.94024700  0.60307500  1
  O  O72  1  0.13720800  0.32547100  0.08246200  1
  O  O73  1  0.63720800  0.67452900  0.41753800  1
  O  O74  1  0.86279200  0.67452900  0.91753800  1
  O  O75  1  0.36279200  0.32547100  0.58246200  1
  O  O76  1  0.09851300  0.91014000  0.46352200  1
  O  O77  1  0.59851300  0.08986000  0.03647800  1
  O  O78  1  0.90148700  0.08986000  0.53647800  1
  O  O79  1  0.40148700  0.91014000  0.96352200  1
