# generated using pymatgen
data_Pr3(TaN3)2
_symmetry_space_group_name_H-M   'P 1'
_cell_length_a   10.43380390
_cell_length_b   10.43380390
_cell_length_c   10.43380390
_cell_angle_alpha   157.53064962
_cell_angle_beta   157.53064962
_cell_angle_gamma   31.98700927
_symmetry_Int_Tables_number   1
_chemical_formula_structural   Pr3(TaN3)2
_chemical_formula_sum   'Pr3 Ta2 N6'
_cell_volume   165.78545868
_cell_formula_units_Z   1
loop_
 _symmetry_equiv_pos_site_id
 _symmetry_equiv_pos_as_xyz
  1  'x, y, z'
loop_
 _atom_site_type_symbol
 _atom_site_label
 _atom_site_symmetry_multiplicity
 _atom_site_fract_x
 _atom_site_fract_y
 _atom_site_fract_z
 _atom_site_occupancy
  Pr  Pr0  1  0.18051700  0.18051700  0.00000000  1
  Pr  Pr1  1  0.81948300  0.81948300  0.00000000  1
  Pr  Pr2  1  0.00000000  0.00000000  0.00000000  1
  Ta  Ta3  1  0.39958900  0.39958900  0.00000000  1
  Ta  Ta4  1  0.60041100  0.60041100  0.00000000  1
  N  N5  1  0.58474300  0.08474300  0.50000000  1
  N  N6  1  0.41525700  0.91525700  0.50000000  1
  N  N7  1  0.08474300  0.58474300  0.50000000  1
  N  N8  1  0.91525700  0.41525700  0.50000000  1
  N  N9  1  0.30190400  0.30190400  0.00000000  1
  N  N10  1  0.69809600  0.69809600  0.00000000  1
