# generated using pymatgen
data_Mg2VB2Ir5
_symmetry_space_group_name_H-M   'P 1'
_cell_length_a   9.51364000
_cell_length_b   9.51364000
_cell_length_c   2.92306500
_cell_angle_alpha   90.00000000
_cell_angle_beta   90.00000000
_cell_angle_gamma   90.00000000
_symmetry_Int_Tables_number   1
_chemical_formula_structural   Mg2VB2Ir5
_chemical_formula_sum   'Mg4 V2 B4 Ir10'
_cell_volume   264.56470161
_cell_formula_units_Z   2
loop_
 _symmetry_equiv_pos_site_id
 _symmetry_equiv_pos_as_xyz
  1  'x, y, z'
loop_
 _atom_site_type_symbol
 _atom_site_label
 _atom_site_symmetry_multiplicity
 _atom_site_fract_x
 _atom_site_fract_y
 _atom_site_fract_z
 _atom_site_occupancy
  Mg  Mg0  1  0.82406400  0.32406400  0.00000000  1
  Mg  Mg1  1  0.17593600  0.67593600  0.00000000  1
  Mg  Mg2  1  0.32406400  0.17593600  0.00000000  1
  Mg  Mg3  1  0.67593600  0.82406400  0.00000000  1
  V  V4  1  0.50000000  0.50000000  0.00000000  1
  V  V5  1  0.00000000  0.00000000  0.00000000  1
  B  B6  1  0.62379000  0.12379000  0.00000000  1
  B  B7  1  0.37621000  0.87621000  0.00000000  1
  B  B8  1  0.12379000  0.37621000  0.00000000  1
  B  B9  1  0.87621000  0.62379000  0.00000000  1
  Ir  Ir10  1  0.50000000  0.00000000  0.50000000  1
  Ir  Ir11  1  0.00000000  0.50000000  0.50000000  1
  Ir  Ir12  1  0.71358500  0.57209500  0.50000000  1
  Ir  Ir13  1  0.28641500  0.42790500  0.50000000  1
  Ir  Ir14  1  0.21358500  0.92790500  0.50000000  1
  Ir  Ir15  1  0.78641500  0.07209500  0.50000000  1
  Ir  Ir16  1  0.42790500  0.71358500  0.50000000  1
  Ir  Ir17  1  0.57209500  0.28641500  0.50000000  1
  Ir  Ir18  1  0.07209500  0.21358500  0.50000000  1
  Ir  Ir19  1  0.92790500  0.78641500  0.50000000  1
