# generated using pymatgen
data_BaAgSeF
_symmetry_space_group_name_H-M   'P 1'
_cell_length_a   4.41294300
_cell_length_b   4.41294300
_cell_length_c   9.52703800
_cell_angle_alpha   90.00000000
_cell_angle_beta   90.00000000
_cell_angle_gamma   90.00000000
_symmetry_Int_Tables_number   1
_chemical_formula_structural   BaAgSeF
_chemical_formula_sum   'Ba2 Ag2 Se2 F2'
_cell_volume   185.53016605
_cell_formula_units_Z   2
loop_
 _symmetry_equiv_pos_site_id
 _symmetry_equiv_pos_as_xyz
  1  'x, y, z'
loop_
 _atom_site_type_symbol
 _atom_site_label
 _atom_site_symmetry_multiplicity
 _atom_site_fract_x
 _atom_site_fract_y
 _atom_site_fract_z
 _atom_site_occupancy
  Ba  Ba0  1  0.00000000  0.50000000  0.83959600  1
  Ba  Ba1  1  0.50000000  0.00000000  0.16040400  1
  Ag  Ag2  1  0.50000000  0.50000000  0.50000000  1
  Ag  Ag3  1  0.00000000  0.00000000  0.50000000  1
  Se  Se4  1  0.00000000  0.50000000  0.31920600  1
  Se  Se5  1  0.50000000  0.00000000  0.68079400  1
  F  F6  1  0.50000000  0.50000000  0.00000000  1
  F  F7  1  0.00000000  0.00000000  0.00000000  1
