# generated using pymatgen
data_Ba16Zn9Ge80Pd3
_symmetry_space_group_name_H-M   'P 1'
_cell_length_a   10.93170242
_cell_length_b   10.92208333
_cell_length_c   21.80441300
_cell_angle_alpha   89.98148966
_cell_angle_beta   90.00004944
_cell_angle_gamma   90.00000063
_symmetry_Int_Tables_number   1
_chemical_formula_structural   Ba16Zn9Ge80Pd3
_chemical_formula_sum   'Ba16 Zn9 Ge80 Pd3'
_cell_volume   2603.38059606
_cell_formula_units_Z   1
loop_
 _symmetry_equiv_pos_site_id
 _symmetry_equiv_pos_as_xyz
  1  'x, y, z'
loop_
 _atom_site_type_symbol
 _atom_site_label
 _atom_site_symmetry_multiplicity
 _atom_site_fract_x
 _atom_site_fract_y
 _atom_site_fract_z
 _atom_site_occupancy
  Ba  Ba0  1  0.49999988  0.49888601  0.25043869  1
  Ba  Ba1  1  0.49999983  0.50008298  0.75046634  1
  Ba  Ba2  1  0.00000001  0.00039709  0.00055770  1
  Ba  Ba3  1  0.99999990  0.00047778  0.49839275  1
  Ba  Ba4  1  0.00000002  0.49607928  0.37217130  1
  Ba  Ba5  1  0.00000008  0.49990363  0.87553250  1
  Ba  Ba6  1  0.49999992  0.24535638  0.99956804  1
  Ba  Ba7  1  0.50000016  0.24537281  0.49643685  1
  Ba  Ba8  1  0.74984457  0.00351165  0.25193110  1
  Ba  Ba9  1  0.74547811  0.00006449  0.75192898  1
  Ba  Ba10  1  0.99999975  0.49648521  0.12790442  1
  Ba  Ba11  1  0.00000041  0.49974586  0.62438131  1
  Ba  Ba12  1  0.49999962  0.75468818  0.99895322  1
  Ba  Ba13  1  0.50000008  0.75449895  0.49720517  1
  Ba  Ba14  1  0.25015556  0.00351139  0.25193104  1
  Ba  Ba15  1  0.25452171  0.00006441  0.75192886  1
  Zn  Zn16  1  0.00000000  0.24951708  0.74963689  1
  Zn  Zn17  1  0.74974569  0.50026839  0.00032863  1
  Zn  Zn18  1  0.74983009  0.50020291  0.50034540  1
  Zn  Zn19  1  0.49999989  0.99958042  0.12511807  1
  Zn  Zn20  1  0.50000000  0.99994930  0.62509470  1
  Zn  Zn21  1  0.99999998  0.75029228  0.24972242  1
  Zn  Zn22  1  0.00000006  0.75067751  0.74961730  1
  Zn  Zn23  1  0.25025429  0.50026833  0.00032863  1
  Zn  Zn24  1  0.25016987  0.50020316  0.50034549  1
  Ge  Ge25  1  0.68356852  0.31762351  0.34173474  1
  Ge  Ge26  1  0.68383210  0.31635401  0.84130544  1
  Ge  Ge27  1  0.31713953  0.68374643  0.15799248  1
  Ge  Ge28  1  0.31690875  0.68406396  0.65801769  1
  Ge  Ge29  1  0.68286054  0.68374697  0.15799252  1
  Ge  Ge30  1  0.68309112  0.68406377  0.65801764  1
  Ge  Ge31  1  0.31643131  0.31762356  0.34173460  1
  Ge  Ge32  1  0.31616791  0.31635406  0.84130543  1
  Ge  Ge33  1  0.31642887  0.68347031  0.34137409  1
  Ge  Ge34  1  0.31611129  0.68371195  0.84130464  1
  Ge  Ge35  1  0.68288736  0.31706319  0.15772096  1
  Ge  Ge36  1  0.68313023  0.31590307  0.65808774  1
  Ge  Ge37  1  0.31711290  0.31706322  0.15772097  1
  Ge  Ge38  1  0.31686977  0.31590315  0.65808782  1
  Ge  Ge39  1  0.68357130  0.68347033  0.34137393  1
  Ge  Ge40  1  0.68388851  0.68371192  0.84130472  1
  Ge  Ge41  1  0.18376322  0.18355652  0.40885773  1
  Ge  Ge42  1  0.18334188  0.18369484  0.90851279  1
  Ge  Ge43  1  0.81657896  0.81642887  0.09190306  1
  Ge  Ge44  1  0.81613040  0.81710815  0.59209267  1
  Ge  Ge45  1  0.18342114  0.81642905  0.09190302  1
  Ge  Ge46  1  0.18386975  0.81710802  0.59209260  1
  Ge  Ge47  1  0.81623651  0.18355617  0.40885790  1
  Ge  Ge48  1  0.81665773  0.18369467  0.90851286  1
  Ge  Ge49  1  0.81611721  0.18246973  0.09178650  1
  Ge  Ge50  1  0.81616667  0.18296711  0.59216108  1
  Ge  Ge51  1  0.18318592  0.81565929  0.40866015  1
  Ge  Ge52  1  0.18345377  0.81632510  0.90852292  1
  Ge  Ge53  1  0.81681416  0.81565976  0.40866006  1
  Ge  Ge54  1  0.81654608  0.81632533  0.90852284  1
  Ge  Ge55  1  0.18388312  0.18247003  0.09178638  1
  Ge  Ge56  1  0.18383343  0.18296687  0.59216118  1
  Ge  Ge57  1  0.81591652  0.37816492  0.24987006  1
  Ge  Ge58  1  0.81125453  0.38192657  0.74989907  1
  Ge  Ge59  1  0.61859110  0.50028420  0.40551397  1
  Ge  Ge60  1  0.61859374  0.49996750  0.90508521  1
  Ge  Ge61  1  0.49999985  0.18472539  0.31143850  1
  Ge  Ge62  1  0.50000014  0.18452138  0.81098386  1
  Ge  Ge63  1  0.19001666  0.61620794  0.24985864  1
  Ge  Ge64  1  0.18879520  0.61807000  0.74986568  1
  Ge  Ge65  1  0.38285100  0.50026163  0.09442814  1
  Ge  Ge66  1  0.38268831  0.49988881  0.59493635  1
  Ge  Ge67  1  0.50000005  0.80920576  0.19177567  1
  Ge  Ge68  1  0.49999992  0.80907056  0.69173789  1
  Ge  Ge69  1  0.80998351  0.61620790  0.24985868  1
  Ge  Ge70  1  0.81120446  0.61806981  0.74986570  1
  Ge  Ge71  1  0.61714872  0.50026156  0.09442795  1
  Ge  Ge72  1  0.61731167  0.49988886  0.59493631  1
  Ge  Ge73  1  0.18408365  0.37816524  0.24987009  1
  Ge  Ge74  1  0.18874549  0.38192671  0.74989898  1
  Ge  Ge75  1  0.38140866  0.50028455  0.40551404  1
  Ge  Ge76  1  0.38140655  0.49996757  0.90508517  1
  Ge  Ge77  1  0.49999991  0.81566561  0.31080298  1
  Ge  Ge78  1  0.49999993  0.81566572  0.81100586  1
  Ge  Ge79  1  0.49999992  0.19093686  0.19116027  1
  Ge  Ge80  1  0.49999995  0.19088243  0.69169576  1
  Ge  Ge81  1  0.31581839  0.99989497  0.43916850  1
  Ge  Ge82  1  0.31554164  0.99996085  0.93868414  1
  Ge  Ge83  1  0.11831173  0.31109426  0.00003180  1
  Ge  Ge84  1  0.11822134  0.31114234  0.50023121  1
  Ge  Ge85  1  0.99999979  0.12249353  0.34242514  1
  Ge  Ge86  1  0.00000004  0.11883467  0.84479062  1
  Ge  Ge87  1  0.69055926  0.99971765  0.05804688  1
  Ge  Ge88  1  0.69057516  0.00003597  0.55868274  1
  Ge  Ge89  1  0.88233463  0.68874611  0.99984161  1
  Ge  Ge90  1  0.88237621  0.68871609  0.50047635  1
  Ge  Ge91  1  0.99999989  0.88435868  0.15452220  1
  Ge  Ge92  1  0.00000033  0.88262802  0.65513213  1
  Ge  Ge93  1  0.30944081  0.99971750  0.05804683  1
  Ge  Ge94  1  0.30942527  0.00003588  0.55868288  1
  Ge  Ge95  1  0.11766538  0.68874631  0.99984154  1
  Ge  Ge96  1  0.11762391  0.68871571  0.50047634  1
  Ge  Ge97  1  0.68418172  0.99989509  0.43916843  1
  Ge  Ge98  1  0.68445861  0.99996096  0.93868399  1
  Ge  Ge99  1  0.88168838  0.31109439  0.00003191  1
  Ge  Ge100  1  0.88177840  0.31114224  0.50023126  1
  Ge  Ge101  1  0.99999979  0.12112922  0.15766498  1
  Ge  Ge102  1  0.00000033  0.11748387  0.65525498  1
  Ge  Ge103  1  0.99999992  0.88290069  0.34549463  1
  Ge  Ge104  1  0.00000004  0.88130564  0.84476694  1
  Pd  Pd105  1  0.49999982  0.99950014  0.37516063  1
  Pd  Pd106  1  0.49999999  0.00006792  0.87492866  1
  Pd  Pd107  1  0.00000036  0.25008547  0.24968289  1
