# generated using pymatgen
data_K(USe3)2
_symmetry_space_group_name_H-M   'P 1'
_cell_length_a   11.57213026
_cell_length_b   11.57213026
_cell_length_c   11.57213026
_cell_angle_alpha   159.82870154
_cell_angle_beta   152.32303136
_cell_angle_gamma   34.48784951
_symmetry_Int_Tables_number   1
_chemical_formula_structural   K(USe3)2
_chemical_formula_sum   'K1 U2 Se6'
_cell_volume   247.96931896
_cell_formula_units_Z   1
loop_
 _symmetry_equiv_pos_site_id
 _symmetry_equiv_pos_as_xyz
  1  'x, y, z'
loop_
 _atom_site_type_symbol
 _atom_site_label
 _atom_site_symmetry_multiplicity
 _atom_site_fract_x
 _atom_site_fract_y
 _atom_site_fract_z
 _atom_site_occupancy
  K  K0  1  0.00000000  0.00000000  0.00000000  1
  U  U1  1  0.31892500  0.81892500  0.50000000  1
  U  U2  1  0.68107500  0.18107500  0.50000000  1
  Se  Se3  1  0.77391000  0.77391000  0.00000000  1
  Se  Se4  1  0.85447400  0.60802200  0.24645200  1
  Se  Se5  1  0.14552600  0.39197800  0.75354800  1
  Se  Se6  1  0.22609000  0.22609000  0.00000000  1
  Se  Se7  1  0.36157000  0.60802200  0.75354800  1
  Se  Se8  1  0.63843000  0.39197800  0.24645200  1
