# generated using pymatgen
data_Ca4Al6SO16
_symmetry_space_group_name_H-M   'P 1'
_cell_length_a   9.25465600
_cell_length_b   13.09727500
_cell_length_c   13.26663000
_cell_angle_alpha   90.00000000
_cell_angle_beta   90.00000000
_cell_angle_gamma   90.00000000
_symmetry_Int_Tables_number   1
_chemical_formula_structural   Ca4Al6SO16
_chemical_formula_sum   'Ca16 Al24 S4 O64'
_cell_volume   1608.05849946
_cell_formula_units_Z   4
loop_
 _symmetry_equiv_pos_site_id
 _symmetry_equiv_pos_as_xyz
  1  'x, y, z'
loop_
 _atom_site_type_symbol
 _atom_site_label
 _atom_site_symmetry_multiplicity
 _atom_site_fract_x
 _atom_site_fract_y
 _atom_site_fract_z
 _atom_site_occupancy
  Ca  Ca0  1  0.65195400  0.94318100  0.24922900  1
  Ca  Ca1  1  0.65195400  0.05681900  0.75077100  1
  Ca  Ca2  1  0.15195400  0.94318100  0.75077100  1
  Ca  Ca3  1  0.15195400  0.05681900  0.24922900  1
  Ca  Ca4  1  0.79249800  0.74661900  0.93557900  1
  Ca  Ca5  1  0.79249800  0.25338100  0.06442100  1
  Ca  Ca6  1  0.29249800  0.74661900  0.06442100  1
  Ca  Ca7  1  0.29249800  0.25338100  0.93557900  1
  Ca  Ca8  1  0.73977000  0.74170400  0.52432000  1
  Ca  Ca9  1  0.73977000  0.25829600  0.47568000  1
  Ca  Ca10  1  0.23977000  0.74170400  0.47568000  1
  Ca  Ca11  1  0.23977000  0.25829600  0.52432000  1
  Ca  Ca12  1  0.71898900  0.50912000  0.25404000  1
  Ca  Ca13  1  0.71898900  0.49088000  0.74596000  1
  Ca  Ca14  1  0.21898900  0.50912000  0.74596000  1
  Ca  Ca15  1  0.21898900  0.49088000  0.25404000  1
  Al  Al16  1  0.72894900  0.50000000  0.50000000  1
  Al  Al17  1  0.22894900  0.50000000  0.50000000  1
  Al  Al18  1  0.74511100  0.50000000  0.00000000  1
  Al  Al19  1  0.24511100  0.50000000  0.00000000  1
  Al  Al20  1  0.72429200  0.00000000  0.00000000  1
  Al  Al21  1  0.22429200  0.00000000  0.00000000  1
  Al  Al22  1  0.69931700  0.00000000  0.50000000  1
  Al  Al23  1  0.19931700  0.00000000  0.50000000  1
  Al  Al24  1  0.49154500  0.37316300  0.12095700  1
  Al  Al25  1  0.49154500  0.62683700  0.87904300  1
  Al  Al26  1  0.99154500  0.37316300  0.87904300  1
  Al  Al27  1  0.99154500  0.62683700  0.12095700  1
  Al  Al28  1  0.45221300  0.88028100  0.63014400  1
  Al  Al29  1  0.45221300  0.11971900  0.36985600  1
  Al  Al30  1  0.95221300  0.88028100  0.36985600  1
  Al  Al31  1  0.95221300  0.11971900  0.63014400  1
  Al  Al32  1  0.47722300  0.62961400  0.63125400  1
  Al  Al33  1  0.47722300  0.37038600  0.36874600  1
  Al  Al34  1  0.97722300  0.62961400  0.36874600  1
  Al  Al35  1  0.97722300  0.37038600  0.63125400  1
  Al  Al36  1  0.47223200  0.87761600  0.87828900  1
  Al  Al37  1  0.47223200  0.12238400  0.12171100  1
  Al  Al38  1  0.97223200  0.87761600  0.12171100  1
  Al  Al39  1  0.97223200  0.12238400  0.87828900  1
  S  S40  1  0.47008700  0.72311400  0.26561400  1
  S  S41  1  0.47008700  0.27688600  0.73438600  1
  S  S42  1  0.97008700  0.72311400  0.73438600  1
  S  S43  1  0.97008700  0.27688600  0.26561400  1
  O  O44  1  0.11042400  0.33025000  0.26514400  1
  O  O45  1  0.11042400  0.66975000  0.73485600  1
  O  O46  1  0.61042400  0.33025000  0.73485600  1
  O  O47  1  0.61042400  0.66975000  0.26514400  1
  O  O48  1  0.97819700  0.18521300  0.19677200  1
  O  O49  1  0.97819700  0.81478700  0.80322800  1
  O  O50  1  0.47819700  0.18521300  0.80322800  1
  O  O51  1  0.47819700  0.81478700  0.19677200  1
  O  O52  1  0.93697500  0.24195000  0.36973000  1
  O  O53  1  0.93697500  0.75805000  0.63027000  1
  O  O54  1  0.43697500  0.24195000  0.63027000  1
  O  O55  1  0.43697500  0.75805000  0.36973000  1
  O  O56  1  0.85165400  0.34305700  0.22536200  1
  O  O57  1  0.85165400  0.65694300  0.77463800  1
  O  O58  1  0.35165400  0.34305700  0.77463800  1
  O  O59  1  0.35165400  0.65694300  0.22536200  1
  O  O60  1  0.94352800  0.59023300  0.24473600  1
  O  O61  1  0.94352800  0.40976700  0.75526400  1
  O  O62  1  0.44352800  0.59023300  0.75526400  1
  O  O63  1  0.44352800  0.40976700  0.24473600  1
  O  O64  1  0.63863000  0.43151100  0.40552300  1
  O  O65  1  0.63863000  0.56848900  0.59447700  1
  O  O66  1  0.13863000  0.43151100  0.59447700  1
  O  O67  1  0.13863000  0.56848900  0.40552300  1
  O  O68  1  0.64457000  0.45055600  0.10060400  1
  O  O69  1  0.64457000  0.54944400  0.89939600  1
  O  O70  1  0.14457000  0.45055600  0.89939600  1
  O  O71  1  0.14457000  0.54944400  0.10060400  1
  O  O72  1  0.01727700  0.24291800  0.60458900  1
  O  O73  1  0.01727700  0.75708200  0.39541100  1
  O  O74  1  0.51727700  0.24291800  0.39541100  1
  O  O75  1  0.51727700  0.75708200  0.60458900  1
  O  O76  1  0.32180900  0.40293100  0.43672400  1
  O  O77  1  0.32180900  0.59706900  0.56327600  1
  O  O78  1  0.82180900  0.40293100  0.56327600  1
  O  O79  1  0.82180900  0.59706900  0.43672400  1
  O  O80  1  0.29584700  0.10463300  0.44666600  1
  O  O81  1  0.29584700  0.89536700  0.55333400  1
  O  O82  1  0.79584700  0.10463300  0.55333400  1
  O  O83  1  0.79584700  0.89536700  0.44666600  1
  O  O84  1  0.04889400  0.24531200  0.89639100  1
  O  O85  1  0.04889400  0.75468800  0.10360900  1
  O  O86  1  0.54889400  0.24531200  0.10360900  1
  O  O87  1  0.54889400  0.75468800  0.89639100  1
  O  O88  1  0.32797000  0.10901300  0.03461800  1
  O  O89  1  0.32797000  0.89098700  0.96538200  1
  O  O90  1  0.82797000  0.10901300  0.96538200  1
  O  O91  1  0.82797000  0.89098700  0.03461800  1
  O  O92  1  0.34495900  0.39187500  0.03933500  1
  O  O93  1  0.34495900  0.60812500  0.96066500  1
  O  O94  1  0.84495900  0.39187500  0.96066500  1
  O  O95  1  0.84495900  0.60812500  0.03933500  1
  O  O96  1  0.89718100  0.90356000  0.24347700  1
  O  O97  1  0.89718100  0.09644000  0.75652300  1
  O  O98  1  0.39718100  0.90356000  0.75652300  1
  O  O99  1  0.39718100  0.09644000  0.24347700  1
  O  O100  1  0.62016100  0.03659600  0.10719000  1
  O  O101  1  0.62016100  0.96340400  0.89281000  1
  O  O102  1  0.12016100  0.03659600  0.89281000  1
  O  O103  1  0.12016100  0.96340400  0.10719000  1
  O  O104  1  0.59863100  0.03757100  0.39289700  1
  O  O105  1  0.59863100  0.96242900  0.60710300  1
  O  O106  1  0.09863100  0.03757100  0.60710300  1
  O  O107  1  0.09863100  0.96242900  0.39289700  1
