# generated using pymatgen
data_Ce2Si5Ir3
_symmetry_space_group_name_H-M   'P 1'
_cell_length_a   8.19873794
_cell_length_b   8.19873794
_cell_length_c   8.19873794
_cell_angle_alpha   137.84942610
_cell_angle_beta   104.73369598
_cell_angle_gamma   90.24576896
_symmetry_Int_Tables_number   1
_chemical_formula_structural   Ce2Si5Ir3
_chemical_formula_sum   'Ce4 Si10 Ir6'
_cell_volume   341.52674996
_cell_formula_units_Z   2
loop_
 _symmetry_equiv_pos_site_id
 _symmetry_equiv_pos_as_xyz
  1  'x, y, z'
loop_
 _atom_site_type_symbol
 _atom_site_label
 _atom_site_symmetry_multiplicity
 _atom_site_fract_x
 _atom_site_fract_y
 _atom_site_fract_z
 _atom_site_occupancy
  Ce  Ce0  1  0.86182600  0.63157500  0.23025100  1
  Ce  Ce1  1  0.13817500  0.36842500  0.76974900  1
  Ce  Ce2  1  0.40132400  0.13157500  0.26974900  1
  Ce  Ce3  1  0.59867600  0.86842500  0.73025100  1
  Si  Si4  1  0.50000000  0.75000000  0.25000000  1
  Si  Si5  1  0.50000000  0.25000000  0.75000000  1
  Si  Si6  1  0.22656600  0.97656600  0.75000000  1
  Si  Si7  1  0.77343400  0.52343400  0.75000000  1
  Si  Si8  1  0.77343400  0.02343400  0.25000000  1
  Si  Si9  1  0.22656600  0.47656600  0.25000000  1
  Si  Si10  1  0.04590600  0.89278800  0.15311800  1
  Si  Si11  1  0.95409400  0.10721200  0.84688200  1
  Si  Si12  1  0.73967000  0.39278800  0.34688200  1
  Si  Si13  1  0.26033000  0.60721200  0.65311800  1
  Ir  Ir14  1  0.00000000  0.75000000  0.75000000  1
  Ir  Ir15  1  0.00000000  0.25000000  0.25000000  1
  Ir  Ir16  1  0.24706300  0.86104100  0.38602100  1
  Ir  Ir17  1  0.75293700  0.13895900  0.61397900  1
  Ir  Ir18  1  0.47502000  0.36104100  0.11397900  1
  Ir  Ir19  1  0.52498000  0.63895900  0.88602100  1
