# generated using pymatgen
data_NaGaGeO4
_symmetry_space_group_name_H-M   'P 1'
_cell_length_a   8.43683100
_cell_length_b   9.01812700
_cell_length_c   18.12287932
_cell_angle_alpha   60.43312918
_cell_angle_beta   90.00000000
_cell_angle_gamma   90.00000000
_symmetry_Int_Tables_number   1
_chemical_formula_structural   NaGaGeO4
_chemical_formula_sum   'Na12 Ga12 Ge12 O48'
_cell_volume   1199.31290265
_cell_formula_units_Z   12
loop_
 _symmetry_equiv_pos_site_id
 _symmetry_equiv_pos_as_xyz
  1  'x, y, z'
loop_
 _atom_site_type_symbol
 _atom_site_label
 _atom_site_symmetry_multiplicity
 _atom_site_fract_x
 _atom_site_fract_y
 _atom_site_fract_z
 _atom_site_occupancy
  Na  Na0  1  0.46983500  0.85192200  0.91367400  1
  Na  Na1  1  0.53016500  0.14807800  0.08632600  1
  Na  Na2  1  0.96983500  0.14807800  0.58632600  1
  Na  Na3  1  0.03016500  0.85192200  0.41367400  1
  Na  Na4  1  0.97450600  0.50137800  0.75243200  1
  Na  Na5  1  0.02549400  0.49862200  0.24756800  1
  Na  Na6  1  0.47450600  0.49862200  0.74756800  1
  Na  Na7  1  0.52549400  0.50137800  0.25243200  1
  Na  Na8  1  0.03201200  0.80049900  0.93039200  1
  Na  Na9  1  0.96798800  0.19950100  0.06960800  1
  Na  Na10  1  0.53201200  0.19950100  0.56960800  1
  Na  Na11  1  0.46798800  0.80049900  0.43039200  1
  Ga  Ga12  1  0.67109400  0.84479200  0.59072900  1
  Ga  Ga13  1  0.32890600  0.15520800  0.40927100  1
  Ga  Ga14  1  0.17109400  0.15520800  0.90927100  1
  Ga  Ga15  1  0.82890600  0.84479200  0.09072900  1
  Ga  Ga16  1  0.17207600  0.51972500  0.57943200  1
  Ga  Ga17  1  0.82792400  0.48027500  0.42056800  1
  Ga  Ga18  1  0.67207600  0.48027500  0.92056800  1
  Ga  Ga19  1  0.32792400  0.51972500  0.07943200  1
  Ga  Ga20  1  0.17224900  0.81995400  0.76145200  1
  Ga  Ga21  1  0.82775100  0.18004600  0.23854800  1
  Ga  Ga22  1  0.67224900  0.18004600  0.73854800  1
  Ga  Ga23  1  0.32775100  0.81995400  0.26145200  1
  Ge  Ge24  1  0.28368800  0.47324300  0.91950300  1
  Ge  Ge25  1  0.71631200  0.52675700  0.08049700  1
  Ge  Ge26  1  0.78368800  0.52675700  0.58049700  1
  Ge  Ge27  1  0.21631200  0.47324300  0.41950300  1
  Ge  Ge28  1  0.28198300  0.84407800  0.59179000  1
  Ge  Ge29  1  0.71801700  0.15592200  0.40821000  1
  Ge  Ge30  1  0.78198300  0.15592200  0.90821000  1
  Ge  Ge31  1  0.21801700  0.84407800  0.09179000  1
  Ge  Ge32  1  0.78486000  0.81489500  0.76459400  1
  Ge  Ge33  1  0.21514000  0.18510500  0.23540600  1
  Ge  Ge34  1  0.28486000  0.18510500  0.73540600  1
  Ge  Ge35  1  0.71514000  0.81489500  0.26459400  1
  O  O36  1  0.27643400  0.61152000  0.80823900  1
  O  O37  1  0.72356600  0.38848000  0.19176100  1
  O  O38  1  0.77643400  0.38848000  0.69176100  1
  O  O39  1  0.22356600  0.61152000  0.30823900  1
  O  O40  1  0.24015000  0.58953300  0.97250000  1
  O  O41  1  0.75985000  0.41046700  0.02750000  1
  O  O42  1  0.74015000  0.41046700  0.52750000  1
  O  O43  1  0.25985000  0.58953300  0.47250000  1
  O  O44  1  0.14656900  0.90799000  0.64574800  1
  O  O45  1  0.85343100  0.09201000  0.35425200  1
  O  O46  1  0.64656900  0.09201000  0.85425200  1
  O  O47  1  0.35343100  0.90799000  0.14574800  1
  O  O48  1  0.26413100  0.94472800  0.98192600  1
  O  O49  1  0.73586900  0.05527200  0.01807400  1
  O  O50  1  0.76413100  0.05527200  0.51807400  1
  O  O51  1  0.23586900  0.94472800  0.48192600  1
  O  O52  1  0.14904200  0.30058800  0.95368100  1
  O  O53  1  0.85095800  0.69941200  0.04631900  1
  O  O54  1  0.64904200  0.69941200  0.54631900  1
  O  O55  1  0.35095800  0.30058800  0.45368100  1
  O  O56  1  0.25897100  0.96195800  0.79804400  1
  O  O57  1  0.74102900  0.03804200  0.20195600  1
  O  O58  1  0.75897100  0.03804200  0.70195600  1
  O  O59  1  0.24102900  0.96195800  0.29804400  1
  O  O60  1  0.77223300  0.72892800  0.69509600  1
  O  O61  1  0.22776700  0.27107200  0.30490400  1
  O  O62  1  0.27223300  0.27107200  0.80490400  1
  O  O63  1  0.72776700  0.72892800  0.19509600  1
  O  O64  1  0.14900800  0.28558300  0.64964500  1
  O  O65  1  0.85099200  0.71441700  0.35035500  1
  O  O66  1  0.64900800  0.71441700  0.85035500  1
  O  O67  1  0.35099200  0.28558300  0.14964500  1
  O  O68  1  0.47038200  0.90510800  0.61050800  1
  O  O69  1  0.52961800  0.09489200  0.38949200  1
  O  O70  1  0.97038200  0.09489200  0.88949200  1
  O  O71  1  0.02961800  0.90510800  0.11050800  1
  O  O72  1  0.97358500  0.76322800  0.81318800  1
  O  O73  1  0.02641500  0.23677200  0.18681200  1
  O  O74  1  0.47358500  0.23677200  0.68681200  1
  O  O75  1  0.52641500  0.76322800  0.31318800  1
  O  O76  1  0.28115100  0.61969900  0.63297000  1
  O  O77  1  0.71884900  0.38030100  0.36703000  1
  O  O78  1  0.78115100  0.38030100  0.86703000  1
  O  O79  1  0.21884900  0.61969900  0.13297000  1
  O  O80  1  0.97303400  0.62296400  0.55383400  1
  O  O81  1  0.02696600  0.37703600  0.44616600  1
  O  O82  1  0.47303400  0.37703600  0.94616600  1
  O  O83  1  0.52696600  0.62296400  0.05383400  1
