# generated using pymatgen
data_Cu3PF12
_symmetry_space_group_name_H-M   'P 1'
_cell_length_a   6.58353037
_cell_length_b   6.58353112
_cell_length_c   6.58353100
_cell_angle_alpha   109.47121717
_cell_angle_beta   109.47121950
_cell_angle_gamma   109.47121944
_symmetry_Int_Tables_number   1
_chemical_formula_structural   Cu3PF12
_chemical_formula_sum   'Cu3 P1 F12'
_cell_volume   219.66191297
_cell_formula_units_Z   1
loop_
 _symmetry_equiv_pos_site_id
 _symmetry_equiv_pos_as_xyz
  1  'x, y, z'
loop_
 _atom_site_type_symbol
 _atom_site_label
 _atom_site_symmetry_multiplicity
 _atom_site_fract_x
 _atom_site_fract_y
 _atom_site_fract_z
 _atom_site_occupancy
  Cu  Cu0  1  0.50000000  0.50000000  0.00000000  1
  Cu  Cu1  1  0.50000000  0.00000000  0.50000000  1
  Cu  Cu2  1  0.00000000  0.50000000  0.50000000  1
  P  P3  1  0.00000000  0.00000000  0.00000000  1
  F  F4  1  0.50000000  0.25000000  0.75000000  1
  F  F5  1  0.78637000  0.78637000  0.00000000  1
  F  F6  1  0.78637000  0.00000000  0.78637000  1
  F  F7  1  0.21363000  0.00000000  0.21363000  1
  F  F8  1  0.00000000  0.21363000  0.21363000  1
  F  F9  1  0.21363000  0.21363000  0.00000000  1
  F  F10  1  0.00000000  0.78637000  0.78637000  1
  F  F11  1  0.50000000  0.75000000  0.25000000  1
  F  F12  1  0.75000000  0.50000000  0.25000000  1
  F  F13  1  0.25000000  0.50000000  0.75000000  1
  F  F14  1  0.75000000  0.25000000  0.50000000  1
  F  F15  1  0.25000000  0.75000000  0.50000000  1
