# generated using pymatgen
data_LuHfF7
_symmetry_space_group_name_H-M   'P 1'
_cell_length_a   5.59302000
_cell_length_b   5.96719768
_cell_length_c   8.13514930
_cell_angle_alpha   102.11459053
_cell_angle_beta   90.00000000
_cell_angle_gamma   90.00000000
_symmetry_Int_Tables_number   1
_chemical_formula_structural   LuHfF7
_chemical_formula_sum   'Lu2 Hf2 F14'
_cell_volume   265.46128271
_cell_formula_units_Z   2
loop_
 _symmetry_equiv_pos_site_id
 _symmetry_equiv_pos_as_xyz
  1  'x, y, z'
loop_
 _atom_site_type_symbol
 _atom_site_label
 _atom_site_symmetry_multiplicity
 _atom_site_fract_x
 _atom_site_fract_y
 _atom_site_fract_z
 _atom_site_occupancy
  Lu  Lu0  1  0.69673700  0.65429300  0.68284500  1
  Lu  Lu1  1  0.19673700  0.34570700  0.31715500  1
  Hf  Hf2  1  0.70712500  0.81164300  0.22387600  1
  Hf  Hf3  1  0.20712500  0.18835700  0.77612400  1
  F  F4  1  0.89022400  0.45501400  0.47822100  1
  F  F5  1  0.39022400  0.54498600  0.52177900  1
  F  F6  1  0.42891400  0.92180100  0.76749200  1
  F  F7  1  0.92891400  0.07819900  0.23250800  1
  F  F8  1  0.94340600  0.95492400  0.75968300  1
  F  F9  1  0.44340600  0.04507600  0.24031700  1
  F  F10  1  0.99260700  0.45959000  0.78706300  1
  F  F11  1  0.49260700  0.54041000  0.21293700  1
  F  F12  1  0.70291700  0.75509700  0.97399000  1
  F  F13  1  0.20291700  0.24490300  0.02601000  1
  F  F14  1  0.70934300  0.86148500  0.47527100  1
  F  F15  1  0.20934300  0.13851500  0.52472900  1
  F  F16  1  0.50508700  0.38103100  0.78080300  1
  F  F17  1  0.00508700  0.61896900  0.21919700  1
