# generated using pymatgen
data_Sm6Cd(GeS7)2
_symmetry_space_group_name_H-M   'P 1'
_cell_length_a   10.13282537
_cell_length_b   10.13282537
_cell_length_c   5.80642100
_cell_angle_alpha   90.00000000
_cell_angle_beta   90.00000000
_cell_angle_gamma   119.99999588
_symmetry_Int_Tables_number   1
_chemical_formula_structural   Sm6Cd(GeS7)2
_chemical_formula_sum   'Sm6 Cd1 Ge2 S14'
_cell_volume   516.29781527
_cell_formula_units_Z   1
loop_
 _symmetry_equiv_pos_site_id
 _symmetry_equiv_pos_as_xyz
  1  'x, y, z'
loop_
 _atom_site_type_symbol
 _atom_site_label
 _atom_site_symmetry_multiplicity
 _atom_site_fract_x
 _atom_site_fract_y
 _atom_site_fract_z
 _atom_site_occupancy
  Sm  Sm0  1  0.64252000  0.77070700  0.75306500  1
  Sm  Sm1  1  0.12818700  0.35748000  0.75306500  1
  Sm  Sm2  1  0.22929300  0.87181300  0.75306500  1
  Sm  Sm3  1  0.35797100  0.22973800  0.24910400  1
  Sm  Sm4  1  0.87176600  0.64202900  0.24910400  1
  Sm  Sm5  1  0.77026200  0.12823400  0.24910400  1
  Cd  Cd6  1  0.00000000  0.00000000  0.51491300  1
  Ge  Ge7  1  0.33333300  0.66666700  0.17009500  1
  Ge  Ge8  1  0.66666700  0.33333300  0.66566300  1
  S  S9  1  0.73998900  0.83607300  0.28429100  1
  S  S10  1  0.09608400  0.26001100  0.28429100  1
  S  S11  1  0.16392700  0.90391600  0.28429100  1
  S  S12  1  0.25708400  0.16407900  0.77534100  1
  S  S13  1  0.90699400  0.74291600  0.77534100  1
  S  S14  1  0.83592100  0.09300600  0.77534100  1
  S  S15  1  0.33333300  0.66666700  0.54771700  1
  S  S16  1  0.66666700  0.33333300  0.04433900  1
  S  S17  1  0.48139700  0.89681600  0.00949700  1
  S  S18  1  0.41542000  0.51860300  0.00949700  1
  S  S19  1  0.10318400  0.58458000  0.00949700  1
  S  S20  1  0.51847300  0.10320200  0.50682100  1
  S  S21  1  0.58473000  0.48152700  0.50682100  1
  S  S22  1  0.89679800  0.41527000  0.50682100  1
