# generated using pymatgen
data_Lu2(TeO3)3
_symmetry_space_group_name_H-M   'P 1'
_cell_length_a   6.98549200
_cell_length_b   13.35914458
_cell_length_c   14.70222230
_cell_angle_alpha   110.21633703
_cell_angle_beta   90.63314077
_cell_angle_gamma   100.11943249
_symmetry_Int_Tables_number   1
_chemical_formula_structural   Lu2(TeO3)3
_chemical_formula_sum   'Lu12 Te18 O54'
_cell_volume   1263.63158918
_cell_formula_units_Z   6
loop_
 _symmetry_equiv_pos_site_id
 _symmetry_equiv_pos_as_xyz
  1  'x, y, z'
loop_
 _atom_site_type_symbol
 _atom_site_label
 _atom_site_symmetry_multiplicity
 _atom_site_fract_x
 _atom_site_fract_y
 _atom_site_fract_z
 _atom_site_occupancy
  Lu  Lu0  1  0.75523900  0.54070400  0.46520000  1
  Lu  Lu1  1  0.24476100  0.45929600  0.53480000  1
  Lu  Lu2  1  0.25119100  0.94196100  0.52777600  1
  Lu  Lu3  1  0.74880900  0.05803900  0.47222400  1
  Lu  Lu4  1  0.16610400  0.72954900  0.66211300  1
  Lu  Lu5  1  0.83389600  0.27045100  0.33788700  1
  Lu  Lu6  1  0.82039500  0.77620800  0.33171900  1
  Lu  Lu7  1  0.17960500  0.22379200  0.66828100  1
  Lu  Lu8  1  0.92340800  0.66386100  0.07454000  1
  Lu  Lu9  1  0.07659200  0.33613900  0.92546000  1
  Lu  Lu10  1  0.51201500  0.76090500  0.96979600  1
  Lu  Lu11  1  0.48798500  0.23909500  0.03020400  1
  Te  Te12  1  0.77387800  0.82664100  0.57029500  1
  Te  Te13  1  0.22612200  0.17335900  0.42970500  1
  Te  Te14  1  0.64618700  0.15189800  0.70568900  1
  Te  Te15  1  0.35381300  0.84810200  0.29431100  1
  Te  Te16  1  0.93325200  0.96827500  0.22803000  1
  Te  Te17  1  0.06674800  0.03172500  0.77197000  1
  Te  Te18  1  0.63775800  0.64414000  0.72494500  1
  Te  Te19  1  0.36224200  0.35586000  0.27505500  1
  Te  Te20  1  0.73017600  0.35381100  0.57903100  1
  Te  Te21  1  0.26982400  0.64618900  0.42096900  1
  Te  Te22  1  0.04204500  0.81066400  0.93170900  1
  Te  Te23  1  0.95795500  0.18933600  0.06829100  1
  Te  Te24  1  0.51146800  0.96426100  0.85824600  1
  Te  Te25  1  0.48853200  0.03573900  0.14175400  1
  Te  Te26  1  0.13599200  0.52522500  0.80744700  1
  Te  Te27  1  0.86400800  0.47477500  0.19255300  1
  Te  Te28  1  0.62412200  0.42060200  0.88359600  1
  Te  Te29  1  0.37587800  0.57939800  0.11640400  1
  O  O30  1  0.85045800  0.91276400  0.48967900  1
  O  O31  1  0.14954200  0.08723600  0.51032100  1
  O  O32  1  0.04582100  0.84843900  0.61410900  1
  O  O33  1  0.95417900  0.15156100  0.38589100  1
  O  O34  1  0.79541500  0.70344000  0.44915800  1
  O  O35  1  0.20458500  0.29656000  0.55084200  1
  O  O36  1  0.54438500  0.03678300  0.58597800  1
  O  O37  1  0.45561500  0.96321700  0.41402200  1
  O  O38  1  0.49994900  0.25459300  0.68422200  1
  O  O39  1  0.50005100  0.74540700  0.31577800  1
  O  O40  1  0.85928300  0.18508700  0.63142200  1
  O  O41  1  0.14071700  0.81491300  0.36857800  1
  O  O42  1  0.77841900  0.93866900  0.32434200  1
  O  O43  1  0.22158100  0.06133100  0.67565800  1
  O  O44  1  0.81252600  0.99561300  0.70482100  1
  O  O45  1  0.18747400  0.00438700  0.29517900  1
  O  O46  1  0.93674900  0.81596700  0.18626700  1
  O  O47  1  0.06325100  0.18403300  0.81373300  1
  O  O48  1  0.65637100  0.78630800  0.82099400  1
  O  O49  1  0.34362900  0.21369200  0.17900600  1
  O  O50  1  0.41266400  0.64042300  0.64886200  1
  O  O51  1  0.58733600  0.35957700  0.35113800  1
  O  O52  1  0.81517200  0.66838300  0.62805000  1
  O  O53  1  0.18482800  0.33161700  0.37195000  1
  O  O54  1  0.36006400  0.78034700  0.52308700  1
  O  O55  1  0.63993600  0.21965300  0.47691300  1
  O  O56  1  0.56156300  0.44753200  0.56093800  1
  O  O57  1  0.43843700  0.55246800  0.43906200  1
  O  O58  1  0.10094100  0.59799300  0.51024200  1
  O  O59  1  0.89905900  0.40200700  0.48975800  1
  O  O60  1  0.06508300  0.71933500  0.80281200  1
  O  O61  1  0.93491700  0.28066500  0.19718800  1
  O  O62  1  0.81642700  0.25513600  0.99841400  1
  O  O63  1  0.18357300  0.74486400  0.00158600  1
  O  O64  1  0.81452800  0.72093700  0.95991400  1
  O  O65  1  0.18547200  0.27906300  0.04008600  1
  O  O66  1  0.34679500  0.88815700  0.74415700  1
  O  O67  1  0.65320500  0.11184300  0.25584300  1
  O  O68  1  0.61385500  0.91135200  0.10192200  1
  O  O69  1  0.38614500  0.08864800  0.89807800  1
  O  O70  1  0.37672400  0.89061100  0.93821700  1
  O  O71  1  0.62327600  0.10938900  0.06178300  1
  O  O72  1  0.10138200  0.50438100  0.67381500  1
  O  O73  1  0.89861800  0.49561900  0.32618500  1
  O  O74  1  0.39337300  0.60847600  0.84232900  1
  O  O75  1  0.60662700  0.39152400  0.15767100  1
  O  O76  1  0.80311700  0.61548900  0.20940900  1
  O  O77  1  0.19688300  0.38451100  0.79059100  1
  O  O78  1  0.55316800  0.67156000  0.07003600  1
  O  O79  1  0.44683200  0.32844000  0.92996400  1
  O  O80  1  0.81057800  0.33210000  0.83308800  1
  O  O81  1  0.18942200  0.66790000  0.16691200  1
  O  O82  1  0.78982300  0.49412900  0.00018600  1
  O  O83  1  0.21017700  0.50587100  0.99981400  1
