# generated using pymatgen
data_Cs2U(PdS2)3
_symmetry_space_group_name_H-M   'P 1'
_cell_length_a   11.61610763
_cell_length_b   9.83002165
_cell_length_c   9.32183277
_cell_angle_alpha   74.62461333
_cell_angle_beta   54.68171314
_cell_angle_gamma   50.69367354
_symmetry_Int_Tables_number   1
_chemical_formula_structural   Cs2U(PdS2)3
_chemical_formula_sum   'Cs4 U2 Pd6 S12'
_cell_volume   663.36973301
_cell_formula_units_Z   2
loop_
 _symmetry_equiv_pos_site_id
 _symmetry_equiv_pos_as_xyz
  1  'x, y, z'
loop_
 _atom_site_type_symbol
 _atom_site_label
 _atom_site_symmetry_multiplicity
 _atom_site_fract_x
 _atom_site_fract_y
 _atom_site_fract_z
 _atom_site_occupancy
  Cs  Cs0  1  0.75000000  0.75000000  0.75000000  1
  Cs  Cs1  1  0.25000000  0.25000000  0.25000000  1
  Cs  Cs2  1  0.29873700  0.70126300  0.29873700  1
  Cs  Cs3  1  0.70126300  0.29873700  0.70126300  1
  U  U4  1  0.83301900  0.83301900  0.16698100  1
  U  U5  1  0.16698100  0.16698100  0.83301900  1
  Pd  Pd6  1  0.50268200  0.17816700  0.49731800  1
  Pd  Pd7  1  0.82183300  0.49731800  0.17816700  1
  Pd  Pd8  1  0.49731800  0.82183300  0.50268200  1
  Pd  Pd9  1  0.17816700  0.50268200  0.82183300  1
  Pd  Pd10  1  0.82590100  0.17409900  0.17409900  1
  Pd  Pd11  1  0.17409900  0.82590100  0.82590100  1
  S  S12  1  0.81258300  0.98326300  0.39063700  1
  S  S13  1  0.81351800  0.39063700  0.98326300  1
  S  S14  1  0.39063700  0.81351800  0.81258300  1
  S  S15  1  0.98326300  0.81258300  0.81351800  1
  S  S16  1  0.18741700  0.01673700  0.60936300  1
  S  S17  1  0.18648200  0.60936300  0.01673700  1
  S  S18  1  0.60936300  0.18648200  0.18741700  1
  S  S19  1  0.01673700  0.18741700  0.18648200  1
  S  S20  1  0.80508700  0.60378600  0.39621400  1
  S  S21  1  0.19491300  0.39621400  0.60378600  1
  S  S22  1  0.39621400  0.19491300  0.80508700  1
  S  S23  1  0.60378600  0.80508700  0.19491300  1
