# generated using pymatgen
data_Cd3(AsO4)2
_symmetry_space_group_name_H-M   'P 1'
_cell_length_a   12.34130400
_cell_length_b   6.73094500
_cell_length_c   9.48452171
_cell_angle_alpha   81.84526751
_cell_angle_beta   90.00000000
_cell_angle_gamma   90.00000000
_symmetry_Int_Tables_number   1
_chemical_formula_structural   Cd3(AsO4)2
_chemical_formula_sum   'Cd12 As8 O32'
_cell_volume   779.89988035
_cell_formula_units_Z   4
loop_
 _symmetry_equiv_pos_site_id
 _symmetry_equiv_pos_as_xyz
  1  'x, y, z'
loop_
 _atom_site_type_symbol
 _atom_site_label
 _atom_site_symmetry_multiplicity
 _atom_site_fract_x
 _atom_site_fract_y
 _atom_site_fract_z
 _atom_site_occupancy
  Cd  Cd0  1  0.69272400  0.37237900  0.35817700  1
  Cd  Cd1  1  0.19272400  0.12762100  0.64182300  1
  Cd  Cd2  1  0.30727600  0.62762100  0.64182300  1
  Cd  Cd3  1  0.80727600  0.87237900  0.35817700  1
  Cd  Cd4  1  0.57529300  0.16676900  0.72079900  1
  Cd  Cd5  1  0.07529300  0.33323100  0.27920100  1
  Cd  Cd6  1  0.42470700  0.83323100  0.27920100  1
  Cd  Cd7  1  0.92470700  0.66676900  0.72079900  1
  Cd  Cd8  1  0.61627200  0.65404100  0.94419900  1
  Cd  Cd9  1  0.11627200  0.84595900  0.05580100  1
  Cd  Cd10  1  0.38372800  0.34595900  0.05580100  1
  Cd  Cd11  1  0.88372800  0.15404100  0.94419900  1
  As  As12  1  0.58633400  0.68854500  0.60543000  1
  As  As13  1  0.08633400  0.81145500  0.39457000  1
  As  As14  1  0.41366600  0.31145500  0.39457000  1
  As  As15  1  0.91366600  0.18854500  0.60543000  1
  As  As16  1  0.63680600  0.10974000  0.08305500  1
  As  As17  1  0.13680600  0.39026000  0.91694500  1
  As  As18  1  0.36319400  0.89026000  0.91694500  1
  As  As19  1  0.86319400  0.60974000  0.08305500  1
  O  O20  1  0.46038900  0.74748700  0.52858400  1
  O  O21  1  0.96038900  0.75251300  0.47141600  1
  O  O22  1  0.53961100  0.25251300  0.47141600  1
  O  O23  1  0.03961100  0.24748700  0.52858400  1
  O  O24  1  0.57902200  0.48265900  0.73498500  1
  O  O25  1  0.07902200  0.01734100  0.26501500  1
  O  O26  1  0.42097800  0.51734100  0.26501500  1
  O  O27  1  0.92097800  0.98265900  0.73498500  1
  O  O28  1  0.63041600  0.86523900  0.70742200  1
  O  O29  1  0.13041600  0.63476100  0.29257800  1
  O  O30  1  0.36958400  0.13476100  0.29257800  1
  O  O31  1  0.86958400  0.36523900  0.70742200  1
  O  O32  1  0.67977800  0.65942700  0.47532600  1
  O  O33  1  0.17977800  0.84057300  0.52467400  1
  O  O34  1  0.32022200  0.34057300  0.52467400  1
  O  O35  1  0.82022200  0.15942700  0.47532600  1
  O  O36  1  0.56424000  0.88960200  0.11759100  1
  O  O37  1  0.06424000  0.61039800  0.88240900  1
  O  O38  1  0.43576000  0.11039800  0.88240900  1
  O  O39  1  0.93576000  0.38960200  0.11759100  1
  O  O40  1  0.93384700  0.83245800  0.07874800  1
  O  O41  1  0.43384700  0.66754200  0.92125200  1
  O  O42  1  0.06615300  0.16754200  0.92125200  1
  O  O43  1  0.56615300  0.33245800  0.07874800  1
  O  O44  1  0.79474300  0.60255700  0.92530100  1
  O  O45  1  0.29474300  0.89744300  0.07469900  1
  O  O46  1  0.20525700  0.39744300  0.07469900  1
  O  O47  1  0.70525700  0.10255700  0.92530100  1
  O  O48  1  0.76919400  0.62561800  0.21664000  1
  O  O49  1  0.26919400  0.87438200  0.78336000  1
  O  O50  1  0.23080600  0.37438200  0.78336000  1
  O  O51  1  0.73080600  0.12561800  0.21664000  1
