# generated using pymatgen
data_LaMgAl11O19
_symmetry_space_group_name_H-M   'P 1'
_cell_length_a   5.64373039
_cell_length_b   5.64373039
_cell_length_c   22.28437400
_cell_angle_alpha   90.00000000
_cell_angle_beta   90.00000000
_cell_angle_gamma   120.00000455
_symmetry_Int_Tables_number   1
_chemical_formula_structural   LaMgAl11O19
_chemical_formula_sum   'La2 Mg2 Al22 O38'
_cell_volume   614.70050143
_cell_formula_units_Z   2
loop_
 _symmetry_equiv_pos_site_id
 _symmetry_equiv_pos_as_xyz
  1  'x, y, z'
loop_
 _atom_site_type_symbol
 _atom_site_label
 _atom_site_symmetry_multiplicity
 _atom_site_fract_x
 _atom_site_fract_y
 _atom_site_fract_z
 _atom_site_occupancy
  La  La0  1  0.33333300  0.66666700  0.75105900  1
  La  La1  1  0.66666700  0.33333300  0.25105900  1
  Mg  Mg2  1  0.66666700  0.33333300  0.52669400  1
  Mg  Mg3  1  0.33333300  0.66666700  0.02669400  1
  Al  Al4  1  0.00000000  0.00000000  0.50287000  1
  Al  Al5  1  0.00000000  0.00000000  0.00287000  1
  Al  Al6  1  0.00000000  0.00000000  0.73734400  1
  Al  Al7  1  0.00000000  0.00000000  0.23734400  1
  Al  Al8  1  0.16611000  0.33222100  0.60737500  1
  Al  Al9  1  0.16611000  0.83389000  0.60737500  1
  Al  Al10  1  0.66777900  0.83389000  0.60737500  1
  Al  Al11  1  0.83175100  0.66350200  0.39162700  1
  Al  Al12  1  0.83175100  0.16824900  0.39162700  1
  Al  Al13  1  0.33649800  0.16824900  0.39162700  1
  Al  Al14  1  0.83389000  0.66777900  0.10737500  1
  Al  Al15  1  0.83389000  0.16611000  0.10737500  1
  Al  Al16  1  0.33222100  0.16611000  0.10737500  1
  Al  Al17  1  0.16824900  0.33649800  0.89162700  1
  Al  Al18  1  0.16824900  0.83175100  0.89162700  1
  Al  Al19  1  0.66350200  0.83175100  0.89162700  1
  Al  Al20  1  0.66666700  0.33333300  0.68855000  1
  Al  Al21  1  0.33333300  0.66666700  0.30954500  1
  Al  Al22  1  0.33333300  0.66666700  0.18855000  1
  Al  Al23  1  0.66666700  0.33333300  0.80954500  1
  Al  Al24  1  0.33333300  0.66666700  0.47422200  1
  Al  Al25  1  0.66666700  0.33333300  0.97422200  1
  O  O26  1  0.81918800  0.63837700  0.74912900  1
  O  O27  1  0.81918800  0.18081200  0.74912900  1
  O  O28  1  0.36162300  0.18081200  0.74912900  1
  O  O29  1  0.18081200  0.36162300  0.24912900  1
  O  O30  1  0.18081200  0.81918800  0.24912900  1
  O  O31  1  0.63837700  0.81918800  0.24912900  1
  O  O32  1  0.00000000  0.00000000  0.65377400  1
  O  O33  1  0.00000000  0.00000000  0.35406500  1
  O  O34  1  0.00000000  0.00000000  0.15377400  1
  O  O35  1  0.00000000  0.00000000  0.85406500  1
  O  O36  1  0.33333300  0.66666700  0.55622400  1
  O  O37  1  0.66666700  0.33333300  0.43766800  1
  O  O38  1  0.66666700  0.33333300  0.05622400  1
  O  O39  1  0.33333300  0.66666700  0.93766800  1
  O  O40  1  0.85193000  0.70385900  0.55645500  1
  O  O41  1  0.85193000  0.14807000  0.55645500  1
  O  O42  1  0.29614100  0.14807000  0.55645500  1
  O  O43  1  0.15672100  0.31344300  0.44894800  1
  O  O44  1  0.15672100  0.84327900  0.44894800  1
  O  O45  1  0.68655700  0.84327900  0.44894800  1
  O  O46  1  0.14807000  0.29614100  0.05645500  1
  O  O47  1  0.14807000  0.85193000  0.05645500  1
  O  O48  1  0.70385900  0.85193000  0.05645500  1
  O  O49  1  0.84327900  0.68655700  0.94894800  1
  O  O50  1  0.84327900  0.15672100  0.94894800  1
  O  O51  1  0.31344300  0.15672100  0.94894800  1
  O  O52  1  0.49241600  0.98483200  0.65164100  1
  O  O53  1  0.49241600  0.50758400  0.65164100  1
  O  O54  1  0.01516800  0.50758400  0.65164100  1
  O  O55  1  0.50484500  0.00969000  0.34752400  1
  O  O56  1  0.50484500  0.49515500  0.34752400  1
  O  O57  1  0.99031000  0.49515500  0.34752400  1
  O  O58  1  0.50758400  0.01516800  0.15164100  1
  O  O59  1  0.50758400  0.49241600  0.15164100  1
  O  O60  1  0.98483200  0.49241600  0.15164100  1
  O  O61  1  0.49515500  0.99031000  0.84752400  1
  O  O62  1  0.49515500  0.50484500  0.84752400  1
  O  O63  1  0.00969000  0.50484500  0.84752400  1
