# generated using pymatgen
data_GdGa6
_symmetry_space_group_name_H-M   'P 1'
_cell_length_a   6.02249000
_cell_length_b   6.02249000
_cell_length_c   7.63183600
_cell_angle_alpha   90.00000000
_cell_angle_beta   90.00000000
_cell_angle_gamma   90.00000000
_symmetry_Int_Tables_number   1
_chemical_formula_structural   GdGa6
_chemical_formula_sum   'Gd2 Ga12'
_cell_volume   276.80963608
_cell_formula_units_Z   2
loop_
 _symmetry_equiv_pos_site_id
 _symmetry_equiv_pos_as_xyz
  1  'x, y, z'
loop_
 _atom_site_type_symbol
 _atom_site_label
 _atom_site_symmetry_multiplicity
 _atom_site_fract_x
 _atom_site_fract_y
 _atom_site_fract_z
 _atom_site_occupancy
  Gd  Gd0  1  0.00000000  0.50000000  0.00000000  1
  Gd  Gd1  1  0.50000000  0.00000000  0.00000000  1
  Ga  Ga2  1  0.50000000  0.50000000  0.16233100  1
  Ga  Ga3  1  0.00000000  0.00000000  0.83766900  1
  Ga  Ga4  1  0.50000000  0.50000000  0.83766900  1
  Ga  Ga5  1  0.00000000  0.00000000  0.16233100  1
  Ga  Ga6  1  0.18629600  0.68629600  0.35082500  1
  Ga  Ga7  1  0.81370400  0.31370400  0.35082500  1
  Ga  Ga8  1  0.68629600  0.18629600  0.64917500  1
  Ga  Ga9  1  0.31370400  0.81370400  0.64917500  1
  Ga  Ga10  1  0.18629600  0.31370400  0.64917500  1
  Ga  Ga11  1  0.81370400  0.68629600  0.64917500  1
  Ga  Ga12  1  0.68629600  0.81370400  0.35082500  1
  Ga  Ga13  1  0.31370400  0.18629600  0.35082500  1
