# generated using pymatgen
data_Zr2V3Ge4
_symmetry_space_group_name_H-M   'P 1'
_cell_length_a   6.66950100
_cell_length_b   6.77665000
_cell_length_c   12.85345000
_cell_angle_alpha   90.00000000
_cell_angle_beta   90.00000000
_cell_angle_gamma   90.00000000
_symmetry_Int_Tables_number   1
_chemical_formula_structural   Zr2V3Ge4
_chemical_formula_sum   'Zr8 V12 Ge16'
_cell_volume   580.93575949
_cell_formula_units_Z   4
loop_
 _symmetry_equiv_pos_site_id
 _symmetry_equiv_pos_as_xyz
  1  'x, y, z'
loop_
 _atom_site_type_symbol
 _atom_site_label
 _atom_site_symmetry_multiplicity
 _atom_site_fract_x
 _atom_site_fract_y
 _atom_site_fract_z
 _atom_site_occupancy
  Zr  Zr0  1  0.48948100  0.67255700  0.09252600  1
  Zr  Zr1  1  0.98948100  0.82744300  0.40747400  1
  Zr  Zr2  1  0.51051900  0.32744300  0.59252600  1
  Zr  Zr3  1  0.01051900  0.17255700  0.90747400  1
  Zr  Zr4  1  0.51051900  0.32744300  0.90747400  1
  Zr  Zr5  1  0.01051900  0.17255700  0.59252600  1
  Zr  Zr6  1  0.48948100  0.67255700  0.40747400  1
  Zr  Zr7  1  0.98948100  0.82744300  0.09252600  1
  V  V8  1  0.33749900  0.01013300  0.25000000  1
  V  V9  1  0.83749900  0.48986700  0.25000000  1
  V  V10  1  0.66250100  0.98986700  0.75000000  1
  V  V11  1  0.16250100  0.51013300  0.75000000  1
  V  V12  1  0.66069700  0.16213300  0.12564400  1
  V  V13  1  0.16069700  0.33786700  0.37435600  1
  V  V14  1  0.33930300  0.83786700  0.62564400  1
  V  V15  1  0.83930300  0.66213300  0.87435600  1
  V  V16  1  0.33930300  0.83786700  0.87435600  1
  V  V17  1  0.83930300  0.66213300  0.62564400  1
  V  V18  1  0.66069700  0.16213300  0.37435600  1
  V  V19  1  0.16069700  0.33786700  0.12564400  1
  Ge  Ge20  1  0.69071000  0.85784000  0.25000000  1
  Ge  Ge21  1  0.19071000  0.64216000  0.25000000  1
  Ge  Ge22  1  0.30929000  0.14216000  0.75000000  1
  Ge  Ge23  1  0.80929000  0.35784000  0.75000000  1
  Ge  Ge24  1  0.67720100  0.95390500  0.95737300  1
  Ge  Ge25  1  0.17720100  0.54609500  0.54262700  1
  Ge  Ge26  1  0.32279900  0.04609500  0.45737300  1
  Ge  Ge27  1  0.82279900  0.45390500  0.04262700  1
  Ge  Ge28  1  0.32279900  0.04609500  0.04262700  1
  Ge  Ge29  1  0.82279900  0.45390500  0.45737300  1
  Ge  Ge30  1  0.67720100  0.95390500  0.54262700  1
  Ge  Ge31  1  0.17720100  0.54609500  0.95737300  1
  Ge  Ge32  1  0.46648900  0.37238700  0.25000000  1
  Ge  Ge33  1  0.96648900  0.12761300  0.25000000  1
  Ge  Ge34  1  0.53351100  0.62761300  0.75000000  1
  Ge  Ge35  1  0.03351100  0.87238700  0.75000000  1
