# generated using pymatgen
data_Yb5Ni19P12
_symmetry_space_group_name_H-M   'P 1'
_cell_length_a   14.32772369
_cell_length_b   14.32772369
_cell_length_c   9.11201392
_cell_angle_alpha   76.27186122
_cell_angle_beta   76.27186122
_cell_angle_gamma   14.76651675
_symmetry_Int_Tables_number   1
_chemical_formula_structural   Yb5Ni19P12
_chemical_formula_sum   'Yb5 Ni19 P12'
_cell_volume   462.91445461
_cell_formula_units_Z   1
loop_
 _symmetry_equiv_pos_site_id
 _symmetry_equiv_pos_as_xyz
  1  'x, y, z'
loop_
 _atom_site_type_symbol
 _atom_site_label
 _atom_site_symmetry_multiplicity
 _atom_site_fract_x
 _atom_site_fract_y
 _atom_site_fract_z
 _atom_site_occupancy
  Yb  Yb0  1  0.00000000  0.00000000  0.00000000  1
  Yb  Yb1  1  0.92144500  0.92144500  0.68485500  1
  Yb  Yb2  1  0.07855500  0.07855500  0.31514500  1
  Yb  Yb3  1  0.67527700  0.67527700  0.73075700  1
  Yb  Yb4  1  0.32472300  0.32472300  0.26924300  1
  Ni  Ni5  1  0.50000000  0.50000000  0.50000000  1
  Ni  Ni6  1  0.28012300  0.28012300  0.00750500  1
  Ni  Ni7  1  0.71987700  0.71987700  0.99249500  1
  Ni  Ni8  1  0.34912200  0.34912200  0.59356500  1
  Ni  Ni9  1  0.65087800  0.65087800  0.40643500  1
  Ni  Ni10  1  0.25771300  0.25771300  0.59376900  1
  Ni  Ni11  1  0.74228700  0.74228700  0.40623100  1
  Ni  Ni12  1  0.15661100  0.15661100  0.01081900  1
  Ni  Ni13  1  0.84338900  0.84338900  0.98918100  1
  Ni  Ni14  1  0.02611600  0.02611600  0.66303400  1
  Ni  Ni15  1  0.97388400  0.97388400  0.33696600  1
  Ni  Ni16  1  0.41270700  0.41270700  0.95002000  1
  Ni  Ni17  1  0.58729300  0.58729300  0.04998000  1
  Ni  Ni18  1  0.56582100  0.56582100  0.79946100  1
  Ni  Ni19  1  0.43417900  0.43417900  0.20053900  1
  Ni  Ni20  1  0.11680500  0.11680500  0.61272200  1
  Ni  Ni21  1  0.88319500  0.88319500  0.38727800  1
  Ni  Ni22  1  0.79477100  0.79477100  0.77296900  1
  Ni  Ni23  1  0.20522900  0.20522900  0.22703100  1
  P  P24  1  0.23280100  0.23280100  0.84255700  1
  P  P25  1  0.76719900  0.76719900  0.15744300  1
  P  P26  1  0.34969300  0.34969300  0.83755500  1
  P  P27  1  0.65030700  0.65030700  0.16244500  1
  P  P28  1  0.10102200  0.10102200  0.87692600  1
  P  P29  1  0.89897800  0.89897800  0.12307400  1
  P  P30  1  0.80617000  0.80617000  0.51922800  1
  P  P31  1  0.19383000  0.19383000  0.48077200  1
  P  P32  1  0.48502800  0.48502800  0.77112300  1
  P  P33  1  0.51497200  0.51497200  0.22887700  1
  P  P34  1  0.57529600  0.57529600  0.55063800  1
  P  P35  1  0.42470400  0.42470400  0.44936200  1
