# generated using pymatgen
data_SmTl(WO4)2
_symmetry_space_group_name_H-M   'P 1'
_cell_length_a   7.75368378
_cell_length_b   7.75368378
_cell_length_c   7.53079262
_cell_angle_alpha   62.49969054
_cell_angle_beta   62.49969054
_cell_angle_gamma   88.93816970
_symmetry_Int_Tables_number   1
_chemical_formula_structural   SmTl(WO4)2
_chemical_formula_sum   'Sm2 Tl2 W4 O16'
_cell_volume   345.13755543
_cell_formula_units_Z   2
loop_
 _symmetry_equiv_pos_site_id
 _symmetry_equiv_pos_as_xyz
  1  'x, y, z'
loop_
 _atom_site_type_symbol
 _atom_site_label
 _atom_site_symmetry_multiplicity
 _atom_site_fract_x
 _atom_site_fract_y
 _atom_site_fract_z
 _atom_site_occupancy
  Sm  Sm0  1  0.22439900  0.77560100  0.75000000  1
  Sm  Sm1  1  0.77560100  0.22439900  0.25000000  1
  Tl  Tl2  1  0.21256500  0.78743500  0.25000000  1
  Tl  Tl3  1  0.78743500  0.21256500  0.75000000  1
  W  W4  1  0.31062600  0.30115200  0.21677700  1
  W  W5  1  0.69884800  0.68937400  0.28322300  1
  W  W6  1  0.30115200  0.31062600  0.71677700  1
  W  W7  1  0.68937400  0.69884800  0.78322300  1
  O  O8  1  0.37174200  0.06437600  0.37122400  1
  O  O9  1  0.93562400  0.62825800  0.12877600  1
  O  O10  1  0.62825800  0.93562400  0.62877600  1
  O  O11  1  0.06437600  0.37174200  0.87122400  1
  O  O12  1  0.22472400  0.04763400  0.80839700  1
  O  O13  1  0.95236600  0.77527600  0.69160300  1
  O  O14  1  0.77527600  0.95236600  0.19160300  1
  O  O15  1  0.04763400  0.22472400  0.30839700  1
  O  O16  1  0.58923000  0.37286700  0.46895600  1
  O  O17  1  0.62713300  0.41077000  0.03104400  1
  O  O18  1  0.41077000  0.62713300  0.53104400  1
  O  O19  1  0.37286700  0.58923000  0.96895600  1
  O  O20  1  0.37621200  0.25096500  0.94090700  1
  O  O21  1  0.74903500  0.62378800  0.55909300  1
  O  O22  1  0.62378800  0.74903500  0.05909300  1
  O  O23  1  0.25096500  0.37621200  0.44090700  1
