# generated using pymatgen
data_BaNaVS4
_symmetry_space_group_name_H-M   'P 1'
_cell_length_a   9.61574400
_cell_length_b   6.53497400
_cell_length_c   12.27311208
_cell_angle_alpha   70.70207839
_cell_angle_beta   90.00000000
_cell_angle_gamma   90.00000000
_symmetry_Int_Tables_number   1
_chemical_formula_structural   BaNaVS4
_chemical_formula_sum   'Ba4 Na4 V4 S16'
_cell_volume   727.89273449
_cell_formula_units_Z   4
loop_
 _symmetry_equiv_pos_site_id
 _symmetry_equiv_pos_as_xyz
  1  'x, y, z'
loop_
 _atom_site_type_symbol
 _atom_site_label
 _atom_site_symmetry_multiplicity
 _atom_site_fract_x
 _atom_site_fract_y
 _atom_site_fract_z
 _atom_site_occupancy
  Ba  Ba0  1  0.88500300  0.37764100  0.34421800  1
  Ba  Ba1  1  0.61499700  0.37764100  0.84421800  1
  Ba  Ba2  1  0.11499700  0.62235900  0.65578200  1
  Ba  Ba3  1  0.38500300  0.62235900  0.15578200  1
  Na  Na4  1  0.11558700  0.23086600  0.02494400  1
  Na  Na5  1  0.38441300  0.23086600  0.52494400  1
  Na  Na6  1  0.88441300  0.76913400  0.97505600  1
  Na  Na7  1  0.61558700  0.76913400  0.47505600  1
  V  V8  1  0.61904900  0.12019000  0.18471600  1
  V  V9  1  0.88095100  0.12019000  0.68471600  1
  V  V10  1  0.38095100  0.87981000  0.81528400  1
  V  V11  1  0.11904900  0.87981000  0.31528400  1
  S  S12  1  0.79022900  0.31852800  0.09197100  1
  S  S13  1  0.70977100  0.31852800  0.59197100  1
  S  S14  1  0.20977100  0.68147200  0.90802900  1
  S  S15  1  0.29022900  0.68147200  0.40802900  1
  S  S16  1  0.93676300  0.82307500  0.42223500  1
  S  S17  1  0.56323700  0.82307500  0.92223500  1
  S  S18  1  0.06323700  0.17692500  0.57776500  1
  S  S19  1  0.43676300  0.17692500  0.07776500  1
  S  S20  1  0.56973600  0.21154900  0.33537100  1
  S  S21  1  0.93026400  0.21154900  0.83537100  1
  S  S22  1  0.43026400  0.78845100  0.66462900  1
  S  S23  1  0.06973600  0.78845100  0.16462900  1
  S  S24  1  0.17054600  0.21804700  0.26694100  1
  S  S25  1  0.32945400  0.21804700  0.76694100  1
  S  S26  1  0.82945400  0.78195300  0.73305900  1
  S  S27  1  0.67054600  0.78195300  0.23305900  1
