# generated using pymatgen
data_PrBiRh
_symmetry_space_group_name_H-M   'P 1'
_cell_length_a   4.88781900
_cell_length_b   7.55835800
_cell_length_c   7.99099900
_cell_angle_alpha   90.00000000
_cell_angle_beta   90.00000000
_cell_angle_gamma   90.00000000
_symmetry_Int_Tables_number   1
_chemical_formula_structural   PrBiRh
_chemical_formula_sum   'Pr4 Bi4 Rh4'
_cell_volume   295.21855481
_cell_formula_units_Z   4
loop_
 _symmetry_equiv_pos_site_id
 _symmetry_equiv_pos_as_xyz
  1  'x, y, z'
loop_
 _atom_site_type_symbol
 _atom_site_label
 _atom_site_symmetry_multiplicity
 _atom_site_fract_x
 _atom_site_fract_y
 _atom_site_fract_z
 _atom_site_occupancy
  Pr  Pr0  1  0.75000000  0.01540300  0.29698600  1
  Pr  Pr1  1  0.25000000  0.98459700  0.70301400  1
  Pr  Pr2  1  0.25000000  0.48459700  0.79698600  1
  Pr  Pr3  1  0.75000000  0.51540300  0.20301400  1
  Bi  Bi4  1  0.75000000  0.68861900  0.59232800  1
  Bi  Bi5  1  0.25000000  0.31138100  0.40767200  1
  Bi  Bi6  1  0.25000000  0.81138100  0.09232800  1
  Bi  Bi7  1  0.75000000  0.18861900  0.90767200  1
  Rh  Rh8  1  0.75000000  0.79594500  0.92834400  1
  Rh  Rh9  1  0.25000000  0.20405500  0.07165600  1
  Rh  Rh10  1  0.25000000  0.70405500  0.42834400  1
  Rh  Rh11  1  0.75000000  0.29594500  0.57165600  1
