# generated using pymatgen
data_K2SnS3
_symmetry_space_group_name_H-M   'P 1'
_cell_length_a   6.89591100
_cell_length_b   7.62231330
_cell_length_c   8.37682296
_cell_angle_alpha   75.57520424
_cell_angle_beta   72.62059746
_cell_angle_gamma   66.58775178
_symmetry_Int_Tables_number   1
_chemical_formula_structural   K2SnS3
_chemical_formula_sum   'K4 Sn2 S6'
_cell_volume   381.31221845
_cell_formula_units_Z   2
loop_
 _symmetry_equiv_pos_site_id
 _symmetry_equiv_pos_as_xyz
  1  'x, y, z'
loop_
 _atom_site_type_symbol
 _atom_site_label
 _atom_site_symmetry_multiplicity
 _atom_site_fract_x
 _atom_site_fract_y
 _atom_site_fract_z
 _atom_site_occupancy
  K  K0  1  0.15014100  0.46053900  0.19324600  1
  K  K1  1  0.84985900  0.53946100  0.80675400  1
  K  K2  1  0.58664100  0.20893800  0.62625100  1
  K  K3  1  0.41335900  0.79106200  0.37374900  1
  Sn  Sn4  1  0.85542100  0.06405500  0.19295600  1
  Sn  Sn5  1  0.14457900  0.93594500  0.80704400  1
  S  S6  1  0.13414100  0.18066000  0.56919200  1
  S  S7  1  0.86585900  0.81934000  0.43080800  1
  S  S8  1  0.65646100  0.39313800  0.21978900  1
  S  S9  1  0.34353900  0.60686200  0.78021100  1
  S  S10  1  0.22656500  0.04513900  0.03011000  1
  S  S11  1  0.77343500  0.95486100  0.96989000  1
