# generated using pymatgen
data_YbSiPd2
_symmetry_space_group_name_H-M   'P 1'
_cell_length_a   5.57160000
_cell_length_b   6.91883200
_cell_length_c   7.33918600
_cell_angle_alpha   90.00000000
_cell_angle_beta   90.00000000
_cell_angle_gamma   90.00000000
_symmetry_Int_Tables_number   1
_chemical_formula_structural   YbSiPd2
_chemical_formula_sum   'Yb4 Si4 Pd8'
_cell_volume   282.91801963
_cell_formula_units_Z   4
loop_
 _symmetry_equiv_pos_site_id
 _symmetry_equiv_pos_as_xyz
  1  'x, y, z'
loop_
 _atom_site_type_symbol
 _atom_site_label
 _atom_site_symmetry_multiplicity
 _atom_site_fract_x
 _atom_site_fract_y
 _atom_site_fract_z
 _atom_site_occupancy
  Yb  Yb0  1  0.36597100  0.75000000  0.02242900  1
  Yb  Yb1  1  0.13402900  0.75000000  0.52242900  1
  Yb  Yb2  1  0.63402900  0.25000000  0.97757100  1
  Yb  Yb3  1  0.86597100  0.25000000  0.47757100  1
  Si  Si4  1  0.63170900  0.75000000  0.37660800  1
  Si  Si5  1  0.86829100  0.75000000  0.87660800  1
  Si  Si6  1  0.36829100  0.25000000  0.62339200  1
  Si  Si7  1  0.13170900  0.25000000  0.12339200  1
  Pd  Pd8  1  0.89523400  0.55174600  0.17114100  1
  Pd  Pd9  1  0.60476600  0.94825400  0.67114100  1
  Pd  Pd10  1  0.10476600  0.05174600  0.82885900  1
  Pd  Pd11  1  0.39523400  0.44825400  0.32885900  1
  Pd  Pd12  1  0.10476600  0.44825400  0.82885900  1
  Pd  Pd13  1  0.39523400  0.05174600  0.32885900  1
  Pd  Pd14  1  0.89523400  0.94825400  0.17114100  1
  Pd  Pd15  1  0.60476600  0.55174600  0.67114100  1
