# generated using pymatgen
data_YbGa4
_symmetry_space_group_name_H-M   'P 1'
_cell_length_a   6.17085832
_cell_length_b   6.17085832
_cell_length_c   6.17085832
_cell_angle_alpha   138.78398937
_cell_angle_beta   138.78398937
_cell_angle_gamma   59.70437912
_symmetry_Int_Tables_number   1
_chemical_formula_structural   YbGa4
_chemical_formula_sum   'Yb1 Ga4'
_cell_volume   100.99260432
_cell_formula_units_Z   1
loop_
 _symmetry_equiv_pos_site_id
 _symmetry_equiv_pos_as_xyz
  1  'x, y, z'
loop_
 _atom_site_type_symbol
 _atom_site_label
 _atom_site_symmetry_multiplicity
 _atom_site_fract_x
 _atom_site_fract_y
 _atom_site_fract_z
 _atom_site_occupancy
  Yb  Yb0  1  0.00000000  0.00000000  0.00000000  1
  Ga  Ga1  1  0.61435600  0.61435600  0.00000000  1
  Ga  Ga2  1  0.75000000  0.25000000  0.50000000  1
  Ga  Ga3  1  0.25000000  0.75000000  0.50000000  1
  Ga  Ga4  1  0.38564400  0.38564400  0.00000000  1
