# generated using pymatgen
data_Zr2CoCuSn2
_symmetry_space_group_name_H-M   'P 1'
_cell_length_a   4.39040309
_cell_length_b   4.39036200
_cell_length_c   6.83584400
_cell_angle_alpha   89.99991894
_cell_angle_beta   89.99745594
_cell_angle_gamma   60.00012779
_symmetry_Int_Tables_number   1
_chemical_formula_structural   Zr2CoCuSn2
_chemical_formula_sum   'Zr2 Co1 Cu1 Sn2'
_cell_volume   114.11114401
_cell_formula_units_Z   1
loop_
 _symmetry_equiv_pos_site_id
 _symmetry_equiv_pos_as_xyz
  1  'x, y, z'
loop_
 _atom_site_type_symbol
 _atom_site_label
 _atom_site_symmetry_multiplicity
 _atom_site_fract_x
 _atom_site_fract_y
 _atom_site_fract_z
 _atom_site_occupancy
  Zr  Zr0  1  0.00001900  0.99999100  0.49688200  1
  Zr  Zr1  1  0.99998600  0.00000500  0.97853800  1
  Co  Co2  1  0.66665700  0.66667000  0.83555600  1
  Cu  Cu3  1  0.33333300  0.33333600  0.32319300  1
  Sn  Sn4  1  0.66665500  0.66667300  0.22605800  1
  Sn  Sn5  1  0.33334900  0.33332500  0.73577400  1
