# generated using pymatgen
data_Li14Be6(BO3)9
_symmetry_space_group_name_H-M   'P 1'
_cell_length_a   7.82895842
_cell_length_b   7.82895842
_cell_length_c   19.13956600
_cell_angle_alpha   90.00000000
_cell_angle_beta   90.00000000
_cell_angle_gamma   120.00000356
_symmetry_Int_Tables_number   1
_chemical_formula_structural   Li14Be6(BO3)9
_chemical_formula_sum   'Li28 Be12 B18 O54'
_cell_volume   1015.94611753
_cell_formula_units_Z   2
loop_
 _symmetry_equiv_pos_site_id
 _symmetry_equiv_pos_as_xyz
  1  'x, y, z'
loop_
 _atom_site_type_symbol
 _atom_site_label
 _atom_site_symmetry_multiplicity
 _atom_site_fract_x
 _atom_site_fract_y
 _atom_site_fract_z
 _atom_site_occupancy
  Li  Li0  1  0.69764400  0.02351400  0.83051000  1
  Li  Li1  1  0.30235600  0.97648600  0.16949000  1
  Li  Li2  1  0.32587000  0.30235600  0.83051000  1
  Li  Li3  1  0.30235600  0.97648600  0.33051000  1
  Li  Li4  1  0.67413000  0.69764400  0.16949000  1
  Li  Li5  1  0.69764400  0.02351400  0.66949000  1
  Li  Li6  1  0.97648600  0.67413000  0.83051000  1
  Li  Li7  1  0.67413000  0.69764400  0.33051000  1
  Li  Li8  1  0.02351400  0.32587000  0.16949000  1
  Li  Li9  1  0.32587000  0.30235600  0.66949000  1
  Li  Li10  1  0.02351400  0.32587000  0.33051000  1
  Li  Li11  1  0.97648600  0.67413000  0.66949000  1
  Li  Li12  1  0.66666700  0.33333300  0.75000000  1
  Li  Li13  1  0.33333300  0.66666700  0.25000000  1
  Li  Li14  1  0.33333300  0.66666700  0.75000000  1
  Li  Li15  1  0.66666700  0.33333300  0.25000000  1
  Li  Li16  1  0.67642400  0.02764400  0.96401800  1
  Li  Li17  1  0.32357600  0.97235600  0.03598200  1
  Li  Li18  1  0.35122000  0.32357600  0.96401800  1
  Li  Li19  1  0.32357600  0.97235600  0.46401800  1
  Li  Li20  1  0.64878000  0.67642400  0.03598200  1
  Li  Li21  1  0.67642400  0.02764400  0.53598200  1
  Li  Li22  1  0.97235600  0.64878000  0.96401800  1
  Li  Li23  1  0.64878000  0.67642400  0.46401800  1
  Li  Li24  1  0.02764400  0.35122000  0.03598200  1
  Li  Li25  1  0.35122000  0.32357600  0.53598200  1
  Li  Li26  1  0.02764400  0.35122000  0.46401800  1
  Li  Li27  1  0.97235600  0.64878000  0.53598200  1
  Be  Be28  1  0.65015600  0.67540200  0.88940800  1
  Be  Be29  1  0.34984400  0.32459800  0.11059200  1
  Be  Be30  1  0.02524600  0.34984400  0.88940800  1
  Be  Be31  1  0.34984400  0.32459800  0.38940700  1
  Be  Be32  1  0.97475400  0.65015600  0.11059200  1
  Be  Be33  1  0.65015600  0.67540200  0.61059200  1
  Be  Be34  1  0.32459800  0.97475400  0.88940800  1
  Be  Be35  1  0.97475400  0.65015600  0.38940700  1
  Be  Be36  1  0.67540200  0.02524600  0.11059200  1
  Be  Be37  1  0.02524600  0.34984400  0.61059200  1
  Be  Be38  1  0.67540200  0.02524600  0.38940700  1
  Be  Be39  1  0.32459800  0.97475400  0.61059200  1
  B  B40  1  0.66666700  0.33333300  0.89283200  1
  B  B41  1  0.33333300  0.66666700  0.10716800  1
  B  B42  1  0.33333300  0.66666700  0.39283200  1
  B  B43  1  0.66666700  0.33333300  0.60716800  1
  B  B44  1  0.00000000  0.00000000  0.90707900  1
  B  B45  1  0.00000000  0.00000000  0.09292100  1
  B  B46  1  0.00000000  0.00000000  0.40707900  1
  B  B47  1  0.00000000  0.00000000  0.59292100  1
  B  B48  1  0.67758400  0.69918500  0.75000000  1
  B  B49  1  0.32241600  0.30081500  0.25000000  1
  B  B50  1  0.02160100  0.32241600  0.75000000  1
  B  B51  1  0.97839900  0.67758400  0.25000000  1
  B  B52  1  0.30081500  0.97839900  0.75000000  1
  B  B53  1  0.69918500  0.02160100  0.25000000  1
  B  B54  1  0.66666700  0.33333300  0.44862500  1
  B  B55  1  0.33333300  0.66666700  0.55137500  1
  B  B56  1  0.33333300  0.66666700  0.94862500  1
  B  B57  1  0.66666700  0.33333300  0.05137500  1
  O  O58  1  0.82104700  0.20030300  0.75000000  1
  O  O59  1  0.17895300  0.79969700  0.25000000  1
  O  O60  1  0.37925600  0.17895300  0.75000000  1
  O  O61  1  0.62074400  0.82104700  0.25000000  1
  O  O62  1  0.79969700  0.62074400  0.75000000  1
  O  O63  1  0.20030300  0.37925600  0.25000000  1
  O  O64  1  0.91058100  0.11369500  0.90665000  1
  O  O65  1  0.08941900  0.88630500  0.09335000  1
  O  O66  1  0.20311400  0.08941900  0.90665000  1
  O  O67  1  0.08941900  0.88630500  0.40665000  1
  O  O68  1  0.79688600  0.91058100  0.09335000  1
  O  O69  1  0.91058100  0.11369500  0.59335000  1
  O  O70  1  0.88630500  0.79688600  0.90665000  1
  O  O71  1  0.79688600  0.91058100  0.40665000  1
  O  O72  1  0.11369500  0.20311400  0.09335000  1
  O  O73  1  0.20311400  0.08941900  0.59335000  1
  O  O74  1  0.11369500  0.20311400  0.40665000  1
  O  O75  1  0.88630500  0.79688600  0.59335000  1
  O  O76  1  0.60797600  0.73865700  0.81151700  1
  O  O77  1  0.39202400  0.26134300  0.18848300  1
  O  O78  1  0.13068100  0.39202400  0.81151700  1
  O  O79  1  0.39202400  0.26134300  0.31151700  1
  O  O80  1  0.86931900  0.60797600  0.18848300  1
  O  O81  1  0.60797600  0.73865700  0.68848300  1
  O  O82  1  0.26134300  0.86931900  0.81151700  1
  O  O83  1  0.86931900  0.60797600  0.31151700  1
  O  O84  1  0.73865700  0.13068100  0.18848300  1
  O  O85  1  0.13068100  0.39202400  0.68848300  1
  O  O86  1  0.73865700  0.13068100  0.31151700  1
  O  O87  1  0.26134300  0.86931900  0.68848300  1
  O  O88  1  0.87113000  0.43244900  0.89230500  1
  O  O89  1  0.12887000  0.56755100  0.10769500  1
  O  O90  1  0.56131900  0.12887000  0.89230500  1
  O  O91  1  0.12887000  0.56755100  0.39230500  1
  O  O92  1  0.43868100  0.87113000  0.10769500  1
  O  O93  1  0.87113000  0.43244900  0.60769500  1
  O  O94  1  0.56755100  0.43868100  0.89230500  1
  O  O95  1  0.43868100  0.87113000  0.39230500  1
  O  O96  1  0.43244900  0.56131900  0.10769500  1
  O  O97  1  0.56131900  0.12887000  0.60769500  1
  O  O98  1  0.43244900  0.56131900  0.39230500  1
  O  O99  1  0.56755100  0.43868100  0.60769500  1
  O  O100  1  0.53441100  0.73323100  0.94977900  1
  O  O101  1  0.46558900  0.26676900  0.05022100  1
  O  O102  1  0.19882000  0.46558900  0.94977900  1
  O  O103  1  0.46558900  0.26676900  0.44977900  1
  O  O104  1  0.80118000  0.53441100  0.05022100  1
  O  O105  1  0.53441100  0.73323100  0.55022100  1
  O  O106  1  0.26676900  0.80118000  0.94977900  1
  O  O107  1  0.80118000  0.53441100  0.44977900  1
  O  O108  1  0.73323100  0.19882000  0.05022100  1
  O  O109  1  0.19882000  0.46558900  0.55022100  1
  O  O110  1  0.73323100  0.19882000  0.44977900  1
  O  O111  1  0.26676900  0.80118000  0.55022100  1
