# generated using pymatgen
data_Sr4Li2Si4N8O
_symmetry_space_group_name_H-M   'P 1'
_cell_length_a   9.37407300
_cell_length_b   9.37407300
_cell_length_c   5.60878800
_cell_angle_alpha   90.00000000
_cell_angle_beta   90.00000000
_cell_angle_gamma   90.00000000
_symmetry_Int_Tables_number   1
_chemical_formula_structural   Sr4Li2Si4N8O
_chemical_formula_sum   'Sr8 Li4 Si8 N16 O2'
_cell_volume   492.86239989
_cell_formula_units_Z   2
loop_
 _symmetry_equiv_pos_site_id
 _symmetry_equiv_pos_as_xyz
  1  'x, y, z'
loop_
 _atom_site_type_symbol
 _atom_site_label
 _atom_site_symmetry_multiplicity
 _atom_site_fract_x
 _atom_site_fract_y
 _atom_site_fract_z
 _atom_site_occupancy
  Sr  Sr0  1  0.94494800  0.73466800  0.50000000  1
  Sr  Sr1  1  0.05505200  0.26533200  0.50000000  1
  Sr  Sr2  1  0.44494800  0.76533200  0.00000000  1
  Sr  Sr3  1  0.55505200  0.23466800  0.00000000  1
  Sr  Sr4  1  0.26533200  0.94494800  0.50000000  1
  Sr  Sr5  1  0.73466800  0.05505200  0.50000000  1
  Sr  Sr6  1  0.23466800  0.44494800  0.00000000  1
  Sr  Sr7  1  0.76533200  0.55505200  0.00000000  1
  Li  Li8  1  0.00000000  0.00000000  0.18260200  1
  Li  Li9  1  0.50000000  0.50000000  0.68260200  1
  Li  Li10  1  0.00000000  0.00000000  0.81739800  1
  Li  Li11  1  0.50000000  0.50000000  0.31739800  1
  Si  Si12  1  0.62040500  0.73085300  0.50000000  1
  Si  Si13  1  0.37959500  0.26914700  0.50000000  1
  Si  Si14  1  0.12040500  0.76914700  0.00000000  1
  Si  Si15  1  0.87959500  0.23085300  0.00000000  1
  Si  Si16  1  0.26914700  0.62040500  0.50000000  1
  Si  Si17  1  0.73085300  0.37959500  0.50000000  1
  Si  Si18  1  0.23085300  0.12040500  0.00000000  1
  Si  Si19  1  0.76914700  0.87959500  0.00000000  1
  N  N20  1  0.43705800  0.70454800  0.50000000  1
  N  N21  1  0.56294200  0.29545200  0.50000000  1
  N  N22  1  0.93705800  0.79545200  0.00000000  1
  N  N23  1  0.06294200  0.20454800  0.00000000  1
  N  N24  1  0.29545200  0.43705800  0.50000000  1
  N  N25  1  0.70454800  0.56294200  0.50000000  1
  N  N26  1  0.20454800  0.93705800  0.00000000  1
  N  N27  1  0.79545200  0.06294200  0.00000000  1
  N  N28  1  0.67419200  0.82580800  0.25000000  1
  N  N29  1  0.32580800  0.17419200  0.25000000  1
  N  N30  1  0.17419200  0.67419200  0.75000000  1
  N  N31  1  0.82580800  0.32580800  0.75000000  1
  N  N32  1  0.17419200  0.67419200  0.25000000  1
  N  N33  1  0.82580800  0.32580800  0.25000000  1
  N  N34  1  0.32580800  0.17419200  0.75000000  1
  N  N35  1  0.67419200  0.82580800  0.75000000  1
  O  O36  1  0.00000000  0.00000000  0.50000000  1
  O  O37  1  0.50000000  0.50000000  0.00000000  1
