# generated using pymatgen
data_V2FeGe
_symmetry_space_group_name_H-M   'P 1'
_cell_length_a   4.67308382
_cell_length_b   4.67308382
_cell_length_c   4.62222500
_cell_angle_alpha   90.00000000
_cell_angle_beta   90.00000000
_cell_angle_gamma   90.13403359
_symmetry_Int_Tables_number   1
_chemical_formula_structural   V2FeGe
_chemical_formula_sum   'V4 Fe2 Ge2'
_cell_volume   100.93854409
_cell_formula_units_Z   2
loop_
 _symmetry_equiv_pos_site_id
 _symmetry_equiv_pos_as_xyz
  1  'x, y, z'
loop_
 _atom_site_type_symbol
 _atom_site_label
 _atom_site_symmetry_multiplicity
 _atom_site_fract_x
 _atom_site_fract_y
 _atom_site_fract_z
 _atom_site_occupancy
  V  V0  1  0.49730000  0.49730000  0.50000000  1
  V  V1  1  0.23932400  0.00595500  0.75000000  1
  V  V2  1  0.00595500  0.23932400  0.25000000  1
  V  V3  1  0.49730000  0.49730000  0.00000000  1
  Fe  Fe4  1  0.74924500  0.00727000  0.75000000  1
  Fe  Fe5  1  0.00727000  0.74924500  0.25000000  1
  Ge  Ge6  1  0.50801400  0.99559100  0.25000000  1
  Ge  Ge7  1  0.99559100  0.50801400  0.75000000  1
