# generated using pymatgen
data_Tb2CBr
_symmetry_space_group_name_H-M   'P 1'
_cell_length_a   3.70152552
_cell_length_b   3.70152552
_cell_length_c   14.26444200
_cell_angle_alpha   90.00000000
_cell_angle_beta   90.00000000
_cell_angle_gamma   119.99999151
_symmetry_Int_Tables_number   1
_chemical_formula_structural   Tb2CBr
_chemical_formula_sum   'Tb4 C2 Br2'
_cell_volume   169.25712254
_cell_formula_units_Z   2
loop_
 _symmetry_equiv_pos_site_id
 _symmetry_equiv_pos_as_xyz
  1  'x, y, z'
loop_
 _atom_site_type_symbol
 _atom_site_label
 _atom_site_symmetry_multiplicity
 _atom_site_fract_x
 _atom_site_fract_y
 _atom_site_fract_z
 _atom_site_occupancy
  Tb  Tb0  1  0.33333300  0.66666700  0.59018500  1
  Tb  Tb1  1  0.66666700  0.33333300  0.40981500  1
  Tb  Tb2  1  0.66666700  0.33333300  0.09018500  1
  Tb  Tb3  1  0.33333300  0.66666700  0.90981500  1
  C  C4  1  0.00000000  0.00000000  0.00000000  1
  C  C5  1  0.00000000  0.00000000  0.50000000  1
  Br  Br6  1  0.33333300  0.66666700  0.25000000  1
  Br  Br7  1  0.66666700  0.33333300  0.75000000  1
