# generated using pymatgen
data_Cs2GeSe4
_symmetry_space_group_name_H-M   'P 1'
_cell_length_a   8.74400286
_cell_length_b   8.74400286
_cell_length_c   10.38640040
_cell_angle_alpha   62.07197558
_cell_angle_beta   62.07197558
_cell_angle_gamma   53.28032071
_symmetry_Int_Tables_number   1
_chemical_formula_structural   Cs2GeSe4
_chemical_formula_sum   'Cs4 Ge2 Se8'
_cell_volume   542.15919231
_cell_formula_units_Z   2
loop_
 _symmetry_equiv_pos_site_id
 _symmetry_equiv_pos_as_xyz
  1  'x, y, z'
loop_
 _atom_site_type_symbol
 _atom_site_label
 _atom_site_symmetry_multiplicity
 _atom_site_fract_x
 _atom_site_fract_y
 _atom_site_fract_z
 _atom_site_occupancy
  Cs  Cs0  1  0.15876700  0.15876700  0.71506000  1
  Cs  Cs1  1  0.84123300  0.84123300  0.28494000  1
  Cs  Cs2  1  0.40824000  0.40824000  0.85815000  1
  Cs  Cs3  1  0.59176000  0.59176000  0.14185000  1
  Ge  Ge4  1  0.15729200  0.15729200  0.29811900  1
  Ge  Ge5  1  0.84270800  0.84270800  0.70188100  1
  Se  Se6  1  0.83938800  0.33211200  0.46614000  1
  Se  Se7  1  0.33211200  0.83938800  0.46614000  1
  Se  Se8  1  0.16061200  0.66788800  0.53386000  1
  Se  Se9  1  0.66788800  0.16061200  0.53386000  1
  Se  Se10  1  0.12557500  0.12557500  0.10430600  1
  Se  Se11  1  0.87442500  0.87442500  0.89569400  1
  Se  Se12  1  0.31515700  0.31515700  0.26965100  1
  Se  Se13  1  0.68484300  0.68484300  0.73034900  1
