# generated using pymatgen
data_PrGe2Pt
_symmetry_space_group_name_H-M   'P 1'
_cell_length_a   9.71876002
_cell_length_b   9.71876002
_cell_length_c   9.71876002
_cell_angle_alpha   153.46889947
_cell_angle_beta   125.52695744
_cell_angle_gamma   61.58998497
_symmetry_Int_Tables_number   1
_chemical_formula_structural   PrGe2Pt
_chemical_formula_sum   'Pr4 Ge8 Pt4'
_cell_volume   331.24640704
_cell_formula_units_Z   4
loop_
 _symmetry_equiv_pos_site_id
 _symmetry_equiv_pos_as_xyz
  1  'x, y, z'
loop_
 _atom_site_type_symbol
 _atom_site_label
 _atom_site_symmetry_multiplicity
 _atom_site_fract_x
 _atom_site_fract_y
 _atom_site_fract_z
 _atom_site_occupancy
  Pr  Pr0  1  0.73796800  0.00000000  0.73796800  1
  Pr  Pr1  1  0.26203200  0.00000000  0.26203200  1
  Pr  Pr2  1  0.29661200  0.79661200  0.50000000  1
  Pr  Pr3  1  0.70338800  0.20338800  0.50000000  1
  Ge  Ge4  1  0.92556400  0.42556400  0.50000000  1
  Ge  Ge5  1  0.07443600  0.57443600  0.50000000  1
  Ge  Ge6  1  0.42530200  0.42530200  0.00000000  1
  Ge  Ge7  1  0.57469800  0.57469800  0.00000000  1
  Ge  Ge8  1  0.35048800  0.19897100  0.15151700  1
  Ge  Ge9  1  0.64951200  0.80102900  0.84848300  1
  Ge  Ge10  1  0.04745400  0.19897100  0.84848300  1
  Ge  Ge11  1  0.95254600  0.80102900  0.15151700  1
  Pt  Pt12  1  0.60383600  0.35083200  0.25300400  1
  Pt  Pt13  1  0.39616400  0.64916800  0.74699600  1
  Pt  Pt14  1  0.09782800  0.35083200  0.74699600  1
  Pt  Pt15  1  0.90217200  0.64916800  0.25300400  1
