# generated using pymatgen
data_La3Pd4
_symmetry_space_group_name_H-M   'P 1'
_cell_length_a   8.31671797
_cell_length_b   8.31671797
_cell_length_c   8.31671808
_cell_angle_alpha   114.62030153
_cell_angle_beta   114.62030153
_cell_angle_gamma   114.62030822
_symmetry_Int_Tables_number   1
_chemical_formula_structural   La3Pd4
_chemical_formula_sum   'La6 Pd8'
_cell_volume   332.80846722
_cell_formula_units_Z   2
loop_
 _symmetry_equiv_pos_site_id
 _symmetry_equiv_pos_as_xyz
  1  'x, y, z'
loop_
 _atom_site_type_symbol
 _atom_site_label
 _atom_site_symmetry_multiplicity
 _atom_site_fract_x
 _atom_site_fract_y
 _atom_site_fract_z
 _atom_site_occupancy
  La  La0  1  0.97126000  0.59450300  0.72015000  1
  La  La1  1  0.72015000  0.97126000  0.59450300  1
  La  La2  1  0.59450300  0.72015000  0.97126000  1
  La  La3  1  0.02874000  0.40549700  0.27985000  1
  La  La4  1  0.27985000  0.02874000  0.40549700  1
  La  La5  1  0.40549700  0.27985000  0.02874000  1
  Pd  Pd6  1  0.00000000  0.00000000  0.00000000  1
  Pd  Pd7  1  0.50000000  0.50000000  0.50000000  1
  Pd  Pd8  1  0.94153800  0.77793900  0.44660400  1
  Pd  Pd9  1  0.44660400  0.94153800  0.77793900  1
  Pd  Pd10  1  0.77793900  0.44660400  0.94153800  1
  Pd  Pd11  1  0.05846200  0.22206100  0.55339600  1
  Pd  Pd12  1  0.55339600  0.05846200  0.22206100  1
  Pd  Pd13  1  0.22206100  0.55339600  0.05846200  1
