# generated using pymatgen
data_Rb3Sc2Si4(O2F)5
_symmetry_space_group_name_H-M   'P 1'
_cell_length_a   8.39522000
_cell_length_b   9.75730700
_cell_length_c   18.72150600
_cell_angle_alpha   90.00000000
_cell_angle_beta   90.00000000
_cell_angle_gamma   90.00000000
_symmetry_Int_Tables_number   1
_chemical_formula_structural   Rb3Sc2Si4(O2F)5
_chemical_formula_sum   'Rb12 Sc8 Si16 O40 F20'
_cell_volume   1533.56727529
_cell_formula_units_Z   4
loop_
 _symmetry_equiv_pos_site_id
 _symmetry_equiv_pos_as_xyz
  1  'x, y, z'
loop_
 _atom_site_type_symbol
 _atom_site_label
 _atom_site_symmetry_multiplicity
 _atom_site_fract_x
 _atom_site_fract_y
 _atom_site_fract_z
 _atom_site_occupancy
  Rb  Rb0  1  0.25000000  0.00590700  0.51398400  1
  Rb  Rb1  1  0.25000000  0.50590700  0.98601600  1
  Rb  Rb2  1  0.75000000  0.99409300  0.48601600  1
  Rb  Rb3  1  0.75000000  0.49409300  0.01398400  1
  Rb  Rb4  1  0.25000000  0.14240300  0.12980500  1
  Rb  Rb5  1  0.25000000  0.64240300  0.37019500  1
  Rb  Rb6  1  0.75000000  0.85759700  0.87019500  1
  Rb  Rb7  1  0.75000000  0.35759700  0.62980500  1
  Rb  Rb8  1  0.25000000  0.36076500  0.62444400  1
  Rb  Rb9  1  0.25000000  0.86076500  0.87555600  1
  Rb  Rb10  1  0.75000000  0.63923500  0.37555600  1
  Rb  Rb11  1  0.75000000  0.13923500  0.12444400  1
  Sc  Sc12  1  0.00010000  0.31082100  0.44638200  1
  Sc  Sc13  1  0.49990000  0.81082100  0.05361800  1
  Sc  Sc14  1  0.50010000  0.68917900  0.55361800  1
  Sc  Sc15  1  0.99990000  0.18917900  0.94638200  1
  Sc  Sc16  1  0.99990000  0.68917900  0.55361800  1
  Sc  Sc17  1  0.50010000  0.18917900  0.94638200  1
  Sc  Sc18  1  0.49990000  0.31082100  0.44638200  1
  Sc  Sc19  1  0.00010000  0.81082100  0.05361800  1
  Si  Si20  1  0.43686800  0.06983100  0.32105900  1
  Si  Si21  1  0.06313200  0.56983100  0.17894100  1
  Si  Si22  1  0.93686800  0.93016900  0.67894100  1
  Si  Si23  1  0.56313200  0.43016900  0.82105900  1
  Si  Si24  1  0.56313200  0.93016900  0.67894100  1
  Si  Si25  1  0.93686800  0.43016900  0.82105900  1
  Si  Si26  1  0.06313200  0.06983100  0.32105900  1
  Si  Si27  1  0.43686800  0.56983100  0.17894100  1
  Si  Si28  1  0.06281400  0.16289700  0.77505600  1
  Si  Si29  1  0.43718600  0.66289700  0.72494400  1
  Si  Si30  1  0.56281400  0.83710300  0.22494400  1
  Si  Si31  1  0.93718600  0.33710300  0.27505600  1
  Si  Si32  1  0.93718600  0.83710300  0.22494400  1
  Si  Si33  1  0.56281400  0.33710300  0.27505600  1
  Si  Si34  1  0.43718600  0.16289700  0.77505600  1
  Si  Si35  1  0.06281400  0.66289700  0.72494400  1
  O  O36  1  0.25000000  0.02103500  0.31792400  1
  O  O37  1  0.25000000  0.52103500  0.18207600  1
  O  O38  1  0.75000000  0.97896500  0.68207600  1
  O  O39  1  0.75000000  0.47896500  0.81792400  1
  O  O40  1  0.25000000  0.21190300  0.77243800  1
  O  O41  1  0.25000000  0.71190300  0.72756200  1
  O  O42  1  0.75000000  0.78809700  0.22756200  1
  O  O43  1  0.75000000  0.28809700  0.27243800  1
  O  O44  1  0.01093300  0.12247200  0.39911900  1
  O  O45  1  0.48906700  0.62247200  0.10088100  1
  O  O46  1  0.51093300  0.87752800  0.60088100  1
  O  O47  1  0.98906700  0.37752800  0.89911900  1
  O  O48  1  0.98906700  0.87752800  0.60088100  1
  O  O49  1  0.51093300  0.37752800  0.89911900  1
  O  O50  1  0.48906700  0.12247200  0.39911900  1
  O  O51  1  0.01093300  0.62247200  0.10088100  1
  O  O52  1  0.01550300  0.08905600  0.84910100  1
  O  O53  1  0.48449700  0.58905500  0.65089900  1
  O  O54  1  0.51550300  0.91094500  0.15089900  1
  O  O55  1  0.98449700  0.41094400  0.34910100  1
  O  O56  1  0.98449700  0.91094500  0.15089900  1
  O  O57  1  0.51550300  0.41094400  0.34910100  1
  O  O58  1  0.48449700  0.08905600  0.84910100  1
  O  O59  1  0.01550300  0.58905500  0.65089900  1
  O  O60  1  0.03816700  0.06541900  0.70444300  1
  O  O61  1  0.46183300  0.56541900  0.79555700  1
  O  O62  1  0.53816700  0.93458100  0.29555700  1
  O  O63  1  0.96183300  0.43458100  0.20444300  1
  O  O64  1  0.96183300  0.93458100  0.29555700  1
  O  O65  1  0.53816700  0.43458100  0.20444300  1
  O  O66  1  0.46183300  0.06541900  0.70444300  1
  O  O67  1  0.03816700  0.56541900  0.79555700  1
  O  O68  1  0.03831100  0.19320000  0.26051700  1
  O  O69  1  0.46168900  0.69320000  0.23948300  1
  O  O70  1  0.53831100  0.80680000  0.73948300  1
  O  O71  1  0.96168900  0.30680000  0.76051700  1
  O  O72  1  0.96168900  0.80680000  0.73948300  1
  O  O73  1  0.53831100  0.30680000  0.76051700  1
  O  O74  1  0.46168900  0.19320000  0.26051700  1
  O  O75  1  0.03831100  0.69320000  0.23948300  1
  F  F76  1  0.00000000  0.00000000  0.00000000  1
  F  F77  1  0.50000000  0.50000000  0.50000000  1
  F  F78  1  0.50000000  0.00000000  0.00000000  1
  F  F79  1  0.00000000  0.50000000  0.50000000  1
  F  F80  1  0.25000000  0.32503700  0.45095900  1
  F  F81  1  0.25000000  0.82503700  0.04904100  1
  F  F82  1  0.75000000  0.67496300  0.54904100  1
  F  F83  1  0.75000000  0.17496300  0.95095900  1
  F  F84  1  0.25000000  0.19040400  0.95761900  1
  F  F85  1  0.25000000  0.69040400  0.54238100  1
  F  F86  1  0.75000000  0.80959600  0.04238100  1
  F  F87  1  0.75000000  0.30959600  0.45761900  1
  F  F88  1  0.00534400  0.22399600  0.54451400  1
  F  F89  1  0.49465600  0.72399600  0.95548600  1
  F  F90  1  0.50534400  0.77600400  0.45548600  1
  F  F91  1  0.99465600  0.27600400  0.04451400  1
  F  F92  1  0.99465600  0.77600400  0.45548600  1
  F  F93  1  0.50534400  0.27600400  0.04451400  1
  F  F94  1  0.49465600  0.22399600  0.54451400  1
  F  F95  1  0.00534400  0.72399600  0.95548600  1
