# generated using pymatgen
data_Cs3(Cr5Se8)4
_symmetry_space_group_name_H-M   'P 1'
_cell_length_a   11.03689200
_cell_length_b   11.66538647
_cell_length_c   11.80694442
_cell_angle_alpha   111.15683318
_cell_angle_beta   81.52676220
_cell_angle_gamma   117.32924682
_symmetry_Int_Tables_number   1
_chemical_formula_structural   Cs3(Cr5Se8)4
_chemical_formula_sum   'Cs3 Cr20 Se32'
_cell_volume   1259.13019904
_cell_formula_units_Z   1
loop_
 _symmetry_equiv_pos_site_id
 _symmetry_equiv_pos_as_xyz
  1  'x, y, z'
loop_
 _atom_site_type_symbol
 _atom_site_label
 _atom_site_symmetry_multiplicity
 _atom_site_fract_x
 _atom_site_fract_y
 _atom_site_fract_z
 _atom_site_occupancy
  Cs  Cs0  1  0.73067800  0.23112500  0.22926000  1
  Cs  Cs1  1  0.00000000  0.50000000  0.50000000  1
  Cs  Cs2  1  0.26932200  0.76887500  0.77074000  1
  Cr  Cr3  1  0.54282100  0.36117800  0.87733500  1
  Cr  Cr4  1  0.79099600  0.60992900  0.12753700  1
  Cr  Cr5  1  0.04357400  0.86078600  0.37785700  1
  Cr  Cr6  1  0.29470800  0.11075600  0.62853300  1
  Cr  Cr7  1  0.70529200  0.88924400  0.37146700  1
  Cr  Cr8  1  0.95642600  0.13921400  0.62214300  1
  Cr  Cr9  1  0.20900400  0.39007100  0.87246300  1
  Cr  Cr10  1  0.45717900  0.63882200  0.12266500  1
  Cr  Cr11  1  0.16058600  0.07141800  0.23685600  1
  Cr  Cr12  1  0.41026700  0.32042200  0.48581500  1
  Cr  Cr13  1  0.66091700  0.57109400  0.73651500  1
  Cr  Cr14  1  0.91130100  0.82202000  0.98754800  1
  Cr  Cr15  1  0.08869900  0.17798000  0.01245200  1
  Cr  Cr16  1  0.33908300  0.42890600  0.26348500  1
  Cr  Cr17  1  0.58973300  0.67957800  0.51418500  1
  Cr  Cr18  1  0.83941400  0.92858200  0.76314400  1
  Cr  Cr19  1  0.12581400  0.62589700  0.12494900  1
  Cr  Cr20  1  0.37497400  0.87493100  0.37413600  1
  Cr  Cr21  1  0.62502600  0.12506900  0.62586400  1
  Cr  Cr22  1  0.87418600  0.37410300  0.87505100  1
  Se  Se23  1  0.34595400  0.36634900  0.02390700  1
  Se  Se24  1  0.59533700  0.61678700  0.27458300  1
  Se  Se25  1  0.84555900  0.86721400  0.52406700  1
  Se  Se26  1  0.09615900  0.11649800  0.77342300  1
  Se  Se27  1  0.90384100  0.88350200  0.22657700  1
  Se  Se28  1  0.15444100  0.13278600  0.47593300  1
  Se  Se29  1  0.40466300  0.38321300  0.72541700  1
  Se  Se30  1  0.65404600  0.63365100  0.97609300  1
  Se  Se31  1  0.01795700  0.36667700  0.02003700  1
  Se  Se32  1  0.26673100  0.61652100  0.27111000  1
  Se  Se33  1  0.51654200  0.86621700  0.52110100  1
  Se  Se34  1  0.76688400  0.11584400  0.77089900  1
  Se  Se35  1  0.23311600  0.88415600  0.22910100  1
  Se  Se36  1  0.48345800  0.13378300  0.47889900  1
  Se  Se37  1  0.73326900  0.38347900  0.72889000  1
  Se  Se38  1  0.98204300  0.63332300  0.97996300  1
  Se  Se39  1  0.09563300  0.25151100  0.23968100  1
  Se  Se40  1  0.34649900  0.50172200  0.49071700  1
  Se  Se41  1  0.59737000  0.75163100  0.74075500  1
  Se  Se42  1  0.84613400  0.00047100  0.98921000  1
  Se  Se43  1  0.15386600  0.99952900  0.01079000  1
  Se  Se44  1  0.40263000  0.24836900  0.25924500  1
  Se  Se45  1  0.65350100  0.49827800  0.50928300  1
  Se  Se46  1  0.90436700  0.74848900  0.76031900  1
  Se  Se47  1  0.81736400  0.14131500  0.47533500  1
  Se  Se48  1  0.06898800  0.39164900  0.72656100  1
  Se  Se49  1  0.31977300  0.64158200  0.97741500  1
  Se  Se50  1  0.56644100  0.88970700  0.22420900  1
  Se  Se51  1  0.43355900  0.11029300  0.77579100  1
  Se  Se52  1  0.68022700  0.35841800  0.02258500  1
  Se  Se53  1  0.93101200  0.60835100  0.27343900  1
  Se  Se54  1  0.18263600  0.85868500  0.52466500  1
