# generated using pymatgen
data_Ho13Zn58
_symmetry_space_group_name_H-M   'P 1'
_cell_length_a   13.97447370
_cell_length_b   14.30294839
_cell_length_c   14.30294839
_cell_angle_alpha   120.00037870
_cell_angle_beta   90.00000000
_cell_angle_gamma   90.00000000
_symmetry_Int_Tables_number   1
_chemical_formula_structural   Ho13Zn58
_chemical_formula_sum   'Ho26 Zn116'
_cell_volume   2475.80011207
_cell_formula_units_Z   2
loop_
 _symmetry_equiv_pos_site_id
 _symmetry_equiv_pos_as_xyz
  1  'x, y, z'
loop_
 _atom_site_type_symbol
 _atom_site_label
 _atom_site_symmetry_multiplicity
 _atom_site_fract_x
 _atom_site_fract_y
 _atom_site_fract_z
 _atom_site_occupancy
  Ho  Ho0  1  0.50000000  0.00000000  0.00000000  1
  Ho  Ho1  1  -0.00000000  0.00000000  0.00000000  1
  Ho  Ho2  1  0.75000000  0.45582281  0.91164493  1
  Ho  Ho3  1  0.75000000  0.45582212  0.54417788  1
  Ho  Ho4  1  0.75000000  0.08835507  0.54417719  1
  Ho  Ho5  1  0.25000000  0.54417719  0.08835507  1
  Ho  Ho6  1  0.25000000  0.54417788  0.45582212  1
  Ho  Ho7  1  0.25000000  0.91164493  0.45582281  1
  Ho  Ho8  1  0.75000000  0.12803600  0.25606556  1
  Ho  Ho9  1  0.75000000  0.12804045  0.87195955  1
  Ho  Ho10  1  0.75000000  0.74393444  0.87196400  1
  Ho  Ho11  1  0.25000000  0.87196400  0.74393444  1
  Ho  Ho12  1  0.25000000  0.87195955  0.12804045  1
  Ho  Ho13  1  0.25000000  0.25606556  0.12803600  1
  Ho  Ho14  1  0.55210872  0.79418235  0.58836440  1
  Ho  Ho15  1  0.55210676  0.79418507  0.20581493  1
  Ho  Ho16  1  0.55210872  0.41163560  0.20581765  1
  Ho  Ho17  1  0.44789128  0.20581765  0.41163560  1
  Ho  Ho18  1  0.44789324  0.20581493  0.79418507  1
  Ho  Ho19  1  0.44789128  0.58836440  0.79418235  1
  Ho  Ho20  1  0.05210872  0.20581765  0.41163560  1
  Ho  Ho21  1  0.05210676  0.20581493  0.79418507  1
  Ho  Ho22  1  0.05210872  0.58836440  0.79418235  1
  Ho  Ho23  1  0.94789128  0.79418235  0.58836440  1
  Ho  Ho24  1  0.94789324  0.79418507  0.20581493  1
  Ho  Ho25  1  0.94789128  0.41163560  0.20581765  1
  Zn  Zn26  1  0.75000000  0.00000150  0.99999850  1
  Zn  Zn27  1  0.25000000  0.99999850  0.00000150  1
  Zn  Zn28  1  0.25000000  0.66667365  0.33332635  1
  Zn  Zn29  1  0.75000000  0.33332635  0.66667365  1
  Zn  Zn30  1  0.59605062  0.66667574  0.33332426  1
  Zn  Zn31  1  0.40394938  0.33332426  0.66667574  1
  Zn  Zn32  1  0.09605062  0.33332426  0.66667574  1
  Zn  Zn33  1  0.90394938  0.66667574  0.33332426  1
  Zn  Zn34  1  0.50000000  0.50000000  0.00000000  1
  Zn  Zn35  1  0.50000000  0.50000000  0.50000000  1
  Zn  Zn36  1  0.50000000  0.00000000  0.50000000  1
  Zn  Zn37  1  -0.00000000  0.50000000  0.00000000  1
  Zn  Zn38  1  -0.00000000  0.50000000  0.50000000  1
  Zn  Zn39  1  -0.00000000  0.00000000  0.50000000  1
  Zn  Zn40  1  0.75000000  0.73039297  0.46078484  1
  Zn  Zn41  1  0.75000000  0.73039683  0.26960317  1
  Zn  Zn42  1  0.75000000  0.53921516  0.26960703  1
  Zn  Zn43  1  0.25000000  0.26960703  0.53921516  1
  Zn  Zn44  1  0.25000000  0.26960317  0.73039683  1
  Zn  Zn45  1  0.25000000  0.46078484  0.73039297  1
  Zn  Zn46  1  0.49999915  0.79883777  0.99999817  1
  Zn  Zn47  1  0.50000000  0.20116169  0.20116169  1
  Zn  Zn48  1  0.50000085  0.99999817  0.79883777  1
  Zn  Zn49  1  0.50000085  0.20116223  0.00000183  1
  Zn  Zn50  1  0.49999915  0.00000183  0.20116223  1
  Zn  Zn51  1  0.50000000  0.79883831  0.79883831  1
  Zn  Zn52  1  0.99999915  0.20116223  0.00000183  1
  Zn  Zn53  1  -0.00000000  0.79883831  0.79883831  1
  Zn  Zn54  1  0.00000085  0.00000183  0.20116223  1
  Zn  Zn55  1  0.00000085  0.79883777  0.99999817  1
  Zn  Zn56  1  0.99999915  0.99999817  0.79883777  1
  Zn  Zn57  1  -0.00000000  0.20116169  0.20116169  1
  Zn  Zn58  1  0.75000000  0.91569599  0.63457409  1
  Zn  Zn59  1  0.75000000  0.71887639  0.08430007  1
  Zn  Zn60  1  0.75000000  0.36542417  0.28112061  1
  Zn  Zn61  1  0.75000000  0.71887939  0.63457583  1
  Zn  Zn62  1  0.75000000  0.36542591  0.08430401  1
  Zn  Zn63  1  0.75000000  0.91569993  0.28112361  1
  Zn  Zn64  1  0.25000000  0.08430401  0.36542591  1
  Zn  Zn65  1  0.25000000  0.28112361  0.91569993  1
  Zn  Zn66  1  0.25000000  0.63457583  0.71887939  1
  Zn  Zn67  1  0.25000000  0.28112061  0.36542417  1
  Zn  Zn68  1  0.25000000  0.63457409  0.91569599  1
  Zn  Zn69  1  0.25000000  0.08430007  0.71887639  1
  Zn  Zn70  1  0.65683190  0.90501729  0.81003425  1
  Zn  Zn71  1  0.65683154  0.90501776  0.09498224  1
  Zn  Zn72  1  0.65683190  0.18996575  0.09498271  1
  Zn  Zn73  1  0.34316810  0.09498271  0.18996575  1
  Zn  Zn74  1  0.34316846  0.09498224  0.90501776  1
  Zn  Zn75  1  0.34316810  0.81003425  0.90501729  1
  Zn  Zn76  1  0.15683190  0.09498271  0.18996575  1
  Zn  Zn77  1  0.15683154  0.09498224  0.90501776  1
  Zn  Zn78  1  0.15683190  0.81003425  0.90501729  1
  Zn  Zn79  1  0.84316810  0.90501729  0.81003425  1
  Zn  Zn80  1  0.84316846  0.90501776  0.09498224  1
  Zn  Zn81  1  0.84316810  0.18996575  0.09498271  1
  Zn  Zn82  1  0.14185786  0.43676018  0.87352151  1
  Zn  Zn83  1  0.14185264  0.43675433  0.56324567  1
  Zn  Zn84  1  0.14185786  0.12647849  0.56323982  1
  Zn  Zn85  1  0.85814214  0.56323982  0.12647849  1
  Zn  Zn86  1  0.85814736  0.56324567  0.43675433  1
  Zn  Zn87  1  0.85814214  0.87352151  0.43676018  1
  Zn  Zn88  1  0.64185786  0.56323982  0.12647849  1
  Zn  Zn89  1  0.64185264  0.56324567  0.43675433  1
  Zn  Zn90  1  0.64185786  0.87352151  0.43676018  1
  Zn  Zn91  1  0.35814214  0.43676018  0.87352151  1
  Zn  Zn92  1  0.35814736  0.43675433  0.56324567  1
  Zn  Zn93  1  0.35814214  0.12647849  0.56323982  1
  Zn  Zn94  1  0.55100569  0.39864882  0.79729730  1
  Zn  Zn95  1  0.55099530  0.39864667  0.60135333  1
  Zn  Zn96  1  0.55100569  0.20270270  0.60135118  1
  Zn  Zn97  1  0.44899431  0.60135118  0.20270270  1
  Zn  Zn98  1  0.44900470  0.60135333  0.39864667  1
  Zn  Zn99  1  0.44899431  0.79729730  0.39864882  1
  Zn  Zn100  1  0.05100569  0.60135118  0.20270270  1
  Zn  Zn101  1  0.05099530  0.60135333  0.39864667  1
  Zn  Zn102  1  0.05100569  0.79729730  0.39864882  1
  Zn  Zn103  1  0.94899431  0.39864882  0.79729730  1
  Zn  Zn104  1  0.94900470  0.39864667  0.60135333  1
  Zn  Zn105  1  0.94899431  0.20270270  0.60135118  1
  Zn  Zn106  1  0.15709854  0.76422755  0.52845160  1
  Zn  Zn107  1  0.15709478  0.76422852  0.23577148  1
  Zn  Zn108  1  0.15709854  0.47154840  0.23577245  1
  Zn  Zn109  1  0.84290146  0.23577245  0.47154840  1
  Zn  Zn110  1  0.84290522  0.23577148  0.76422852  1
  Zn  Zn111  1  0.84290146  0.52845160  0.76422755  1
  Zn  Zn112  1  0.65709854  0.23577245  0.47154840  1
  Zn  Zn113  1  0.65709478  0.23577148  0.76422852  1
  Zn  Zn114  1  0.65709854  0.52845160  0.76422755  1
  Zn  Zn115  1  0.34290146  0.76422755  0.52845160  1
  Zn  Zn116  1  0.34290522  0.76422852  0.23577148  1
  Zn  Zn117  1  0.34290146  0.47154840  0.23577245  1
  Zn  Zn118  1  0.60257127  0.63432879  0.96377419  1
  Zn  Zn119  1  0.60257259  0.32944476  0.36567085  1
  Zn  Zn120  1  0.60257159  0.03622366  0.67055320  1
  Zn  Zn121  1  0.60257159  0.32944680  0.96377634  1
  Zn  Zn122  1  0.60257127  0.03622581  0.36567121  1
  Zn  Zn123  1  0.60257259  0.63432915  0.67055524  1
  Zn  Zn124  1  0.39742873  0.36567121  0.03622581  1
  Zn  Zn125  1  0.39742741  0.67055524  0.63432915  1
  Zn  Zn126  1  0.39742841  0.96377634  0.32944680  1
  Zn  Zn127  1  0.39742841  0.67055320  0.03622366  1
  Zn  Zn128  1  0.39742873  0.96377419  0.63432879  1
  Zn  Zn129  1  0.39742741  0.36567085  0.32944476  1
  Zn  Zn130  1  0.10257127  0.36567121  0.03622581  1
  Zn  Zn131  1  0.10257259  0.67055524  0.63432915  1
  Zn  Zn132  1  0.10257159  0.96377634  0.32944680  1
  Zn  Zn133  1  0.10257159  0.67055320  0.03622366  1
  Zn  Zn134  1  0.10257127  0.96377419  0.63432879  1
  Zn  Zn135  1  0.10257259  0.36567085  0.32944476  1
  Zn  Zn136  1  0.89742873  0.63432879  0.96377419  1
  Zn  Zn137  1  0.89742741  0.32944476  0.36567085  1
  Zn  Zn138  1  0.89742841  0.03622366  0.67055320  1
  Zn  Zn139  1  0.89742841  0.32944680  0.96377634  1
  Zn  Zn140  1  0.89742873  0.03622581  0.36567121  1
  Zn  Zn141  1  0.89742741  0.63432915  0.67055524  1
