# generated using pymatgen
data_ScSb3Pb4O13
_symmetry_space_group_name_H-M   'P 1'
_cell_length_a   7.57812321
_cell_length_b   7.57812321
_cell_length_c   7.57812256
_cell_angle_alpha   60.01037911
_cell_angle_beta   60.01037911
_cell_angle_gamma   60.01037881
_symmetry_Int_Tables_number   1
_chemical_formula_structural   ScSb3Pb4O13
_chemical_formula_sum   'Sc1 Sb3 Pb4 O13'
_cell_volume   307.80249035
_cell_formula_units_Z   1
loop_
 _symmetry_equiv_pos_site_id
 _symmetry_equiv_pos_as_xyz
  1  'x, y, z'
loop_
 _atom_site_type_symbol
 _atom_site_label
 _atom_site_symmetry_multiplicity
 _atom_site_fract_x
 _atom_site_fract_y
 _atom_site_fract_z
 _atom_site_occupancy
  Sc  Sc0  1  0.49951300  0.49951300  0.49951300  1
  Sb  Sb1  1  0.00074000  0.49950400  0.49950400  1
  Sb  Sb2  1  0.49950400  0.49950400  0.00074000  1
  Sb  Sb3  1  0.49950400  0.00074000  0.49950400  1
  Pb  Pb4  1  0.99932800  0.99932800  0.99932800  1
  Pb  Pb5  1  0.50235900  0.99949400  0.99949400  1
  Pb  Pb6  1  0.99949400  0.99949400  0.50235900  1
  Pb  Pb7  1  0.99949400  0.50235900  0.99949400  1
  O  O8  1  0.83583900  0.42558500  0.42558500  1
  O  O9  1  0.42443200  0.82181100  0.82181100  1
  O  O10  1  0.42558500  0.42558500  0.83583900  1
  O  O11  1  0.82181100  0.82181100  0.42443200  1
  O  O12  1  0.82181100  0.42443200  0.82181100  1
  O  O13  1  0.42558500  0.83583900  0.42558500  1
  O  O14  1  0.16760100  0.57198900  0.57198900  1
  O  O15  1  0.57394500  0.18022300  0.18022300  1
  O  O16  1  0.57198900  0.57198900  0.16760100  1
  O  O17  1  0.18022300  0.18022300  0.57394500  1
  O  O18  1  0.18022300  0.57394500  0.18022300  1
  O  O19  1  0.57198900  0.16760100  0.57198900  1
  O  O20  1  0.12403300  0.12403300  0.12403300  1
