# generated using pymatgen
data_SmGePd
_symmetry_space_group_name_H-M   'P 1'
_cell_length_a   4.48867200
_cell_length_b   7.64886400
_cell_length_c   21.54993200
_cell_angle_alpha   90.00000000
_cell_angle_beta   90.00000000
_cell_angle_gamma   90.00000000
_symmetry_Int_Tables_number   1
_chemical_formula_structural   SmGePd
_chemical_formula_sum   'Sm12 Ge12 Pd12'
_cell_volume   739.87902330
_cell_formula_units_Z   12
loop_
 _symmetry_equiv_pos_site_id
 _symmetry_equiv_pos_as_xyz
  1  'x, y, z'
loop_
 _atom_site_type_symbol
 _atom_site_label
 _atom_site_symmetry_multiplicity
 _atom_site_fract_x
 _atom_site_fract_y
 _atom_site_fract_z
 _atom_site_occupancy
  Sm  Sm0  1  0.25000000  0.70912800  0.33317300  1
  Sm  Sm1  1  0.75000000  0.29087200  0.66682700  1
  Sm  Sm2  1  0.75000000  0.20912800  0.16682700  1
  Sm  Sm3  1  0.25000000  0.79087200  0.83317300  1
  Sm  Sm4  1  0.25000000  0.78877400  0.16602500  1
  Sm  Sm5  1  0.75000000  0.21122600  0.83397500  1
  Sm  Sm6  1  0.75000000  0.28877400  0.33397500  1
  Sm  Sm7  1  0.25000000  0.71122600  0.66602500  1
  Sm  Sm8  1  0.25000000  0.71544000  0.00116200  1
  Sm  Sm9  1  0.75000000  0.28456000  0.99883800  1
  Sm  Sm10  1  0.75000000  0.21544000  0.49883800  1
  Sm  Sm11  1  0.25000000  0.78456000  0.50116200  1
  Ge  Ge12  1  0.25000000  0.08750400  0.07117400  1
  Ge  Ge13  1  0.75000000  0.91249600  0.92882600  1
  Ge  Ge14  1  0.75000000  0.58750400  0.42882600  1
  Ge  Ge15  1  0.25000000  0.41249600  0.57117400  1
  Ge  Ge16  1  0.25000000  0.08324900  0.26960200  1
  Ge  Ge17  1  0.75000000  0.91675100  0.73039800  1
  Ge  Ge18  1  0.75000000  0.58324900  0.23039800  1
  Ge  Ge19  1  0.25000000  0.41675100  0.76960200  1
  Ge  Ge20  1  0.25000000  0.08819500  0.39792100  1
  Ge  Ge21  1  0.75000000  0.91180500  0.60207900  1
  Ge  Ge22  1  0.75000000  0.58819500  0.10207900  1
  Ge  Ge23  1  0.25000000  0.41180500  0.89792100  1
  Pd  Pd24  1  0.25000000  0.41576100  0.23739900  1
  Pd  Pd25  1  0.75000000  0.58423900  0.76260100  1
  Pd  Pd26  1  0.75000000  0.91576100  0.26260100  1
  Pd  Pd27  1  0.25000000  0.08423900  0.73739900  1
  Pd  Pd28  1  0.25000000  0.41716800  0.43485300  1
  Pd  Pd29  1  0.75000000  0.58283200  0.56514700  1
  Pd  Pd30  1  0.75000000  0.91716800  0.06514700  1
  Pd  Pd31  1  0.25000000  0.08283200  0.93485300  1
  Pd  Pd32  1  0.25000000  0.41951000  0.09351700  1
  Pd  Pd33  1  0.75000000  0.58049000  0.90648300  1
  Pd  Pd34  1  0.75000000  0.91951000  0.40648300  1
  Pd  Pd35  1  0.25000000  0.08049000  0.59351700  1
