# generated using pymatgen
data_TbAu3
_symmetry_space_group_name_H-M   'P 1'
_cell_length_a   5.08666100
_cell_length_b   5.20778100
_cell_length_c   6.17847200
_cell_angle_alpha   90.00000000
_cell_angle_beta   90.00000000
_cell_angle_gamma   90.00000000
_symmetry_Int_Tables_number   1
_chemical_formula_structural   TbAu3
_chemical_formula_sum   'Tb2 Au6'
_cell_volume   163.66906098
_cell_formula_units_Z   2
loop_
 _symmetry_equiv_pos_site_id
 _symmetry_equiv_pos_as_xyz
  1  'x, y, z'
loop_
 _atom_site_type_symbol
 _atom_site_label
 _atom_site_symmetry_multiplicity
 _atom_site_fract_x
 _atom_site_fract_y
 _atom_site_fract_z
 _atom_site_occupancy
  Tb  Tb0  1  0.00000000  0.34486700  0.00000000  1
  Tb  Tb1  1  0.50000000  0.65513300  0.50000000  1
  Au  Au2  1  0.50000000  0.66150000  0.00000000  1
  Au  Au3  1  0.00000000  0.33850000  0.50000000  1
  Au  Au4  1  0.00000000  0.84137900  0.74509100  1
  Au  Au5  1  0.00000000  0.84137900  0.25490900  1
  Au  Au6  1  0.50000000  0.15862100  0.75490900  1
  Au  Au7  1  0.50000000  0.15862100  0.24509100  1
