# generated using pymatgen
data_Sr3NiPtO6
_symmetry_space_group_name_H-M   'P 1'
_cell_length_a   9.39972361
_cell_length_b   9.39972311
_cell_length_c   9.39972346
_cell_angle_alpha   118.00394169
_cell_angle_beta   61.99605438
_cell_angle_gamma   118.00394038
_symmetry_Int_Tables_number   1
_chemical_formula_structural   Sr3NiPtO6
_chemical_formula_sum   'Sr12 Ni4 Pt4 O24'
_cell_volume   613.47983857
_cell_formula_units_Z   4
loop_
 _symmetry_equiv_pos_site_id
 _symmetry_equiv_pos_as_xyz
  1  'x, y, z'
loop_
 _atom_site_type_symbol
 _atom_site_label
 _atom_site_symmetry_multiplicity
 _atom_site_fract_x
 _atom_site_fract_y
 _atom_site_fract_z
 _atom_site_occupancy
  Sr  Sr0  1  0.62500000  0.01087400  0.26087400  1
  Sr  Sr1  1  0.12500000  0.51087400  0.76087400  1
  Sr  Sr2  1  0.26087400  0.37500000  0.98912600  1
  Sr  Sr3  1  0.76087400  0.87500000  0.48912600  1
  Sr  Sr4  1  0.51087400  0.76087400  0.87500000  1
  Sr  Sr5  1  0.01087400  0.26087400  0.37500000  1
  Sr  Sr6  1  0.87500000  0.48912600  0.23912600  1
  Sr  Sr7  1  0.37500000  0.98912600  0.73912600  1
  Sr  Sr8  1  0.23912600  0.12500000  0.51087400  1
  Sr  Sr9  1  0.73912600  0.62500000  0.01087400  1
  Sr  Sr10  1  0.98912600  0.73912600  0.62500000  1
  Sr  Sr11  1  0.48912600  0.23912600  0.12500000  1
  Ni  Ni12  1  0.62500000  0.37500000  0.62500000  1
  Ni  Ni13  1  0.87500000  0.12500000  0.87500000  1
  Ni  Ni14  1  0.12500000  0.87500000  0.12500000  1
  Ni  Ni15  1  0.37500000  0.62500000  0.37500000  1
  Pt  Pt16  1  0.00000000  0.00000000  0.00000000  1
  Pt  Pt17  1  0.50000000  0.50000000  0.50000000  1
  Pt  Pt18  1  0.25000000  0.75000000  0.25000000  1
  Pt  Pt19  1  0.75000000  0.25000000  0.75000000  1
  O  O20  1  0.13319300  0.54291800  0.33238900  1
  O  O21  1  0.63319300  0.04291800  0.83238900  1
  O  O22  1  0.33238900  0.86680700  0.45708200  1
  O  O23  1  0.83238900  0.36680700  0.95708200  1
  O  O24  1  0.45708200  0.66761100  0.13319300  1
  O  O25  1  0.95708200  0.16761100  0.63319300  1
  O  O26  1  0.79291800  0.88319300  0.91761100  1
  O  O27  1  0.29291800  0.38319300  0.41761100  1
  O  O28  1  0.91761100  0.20708200  0.11680700  1
  O  O29  1  0.41761100  0.70708200  0.61680700  1
  O  O30  1  0.11680700  0.08238900  0.79291800  1
  O  O31  1  0.61680700  0.58238900  0.29291800  1
  O  O32  1  0.36680700  0.95708200  0.16761100  1
  O  O33  1  0.86680700  0.45708200  0.66761100  1
  O  O34  1  0.16761100  0.63319300  0.04291800  1
  O  O35  1  0.66761100  0.13319300  0.54291800  1
  O  O36  1  0.04291800  0.83238900  0.36680700  1
  O  O37  1  0.54291800  0.33238900  0.86680700  1
  O  O38  1  0.70708200  0.61680700  0.58238900  1
  O  O39  1  0.20708200  0.11680700  0.08238900  1
  O  O40  1  0.38319300  0.41761100  0.70708200  1
  O  O41  1  0.88319300  0.91761100  0.20708200  1
  O  O42  1  0.58238900  0.29291800  0.38319300  1
  O  O43  1  0.08238900  0.79291800  0.88319300  1
