# generated using pymatgen
data_K3Na(RuO4)2
_symmetry_space_group_name_H-M   'P 1'
_cell_length_a   6.09130280
_cell_length_b   6.09130280
_cell_length_c   15.50981330
_cell_angle_alpha   89.65441246
_cell_angle_beta   89.65441246
_cell_angle_gamma   60.03464191
_symmetry_Int_Tables_number   1
_chemical_formula_structural   K3Na(RuO4)2
_chemical_formula_sum   'K6 Na2 Ru4 O16'
_cell_volume   498.53831057
_cell_formula_units_Z   2
loop_
 _symmetry_equiv_pos_site_id
 _symmetry_equiv_pos_as_xyz
  1  'x, y, z'
loop_
 _atom_site_type_symbol
 _atom_site_label
 _atom_site_symmetry_multiplicity
 _atom_site_fract_x
 _atom_site_fract_y
 _atom_site_fract_z
 _atom_site_occupancy
  K  K0  1  0.30276800  0.35568900  0.91582600  1
  K  K1  1  0.64431100  0.69723200  0.58417400  1
  K  K2  1  0.93532500  0.06467500  0.75000000  1
  K  K3  1  0.06467500  0.93532500  0.25000000  1
  K  K4  1  0.35568900  0.30276800  0.41582600  1
  K  K5  1  0.69723200  0.64431100  0.08417400  1
  Na  Na6  1  0.00000000  0.00000000  0.50000000  1
  Na  Na7  1  0.00000000  0.00000000  0.00000000  1
  Ru  Ru8  1  0.63760900  0.68575200  0.86005500  1
  Ru  Ru9  1  0.31424800  0.36239100  0.63994500  1
  Ru  Ru10  1  0.36239100  0.31424800  0.13994500  1
  Ru  Ru11  1  0.68575200  0.63760900  0.36005500  1
  O  O12  1  0.39175400  0.77251300  0.42106900  1
  O  O13  1  0.22748700  0.60824600  0.07893100  1
  O  O14  1  0.60824600  0.22748700  0.57893100  1
  O  O15  1  0.77251300  0.39175400  0.92106900  1
  O  O16  1  0.84310200  0.30097100  0.37798200  1
  O  O17  1  0.69902900  0.15689800  0.12201800  1
  O  O18  1  0.15689800  0.69902900  0.62201800  1
  O  O19  1  0.30097100  0.84310200  0.87798200  1
  O  O20  1  0.85977300  0.76793600  0.41190600  1
  O  O21  1  0.23206400  0.14022700  0.08809400  1
  O  O22  1  0.14022700  0.23206400  0.58809400  1
  O  O23  1  0.76793600  0.85977300  0.91190600  1
  O  O24  1  0.73785100  0.60789900  0.75108500  1
  O  O25  1  0.39210100  0.26214900  0.74891500  1
  O  O26  1  0.26214900  0.39210100  0.24891500  1
  O  O27  1  0.60789900  0.73785100  0.25108500  1
