# generated using pymatgen
data_K3Au3Br8
_symmetry_space_group_name_H-M   'P 1'
_cell_length_a   7.44320799
_cell_length_b   7.44320799
_cell_length_c   19.34418976
_cell_angle_alpha   84.15451304
_cell_angle_beta   84.15451304
_cell_angle_gamma   64.13868898
_symmetry_Int_Tables_number   1
_chemical_formula_structural   K3Au3Br8
_chemical_formula_sum   'K6 Au6 Br16'
_cell_volume   957.37639062
_cell_formula_units_Z   2
loop_
 _symmetry_equiv_pos_site_id
 _symmetry_equiv_pos_as_xyz
  1  'x, y, z'
loop_
 _atom_site_type_symbol
 _atom_site_label
 _atom_site_symmetry_multiplicity
 _atom_site_fract_x
 _atom_site_fract_y
 _atom_site_fract_z
 _atom_site_occupancy
  K  K0  1  0.67758000  0.68574300  0.41463300  1
  K  K1  1  0.32242000  0.31425700  0.58536700  1
  K  K2  1  0.31425700  0.32242000  0.08536700  1
  K  K3  1  0.68574300  0.67758000  0.91463300  1
  K  K4  1  0.98461700  0.01538300  0.25000000  1
  K  K5  1  0.01538300  0.98461700  0.75000000  1
  Au  Au6  1  0.00000000  0.00000000  0.00000000  1
  Au  Au7  1  0.00000000  0.00000000  0.50000000  1
  Au  Au8  1  0.61227200  0.61719000  0.19044200  1
  Au  Au9  1  0.38772800  0.38281000  0.80955800  1
  Au  Au10  1  0.38281000  0.38772800  0.30955800  1
  Au  Au11  1  0.61719000  0.61227200  0.69044200  1
  Br  Br12  1  0.31318100  0.75855200  0.12396100  1
  Br  Br13  1  0.68681900  0.24144800  0.87603900  1
  Br  Br14  1  0.24144800  0.68681900  0.37603900  1
  Br  Br15  1  0.75855200  0.31318100  0.62396100  1
  Br  Br16  1  0.50732800  0.08895700  0.24228200  1
  Br  Br17  1  0.49267200  0.91104300  0.75771800  1
  Br  Br18  1  0.91104300  0.49267200  0.25771800  1
  Br  Br19  1  0.08895700  0.50732800  0.74228200  1
  Br  Br20  1  0.78464800  0.84660900  0.06304400  1
  Br  Br21  1  0.21535200  0.15339100  0.93695600  1
  Br  Br22  1  0.15339100  0.21535200  0.43695600  1
  Br  Br23  1  0.84660900  0.78464800  0.56304400  1
  Br  Br24  1  0.69981800  0.16443000  0.42652800  1
  Br  Br25  1  0.30018200  0.83557000  0.57347200  1
  Br  Br26  1  0.83557000  0.30018200  0.07347200  1
  Br  Br27  1  0.16443000  0.69981800  0.92652800  1
