# generated using pymatgen
data_Nb5SiB2
_symmetry_space_group_name_H-M   'P 1'
_cell_length_a   7.34283157
_cell_length_b   7.34283157
_cell_length_c   7.34283157
_cell_angle_alpha   129.35190113
_cell_angle_beta   129.35190113
_cell_angle_gamma   74.44500516
_symmetry_Int_Tables_number   1
_chemical_formula_structural   Nb5SiB2
_chemical_formula_sum   'Nb10 Si2 B4'
_cell_volume   230.71589962
_cell_formula_units_Z   2
loop_
 _symmetry_equiv_pos_site_id
 _symmetry_equiv_pos_as_xyz
  1  'x, y, z'
loop_
 _atom_site_type_symbol
 _atom_site_label
 _atom_site_symmetry_multiplicity
 _atom_site_fract_x
 _atom_site_fract_y
 _atom_site_fract_z
 _atom_site_occupancy
  Nb  Nb0  1  0.00000000  0.00000000  0.00000000  1
  Nb  Nb1  1  0.50000000  0.50000000  0.00000000  1
  Nb  Nb2  1  0.80704400  0.30704400  0.83864500  1
  Nb  Nb3  1  0.19295600  0.69295600  0.16135500  1
  Nb  Nb4  1  0.46839900  0.96839900  0.16135500  1
  Nb  Nb5  1  0.30704400  0.46839900  0.50000000  1
  Nb  Nb6  1  0.03160100  0.19295600  0.50000000  1
  Nb  Nb7  1  0.53160100  0.03160100  0.83864500  1
  Nb  Nb8  1  0.69295600  0.53160100  0.50000000  1
  Nb  Nb9  1  0.96839900  0.80704400  0.50000000  1
  Si  Si10  1  0.25000000  0.25000000  0.00000000  1
  Si  Si11  1  0.75000000  0.75000000  0.00000000  1
  B  B12  1  0.11334000  0.61334000  0.72667900  1
  B  B13  1  0.88666000  0.38666000  0.27332100  1
  B  B14  1  0.61334000  0.88666000  0.50000000  1
  B  B15  1  0.38666000  0.11334000  0.50000000  1
