# generated using pymatgen
data_DyB7Mo3
_symmetry_space_group_name_H-M   'P 1'
_cell_length_a   3.10990200
_cell_length_b   11.02148400
_cell_length_c   12.91029300
_cell_angle_alpha   90.00000000
_cell_angle_beta   90.00000000
_cell_angle_gamma   90.00000000
_symmetry_Int_Tables_number   1
_chemical_formula_structural   DyB7Mo3
_chemical_formula_sum   'Dy4 B28 Mo12'
_cell_volume   442.50978338
_cell_formula_units_Z   4
loop_
 _symmetry_equiv_pos_site_id
 _symmetry_equiv_pos_as_xyz
  1  'x, y, z'
loop_
 _atom_site_type_symbol
 _atom_site_label
 _atom_site_symmetry_multiplicity
 _atom_site_fract_x
 _atom_site_fract_y
 _atom_site_fract_z
 _atom_site_occupancy
  Dy  Dy0  1  0.75000000  0.55114200  0.30814300  1
  Dy  Dy1  1  0.25000000  0.44885800  0.69185700  1
  Dy  Dy2  1  0.25000000  0.94885800  0.80814300  1
  Dy  Dy3  1  0.75000000  0.05114200  0.19185700  1
  B  B4  1  0.75000000  0.75057800  0.17354500  1
  B  B5  1  0.25000000  0.24942200  0.82645500  1
  B  B6  1  0.25000000  0.74942200  0.67354500  1
  B  B7  1  0.75000000  0.25057800  0.32645500  1
  B  B8  1  0.75000000  0.93216500  0.38393900  1
  B  B9  1  0.25000000  0.06783500  0.61606100  1
  B  B10  1  0.25000000  0.56783500  0.88393900  1
  B  B11  1  0.75000000  0.43216500  0.11606100  1
  B  B12  1  0.75000000  0.98949300  0.63745300  1
  B  B13  1  0.25000000  0.01050700  0.36254700  1
  B  B14  1  0.25000000  0.51050700  0.13745300  1
  B  B15  1  0.75000000  0.48949300  0.86254700  1
  B  B16  1  0.75000000  0.76964900  0.41809500  1
  B  B17  1  0.25000000  0.23035100  0.58190500  1
  B  B18  1  0.25000000  0.73035100  0.91809500  1
  B  B19  1  0.75000000  0.26964900  0.08190500  1
  B  B20  1  0.75000000  0.96265600  0.98200200  1
  B  B21  1  0.25000000  0.03734400  0.01799800  1
  B  B22  1  0.25000000  0.53734400  0.48200200  1
  B  B23  1  0.75000000  0.46265600  0.51799800  1
  B  B24  1  0.75000000  0.81304700  0.93339000  1
  B  B25  1  0.25000000  0.18695300  0.06661000  1
  B  B26  1  0.25000000  0.68695300  0.43339000  1
  B  B27  1  0.75000000  0.31304700  0.56661000  1
  B  B28  1  0.75000000  0.83387300  0.66713000  1
  B  B29  1  0.25000000  0.16612700  0.33287000  1
  B  B30  1  0.25000000  0.66612700  0.16713000  1
  B  B31  1  0.75000000  0.33387300  0.83287000  1
  Mo  Mo32  1  0.75000000  0.11774300  0.47306400  1
  Mo  Mo33  1  0.25000000  0.88225700  0.52693600  1
  Mo  Mo34  1  0.25000000  0.38225700  0.97306400  1
  Mo  Mo35  1  0.75000000  0.61774300  0.02693600  1
  Mo  Mo36  1  0.75000000  0.65958600  0.56385200  1
  Mo  Mo37  1  0.25000000  0.34041400  0.43614800  1
  Mo  Mo38  1  0.25000000  0.84041400  0.06385200  1
  Mo  Mo39  1  0.75000000  0.15958600  0.93614800  1
  Mo  Mo40  1  0.75000000  0.68478600  0.79824300  1
  Mo  Mo41  1  0.25000000  0.31521400  0.20175700  1
  Mo  Mo42  1  0.25000000  0.81521400  0.29824300  1
  Mo  Mo43  1  0.75000000  0.18478600  0.70175700  1
