# generated using pymatgen
data_MgH24(ClO6)2
_symmetry_space_group_name_H-M   'P 1'
_cell_length_a   7.37243200
_cell_length_b   14.60051500
_cell_length_c   8.87029145
_cell_angle_alpha   90.00000000
_cell_angle_beta   116.99470044
_cell_angle_gamma   90.00000000
_symmetry_Int_Tables_number   1
_chemical_formula_structural   MgH24(ClO6)2
_chemical_formula_sum   'Mg2 H48 Cl4 O24'
_cell_volume   850.78179705
_cell_formula_units_Z   2
loop_
 _symmetry_equiv_pos_site_id
 _symmetry_equiv_pos_as_xyz
  1  'x, y, z'
loop_
 _atom_site_type_symbol
 _atom_site_label
 _atom_site_symmetry_multiplicity
 _atom_site_fract_x
 _atom_site_fract_y
 _atom_site_fract_z
 _atom_site_occupancy
  Mg  Mg0  1  0.50000000  0.50000000  0.00000000  1
  Mg  Mg1  1  0.50000000  0.00000000  0.50000000  1
  H  H2  1  0.11403300  0.46272200  0.75068000  1
  H  H3  1  0.11403300  0.03727800  0.25068000  1
  H  H4  1  0.88596700  0.53727800  0.24932000  1
  H  H5  1  0.88596700  0.96272200  0.74932000  1
  H  H6  1  0.74203800  0.30031200  0.50968000  1
  H  H7  1  0.74203800  0.19968800  0.00968000  1
  H  H8  1  0.25796200  0.69968800  0.49032000  1
  H  H9  1  0.25796200  0.80031200  0.99032000  1
  H  H10  1  0.52453000  0.33795800  0.47455000  1
  H  H11  1  0.52453000  0.16204200  0.97455000  1
  H  H12  1  0.47547000  0.66204200  0.52545000  1
  H  H13  1  0.47547000  0.83795800  0.02545000  1
  H  H14  1  0.22199900  0.55694400  0.39479100  1
  H  H15  1  0.22199900  0.94305600  0.89479100  1
  H  H16  1  0.77800100  0.44305600  0.60520900  1
  H  H17  1  0.77800100  0.05694400  0.10520900  1
  H  H18  1  0.02600900  0.23414000  0.55066300  1
  H  H19  1  0.02600900  0.26586000  0.05066300  1
  H  H20  1  0.97399100  0.76586000  0.44933700  1
  H  H21  1  0.97399100  0.73414000  0.94933700  1
  H  H22  1  0.78840900  0.38874700  0.98373700  1
  H  H23  1  0.78840900  0.11125300  0.48373700  1
  H  H24  1  0.21159100  0.61125300  0.01626300  1
  H  H25  1  0.21159100  0.88874700  0.51626300  1
  H  H26  1  0.41448900  0.32708100  0.07142800  1
  H  H27  1  0.41448900  0.17291900  0.57142800  1
  H  H28  1  0.58551100  0.67291900  0.92857200  1
  H  H29  1  0.58551100  0.82708100  0.42857200  1
  H  H30  1  0.17027900  0.45151300  0.35750300  1
  H  H31  1  0.17027900  0.04848700  0.85750300  1
  H  H32  1  0.82972100  0.54848700  0.64249700  1
  H  H33  1  0.82972100  0.95151300  0.14249700  1
  H  H34  1  0.26676400  0.40843500  0.69935300  1
  H  H35  1  0.26676400  0.09156500  0.19935300  1
  H  H36  1  0.73323600  0.59156500  0.30064700  1
  H  H37  1  0.73323600  0.90843500  0.80064700  1
  H  H38  1  0.75732700  0.46744900  0.84994200  1
  H  H39  1  0.75732700  0.03255100  0.34994200  1
  H  H40  1  0.24267300  0.53255100  0.15005800  1
  H  H41  1  0.24267300  0.96744900  0.65005800  1
  H  H42  1  0.00251200  0.20539300  0.71044700  1
  H  H43  1  0.00251200  0.29460700  0.21044700  1
  H  H44  1  0.99748800  0.79460700  0.28955300  1
  H  H45  1  0.99748800  0.70539300  0.78955300  1
  H  H46  1  0.56441800  0.36977400  0.24963300  1
  H  H47  1  0.56441800  0.13022600  0.74963300  1
  H  H48  1  0.43558200  0.63022600  0.75036700  1
  H  H49  1  0.43558200  0.86977400  0.25036700  1
  Cl  Cl50  1  0.23382700  0.31094600  0.48195600  1
  Cl  Cl51  1  0.23382700  0.18905400  0.98195600  1
  Cl  Cl52  1  0.76617300  0.68905400  0.51804400  1
  Cl  Cl53  1  0.76617300  0.81094600  0.01804400  1
  O  O54  1  0.14191700  0.51232900  0.30309700  1
  O  O55  1  0.14191700  0.98767100  0.80309700  1
  O  O56  1  0.85808300  0.48767100  0.69690300  1
  O  O57  1  0.85808300  0.01232900  0.19690300  1
  O  O58  1  0.92390100  0.21261300  0.58619900  1
  O  O59  1  0.92390100  0.28738700  0.08619900  1
  O  O60  1  0.07609900  0.78738700  0.41380100  1
  O  O61  1  0.07609900  0.71261300  0.91380100  1
  O  O62  1  0.50838400  0.37788700  0.12488800  1
  O  O63  1  0.50838400  0.12211300  0.62488800  1
  O  O64  1  0.49161600  0.62211300  0.87511200  1
  O  O65  1  0.49161600  0.87788700  0.37511200  1
  O  O66  1  0.64981500  0.35411900  0.46519200  1
  O  O67  1  0.64981500  0.14588100  0.96519200  1
  O  O68  1  0.35018500  0.64588100  0.53480800  1
  O  O69  1  0.35018500  0.85411900  0.03480800  1
  O  O70  1  0.25959700  0.45172400  0.78122300  1
  O  O71  1  0.25959700  0.04827600  0.28122300  1
  O  O72  1  0.74040300  0.54827600  0.21877700  1
  O  O73  1  0.74040300  0.95172400  0.71877700  1
  O  O74  1  0.70391800  0.44236100  0.92551400  1
  O  O75  1  0.70391800  0.05763900  0.42551400  1
  O  O76  1  0.29608200  0.55763900  0.07448600  1
  O  O77  1  0.29608200  0.94236100  0.57448600  1
