# generated using pymatgen
data_Cs2GeSe3
_symmetry_space_group_name_H-M   'P 1'
_cell_length_a   8.28820807
_cell_length_b   8.28820807
_cell_length_c   10.67340981
_cell_angle_alpha   59.03295959
_cell_angle_beta   59.03295959
_cell_angle_gamma   54.48354243
_symmetry_Int_Tables_number   1
_chemical_formula_structural   Cs2GeSe3
_chemical_formula_sum   'Cs4 Ge2 Se6'
_cell_volume   486.69083136
_cell_formula_units_Z   2
loop_
 _symmetry_equiv_pos_site_id
 _symmetry_equiv_pos_as_xyz
  1  'x, y, z'
loop_
 _atom_site_type_symbol
 _atom_site_label
 _atom_site_symmetry_multiplicity
 _atom_site_fract_x
 _atom_site_fract_y
 _atom_site_fract_z
 _atom_site_occupancy
  Cs  Cs0  1  0.58443100  0.58443100  0.13543400  1
  Cs  Cs1  1  0.41556900  0.41556900  0.86456600  1
  Cs  Cs2  1  0.80443700  0.80443700  0.31956300  1
  Cs  Cs3  1  0.19556300  0.19556300  0.68043700  1
  Ge  Ge4  1  0.11618300  0.11618300  0.31853500  1
  Ge  Ge5  1  0.88381700  0.88381700  0.68146500  1
  Se  Se6  1  0.10944100  0.10944100  0.10543000  1
  Se  Se7  1  0.89055900  0.89055900  0.89457000  1
  Se  Se8  1  0.29155500  0.29155500  0.27348600  1
  Se  Se9  1  0.70844500  0.70844500  0.72651400  1
  Se  Se10  1  0.23842100  0.76157900  0.50000000  1
  Se  Se11  1  0.76157900  0.23842100  0.50000000  1
