# generated using pymatgen
data_Ce3Os
_symmetry_space_group_name_H-M   'P 1'
_cell_length_a   7.07360500
_cell_length_b   9.68940000
_cell_length_c   6.17377200
_cell_angle_alpha   90.00000000
_cell_angle_beta   90.00000000
_cell_angle_gamma   90.00000000
_symmetry_Int_Tables_number   1
_chemical_formula_structural   Ce3Os
_chemical_formula_sum   'Ce12 Os4'
_cell_volume   423.14408679
_cell_formula_units_Z   4
loop_
 _symmetry_equiv_pos_site_id
 _symmetry_equiv_pos_as_xyz
  1  'x, y, z'
loop_
 _atom_site_type_symbol
 _atom_site_label
 _atom_site_symmetry_multiplicity
 _atom_site_fract_x
 _atom_site_fract_y
 _atom_site_fract_z
 _atom_site_occupancy
  Ce  Ce0  1  0.66872300  0.05932000  0.34586100  1
  Ce  Ce1  1  0.16872300  0.44068000  0.15413900  1
  Ce  Ce2  1  0.33127700  0.55932000  0.65413900  1
  Ce  Ce3  1  0.83127700  0.94068000  0.84586100  1
  Ce  Ce4  1  0.33127700  0.94068000  0.65413900  1
  Ce  Ce5  1  0.83127700  0.55932000  0.84586100  1
  Ce  Ce6  1  0.66872300  0.44068000  0.34586100  1
  Ce  Ce7  1  0.16872300  0.05932000  0.15413900  1
  Ce  Ce8  1  0.53697000  0.25000000  0.85433400  1
  Ce  Ce9  1  0.03697000  0.25000000  0.64566600  1
  Ce  Ce10  1  0.46303000  0.75000000  0.14566600  1
  Ce  Ce11  1  0.96303000  0.75000000  0.35433400  1
  Os  Os12  1  0.87291500  0.25000000  0.07481800  1
  Os  Os13  1  0.37291500  0.25000000  0.42518200  1
  Os  Os14  1  0.12708500  0.75000000  0.92518200  1
  Os  Os15  1  0.62708500  0.75000000  0.57481800  1
