# generated using pymatgen
data_HoCuS2
_symmetry_space_group_name_H-M   'P 1'
_cell_length_a   3.94496500
_cell_length_b   6.24253400
_cell_length_c   13.39075500
_cell_angle_alpha   90.00000000
_cell_angle_beta   90.00000000
_cell_angle_gamma   90.00000000
_symmetry_Int_Tables_number   1
_chemical_formula_structural   HoCuS2
_chemical_formula_sum   'Ho4 Cu4 S8'
_cell_volume   329.76847438
_cell_formula_units_Z   4
loop_
 _symmetry_equiv_pos_site_id
 _symmetry_equiv_pos_as_xyz
  1  'x, y, z'
loop_
 _atom_site_type_symbol
 _atom_site_label
 _atom_site_symmetry_multiplicity
 _atom_site_fract_x
 _atom_site_fract_y
 _atom_site_fract_z
 _atom_site_occupancy
  Ho  Ho0  1  0.25000000  0.50070100  0.13332100  1
  Ho  Ho1  1  0.75000000  0.49929900  0.86667900  1
  Ho  Ho2  1  0.75000000  0.00070100  0.36667900  1
  Ho  Ho3  1  0.25000000  0.99929900  0.63332100  1
  Cu  Cu4  1  0.25000000  0.12708800  0.95516000  1
  Cu  Cu5  1  0.75000000  0.62708800  0.54484000  1
  Cu  Cu6  1  0.75000000  0.87291200  0.04484000  1
  Cu  Cu7  1  0.25000000  0.37291200  0.45516000  1
  S  S8  1  0.25000000  0.26084100  0.79510900  1
  S  S9  1  0.75000000  0.73915900  0.20489100  1
  S  S10  1  0.75000000  0.76084100  0.70489100  1
  S  S11  1  0.25000000  0.23915900  0.29510900  1
  S  S12  1  0.25000000  0.74652000  0.96009000  1
  S  S13  1  0.25000000  0.75348000  0.46009000  1
  S  S14  1  0.75000000  0.24652000  0.53991000  1
  S  S15  1  0.75000000  0.25348000  0.03991000  1
