# generated using pymatgen
data_Na2US3
_symmetry_space_group_name_H-M   'P 1'
_cell_length_a   6.99484439
_cell_length_b   6.99484439
_cell_length_c   7.02904469
_cell_angle_alpha   80.34943826
_cell_angle_beta   80.34943826
_cell_angle_gamma   119.95611220
_symmetry_Int_Tables_number   1
_chemical_formula_structural   Na2US3
_chemical_formula_sum   'Na4 U2 S6'
_cell_volume   280.74842528
_cell_formula_units_Z   2
loop_
 _symmetry_equiv_pos_site_id
 _symmetry_equiv_pos_as_xyz
  1  'x, y, z'
loop_
 _atom_site_type_symbol
 _atom_site_label
 _atom_site_symmetry_multiplicity
 _atom_site_fract_x
 _atom_site_fract_y
 _atom_site_fract_z
 _atom_site_occupancy
  Na  Na0  1  0.00000000  0.00000000  0.00000000  1
  Na  Na1  1  0.50000000  0.50000000  0.50000000  1
  Na  Na2  1  0.83959900  0.16040100  0.50000000  1
  Na  Na3  1  0.16040100  0.83959900  0.50000000  1
  U  U4  1  0.66711400  0.33288600  0.00000000  1
  U  U5  1  0.33288600  0.66711400  0.00000000  1
  S  S6  1  0.27963100  0.27963100  0.22877900  1
  S  S7  1  0.43290100  0.07624800  0.77381000  1
  S  S8  1  0.07624800  0.43290100  0.77381000  1
  S  S9  1  0.72036900  0.72036900  0.77122100  1
  S  S10  1  0.56709900  0.92375200  0.22619000  1
  S  S11  1  0.92375200  0.56709900  0.22619000  1
