# generated using pymatgen
data_Li2SiF6
_symmetry_space_group_name_H-M   'P 1'
_cell_length_a   8.35122748
_cell_length_b   8.35122748
_cell_length_c   4.62967500
_cell_angle_alpha   90.00000000
_cell_angle_beta   90.00000000
_cell_angle_gamma   119.99999588
_symmetry_Int_Tables_number   1
_chemical_formula_structural   Li2SiF6
_chemical_formula_sum   'Li6 Si3 F18'
_cell_volume   279.62872462
_cell_formula_units_Z   3
loop_
 _symmetry_equiv_pos_site_id
 _symmetry_equiv_pos_as_xyz
  1  'x, y, z'
loop_
 _atom_site_type_symbol
 _atom_site_label
 _atom_site_symmetry_multiplicity
 _atom_site_fract_x
 _atom_site_fract_y
 _atom_site_fract_z
 _atom_site_occupancy
  Li  Li0  1  0.29511600  0.00000000  0.50000000  1
  Li  Li1  1  0.70488400  0.70488400  0.50000000  1
  Li  Li2  1  0.00000000  0.29511600  0.50000000  1
  Li  Li3  1  0.63058800  0.00000000  0.00000000  1
  Li  Li4  1  0.36941200  0.36941200  0.00000000  1
  Li  Li5  1  0.00000000  0.63058800  0.00000000  1
  Si  Si6  1  0.00000000  0.00000000  0.00000000  1
  Si  Si7  1  0.66666700  0.33333300  0.51547600  1
  Si  Si8  1  0.33333300  0.66666700  0.48452400  1
  F  F9  1  0.90683900  0.80491300  0.79033600  1
  F  F10  1  0.89807400  0.09316100  0.79033600  1
  F  F11  1  0.19508700  0.10192600  0.79033600  1
  F  F12  1  0.09316100  0.89807400  0.20966400  1
  F  F13  1  0.80491300  0.90683900  0.20966400  1
  F  F14  1  0.10192600  0.19508700  0.20966400  1
  F  F15  1  0.58355000  0.44444500  0.72639300  1
  F  F16  1  0.86089500  0.41645000  0.72639300  1
  F  F17  1  0.55555500  0.13910500  0.72639300  1
  F  F18  1  0.41645000  0.86089500  0.27360700  1
  F  F19  1  0.44444500  0.58355000  0.27360700  1
  F  F20  1  0.13910500  0.55555500  0.27360700  1
  F  F21  1  0.22767800  0.75616900  0.69466900  1
  F  F22  1  0.52849100  0.77232200  0.69466900  1
  F  F23  1  0.24383100  0.47150900  0.69466900  1
  F  F24  1  0.77232200  0.52849100  0.30533100  1
  F  F25  1  0.75616900  0.22767800  0.30533100  1
  F  F26  1  0.47150900  0.24383100  0.30533100  1
