# generated using pymatgen
data_Nd3InS6
_symmetry_space_group_name_H-M   'P 1'
_cell_length_a   4.00604700
_cell_length_b   13.80091200
_cell_length_c   16.87931000
_cell_angle_alpha   90.00000000
_cell_angle_beta   90.00000000
_cell_angle_gamma   90.00000000
_symmetry_Int_Tables_number   1
_chemical_formula_structural   Nd3InS6
_chemical_formula_sum   'Nd12 In4 S24'
_cell_volume   933.20813560
_cell_formula_units_Z   4
loop_
 _symmetry_equiv_pos_site_id
 _symmetry_equiv_pos_as_xyz
  1  'x, y, z'
loop_
 _atom_site_type_symbol
 _atom_site_label
 _atom_site_symmetry_multiplicity
 _atom_site_fract_x
 _atom_site_fract_y
 _atom_site_fract_z
 _atom_site_occupancy
  Nd  Nd0  1  0.25448000  0.03712200  0.77826700  1
  Nd  Nd1  1  0.25448000  0.96287800  0.22173300  1
  Nd  Nd2  1  0.74552000  0.46287800  0.27826700  1
  Nd  Nd3  1  0.74552000  0.53712200  0.72173300  1
  Nd  Nd4  1  0.26056700  0.24760300  0.60933800  1
  Nd  Nd5  1  0.26056700  0.75239700  0.39066200  1
  Nd  Nd6  1  0.73943300  0.25239700  0.10933800  1
  Nd  Nd7  1  0.73943300  0.74760300  0.89066200  1
  Nd  Nd8  1  0.74666200  0.30931800  0.85630800  1
  Nd  Nd9  1  0.74666200  0.69068200  0.14369200  1
  Nd  Nd10  1  0.25333800  0.19068200  0.35630800  1
  Nd  Nd11  1  0.25333800  0.80931800  0.64369200  1
  In  In12  1  0.75388800  0.00000000  0.50000000  1
  In  In13  1  0.24611200  0.50000000  0.00000000  1
  In  In14  1  0.40577600  0.50000000  0.50000000  1
  In  In15  1  0.59422400  0.00000000  0.00000000  1
  S  S16  1  0.76583400  0.39777800  0.59031000  1
  S  S17  1  0.76583400  0.60222200  0.40969000  1
  S  S18  1  0.23416600  0.10222200  0.09031000  1
  S  S19  1  0.23416600  0.89777800  0.90969000  1
  S  S20  1  0.24544700  0.31111500  0.98214800  1
  S  S21  1  0.24544700  0.68888500  0.01785200  1
  S  S22  1  0.75455300  0.18888500  0.48214800  1
  S  S23  1  0.75455300  0.81111500  0.51785200  1
  S  S24  1  0.75277200  0.10704700  0.88906500  1
  S  S25  1  0.75277200  0.89295300  0.11093500  1
  S  S26  1  0.24722800  0.39295300  0.38906500  1
  S  S27  1  0.24722800  0.60704700  0.61093500  1
  S  S28  1  0.75738900  0.17806500  0.71776000  1
  S  S29  1  0.75738900  0.82193500  0.28224000  1
  S  S30  1  0.24261100  0.32193500  0.21776000  1
  S  S31  1  0.24261100  0.67806500  0.78224000  1
  S  S32  1  0.24777000  0.38574800  0.75558500  1
  S  S33  1  0.24777000  0.61425200  0.24441500  1
  S  S34  1  0.75223000  0.11425200  0.25558500  1
  S  S35  1  0.75223000  0.88574800  0.74441500  1
  S  S36  1  0.25424500  0.02064400  0.60362500  1
  S  S37  1  0.25424500  0.97935600  0.39637500  1
  S  S38  1  0.74575500  0.47935600  0.10362500  1
  S  S39  1  0.74575500  0.52064400  0.89637500  1
