# generated using pymatgen
data_TaTiB4
_symmetry_space_group_name_H-M   'P 1'
_cell_length_a   3.06960619
_cell_length_b   3.06960619
_cell_length_c   6.53396200
_cell_angle_alpha   90.00000000
_cell_angle_beta   90.00000000
_cell_angle_gamma   120.00000419
_symmetry_Int_Tables_number   1
_chemical_formula_structural   TaTiB4
_chemical_formula_sum   'Ta1 Ti1 B4'
_cell_volume   53.31783949
_cell_formula_units_Z   1
loop_
 _symmetry_equiv_pos_site_id
 _symmetry_equiv_pos_as_xyz
  1  'x, y, z'
loop_
 _atom_site_type_symbol
 _atom_site_label
 _atom_site_symmetry_multiplicity
 _atom_site_fract_x
 _atom_site_fract_y
 _atom_site_fract_z
 _atom_site_occupancy
  Ta  Ta0  1  0.00000000  0.00000000  0.00000000  1
  Ti  Ti1  1  0.00000000  0.00000000  0.50000000  1
  B  B2  1  0.66666700  0.33333300  0.74314900  1
  B  B3  1  0.66666700  0.33333300  0.25685100  1
  B  B4  1  0.33333300  0.66666700  0.74314900  1
  B  B5  1  0.33333300  0.66666700  0.25685100  1
