# generated using pymatgen
data_Eu2InPd2
_symmetry_space_group_name_H-M   'P 1'
_cell_length_a   5.97354358
_cell_length_b   5.97354358
_cell_length_c   8.36825011
_cell_angle_alpha   77.50269424
_cell_angle_beta   77.50269424
_cell_angle_gamma   59.48590562
_symmetry_Int_Tables_number   1
_chemical_formula_structural   Eu2InPd2
_chemical_formula_sum   'Eu4 In2 Pd4'
_cell_volume   249.13295664
_cell_formula_units_Z   2
loop_
 _symmetry_equiv_pos_site_id
 _symmetry_equiv_pos_as_xyz
  1  'x, y, z'
loop_
 _atom_site_type_symbol
 _atom_site_label
 _atom_site_symmetry_multiplicity
 _atom_site_fract_x
 _atom_site_fract_y
 _atom_site_fract_z
 _atom_site_occupancy
  Eu  Eu0  1  0.79012900  0.50584800  0.35228500  1
  Eu  Eu1  1  0.49415200  0.20987100  0.14771500  1
  Eu  Eu2  1  0.20987100  0.49415200  0.64771500  1
  Eu  Eu3  1  0.50584800  0.79012900  0.85228500  1
  In  In4  1  0.14627800  0.85372200  0.25000000  1
  In  In5  1  0.85372200  0.14627800  0.75000000  1
  Pd  Pd6  1  0.00183800  0.72775400  0.00316000  1
  Pd  Pd7  1  0.27224600  0.99816200  0.49684000  1
  Pd  Pd8  1  0.99816200  0.27224600  0.99684000  1
  Pd  Pd9  1  0.72775400  0.00183800  0.50316000  1
