# generated using pymatgen
data_NiBi
_symmetry_space_group_name_H-M   'P 1'
_cell_length_a   8.23272078
_cell_length_b   8.23272078
_cell_length_c   11.52059437
_cell_angle_alpha   79.59516853
_cell_angle_beta   79.53415708
_cell_angle_gamma   119.54305727
_symmetry_Int_Tables_number   1
_chemical_formula_structural   NiBi
_chemical_formula_sum   'Ni16 Bi16'
_cell_volume   633.83229741
_cell_formula_units_Z   16
loop_
 _symmetry_equiv_pos_site_id
 _symmetry_equiv_pos_as_xyz
  1  'x, y, z'
loop_
 _atom_site_type_symbol
 _atom_site_label
 _atom_site_symmetry_multiplicity
 _atom_site_fract_x
 _atom_site_fract_y
 _atom_site_fract_z
 _atom_site_occupancy
  Ni  Ni0  1  0.24205600  0.25147700  0.50646700  1
  Ni  Ni1  1  0.76215100  0.75649300  0.48135600  1
  Ni  Ni2  1  0.22754200  0.89499600  0.87746200  1
  Ni  Ni3  1  0.77118200  0.10506000  0.12375800  1
  Ni  Ni4  1  0.12684900  0.12192100  0.75123000  1
  Ni  Ni5  1  0.87288800  0.88357500  0.24353600  1
  Ni  Ni6  1  0.76221300  0.26210600  0.50240600  1
  Ni  Ni7  1  0.23548700  0.73538000  0.50240600  1
  Ni  Ni8  1  0.00081200  0.00000400  0.99918400  1
  Ni  Ni9  1  0.62118400  0.12173100  0.74838900  1
  Ni  Ni10  1  0.86844500  0.36547700  0.24874800  1
  Ni  Ni11  1  0.12988000  0.63042700  0.74838900  1
  Ni  Ni12  1  0.38577500  0.88280700  0.24874800  1
  Ni  Ni13  1  0.49952200  0.99918800  0.99981800  1
  Ni  Ni14  1  0.00099400  0.50066000  0.99981800  1
  Ni  Ni15  1  0.02373200  0.35492500  0.62134300  1
  Bi  Bi16  1  0.83794500  0.53394900  0.62810500  1
  Bi  Bi17  1  0.15132600  0.47904300  0.36963100  1
  Bi  Bi18  1  0.35601200  0.02277400  0.62121400  1
  Bi  Bi19  1  0.64057200  0.97903100  0.38039700  1
  Bi  Bi20  1  0.89478100  0.22945400  0.87576500  1
  Bi  Bi21  1  0.10126600  0.76819300  0.13054100  1
  Bi  Bi22  1  0.40891300  0.25718900  0.87829200  1
  Bi  Bi23  1  0.13346300  0.28357700  0.12555100  1
  Bi  Bi24  1  0.86452000  0.71279500  0.87829200  1
  Bi  Bi25  1  0.59087300  0.74098700  0.12555100  1
  Bi  Bi26  1  0.40953200  0.71294900  0.87752000  1
  Bi  Bi27  1  0.58782400  0.28626100  0.12591400  1
  Bi  Bi28  1  0.83698800  0.98762400  0.63076900  1
  Bi  Bi29  1  0.63871400  0.47233400  0.37361400  1
  Bi  Bi30  1  0.38160800  0.53224400  0.63076900  1
  Bi  Bi31  1  0.15405200  0.98767100  0.37361400  1
