# generated using pymatgen
data_UMnFe
_symmetry_space_group_name_H-M   'P 1'
_cell_length_a   4.95697439
_cell_length_b   4.95697439
_cell_length_c   4.95697439
_cell_angle_alpha   89.10203354
_cell_angle_beta   60.06006591
_cell_angle_gamma   119.02795797
_symmetry_Int_Tables_number   1
_chemical_formula_structural   UMnFe
_chemical_formula_sum   'U2 Mn2 Fe2'
_cell_volume   86.77966682
_cell_formula_units_Z   2
loop_
 _symmetry_equiv_pos_site_id
 _symmetry_equiv_pos_as_xyz
  1  'x, y, z'
loop_
 _atom_site_type_symbol
 _atom_site_label
 _atom_site_symmetry_multiplicity
 _atom_site_fract_x
 _atom_site_fract_y
 _atom_site_fract_z
 _atom_site_occupancy
  U  U0  1  0.50000000  0.74839400  0.75160600  1
  U  U1  1  0.00000000  0.00160600  0.99839400  1
  Mn  Mn2  1  0.25000000  0.87500000  0.37500000  1
  Mn  Mn3  1  0.75000000  0.37500000  0.37500000  1
  Fe  Fe4  1  0.75000000  0.37500000  0.87500000  1
  Fe  Fe5  1  0.25000000  0.37500000  0.37500000  1
