# generated using pymatgen
data_V2Ni2PbO8
_symmetry_space_group_name_H-M   'P 1'
_cell_length_a   9.75825830
_cell_length_b   9.75825830
_cell_length_c   9.75825830
_cell_angle_alpha   100.86726973
_cell_angle_beta   100.86726973
_cell_angle_gamma   128.53049375
_symmetry_Int_Tables_number   1
_chemical_formula_structural   V2Ni2PbO8
_chemical_formula_sum   'V8 Ni8 Pb4 O32'
_cell_volume   654.80559558
_cell_formula_units_Z   4
loop_
 _symmetry_equiv_pos_site_id
 _symmetry_equiv_pos_as_xyz
  1  'x, y, z'
loop_
 _atom_site_type_symbol
 _atom_site_label
 _atom_site_symmetry_multiplicity
 _atom_site_fract_x
 _atom_site_fract_y
 _atom_site_fract_z
 _atom_site_occupancy
  V  V0  1  0.21019300  0.36780300  0.68149800  1
  V  V1  1  0.68630500  0.52869500  0.31850200  1
  V  V2  1  0.77869500  0.96019300  0.34239000  1
  V  V3  1  0.71019300  0.02869500  0.84239000  1
  V  V4  1  0.61780300  0.43630500  0.65761000  1
  V  V5  1  0.18630500  0.86780300  0.15761000  1
  V  V6  1  0.27869500  0.93630500  0.81850200  1
  V  V7  1  0.11780300  0.46019300  0.18149800  1
  Ni  Ni8  1  0.23401100  0.23899000  0.33768400  1
  Ni  Ni9  1  0.90130600  0.89632800  0.66231600  1
  Ni  Ni10  1  0.14632800  0.98401100  0.49502100  1
  Ni  Ni11  1  0.73401100  0.39632800  0.99502100  1
  Ni  Ni12  1  0.48899000  0.65130600  0.50497900  1
  Ni  Ni13  1  0.40130600  0.73899000  0.00497900  1
  Ni  Ni14  1  0.64632800  0.15130600  0.16231600  1
  Ni  Ni15  1  0.98899000  0.48401100  0.83768400  1
  Pb  Pb16  1  0.74268200  0.74268200  0.00000000  1
  Pb  Pb17  1  0.99268200  0.49268200  0.50000000  1
  Pb  Pb18  1  0.24268200  0.24268200  0.00000000  1
  Pb  Pb19  1  0.49268200  0.99268200  0.50000000  1
  O  O20  1  0.98520700  0.01006900  0.34023900  1
  O  O21  1  0.66983000  0.64496700  0.65976100  1
  O  O22  1  0.89496700  0.73520700  0.47513700  1
  O  O23  1  0.48520700  0.14496700  0.97513700  1
  O  O24  1  0.26006900  0.41983000  0.52486300  1
  O  O25  1  0.16983000  0.51006900  0.02486300  1
  O  O26  1  0.39496700  0.91983000  0.15976100  1
  O  O27  1  0.76006900  0.23520700  0.84023900  1
  O  O28  1  0.39791400  0.23157000  0.50735100  1
  O  O29  1  0.72421900  0.89056300  0.49264900  1
  O  O30  1  0.14056300  0.14791400  0.66634400  1
  O  O31  1  0.89791400  0.39056300  0.16634400  1
  O  O32  1  0.48157000  0.47421900  0.33365600  1
  O  O33  1  0.22421900  0.73157000  0.83365600  1
  O  O34  1  0.64056300  0.97421900  0.99264900  1
  O  O35  1  0.98157000  0.64791400  0.00735100  1
  O  O36  1  0.19355300  0.05058300  0.15242600  1
  O  O37  1  0.89815800  0.04112700  0.84757400  1
  O  O38  1  0.29112700  0.94355300  0.64297000  1
  O  O39  1  0.69355300  0.54112700  0.14297000  1
  O  O40  1  0.30058300  0.64815800  0.35703000  1
  O  O41  1  0.39815800  0.55058300  0.85703000  1
  O  O42  1  0.79112700  0.14815800  0.34757400  1
  O  O43  1  0.80058300  0.44355300  0.65242600  1
  O  O44  1  0.17285400  0.84908500  0.32811700  1
  O  O45  1  0.52096800  0.84473700  0.67188300  1
  O  O46  1  0.09473700  0.92285400  0.82376900  1
  O  O47  1  0.67285400  0.34473700  0.32376900  1
  O  O48  1  0.09908500  0.27096800  0.17623100  1
  O  O49  1  0.02096800  0.34908500  0.67623100  1
  O  O50  1  0.59473700  0.77096800  0.17188300  1
  O  O51  1  0.59908500  0.42285400  0.82811700  1
