# generated using pymatgen
data_NdCrTeO6
_symmetry_space_group_name_H-M   'P 1'
_cell_length_a   5.23440213
_cell_length_b   5.23444988
_cell_length_c   10.23746200
_cell_angle_alpha   89.99888154
_cell_angle_beta   90.00055420
_cell_angle_gamma   120.00044244
_symmetry_Int_Tables_number   1
_chemical_formula_structural   NdCrTeO6
_chemical_formula_sum   'Nd2 Cr2 Te2 O12'
_cell_volume   242.91768185
_cell_formula_units_Z   2
loop_
 _symmetry_equiv_pos_site_id
 _symmetry_equiv_pos_as_xyz
  1  'x, y, z'
loop_
 _atom_site_type_symbol
 _atom_site_label
 _atom_site_symmetry_multiplicity
 _atom_site_fract_x
 _atom_site_fract_y
 _atom_site_fract_z
 _atom_site_occupancy
  Nd  Nd0  1  0.00000000  0.00000000  0.00000000  1
  Nd  Nd1  1  0.00000000  0.00000000  0.50000000  1
  Cr  Cr2  1  0.33311000  0.66656500  0.24999600  1
  Cr  Cr3  1  0.66689000  0.33343500  0.75000400  1
  Te  Te4  1  0.33338800  0.66669400  0.75000000  1
  Te  Te5  1  0.66661200  0.33330600  0.25000000  1
  O  O6  1  0.37235600  0.36206100  0.14308900  1
  O  O7  1  0.63797600  0.01036000  0.14308600  1
  O  O8  1  0.98970400  0.62767200  0.14307700  1
  O  O9  1  0.62764400  0.63793900  0.85691100  1
  O  O10  1  0.36202400  0.98964000  0.85691400  1
  O  O11  1  0.01029600  0.37232800  0.85692300  1
  O  O12  1  0.63797600  0.62761600  0.35691400  1
  O  O13  1  0.37235800  0.01029500  0.35691100  1
  O  O14  1  0.98970500  0.36203300  0.35692300  1
  O  O15  1  0.36202400  0.37238400  0.64308600  1
  O  O16  1  0.62764200  0.98970500  0.64308900  1
  O  O17  1  0.01029500  0.63796700  0.64307700  1
