# generated using pymatgen
data_Mg45Si32(H29O69)2
_symmetry_space_group_name_H-M   'P 1'
_cell_length_a   7.37699662
_cell_length_b   9.34183901
_cell_length_c   41.47880533
_cell_angle_alpha   96.46578099
_cell_angle_beta   91.33179521
_cell_angle_gamma   90.00000000
_symmetry_Int_Tables_number   1
_chemical_formula_structural   Mg45Si32(H29O69)2
_chemical_formula_sum   'Mg45 Si32 H58 O138'
_cell_volume   2839.54081876
_cell_formula_units_Z   1
loop_
 _symmetry_equiv_pos_site_id
 _symmetry_equiv_pos_as_xyz
  1  'x, y, z'
loop_
 _atom_site_type_symbol
 _atom_site_label
 _atom_site_symmetry_multiplicity
 _atom_site_fract_x
 _atom_site_fract_y
 _atom_site_fract_z
 _atom_site_occupancy
  Mg  Mg0  1  0.50000000  0.00000000  0.00000000  1
  Mg  Mg1  1  0.50000000  0.33482065  0.00000000  1
  Mg  Mg2  1  0.50000000  0.66517935  1.00000000  1
  Mg  Mg3  1  0.46003224  0.46687628  0.93375257  1
  Mg  Mg4  1  0.53996776  0.53312372  0.06624743  1
  Mg  Mg5  1  0.46027641  0.13218533  0.93270098  1
  Mg  Mg6  1  0.46027641  0.80051565  0.93270098  1
  Mg  Mg7  1  0.53972359  0.86781467  0.06729902  1
  Mg  Mg8  1  0.53972359  0.19948435  0.06729902  1
  Mg  Mg9  1  0.43049480  0.93336142  0.86672285  1
  Mg  Mg10  1  0.56950520  0.06663858  0.13327715  1
  Mg  Mg11  1  0.42766707  0.26831129  0.86674211  1
  Mg  Mg12  1  0.42766707  0.59843082  0.86674211  1
  Mg  Mg13  1  0.57233293  0.73168871  0.13325789  1
  Mg  Mg14  1  0.57233293  0.40156918  0.13325789  1
  Mg  Mg15  1  0.41270360  0.40034438  0.80068876  1
  Mg  Mg16  1  0.58729640  0.59965562  0.19931124  1
  Mg  Mg17  1  0.41493828  0.06624919  0.80017729  1
  Mg  Mg18  1  0.41493828  0.73392811  0.80017729  1
  Mg  Mg19  1  0.58506172  0.93375081  0.19982271  1
  Mg  Mg20  1  0.58506172  0.26607189  0.19982271  1
  Mg  Mg21  1  0.40975693  0.86718064  0.73436128  1
  Mg  Mg22  1  0.59024307  0.13281936  0.26563872  1
  Mg  Mg23  1  0.40931051  0.20142990  0.73371406  1
  Mg  Mg24  1  0.40931051  0.53228416  0.73371406  1
  Mg  Mg25  1  0.59068949  0.79857010  0.26628594  1
  Mg  Mg26  1  0.59068949  0.46771584  0.26628594  1
  Mg  Mg27  1  0.41232277  0.33382035  0.66764070  1
  Mg  Mg28  1  0.58767723  0.66617965  0.33235930  1
  Mg  Mg29  1  0.41560565  0.99933222  0.66730128  1
  Mg  Mg30  1  0.41560565  0.66796906  0.66730128  1
  Mg  Mg31  1  0.58439435  0.00066778  0.33269872  1
  Mg  Mg32  1  0.58439435  0.33203094  0.33269872  1
  Mg  Mg33  1  0.43078215  0.80049537  0.60099074  1
  Mg  Mg34  1  0.56921785  0.19950463  0.39900926  1
  Mg  Mg35  1  0.43720419  0.13424448  0.60065114  1
  Mg  Mg36  1  0.43720419  0.46640666  0.60065114  1
  Mg  Mg37  1  0.56279581  0.86575552  0.39934886  1
  Mg  Mg38  1  0.56279581  0.53359334  0.39934886  1
  Mg  Mg39  1  0.47596227  0.26713868  0.53427737  1
  Mg  Mg40  1  0.52403773  0.73286132  0.46572263  1
  Mg  Mg41  1  0.46909654  0.93265713  0.53344871  1
  Mg  Mg42  1  0.46909654  0.60079158  0.53344871  1
  Mg  Mg43  1  0.53090346  0.06734287  0.46655129  1
  Mg  Mg44  1  0.53090346  0.39920842  0.46655129  1
  Si  Si45  1  0.86769647  0.14908734  0.97000854  1
  Si  Si46  1  0.86769647  0.82092120  0.97000854  1
  Si  Si47  1  0.13230353  0.85091266  0.02999146  1
  Si  Si48  1  0.13230353  0.17907880  0.02999146  1
  Si  Si49  1  0.82496668  0.28867912  0.90678703  1
  Si  Si50  1  0.82496668  0.61810790  0.90678703  1
  Si  Si51  1  0.17503332  0.71132088  0.09321297  1
  Si  Si52  1  0.17503332  0.38189210  0.09321297  1
  Si  Si53  1  0.80275137  0.08697282  0.84305403  1
  Si  Si54  1  0.80275137  0.75608121  0.84305403  1
  Si  Si55  1  0.19724863  0.91302718  0.15694597  1
  Si  Si56  1  0.19724863  0.24391879  0.15694597  1
  Si  Si57  1  0.79173774  0.22419757  0.77899700  1
  Si  Si58  1  0.79173774  0.55479943  0.77899700  1
  Si  Si59  1  0.20826226  0.77580243  0.22100300  1
  Si  Si60  1  0.20826226  0.44520057  0.22100300  1
  Si  Si61  1  0.79034688  0.02327625  0.71486054  1
  Si  Si62  1  0.79034688  0.69158429  0.71486054  1
  Si  Si63  1  0.20965312  0.97672375  0.28513946  1
  Si  Si64  1  0.20965312  0.30841571  0.28513946  1
  Si  Si65  1  0.79838153  0.16045698  0.65093322  1
  Si  Si66  1  0.79838153  0.49047624  0.65093322  1
  Si  Si67  1  0.20161847  0.83954302  0.34906678  1
  Si  Si68  1  0.20161847  0.50952376  0.34906678  1
  Si  Si69  1  0.81868139  0.95772824  0.58750751  1
  Si  Si70  1  0.81868139  0.62977927  0.58750751  1
  Si  Si71  1  0.18131861  0.04227176  0.41249249  1
  Si  Si72  1  0.18131861  0.37022073  0.41249249  1
  Si  Si73  1  0.86646117  0.09585594  0.52440894  1
  Si  Si74  1  0.86646117  0.42855299  0.52440894  1
  Si  Si75  1  0.13353883  0.90414406  0.47559106  1
  Si  Si76  1  0.13353883  0.57144701  0.47559106  1
  H  H77  1  0.76188047  0.48821803  0.97643605  1
  H  H78  1  0.23811953  0.51178197  0.02356395  1
  H  H79  1  0.72940318  0.95411650  0.90823299  1
  H  H80  1  0.27059682  0.04588350  0.09176701  1
  H  H81  1  0.70385285  0.42233474  0.84466949  1
  H  H82  1  0.29614715  0.57766526  0.15533051  1
  H  H83  1  0.69575582  0.88946116  0.77892233  1
  H  H84  1  0.30424418  0.11053884  0.22107767  1
  H  H85  1  0.69166861  0.35653438  0.71306876  1
  H  H86  1  0.30833139  0.64346562  0.28693124  1
  H  H87  1  0.70180183  0.82447451  0.64894902  1
  H  H88  1  0.29819817  0.17552549  0.35105098  1
  H  H89  1  0.72946158  0.29193663  0.58387327  1
  H  H90  1  0.27053842  0.70806337  0.41612673  1
  H  H91  1  0.74969364  0.75717147  0.51434293  1
  H  H92  1  0.25030636  0.24282853  0.48565707  1
  H  H93  1  0.21388592  0.97898840  0.95797680  1
  H  H94  1  0.78611408  0.02101160  0.04202320  1
  H  H95  1  0.21348862  0.30580555  0.95789007  1
  H  H96  1  0.21348862  0.65208452  0.95789007  1
  H  H97  1  0.78651138  0.69419445  0.04210993  1
  H  H98  1  0.78651138  0.34791548  0.04210993  1
  H  H99  1  0.17433855  0.44657421  0.89314841  1
  H  H100  1  0.82566145  0.55342579  0.10685159  1
  H  H101  1  0.17523293  0.11443277  0.88950740  1
  H  H102  1  0.17523293  0.77507462  0.88950740  1
  H  H103  1  0.82476707  0.88556723  0.11049260  1
  H  H104  1  0.82476707  0.22492538  0.11049260  1
  H  H105  1  0.15577385  0.91194431  0.82388863  1
  H  H106  1  0.84422615  0.08805569  0.17611137  1
  H  H107  1  0.15499946  0.23748006  0.82269799  1
  H  H108  1  0.15499946  0.58521793  0.82269799  1
  H  H109  1  0.84500054  0.76251994  0.17730201  1
  H  H110  1  0.84500054  0.41478207  0.17730201  1
  H  H111  1  0.14711308  0.37869521  0.75739043  1
  H  H112  1  0.85288692  0.62130479  0.24260957  1
  H  H113  1  0.14699451  0.05165052  0.75553566  1
  H  H114  1  0.14699451  0.70388514  0.75553566  1
  H  H115  1  0.85300549  0.94834948  0.24446434  1
  H  H116  1  0.85300549  0.29611486  0.24446434  1
  H  H117  1  0.15005272  0.84520131  0.69040261  1
  H  H118  1  0.84994728  0.15479869  0.30959739  1
  H  H119  1  0.14846375  0.16907598  0.68844368  1
  H  H120  1  0.14846375  0.51936770  0.68844368  1
  H  H121  1  0.85153625  0.83092402  0.31155632  1
  H  H122  1  0.85153625  0.48063230  0.31155632  1
  H  H123  1  0.16553630  0.31046578  0.62093156  1
  H  H124  1  0.83446370  0.68953422  0.37906844  1
  H  H125  1  0.16380811  0.98591265  0.62136956  1
  H  H126  1  0.16380811  0.63545691  0.62136956  1
  H  H127  1  0.83619189  0.01408735  0.37863044  1
  H  H128  1  0.83619189  0.36454309  0.37863044  1
  H  H129  1  0.19262729  0.77677646  0.55355291  1
  H  H130  1  0.80737271  0.22322354  0.44644709  1
  H  H131  1  0.20189761  0.10419221  0.55283879  1
  H  H132  1  0.20189761  0.44864658  0.55283879  1
  H  H133  1  0.79810239  0.89580779  0.44716121  1
  H  H134  1  0.79810239  0.55135342  0.44716121  1
  O  O135  1  0.65261328  0.15522686  0.97671510  1
  O  O136  1  0.65261328  0.82148824  0.97671510  1
  O  O137  1  0.34738672  0.84477314  0.02328490  1
  O  O138  1  0.34738672  0.17851176  0.02328490  1
  O  O139  1  0.60743356  0.28774067  0.90923073  1
  O  O140  1  0.60743356  0.62149007  0.90923073  1
  O  O141  1  0.39256644  0.71225933  0.09076927  1
  O  O142  1  0.39256644  0.37850993  0.09076927  1
  O  O143  1  0.58468289  0.08826867  0.84398615  1
  O  O144  1  0.58468289  0.75571748  0.84398615  1
  O  O145  1  0.41531711  0.91173133  0.15601385  1
  O  O146  1  0.41531711  0.24428252  0.15601385  1
  O  O147  1  0.57342676  0.22395762  0.77857826  1
  O  O148  1  0.57342676  0.55462064  0.77857826  1
  O  O149  1  0.42657324  0.77604238  0.22142174  1
  O  O150  1  0.42657324  0.44537936  0.22142174  1
  O  O151  1  0.57208485  0.02327978  0.71296364  1
  O  O152  1  0.57208485  0.68968387  0.71296364  1
  O  O153  1  0.42791515  0.97672022  0.28703636  1
  O  O154  1  0.42791515  0.31031613  0.28703636  1
  O  O155  1  0.58041447  0.15897993  0.64756509  1
  O  O156  1  0.58041447  0.48858516  0.64756509  1
  O  O157  1  0.41958553  0.84102007  0.35243491  1
  O  O158  1  0.41958553  0.51141484  0.35243491  1
  O  O159  1  0.60174675  0.95473510  0.58202850  1
  O  O160  1  0.60174675  0.62729339  0.58202850  1
  O  O161  1  0.39825325  0.04526490  0.41797150  1
  O  O162  1  0.39825325  0.37270661  0.41797150  1
  O  O163  1  0.65213479  0.08408234  0.51505427  1
  O  O164  1  0.65213479  0.43097193  0.51505427  1
  O  O165  1  0.34786521  0.91591766  0.48494573  1
  O  O166  1  0.34786521  0.56902807  0.48494573  1
  O  O167  1  0.93628347  0.98050780  0.96101560  1
  O  O168  1  0.06371653  0.01949220  0.03898440  1
  O  O169  1  0.90500551  0.45123131  0.90246262  1
  O  O170  1  0.09499449  0.54876869  0.09753738  1
  O  O171  1  0.88467626  0.92020936  0.84041872  1
  O  O172  1  0.11532374  0.07979064  0.15958128  1
  O  O173  1  0.87546492  0.38849761  0.77699522  1
  O  O174  1  0.12453508  0.61150239  0.22300478  1
  O  O175  1  0.87293827  0.85660908  0.71321816  1
  O  O176  1  0.12706173  0.14339092  0.28678184  1
  O  O177  1  0.88245404  0.32471919  0.64943837  1
  O  O178  1  0.11754596  0.67528081  0.35056163  1
  O  O179  1  0.90406067  0.79335972  0.58671943  1
  O  O180  1  0.09593933  0.20664028  0.41328057  1
  O  O181  1  0.93851579  0.26313433  0.52626866  1
  O  O182  1  0.06148421  0.73686567  0.47373134  1
  O  O183  1  1.00000000  0.22172939  1.00000000  1
  O  O184  1  0.00000000  0.77827061  0.00000000  1
  O  O185  1  0.92515639  0.23733112  0.93945313  1
  O  O186  1  0.92515639  0.70212201  0.93945313  1
  O  O187  1  0.07484361  0.76266888  0.06054687  1
  O  O188  1  0.07484361  0.29787799  0.06054687  1
  O  O189  1  0.89717058  0.17765900  0.87578775  1
  O  O190  1  0.89717058  0.69812875  0.87578775  1
  O  O191  1  0.10282942  0.82234100  0.12421225  1
  O  O192  1  0.10282942  0.30187125  0.12421225  1
  O  O193  1  0.88031695  0.16399981  0.81199621  1
  O  O194  1  0.88031695  0.64799640  0.81199621  1
  O  O195  1  0.11968305  0.83600019  0.18800379  1
  O  O196  1  0.11968305  0.35200360  0.18800379  1
  O  O197  1  0.87381758  0.11571863  0.74836455  1
  O  O198  1  0.87381758  0.63264592  0.74836455  1
  O  O199  1  0.12618242  0.88428137  0.25163545  1
  O  O200  1  0.12618242  0.36735408  0.25163545  1
  O  O201  1  0.87703698  0.10251764  0.68486221  1
  O  O202  1  0.87703698  0.58234457  0.68486221  1
  O  O203  1  0.12296302  0.89748236  0.31513779  1
  O  O204  1  0.12296302  0.41765543  0.31513779  1
  O  O205  1  0.88910870  0.04956810  0.62189207  1
  O  O206  1  0.88910870  0.57232396  0.62189207  1
  O  O207  1  0.11089130  0.95043190  0.37810793  1
  O  O208  1  0.11089130  0.42767604  0.37810793  1
  O  O209  1  0.91787209  0.03983485  0.55971631  1
  O  O210  1  0.91787209  0.51988147  0.55971631  1
  O  O211  1  0.08212791  0.96016515  0.44028369  1
  O  O212  1  0.08212791  0.48011853  0.44028369  1
  O  O213  1  -0.00000000  0.00000000  0.50000000  1
  O  O214  1  -0.00000000  0.50000000  0.50000000  1
  O  O215  1  0.63095970  0.48783009  0.97566019  1
  O  O216  1  0.36904030  0.51216991  0.02433981  1
  O  O217  1  0.59870609  0.95480542  0.90961085  1
  O  O218  1  0.40129391  0.04519458  0.09038915  1
  O  O219  1  0.57261337  0.42202623  0.84405247  1
  O  O220  1  0.42738663  0.57797377  0.15594753  1
  O  O221  1  0.56447128  0.88918733  0.77837467  1
  O  O222  1  0.43552872  0.11081267  0.22162533  1
  O  O223  1  0.56038448  0.35629136  0.71258273  1
  O  O224  1  0.43961552  0.64370864  0.28741727  1
  O  O225  1  0.57079583  0.82345503  0.64691006  1
  O  O226  1  0.42920417  0.17654497  0.35308994  1
  O  O227  1  0.59897826  0.29041328  0.58082656  1
  O  O228  1  0.40102174  0.70958672  0.41917344  1
  O  O229  1  0.61841271  0.75688743  0.51377485  1
  O  O230  1  0.38158729  0.24311257  0.48622515  1
  O  O231  1  0.34588544  0.97895592  0.95791184  1
  O  O232  1  0.65411456  0.02104408  0.04208816  1
  O  O233  1  0.34473839  0.30978307  0.95747384  1
  O  O234  1  0.34473839  0.64769078  0.95747384  1
  O  O235  1  0.65526161  0.69021693  0.04252616  1
  O  O236  1  0.65526161  0.35230922  0.04252616  1
  O  O237  1  0.30550350  0.44549259  0.89098519  1
  O  O238  1  0.69449650  0.55450741  0.10901481  1
  O  O239  1  0.30681012  0.11153345  0.89009153  1
  O  O240  1  0.30681012  0.77855808  0.89009153  1
  O  O241  1  0.69318988  0.88846655  0.10990847  1
  O  O242  1  0.69318988  0.22144192  0.10990847  1
  O  O243  1  0.28729676  0.91149155  0.82298311  1
  O  O244  1  0.71270324  0.08850845  0.17701689  1
  O  O245  1  0.28642884  0.24408052  0.82303016  1
  O  O246  1  0.28642884  0.57894964  0.82303016  1
  O  O247  1  0.71357116  0.75591948  0.17696984  1
  O  O248  1  0.71357116  0.42105036  0.17696984  1
  O  O249  1  0.27834250  0.37805114  0.75610228  1
  O  O250  1  0.72165750  0.62194886  0.24389772  1
  O  O251  1  0.27859505  0.04563132  0.75584356  1
  O  O252  1  0.27859505  0.71021224  0.75584356  1
  O  O253  1  0.72140495  0.95436868  0.24415644  1
  O  O254  1  0.72140495  0.28978776  0.24415644  1
  O  O255  1  0.28118761  0.84450145  0.68900289  1
  O  O256  1  0.71881239  0.15549855  0.31099711  1
  O  O257  1  0.27993876  0.17634440  0.68861445  1
  O  O258  1  0.27993876  0.51227004  0.68861445  1
  O  O259  1  0.72006124  0.82365560  0.31138555  1
  O  O260  1  0.72006124  0.48772996  0.31138555  1
  O  O261  1  0.29692683  0.31047866  0.62095732  1
  O  O262  1  0.70307317  0.68952134  0.37904268  1
  O  O263  1  0.29526083  0.97883972  0.62119082  1
  O  O264  1  0.29526083  0.64235110  0.62119082  1
  O  O265  1  0.70473917  0.02116028  0.37880918  1
  O  O266  1  0.70473917  0.35764890  0.37880918  1
  O  O267  1  0.32367299  0.77649371  0.55298741  1
  O  O268  1  0.67632701  0.22350629  0.44701259  1
  O  O269  1  0.33319032  0.10963060  0.55334401  1
  O  O270  1  0.33319032  0.44371340  0.55334401  1
  O  O271  1  0.66680968  0.89036940  0.44665599  1
  O  O272  1  0.66680968  0.55628660  0.44665599  1
