# generated using pymatgen
data_Sr2TmBiO6
_symmetry_space_group_name_H-M   'P 1'
_cell_length_a   5.90998469
_cell_length_b   6.05261500
_cell_length_c   8.42822344
_cell_angle_alpha   90.00000000
_cell_angle_beta   90.06590904
_cell_angle_gamma   90.00000000
_symmetry_Int_Tables_number   1
_chemical_formula_structural   Sr2TmBiO6
_chemical_formula_sum   'Sr4 Tm2 Bi2 O12'
_cell_volume   301.48461806
_cell_formula_units_Z   2
loop_
 _symmetry_equiv_pos_site_id
 _symmetry_equiv_pos_as_xyz
  1  'x, y, z'
loop_
 _atom_site_type_symbol
 _atom_site_label
 _atom_site_symmetry_multiplicity
 _atom_site_fract_x
 _atom_site_fract_y
 _atom_site_fract_z
 _atom_site_occupancy
  Sr  Sr0  1  0.01171800  0.45519700  0.25168700  1
  Sr  Sr1  1  0.98828200  0.54480300  0.74831300  1
  Sr  Sr2  1  0.48828100  0.95519700  0.24831300  1
  Sr  Sr3  1  0.51171800  0.04480300  0.75168700  1
  Tm  Tm4  1  0.00000000  0.00000000  0.50000000  1
  Tm  Tm5  1  0.50000000  0.50000000  0.00000000  1
  Bi  Bi6  1  0.00000000  0.00000000  0.00000000  1
  Bi  Bi7  1  0.50000000  0.50000000  0.50000000  1
  O  O8  1  0.90943000  0.03273700  0.24524200  1
  O  O9  1  0.09057000  0.96726300  0.75475800  1
  O  O10  1  0.59057000  0.53273700  0.25475800  1
  O  O11  1  0.40943000  0.46726300  0.74524200  1
  O  O12  1  0.20071700  0.71290400  0.05040500  1
  O  O13  1  0.79928300  0.28709600  0.94959500  1
  O  O14  1  0.29928300  0.21290400  0.44959500  1
  O  O15  1  0.70071700  0.78709600  0.55040500  1
  O  O16  1  0.28993100  0.20259400  0.04581400  1
  O  O17  1  0.71006900  0.79740600  0.95418600  1
  O  O18  1  0.21006900  0.70259400  0.45418600  1
  O  O19  1  0.78993100  0.29740600  0.54581400  1
