# generated using pymatgen
data_Ba6Cu11F34
_symmetry_space_group_name_H-M   'P 1'
_cell_length_a   7.57664400
_cell_length_b   10.15855668
_cell_length_c   10.44867644
_cell_angle_alpha   83.99196339
_cell_angle_beta   74.44622525
_cell_angle_gamma   70.29508323
_symmetry_Int_Tables_number   1
_chemical_formula_structural   Ba6Cu11F34
_chemical_formula_sum   'Ba6 Cu11 F34'
_cell_volume   729.30160899
_cell_formula_units_Z   1
loop_
 _symmetry_equiv_pos_site_id
 _symmetry_equiv_pos_as_xyz
  1  'x, y, z'
loop_
 _atom_site_type_symbol
 _atom_site_label
 _atom_site_symmetry_multiplicity
 _atom_site_fract_x
 _atom_site_fract_y
 _atom_site_fract_z
 _atom_site_occupancy
  Ba  Ba0  1  0.66844200  0.65702300  0.97222800  1
  Ba  Ba1  1  0.33155800  0.34297700  0.02777200  1
  Ba  Ba2  1  0.63754200  0.91078400  0.28489900  1
  Ba  Ba3  1  0.36245800  0.08921600  0.71510100  1
  Ba  Ba4  1  0.21789700  0.63767700  0.35286100  1
  Ba  Ba5  1  0.78210300  0.36232300  0.64713900  1
  Cu  Cu6  1  0.18611800  0.01108200  0.18190300  1
  Cu  Cu7  1  0.81388200  0.98891800  0.81809700  1
  Cu  Cu8  1  0.10027700  0.74211400  0.02614500  1
  Cu  Cu9  1  0.89972300  0.25788600  0.97385500  1
  Cu  Cu10  1  0.29796000  0.74389800  0.72877400  1
  Cu  Cu11  1  0.70204000  0.25610200  0.27122600  1
  Cu  Cu12  1  0.73927100  0.74139900  0.62021900  1
  Cu  Cu13  1  0.26072900  0.25860100  0.37978100  1
  Cu  Cu14  1  0.81719700  0.51878200  0.29396600  1
  Cu  Cu15  1  0.18280300  0.48121800  0.70603400  1
  Cu  Cu16  1  0.00000000  0.00000000  0.50000000  1
  F  F17  1  0.29746300  0.61655300  0.60294300  1
  F  F18  1  0.70253700  0.38344700  0.39705700  1
  F  F19  1  0.51279400  0.85869600  0.56419500  1
  F  F20  1  0.48720600  0.14130400  0.43580500  1
  F  F21  1  0.75408300  0.10449000  0.61220500  1
  F  F22  1  0.24591700  0.89551000  0.38779500  1
  F  F23  1  0.68118400  0.86409200  0.77030900  1
  F  F24  1  0.31881600  0.13590800  0.22969100  1
  F  F25  1  0.93727300  0.12556200  0.83457300  1
  F  F26  1  0.06272700  0.87443800  0.16542700  1
  F  F27  1  0.93396900  0.65643200  0.21387400  1
  F  F28  1  0.06603100  0.34356800  0.78612600  1
  F  F29  1  0.53898300  0.61644700  0.75761800  1
  F  F30  1  0.46101700  0.38355300  0.24238200  1
  F  F31  1  0.89997500  0.85903800  0.46099100  1
  F  F32  1  0.10002500  0.14096200  0.53900900  1
  F  F33  1  0.88301000  0.40731100  0.08560100  1
  F  F34  1  0.58045000  0.64629900  0.26106600  1
  F  F35  1  0.41955000  0.35370100  0.73893400  1
  F  F36  1  0.43849700  0.88852300  0.10825100  1
  F  F37  1  0.56150300  0.11147700  0.89174900  1
  F  F38  1  0.07549000  0.39439500  0.29434300  1
  F  F39  1  0.92451000  0.60560500  0.70565700  1
  F  F40  1  0.05838900  0.87814400  0.69982900  1
  F  F41  1  0.94161100  0.12185600  0.30017100  1
  F  F42  1  0.85153500  0.84694800  0.99594100  1
  F  F43  1  0.14846500  0.15305200  0.00405900  1
  F  F44  1  0.32723900  0.61722600  0.07787200  1
  F  F45  1  0.67276100  0.38277400  0.92212800  1
  F  F46  1  0.19408800  0.39720900  0.51141800  1
  F  F47  1  0.80591200  0.60279100  0.48858200  1
  F  F48  1  0.71294600  0.14322700  0.13504400  1
  F  F49  1  0.28705400  0.85677300  0.86495600  1
  F  F50  1  0.11699000  0.59268900  0.91439900  1
