# generated using pymatgen
data_CaFe(GeO3)2
_symmetry_space_group_name_H-M   'P 1'
_cell_length_a   6.90030951
_cell_length_b   8.01449115
_cell_length_c   9.60135621
_cell_angle_alpha   76.89256960
_cell_angle_beta   79.27717291
_cell_angle_gamma   91.64097452
_symmetry_Int_Tables_number   1
_chemical_formula_structural   CaFe(GeO3)2
_chemical_formula_sum   'Ca4 Fe4 Ge8 O24'
_cell_volume   506.72110499
_cell_formula_units_Z   4
loop_
 _symmetry_equiv_pos_site_id
 _symmetry_equiv_pos_as_xyz
  1  'x, y, z'
loop_
 _atom_site_type_symbol
 _atom_site_label
 _atom_site_symmetry_multiplicity
 _atom_site_fract_x
 _atom_site_fract_y
 _atom_site_fract_z
 _atom_site_occupancy
  Ca  Ca0  1  0.30327100  0.97340100  0.72388900  1
  Ca  Ca1  1  0.30392200  0.47303500  0.22279500  1
  Ca  Ca2  1  0.69610200  0.02694500  0.27721800  1
  Ca  Ca3  1  0.69672200  0.52659700  0.77610800  1
  Fe  Fe4  1  0.91053600  0.16968900  0.91987700  1
  Fe  Fe5  1  0.08948500  0.33030600  0.58010900  1
  Fe  Fe6  1  0.90975100  0.67036900  0.42001800  1
  Fe  Fe7  1  0.09027000  0.82963900  0.07995900  1
  Ge  Ge8  1  0.38382800  0.70751300  0.48051600  1
  Ge  Ge9  1  0.38378200  0.20771000  0.98052200  1
  Ge  Ge10  1  0.81197100  0.94445300  0.67230700  1
  Ge  Ge11  1  0.81235100  0.44417800  0.17097300  1
  Ge  Ge12  1  0.61621700  0.29230200  0.51948700  1
  Ge  Ge13  1  0.61617400  0.79248400  0.01947800  1
  Ge  Ge14  1  0.18764900  0.05581900  0.32904900  1
  Ge  Ge15  1  0.18802200  0.55553700  0.82768200  1
  O  O16  1  0.32576000  0.93376000  0.45701700  1
  O  O17  1  0.32329600  0.43356600  0.95743900  1
  O  O18  1  0.60796900  0.85033400  0.82629900  1
  O  O19  1  0.60989600  0.34926000  0.32568500  1
  O  O20  1  0.67670900  0.06644600  0.54256200  1
  O  O21  1  0.67421400  0.56623600  0.04301700  1
  O  O22  1  0.39008900  0.15074600  0.17432100  1
  O  O23  1  0.39203100  0.64966000  0.67370100  1
  O  O24  1  0.11270900  0.23625600  0.38954600  1
  O  O25  1  0.11106700  0.73585400  0.88678200  1
  O  O26  1  0.37578800  0.26979700  0.61785200  1
  O  O27  1  0.37525600  0.77106500  0.11754200  1
  O  O28  1  0.88886200  0.76413700  0.61317800  1
  O  O29  1  0.88729700  0.26375800  0.11046000  1
  O  O30  1  0.62472700  0.72898000  0.38243500  1
  O  O31  1  0.62422600  0.23019500  0.88217400  1
  O  O32  1  0.20331600  0.58059200  0.43772800  1
  O  O33  1  0.20582300  0.07821900  0.93816900  1
  O  O34  1  0.98175500  0.07746900  0.71958900  1
  O  O35  1  0.98409000  0.57655100  0.21657700  1
  O  O36  1  0.79418200  0.42180300  0.56181700  1
  O  O37  1  0.79673800  0.91936600  0.06226200  1
  O  O38  1  0.01588900  0.92345800  0.28347000  1
  O  O39  1  0.01825700  0.42251500  0.78039100  1
