# generated using pymatgen
data_AsRuSe
_symmetry_space_group_name_H-M   'P 1'
_cell_length_a   6.13379600
_cell_length_b   6.15087100
_cell_length_c   6.22407667
_cell_angle_alpha   67.42758307
_cell_angle_beta   90.00000000
_cell_angle_gamma   90.00000000
_symmetry_Int_Tables_number   1
_chemical_formula_structural   AsRuSe
_chemical_formula_sum   'As4 Ru4 Se4'
_cell_volume   216.83453542
_cell_formula_units_Z   4
loop_
 _symmetry_equiv_pos_site_id
 _symmetry_equiv_pos_as_xyz
  1  'x, y, z'
loop_
 _atom_site_type_symbol
 _atom_site_label
 _atom_site_symmetry_multiplicity
 _atom_site_fract_x
 _atom_site_fract_y
 _atom_site_fract_z
 _atom_site_occupancy
  As  As0  1  0.86775200  0.64435600  0.62095100  1
  As  As1  1  0.13224800  0.35564400  0.37904900  1
  As  As2  1  0.36775200  0.35564400  0.87904900  1
  As  As3  1  0.63224800  0.64435600  0.12095100  1
  Ru  Ru4  1  0.50274200  0.77518600  0.70597900  1
  Ru  Ru5  1  0.49725800  0.22481400  0.29402100  1
  Ru  Ru6  1  0.00274200  0.22481400  0.79402100  1
  Ru  Ru7  1  0.99725800  0.77518600  0.20597900  1
  Se  Se8  1  0.12901700  0.84003400  0.81373900  1
  Se  Se9  1  0.87098300  0.15996600  0.18626100  1
  Se  Se10  1  0.62901700  0.15996600  0.68626100  1
  Se  Se11  1  0.37098300  0.84003400  0.31373900  1
