# generated using pymatgen
data_La9Al5S21
_symmetry_space_group_name_H-M   'P 1'
_cell_length_a   11.88776305
_cell_length_b   11.88776305
_cell_length_c   11.88776303
_cell_angle_alpha   96.86974871
_cell_angle_beta   96.86974871
_cell_angle_gamma   96.86975068
_symmetry_Int_Tables_number   1
_chemical_formula_structural   La9Al5S21
_chemical_formula_sum   'La18 Al10 S42'
_cell_volume   1640.57557813
_cell_formula_units_Z   2
loop_
 _symmetry_equiv_pos_site_id
 _symmetry_equiv_pos_as_xyz
  1  'x, y, z'
loop_
 _atom_site_type_symbol
 _atom_site_label
 _atom_site_symmetry_multiplicity
 _atom_site_fract_x
 _atom_site_fract_y
 _atom_site_fract_z
 _atom_site_occupancy
  La  La0  1  0.12062100  0.87989800  0.75095700  1
  La  La1  1  0.45715300  0.21489800  0.08232700  1
  La  La2  1  0.78493400  0.54679300  0.41471000  1
  La  La3  1  0.41471000  0.78493400  0.54679300  1
  La  La4  1  0.75095700  0.12062100  0.87989800  1
  La  La5  1  0.08232700  0.45715300  0.21489800  1
  La  La6  1  0.21489800  0.08232700  0.45715300  1
  La  La7  1  0.54679300  0.41471000  0.78493400  1
  La  La8  1  0.87989800  0.75095700  0.12062100  1
  La  La9  1  0.21358500  0.45343400  0.58332500  1
  La  La10  1  0.54571600  0.78810300  0.92085000  1
  La  La11  1  0.87947400  0.11825000  0.24941800  1
  La  La12  1  0.92085000  0.54571600  0.78810300  1
  La  La13  1  0.24941800  0.87947400  0.11825000  1
  La  La14  1  0.58332500  0.21358500  0.45343400  1
  La  La15  1  0.11825000  0.24941800  0.87947400  1
  La  La16  1  0.45343400  0.58332500  0.21358500  1
  La  La17  1  0.78810300  0.92085000  0.54571600  1
  Al  Al18  1  0.72342300  0.39024200  0.05663500  1
  Al  Al19  1  0.05663500  0.72342300  0.39024200  1
  Al  Al20  1  0.39024200  0.05663500  0.72342300  1
  Al  Al21  1  0.88953900  0.22454800  0.55627900  1
  Al  Al22  1  0.22454800  0.55627900  0.88953900  1
  Al  Al23  1  0.55627900  0.88953900  0.22454800  1
  Al  Al24  1  0.84611200  0.84611200  0.84611200  1
  Al  Al25  1  0.16098400  0.16098400  0.16098400  1
  Al  Al26  1  0.66097600  0.66097600  0.66097600  1
  Al  Al27  1  0.34602700  0.34602700  0.34602700  1
  S  S28  1  0.84472000  0.51584300  0.18031300  1
  S  S29  1  0.18031300  0.84472000  0.51584300  1
  S  S30  1  0.51584300  0.18031300  0.84472000  1
  S  S31  1  0.67946400  0.01601400  0.34543400  1
  S  S32  1  0.01601400  0.34543400  0.67946400  1
  S  S33  1  0.34543400  0.67946400  0.01601400  1
  S  S34  1  0.54042900  0.38754300  0.30843500  1
  S  S35  1  0.87539300  0.73470800  0.65800900  1
  S  S36  1  0.22365900  0.07637000  0.99259100  1
  S  S37  1  0.99259100  0.22365900  0.07637000  1
  S  S38  1  0.30843500  0.54042900  0.38754300  1
  S  S39  1  0.65800900  0.87539300  0.73470800  1
  S  S40  1  0.73470800  0.65800900  0.87539300  1
  S  S41  1  0.07637000  0.99259100  0.22365900  1
  S  S42  1  0.38754300  0.30843500  0.54042900  1
  S  S43  1  0.13692000  0.27784400  0.35402700  1
  S  S44  1  0.47110300  0.61839300  0.70262900  1
  S  S45  1  0.78381700  0.93681400  0.01567300  1
  S  S46  1  0.70262900  0.47110300  0.61839300  1
  S  S47  1  0.01567300  0.78381700  0.93681400  1
  S  S48  1  0.35402700  0.13692000  0.27784400  1
  S  S49  1  0.93681400  0.01567300  0.78381700  1
  S  S50  1  0.27784400  0.35402700  0.13692000  1
  S  S51  1  0.61839300  0.70262900  0.47110300  1
  S  S52  1  0.54771300  0.44538800  0.02785600  1
  S  S53  1  0.88142000  0.77789200  0.36451400  1
  S  S54  1  0.21305400  0.10840300  0.70090300  1
  S  S55  1  0.70090300  0.21305400  0.10840300  1
  S  S56  1  0.02785600  0.54771300  0.44538800  1
  S  S57  1  0.36451400  0.88142000  0.77789200  1
  S  S58  1  0.77789200  0.36451400  0.88142000  1
  S  S59  1  0.10840300  0.70090300  0.21305400  1
  S  S60  1  0.44538800  0.02785600  0.54771300  1
  S  S61  1  0.96734000  0.07373000  0.48097700  1
  S  S62  1  0.30110800  0.40328500  0.81636100  1
  S  S63  1  0.63415500  0.73631200  0.15396300  1
  S  S64  1  0.81636100  0.30110800  0.40328500  1
  S  S65  1  0.15396300  0.63415500  0.73631200  1
  S  S66  1  0.48097700  0.96734000  0.07373000  1
  S  S67  1  0.73631200  0.15396300  0.63415500  1
  S  S68  1  0.07373000  0.48097700  0.96734000  1
  S  S69  1  0.40328500  0.81636100  0.30110800  1
