# generated using pymatgen
data_YGaPd
_symmetry_space_group_name_H-M   'P 1'
_cell_length_a   4.47013800
_cell_length_b   7.00684300
_cell_length_c   7.68122700
_cell_angle_alpha   90.00000000
_cell_angle_beta   90.00000000
_cell_angle_gamma   90.00000000
_symmetry_Int_Tables_number   1
_chemical_formula_structural   YGaPd
_chemical_formula_sum   'Y4 Ga4 Pd4'
_cell_volume   240.58797513
_cell_formula_units_Z   4
loop_
 _symmetry_equiv_pos_site_id
 _symmetry_equiv_pos_as_xyz
  1  'x, y, z'
loop_
 _atom_site_type_symbol
 _atom_site_label
 _atom_site_symmetry_multiplicity
 _atom_site_fract_x
 _atom_site_fract_y
 _atom_site_fract_z
 _atom_site_occupancy
  Y  Y0  1  0.25000000  0.98581800  0.30169600  1
  Y  Y1  1  0.25000000  0.48581800  0.19830400  1
  Y  Y2  1  0.75000000  0.01418200  0.69830400  1
  Y  Y3  1  0.75000000  0.51418200  0.80169600  1
  Ga  Ga4  1  0.25000000  0.32706700  0.57350800  1
  Ga  Ga5  1  0.25000000  0.82706700  0.92649200  1
  Ga  Ga6  1  0.75000000  0.67293300  0.42649200  1
  Ga  Ga7  1  0.75000000  0.17293300  0.07350800  1
  Pd  Pd8  1  0.25000000  0.22364900  0.90073700  1
  Pd  Pd9  1  0.25000000  0.72364900  0.59926300  1
  Pd  Pd10  1  0.75000000  0.77635100  0.09926300  1
  Pd  Pd11  1  0.75000000  0.27635100  0.40073700  1
