# generated using pymatgen
data_K2Li3B(P2O7)2
_symmetry_space_group_name_H-M   'P 1'
_cell_length_a   14.10716454
_cell_length_b   14.10716454
_cell_length_c   7.00045200
_cell_angle_alpha   90.00000000
_cell_angle_beta   90.00000000
_cell_angle_gamma   119.70923873
_symmetry_Int_Tables_number   1
_chemical_formula_structural   K2Li3B(P2O7)2
_chemical_formula_sum   'K8 Li12 B4 P16 O56'
_cell_volume   1210.04403815
_cell_formula_units_Z   4
loop_
 _symmetry_equiv_pos_site_id
 _symmetry_equiv_pos_as_xyz
  1  'x, y, z'
loop_
 _atom_site_type_symbol
 _atom_site_label
 _atom_site_symmetry_multiplicity
 _atom_site_fract_x
 _atom_site_fract_y
 _atom_site_fract_z
 _atom_site_occupancy
  K  K0  1  0.59198000  0.09198000  0.75000000  1
  K  K1  1  0.90802000  0.40802000  0.25000000  1
  K  K2  1  0.40802000  0.90802000  0.25000000  1
  K  K3  1  0.09198000  0.59198000  0.75000000  1
  K  K4  1  0.60897000  0.60897000  0.69826300  1
  K  K5  1  0.39103000  0.39103000  0.30173700  1
  K  K6  1  0.89103000  0.89103000  0.19826300  1
  K  K7  1  0.10897000  0.10897000  0.80173700  1
  Li  Li8  1  0.62964900  0.89866200  0.97417200  1
  Li  Li9  1  0.10133800  0.37035100  0.02582800  1
  Li  Li10  1  0.60133800  0.87035100  0.47417200  1
  Li  Li11  1  0.12964900  0.39866200  0.52582800  1
  Li  Li12  1  0.37035100  0.10133800  0.02582800  1
  Li  Li13  1  0.89866200  0.62964900  0.97417200  1
  Li  Li14  1  0.39866200  0.12964900  0.52582800  1
  Li  Li15  1  0.87035100  0.60133800  0.47417200  1
  Li  Li16  1  0.88215600  0.11784400  0.00000000  1
  Li  Li17  1  0.38215600  0.61784400  0.50000000  1
  Li  Li18  1  0.11784400  0.88215600  0.00000000  1
  Li  Li19  1  0.61784400  0.38215600  0.50000000  1
  B  B20  1  0.88114700  0.11885300  0.50000000  1
  B  B21  1  0.38114700  0.61885300  0.00000000  1
  B  B22  1  0.11885300  0.88114700  0.50000000  1
  B  B23  1  0.61885300  0.38114700  0.00000000  1
  P  P24  1  0.79990100  0.92366200  0.69706100  1
  P  P25  1  0.07633800  0.20009900  0.30293900  1
  P  P26  1  0.57633800  0.70009900  0.19706100  1
  P  P27  1  0.29990100  0.42366200  0.80293900  1
  P  P28  1  0.20009900  0.07633800  0.30293900  1
  P  P29  1  0.92366200  0.79990100  0.69706100  1
  P  P30  1  0.42366200  0.29990100  0.80293900  1
  P  P31  1  0.70009900  0.57633800  0.19706100  1
  P  P32  1  0.40415700  0.78444200  0.75723600  1
  P  P33  1  0.21555800  0.59584300  0.24276400  1
  P  P34  1  0.71555800  0.09584300  0.25723600  1
  P  P35  1  0.90415700  0.28444200  0.74276400  1
  P  P36  1  0.59584300  0.21555800  0.24276400  1
  P  P37  1  0.78444200  0.40415700  0.75723600  1
  P  P38  1  0.28444200  0.90415700  0.74276400  1
  P  P39  1  0.09584300  0.71555800  0.25723600  1
  O  O40  1  0.86459700  0.98345700  0.87002300  1
  O  O41  1  0.01654300  0.13540300  0.12997700  1
  O  O42  1  0.51654300  0.63540300  0.37002300  1
  O  O43  1  0.36459700  0.48345700  0.62997700  1
  O  O44  1  0.13540300  0.01654300  0.12997700  1
  O  O45  1  0.98345700  0.86459700  0.87002300  1
  O  O46  1  0.48345700  0.36459700  0.62997700  1
  O  O47  1  0.63540300  0.51654300  0.37002300  1
  O  O48  1  0.83264200  0.99861200  0.51325400  1
  O  O49  1  0.00138800  0.16735800  0.48674600  1
  O  O50  1  0.50138800  0.66735800  0.01325400  1
  O  O51  1  0.33264200  0.49861200  0.98674600  1
  O  O52  1  0.16735800  0.00138800  0.48674600  1
  O  O53  1  0.99861200  0.83264200  0.51325400  1
  O  O54  1  0.49861200  0.33264200  0.98674600  1
  O  O55  1  0.66735800  0.50138800  0.01325400  1
  O  O56  1  0.83127400  0.83127400  0.62920200  1
  O  O57  1  0.16872600  0.16872600  0.37079800  1
  O  O58  1  0.66872600  0.66872600  0.12920200  1
  O  O59  1  0.33127400  0.33127400  0.87079800  1
  O  O60  1  0.67644500  0.86181100  0.71650100  1
  O  O61  1  0.13818900  0.32355500  0.28349900  1
  O  O62  1  0.63818900  0.82355500  0.21650100  1
  O  O63  1  0.17644500  0.36181100  0.78349900  1
  O  O64  1  0.32355500  0.13818900  0.28349900  1
  O  O65  1  0.86181100  0.67644500  0.71650100  1
  O  O66  1  0.36181100  0.17644500  0.78349900  1
  O  O67  1  0.82355500  0.63818900  0.21650100  1
  O  O68  1  0.48139700  0.86840300  0.89761800  1
  O  O69  1  0.13159700  0.51860300  0.10238200  1
  O  O70  1  0.63159700  0.01860300  0.39761800  1
  O  O71  1  0.98139700  0.36840300  0.60238200  1
  O  O72  1  0.51860300  0.13159700  0.10238200  1
  O  O73  1  0.86840300  0.48139700  0.89761800  1
  O  O74  1  0.36840300  0.98139700  0.60238200  1
  O  O75  1  0.01860300  0.63159700  0.39761800  1
  O  O76  1  0.29181100  0.79181100  0.75000000  1
  O  O77  1  0.20818900  0.70818900  0.25000000  1
  O  O78  1  0.70818900  0.20818900  0.25000000  1
  O  O79  1  0.79181100  0.29181100  0.75000000  1
  O  O80  1  0.35556200  0.66196500  0.82690600  1
  O  O81  1  0.33803500  0.64443800  0.17309400  1
  O  O82  1  0.83803500  0.14443800  0.32690600  1
  O  O83  1  0.85556200  0.16196500  0.67309400  1
  O  O84  1  0.64443800  0.33803500  0.17309400  1
  O  O85  1  0.66196500  0.35556200  0.82690600  1
  O  O86  1  0.16196500  0.85556200  0.67309400  1
  O  O87  1  0.14443800  0.83803500  0.32690600  1
  O  O88  1  0.44317000  0.78902700  0.55390900  1
  O  O89  1  0.21097300  0.55683000  0.44609100  1
  O  O90  1  0.71097300  0.05683000  0.05390900  1
  O  O91  1  0.94317000  0.28902700  0.94609100  1
  O  O92  1  0.55683000  0.21097300  0.44609100  1
  O  O93  1  0.78902700  0.44317000  0.55390900  1
  O  O94  1  0.28902700  0.94317000  0.94609100  1
  O  O95  1  0.05683000  0.71097300  0.05390900  1
