# generated using pymatgen
data_Nd2(Ga3Ru)3
_symmetry_space_group_name_H-M   'P 1'
_cell_length_a   7.55506221
_cell_length_b   7.55506221
_cell_length_c   9.89295700
_cell_angle_alpha   90.00000000
_cell_angle_beta   90.00000000
_cell_angle_gamma   119.11593443
_symmetry_Int_Tables_number   1
_chemical_formula_structural   Nd2(Ga3Ru)3
_chemical_formula_sum   'Nd4 Ga18 Ru6'
_cell_volume   493.32508361
_cell_formula_units_Z   2
loop_
 _symmetry_equiv_pos_site_id
 _symmetry_equiv_pos_as_xyz
  1  'x, y, z'
loop_
 _atom_site_type_symbol
 _atom_site_label
 _atom_site_symmetry_multiplicity
 _atom_site_fract_x
 _atom_site_fract_y
 _atom_site_fract_z
 _atom_site_occupancy
  Nd  Nd0  1  0.99648100  0.66930100  0.25000000  1
  Nd  Nd1  1  0.00351900  0.33069900  0.75000000  1
  Nd  Nd2  1  0.66930100  0.99648100  0.25000000  1
  Nd  Nd3  1  0.33069900  0.00351900  0.75000000  1
  Ga  Ga4  1  0.12831800  0.12831800  0.25000000  1
  Ga  Ga5  1  0.87168200  0.87168200  0.75000000  1
  Ga  Ga6  1  0.00755400  0.33540400  0.07326300  1
  Ga  Ga7  1  0.99244600  0.66459600  0.92673700  1
  Ga  Ga8  1  0.99244600  0.66459600  0.57326300  1
  Ga  Ga9  1  0.33540400  0.00755400  0.42673700  1
  Ga  Ga10  1  0.00755400  0.33540400  0.42673700  1
  Ga  Ga11  1  0.66459600  0.99244600  0.57326300  1
  Ga  Ga12  1  0.66459600  0.99244600  0.92673700  1
  Ga  Ga13  1  0.33540400  0.00755400  0.07326300  1
  Ga  Ga14  1  0.33841200  0.33841200  0.55621900  1
  Ga  Ga15  1  0.66158800  0.66158800  0.44378100  1
  Ga  Ga16  1  0.66158800  0.66158800  0.05621900  1
  Ga  Ga17  1  0.33841200  0.33841200  0.94378100  1
  Ga  Ga18  1  0.33631800  0.54548700  0.25000000  1
  Ga  Ga19  1  0.66368200  0.45451300  0.75000000  1
  Ga  Ga20  1  0.54548700  0.33631800  0.25000000  1
  Ga  Ga21  1  0.45451300  0.66368200  0.75000000  1
  Ru  Ru22  1  0.67356900  0.32643100  0.00000000  1
  Ru  Ru23  1  0.32643100  0.67356900  0.00000000  1
  Ru  Ru24  1  0.32643100  0.67356900  0.50000000  1
  Ru  Ru25  1  0.67356900  0.32643100  0.50000000  1
  Ru  Ru26  1  0.00000000  0.00000000  0.00000000  1
  Ru  Ru27  1  0.00000000  0.00000000  0.50000000  1
