# generated using pymatgen
data_Rb2ScSi4O10F
_symmetry_space_group_name_H-M   'P 1'
_cell_length_a   8.51864900
_cell_length_b   11.66905715
_cell_length_c   11.84058288
_cell_angle_alpha   111.25611096
_cell_angle_beta   90.00000000
_cell_angle_gamma   90.00000000
_symmetry_Int_Tables_number   1
_chemical_formula_structural   Rb2ScSi4O10F
_chemical_formula_sum   'Rb8 Sc4 Si16 O40 F4'
_cell_volume   1096.93561329
_cell_formula_units_Z   4
loop_
 _symmetry_equiv_pos_site_id
 _symmetry_equiv_pos_as_xyz
  1  'x, y, z'
loop_
 _atom_site_type_symbol
 _atom_site_label
 _atom_site_symmetry_multiplicity
 _atom_site_fract_x
 _atom_site_fract_y
 _atom_site_fract_z
 _atom_site_occupancy
  Rb  Rb0  1  0.25000000  0.55457000  0.44841500  1
  Rb  Rb1  1  0.75000000  0.44543000  0.55158500  1
  Rb  Rb2  1  0.75000000  0.92019200  0.91943800  1
  Rb  Rb3  1  0.25000000  0.07980800  0.08056200  1
  Rb  Rb4  1  0.25000000  0.98860400  0.47190100  1
  Rb  Rb5  1  0.75000000  0.01139600  0.52809900  1
  Rb  Rb6  1  0.75000000  0.52958900  0.96596600  1
  Rb  Rb7  1  0.25000000  0.47041100  0.03403400  1
  Sc  Sc8  1  0.50359200  0.70647700  0.29140200  1
  Sc  Sc9  1  0.00359200  0.29352300  0.70859800  1
  Sc  Sc10  1  0.49640800  0.29352300  0.70859800  1
  Sc  Sc11  1  0.99640800  0.70647700  0.29140200  1
  Si  Si12  1  0.43928600  0.60983900  0.77050700  1
  Si  Si13  1  0.93928600  0.39016100  0.22949300  1
  Si  Si14  1  0.56071400  0.39016100  0.22949300  1
  Si  Si15  1  0.06071400  0.60983900  0.77050700  1
  Si  Si16  1  0.56645700  0.97908800  0.24628700  1
  Si  Si17  1  0.06645700  0.02091200  0.75371300  1
  Si  Si18  1  0.43354300  0.02091200  0.75371300  1
  Si  Si19  1  0.93354300  0.97908800  0.24628700  1
  Si  Si20  1  0.93723800  0.75627000  0.60910300  1
  Si  Si21  1  0.43723800  0.24373000  0.39089700  1
  Si  Si22  1  0.06276200  0.24373000  0.39089700  1
  Si  Si23  1  0.56276200  0.75627000  0.60910300  1
  Si  Si24  1  0.43685200  0.77125100  0.03808000  1
  Si  Si25  1  0.93685200  0.22874900  0.96192000  1
  Si  Si26  1  0.56314800  0.22874900  0.96192000  1
  Si  Si27  1  0.06314800  0.77125100  0.03808000  1
  O  O28  1  0.25000000  0.59944400  0.78394400  1
  O  O29  1  0.75000000  0.40055600  0.21605600  1
  O  O30  1  0.25000000  0.27701400  0.38587200  1
  O  O31  1  0.75000000  0.72298600  0.61412800  1
  O  O32  1  0.50232700  0.71987600  0.89660900  1
  O  O33  1  0.00232700  0.28012400  0.10339100  1
  O  O34  1  0.49767300  0.28012400  0.10339100  1
  O  O35  1  0.99767300  0.71987600  0.89660900  1
  O  O36  1  0.47110500  0.65767500  0.65708800  1
  O  O37  1  0.97110500  0.34232500  0.34291200  1
  O  O38  1  0.52889500  0.34232500  0.34291200  1
  O  O39  1  0.02889500  0.65767500  0.65708800  1
  O  O40  1  0.75000000  0.02586500  0.25529600  1
  O  O41  1  0.25000000  0.97413500  0.74470400  1
  O  O42  1  0.45737300  0.10427800  0.28719700  1
  O  O43  1  0.95737300  0.89572200  0.71280300  1
  O  O44  1  0.54262700  0.89572200  0.71280300  1
  O  O45  1  0.04262700  0.10427800  0.28719700  1
  O  O46  1  0.52566300  0.90695100  0.10007700  1
  O  O47  1  0.02566300  0.09304900  0.89992300  1
  O  O48  1  0.47433700  0.09304900  0.89992300  1
  O  O49  1  0.97433700  0.90695100  0.10007700  1
  O  O50  1  0.25000000  0.80575800  0.03529600  1
  O  O51  1  0.75000000  0.19424200  0.96470400  1
  O  O52  1  0.52563700  0.48206400  0.74899400  1
  O  O53  1  0.02563700  0.51793600  0.25100600  1
  O  O54  1  0.47436300  0.51793600  0.25100600  1
  O  O55  1  0.97436300  0.48206400  0.74899400  1
  O  O56  1  0.52852900  0.89588000  0.32420800  1
  O  O57  1  0.02852900  0.10412000  0.67579200  1
  O  O58  1  0.47147100  0.10412000  0.67579200  1
  O  O59  1  0.97147100  0.89588000  0.32420800  1
  O  O60  1  0.47566500  0.67906500  0.10620100  1
  O  O61  1  0.97566500  0.32093500  0.89379900  1
  O  O62  1  0.52433500  0.32093500  0.89379900  1
  O  O63  1  0.02433500  0.67906500  0.10620100  1
  O  O64  1  0.50296600  0.74602600  0.47844100  1
  O  O65  1  0.00296600  0.25397400  0.52155900  1
  O  O66  1  0.49703400  0.25397400  0.52155900  1
  O  O67  1  0.99703400  0.74602600  0.47844100  1
  F  F68  1  0.25000000  0.72418200  0.30706700  1
  F  F69  1  0.75000000  0.27581800  0.69293300  1
  F  F70  1  0.75000000  0.68797000  0.27452900  1
  F  F71  1  0.25000000  0.31203000  0.72547100  1
