# generated using pymatgen
data_K4SiO4
_symmetry_space_group_name_H-M   'P 1'
_cell_length_a   6.51615700
_cell_length_b   10.47173100
_cell_length_c   10.47765321
_cell_angle_alpha   67.83225439
_cell_angle_beta   90.00000000
_cell_angle_gamma   90.00000000
_symmetry_Int_Tables_number   1
_chemical_formula_structural   K4SiO4
_chemical_formula_sum   'K16 Si4 O16'
_cell_volume   662.10065184
_cell_formula_units_Z   4
loop_
 _symmetry_equiv_pos_site_id
 _symmetry_equiv_pos_as_xyz
  1  'x, y, z'
loop_
 _atom_site_type_symbol
 _atom_site_label
 _atom_site_symmetry_multiplicity
 _atom_site_fract_x
 _atom_site_fract_y
 _atom_site_fract_z
 _atom_site_occupancy
  K  K0  1  0.66200400  0.89021700  0.63374200  1
  K  K1  1  0.33799600  0.10978300  0.36625800  1
  K  K2  1  0.83799600  0.39021700  0.63374200  1
  K  K3  1  0.59339000  0.30553700  0.06008900  1
  K  K4  1  0.09339000  0.19446300  0.93991100  1
  K  K5  1  0.40661000  0.69446300  0.93991100  1
  K  K6  1  0.90661000  0.80553700  0.06008900  1
  K  K7  1  0.61049700  0.08685000  0.84245200  1
  K  K8  1  0.11049700  0.41315000  0.15754800  1
  K  K9  1  0.38950300  0.91315000  0.15754800  1
  K  K10  1  0.88950300  0.58685000  0.84245200  1
  K  K11  1  0.68419200  0.70333900  0.42674700  1
  K  K12  1  0.18419200  0.79666100  0.57325300  1
  K  K13  1  0.31580800  0.29666100  0.57325300  1
  K  K14  1  0.81580800  0.20333900  0.42674700  1
  K  K15  1  0.16200400  0.60978300  0.36625800  1
  Si  Si16  1  0.36853200  0.49110700  0.75734900  1
  Si  Si17  1  0.86853200  0.00889300  0.24265100  1
  Si  Si18  1  0.13146800  0.99110700  0.75734900  1
  Si  Si19  1  0.63146800  0.50889300  0.24265100  1
  O  O20  1  0.23914100  0.96899400  0.90865600  1
  O  O21  1  0.00191900  0.15110800  0.22331800  1
  O  O22  1  0.50191900  0.34889200  0.77668200  1
  O  O23  1  0.99808100  0.84889200  0.77668200  1
  O  O24  1  0.73914100  0.53100600  0.09134400  1
  O  O25  1  0.76085900  0.03100600  0.09134400  1
  O  O26  1  0.26085900  0.46899400  0.90865600  1
  O  O27  1  0.31767100  0.01566500  0.64000000  1
  O  O28  1  0.81767100  0.48433500  0.36000000  1
  O  O29  1  0.68232900  0.98433500  0.36000000  1
  O  O30  1  0.18232900  0.51566500  0.64000000  1
  O  O31  1  0.02199500  0.86975500  0.29663100  1
  O  O32  1  0.52199500  0.63024500  0.70336900  1
  O  O33  1  0.97800500  0.13024500  0.70336900  1
  O  O34  1  0.47800500  0.36975500  0.29663100  1
  O  O35  1  0.49808100  0.65110800  0.22331800  1
