# generated using pymatgen
data_Y7Rh3
_symmetry_space_group_name_H-M   'P 1'
_cell_length_a   9.82810063
_cell_length_b   9.82810063
_cell_length_c   6.22047300
_cell_angle_alpha   90.00000000
_cell_angle_beta   90.00000000
_cell_angle_gamma   120.00000425
_symmetry_Int_Tables_number   1
_chemical_formula_structural   Y7Rh3
_chemical_formula_sum   'Y14 Rh6'
_cell_volume   520.34718775
_cell_formula_units_Z   2
loop_
 _symmetry_equiv_pos_site_id
 _symmetry_equiv_pos_as_xyz
  1  'x, y, z'
loop_
 _atom_site_type_symbol
 _atom_site_label
 _atom_site_symmetry_multiplicity
 _atom_site_fract_x
 _atom_site_fract_y
 _atom_site_fract_z
 _atom_site_occupancy
  Y  Y0  1  0.33333300  0.66666700  0.45555500  1
  Y  Y1  1  0.66666700  0.33333300  0.95555500  1
  Y  Y2  1  0.12459500  0.87540500  0.25403800  1
  Y  Y3  1  0.75080900  0.87540500  0.25403800  1
  Y  Y4  1  0.12459500  0.24919100  0.25403800  1
  Y  Y5  1  0.87540500  0.12459500  0.75403800  1
  Y  Y6  1  0.24919100  0.12459500  0.75403800  1
  Y  Y7  1  0.87540500  0.75080900  0.75403800  1
  Y  Y8  1  0.54082900  0.45917100  0.44514500  1
  Y  Y9  1  0.91834100  0.45917100  0.44514500  1
  Y  Y10  1  0.54082900  0.08165900  0.44514500  1
  Y  Y11  1  0.45917100  0.54082900  0.94514500  1
  Y  Y12  1  0.08165900  0.54082900  0.94514500  1
  Y  Y13  1  0.45917100  0.91834100  0.94514500  1
  Rh  Rh14  1  0.81018400  0.18981600  0.17990700  1
  Rh  Rh15  1  0.37963300  0.18981600  0.17990700  1
  Rh  Rh16  1  0.81018400  0.62036700  0.17990700  1
  Rh  Rh17  1  0.18981600  0.81018400  0.67990700  1
  Rh  Rh18  1  0.62036700  0.81018400  0.67990700  1
  Rh  Rh19  1  0.18981600  0.37963300  0.67990700  1
