# generated using pymatgen
data_Er5Pt4
_symmetry_space_group_name_H-M   'P 1'
_cell_length_a   7.43032200
_cell_length_b   7.52755400
_cell_length_c   14.62924100
_cell_angle_alpha   90.00000000
_cell_angle_beta   90.00000000
_cell_angle_gamma   90.00000000
_symmetry_Int_Tables_number   1
_chemical_formula_structural   Er5Pt4
_chemical_formula_sum   'Er20 Pt16'
_cell_volume   818.24490335
_cell_formula_units_Z   4
loop_
 _symmetry_equiv_pos_site_id
 _symmetry_equiv_pos_as_xyz
  1  'x, y, z'
loop_
 _atom_site_type_symbol
 _atom_site_label
 _atom_site_symmetry_multiplicity
 _atom_site_fract_x
 _atom_site_fract_y
 _atom_site_fract_z
 _atom_site_occupancy
  Er  Er0  1  0.65737300  0.16757000  0.62259400  1
  Er  Er1  1  0.15737300  0.33243000  0.87740600  1
  Er  Er2  1  0.34262700  0.83243000  0.12259400  1
  Er  Er3  1  0.84262700  0.66757000  0.37740600  1
  Er  Er4  1  0.34262700  0.83243000  0.37740600  1
  Er  Er5  1  0.84262700  0.66757000  0.12259400  1
  Er  Er6  1  0.65737300  0.16757000  0.87740600  1
  Er  Er7  1  0.15737300  0.33243000  0.62259400  1
  Er  Er8  1  0.50075100  0.68019400  0.59244200  1
  Er  Er9  1  0.00075100  0.81980600  0.90755800  1
  Er  Er10  1  0.49924900  0.31980600  0.09244200  1
  Er  Er11  1  0.99924900  0.18019400  0.40755800  1
  Er  Er12  1  0.49924900  0.31980600  0.40755800  1
  Er  Er13  1  0.99924900  0.18019400  0.09244200  1
  Er  Er14  1  0.50075100  0.68019400  0.90755800  1
  Er  Er15  1  0.00075100  0.81980600  0.59244200  1
  Er  Er16  1  0.81852700  0.51198700  0.75000000  1
  Er  Er17  1  0.31852700  0.98801300  0.75000000  1
  Er  Er18  1  0.18147300  0.48801300  0.25000000  1
  Er  Er19  1  0.68147300  0.01198700  0.25000000  1
  Pt  Pt20  1  0.68267000  0.96714700  0.45843900  1
  Pt  Pt21  1  0.18267000  0.53285300  0.04156100  1
  Pt  Pt22  1  0.31733000  0.03285300  0.95843900  1
  Pt  Pt23  1  0.81733000  0.46714700  0.54156100  1
  Pt  Pt24  1  0.31733000  0.03285300  0.54156100  1
  Pt  Pt25  1  0.81733000  0.46714700  0.95843900  1
  Pt  Pt26  1  0.68267000  0.96714700  0.04156100  1
  Pt  Pt27  1  0.18267000  0.53285300  0.45843900  1
  Pt  Pt28  1  0.45428400  0.38790300  0.75000000  1
  Pt  Pt29  1  0.95428400  0.11209700  0.75000000  1
  Pt  Pt30  1  0.54571600  0.61209700  0.25000000  1
  Pt  Pt31  1  0.04571600  0.88790300  0.25000000  1
  Pt  Pt32  1  0.68419500  0.85685400  0.75000000  1
  Pt  Pt33  1  0.18419500  0.64314600  0.75000000  1
  Pt  Pt34  1  0.31580500  0.14314600  0.25000000  1
  Pt  Pt35  1  0.81580500  0.35685400  0.25000000  1
