# generated using pymatgen
data_K15W7N19
_symmetry_space_group_name_H-M   'P 1'
_cell_length_a   6.87294100
_cell_length_b   12.63784558
_cell_length_c   19.79018224
_cell_angle_alpha   90.70609430
_cell_angle_beta   94.25189423
_cell_angle_gamma   99.88396900
_symmetry_Int_Tables_number   1
_chemical_formula_structural   K15W7N19
_chemical_formula_sum   'K30 W14 N38'
_cell_volume   1688.23505376
_cell_formula_units_Z   2
loop_
 _symmetry_equiv_pos_site_id
 _symmetry_equiv_pos_as_xyz
  1  'x, y, z'
loop_
 _atom_site_type_symbol
 _atom_site_label
 _atom_site_symmetry_multiplicity
 _atom_site_fract_x
 _atom_site_fract_y
 _atom_site_fract_z
 _atom_site_occupancy
  K  K0  1  0.52471100  0.62494100  0.43972800  1
  K  K1  1  0.47528900  0.37505900  0.56027200  1
  K  K2  1  0.60713700  0.13250900  0.65187700  1
  K  K3  1  0.39286300  0.86749100  0.34812300  1
  K  K4  1  0.72149300  0.01690300  0.18892700  1
  K  K5  1  0.27850700  0.98309700  0.81107300  1
  K  K6  1  0.93494700  0.03567300  0.37154600  1
  K  K7  1  0.06505300  0.96432700  0.62845400  1
  K  K8  1  0.77795400  0.75433000  0.28217600  1
  K  K9  1  0.22204600  0.24567000  0.71782400  1
  K  K10  1  0.85160100  0.16510000  0.83532100  1
  K  K11  1  0.14839900  0.83490000  0.16467900  1
  K  K12  1  0.87545600  0.90157100  0.89936100  1
  K  K13  1  0.12454400  0.09842900  0.10063900  1
  K  K14  1  0.72276400  0.08191700  0.00261800  1
  K  K15  1  0.27723600  0.91808300  0.99738200  1
  K  K16  1  0.63742800  0.90553900  0.52191900  1
  K  K17  1  0.36257200  0.09446100  0.47808100  1
  K  K18  1  0.60381300  0.45528000  0.28710000  1
  K  K19  1  0.39618700  0.54472000  0.71290000  1
  K  K20  1  0.97190200  0.34471600  0.01352900  1
  K  K21  1  0.02809800  0.65528400  0.98647100  1
  K  K22  1  0.92281300  0.67466100  0.78944900  1
  K  K23  1  0.07718700  0.32533900  0.21055100  1
  K  K24  1  0.72346200  0.24640100  0.39528900  1
  K  K25  1  0.27653800  0.75359900  0.60471100  1
  K  K26  1  0.60584000  0.37970800  0.84084000  1
  K  K27  1  0.39416000  0.62029200  0.15916000  1
  K  K28  1  0.00000000  0.50000000  0.50000000  1
  K  K29  1  0.50000000  0.50000000  0.00000000  1
  W  W30  1  0.57690400  0.27107200  0.12268600  1
  W  W31  1  0.42309600  0.72892800  0.87731400  1
  W  W32  1  0.85930000  0.41403700  0.68628200  1
  W  W33  1  0.14070000  0.58596300  0.31371800  1
  W  W34  1  0.75061400  0.66338700  0.60656200  1
  W  W35  1  0.24938600  0.33661300  0.39343800  1
  W  W36  1  0.99966600  0.77445500  0.44938900  1
  W  W37  1  0.00033400  0.22554500  0.55061100  1
  W  W38  1  0.86570200  0.54928100  0.14131000  1
  W  W39  1  0.13429800  0.45071900  0.85869000  1
  W  W40  1  0.65232400  0.87855800  0.72823800  1
  W  W41  1  0.34767600  0.12144200  0.27176200  1
  W  W42  1  0.68340100  0.79099900  0.05580400  1
  W  W43  1  0.31659900  0.20900100  0.94419600  1
  N  N44  1  0.79164500  0.20827700  0.11810100  1
  N  N45  1  0.20835500  0.79172300  0.88189900  1
  N  N46  1  0.93857900  0.32835500  0.61798400  1
  N  N47  1  0.06142100  0.67164500  0.38201600  1
  N  N48  1  0.56002400  0.07038700  0.31059300  1
  N  N49  1  0.43997600  0.92961300  0.68940700  1
  N  N50  1  0.57834300  0.79454900  0.80842000  1
  N  N51  1  0.42165700  0.20545100  0.19158000  1
  N  N52  1  0.66003300  0.42410800  0.14117300  1
  N  N53  1  0.33996700  0.57589200  0.85882700  1
  N  N54  1  0.50012000  0.39668900  0.42166800  1
  N  N55  1  0.49988000  0.60331100  0.57833200  1
  N  N56  1  0.78052700  0.12503000  0.52558600  1
  N  N57  1  0.21947300  0.87497000  0.47441400  1
  N  N58  1  0.89647300  0.70258200  0.52985700  1
  N  N59  1  0.10352700  0.29741800  0.47014300  1
  N  N60  1  0.90352400  0.89450800  0.05475700  1
  N  N61  1  0.09647600  0.10549200  0.94524300  1
  N  N62  1  0.80147500  0.83540600  0.40895700  1
  N  N63  1  0.19852500  0.16459400  0.59104300  1
  N  N64  1  0.74762200  0.78556700  0.66162600  1
  N  N65  1  0.25237800  0.21443300  0.33837400  1
  N  N66  1  0.93569200  0.48020700  0.90546300  1
  N  N67  1  0.06430800  0.51979300  0.09453700  1
  N  N68  1  0.57560400  0.75537200  0.96232500  1
  N  N69  1  0.42439600  0.24462800  0.03767500  1
  N  N70  1  0.75823100  0.66218800  0.09857000  1
  N  N71  1  0.24176900  0.33781200  0.90143000  1
  N  N72  1  0.85292400  0.99099100  0.75161900  1
  N  N73  1  0.14707600  0.00900900  0.24838100  1
  N  N74  1  0.96610600  0.58995500  0.23263700  1
  N  N75  1  0.03389400  0.41004500  0.76736300  1
  N  N76  1  0.87279100  0.55893000  0.65814000  1
  N  N77  1  0.12720900  0.44107000  0.34186000  1
  N  N78  1  0.60941500  0.35976200  0.70480400  1
  N  N79  1  0.39058500  0.64023800  0.29519600  1
  N  N80  1  0.49967600  0.84023700  0.10456800  1
  N  N81  1  0.50032400  0.15976300  0.89543200  1
