# generated using pymatgen
data_TmZrF7
_symmetry_space_group_name_H-M   'P 1'
_cell_length_a   5.66462700
_cell_length_b   6.05167027
_cell_length_c   8.22987802
_cell_angle_alpha   102.21995736
_cell_angle_beta   90.00000000
_cell_angle_gamma   90.00000000
_symmetry_Int_Tables_number   1
_chemical_formula_structural   TmZrF7
_chemical_formula_sum   'Tm2 Zr2 F14'
_cell_volume   275.73166056
_cell_formula_units_Z   2
loop_
 _symmetry_equiv_pos_site_id
 _symmetry_equiv_pos_as_xyz
  1  'x, y, z'
loop_
 _atom_site_type_symbol
 _atom_site_label
 _atom_site_symmetry_multiplicity
 _atom_site_fract_x
 _atom_site_fract_y
 _atom_site_fract_z
 _atom_site_occupancy
  Tm  Tm0  1  0.69750300  0.65395000  0.68257200  1
  Tm  Tm1  1  0.19750300  0.34605000  0.31742800  1
  Zr  Zr2  1  0.70727200  0.81163100  0.22334700  1
  Zr  Zr3  1  0.20727200  0.18836900  0.77665300  1
  F  F4  1  0.89096200  0.45542000  0.47840000  1
  F  F5  1  0.39096200  0.54458000  0.52160000  1
  F  F6  1  0.42906300  0.91976100  0.76639200  1
  F  F7  1  0.92906300  0.08023900  0.23360800  1
  F  F8  1  0.94154100  0.95458500  0.75948200  1
  F  F9  1  0.44154100  0.04541500  0.24051800  1
  F  F10  1  0.99161400  0.46034300  0.78622600  1
  F  F11  1  0.49161400  0.53965700  0.21377400  1
  F  F12  1  0.70251900  0.75424400  0.97247700  1
  F  F13  1  0.20251900  0.24575600  0.02752300  1
  F  F14  1  0.70950700  0.86024400  0.47653000  1
  F  F15  1  0.20950700  0.13975600  0.52347000  1
  F  F16  1  0.50637700  0.38134300  0.78001000  1
  F  F17  1  0.00637700  0.61865700  0.21999000  1
