# generated using pymatgen
data_K10Zn4Sn4S17
_symmetry_space_group_name_H-M   'P 1'
_cell_length_a   10.09344206
_cell_length_b   10.09344206
_cell_length_c   10.09344196
_cell_angle_alpha   90.45121602
_cell_angle_beta   90.45121602
_cell_angle_gamma   90.45121355
_symmetry_Int_Tables_number   1
_chemical_formula_structural   K10Zn4Sn4S17
_chemical_formula_sum   'K10 Zn4 Sn4 S17'
_cell_volume   1028.19920206
_cell_formula_units_Z   1
loop_
 _symmetry_equiv_pos_site_id
 _symmetry_equiv_pos_as_xyz
  1  'x, y, z'
loop_
 _atom_site_type_symbol
 _atom_site_label
 _atom_site_symmetry_multiplicity
 _atom_site_fract_x
 _atom_site_fract_y
 _atom_site_fract_z
 _atom_site_occupancy
  K  K0  1  0.99953600  0.50036100  0.99953600  1
  K  K1  1  0.99953600  0.99953600  0.50036100  1
  K  K2  1  0.50036100  0.99953600  0.99953600  1
  K  K3  1  0.04333400  0.50088900  0.50088900  1
  K  K4  1  0.50088900  0.04333400  0.50088900  1
  K  K5  1  0.50088900  0.50088900  0.04333400  1
  K  K6  1  0.33437500  0.67634600  0.33437500  1
  K  K7  1  0.33437500  0.33437500  0.67634600  1
  K  K8  1  0.67634600  0.33437500  0.33437500  1
  K  K9  1  0.66663300  0.66663300  0.66663300  1
  Zn  Zn10  1  0.86641400  0.86641400  0.86641400  1
  Zn  Zn11  1  0.13279700  0.86621700  0.13279700  1
  Zn  Zn12  1  0.86621700  0.13279700  0.13279700  1
  Zn  Zn13  1  0.13279700  0.13279700  0.86621700  1
  Sn  Sn14  1  0.22440000  0.77612300  0.77612300  1
  Sn  Sn15  1  0.77612300  0.22440000  0.77612300  1
  Sn  Sn16  1  0.77612300  0.77612300  0.22440000  1
  Sn  Sn17  1  0.22262800  0.22262800  0.22262800  1
  S  S18  1  0.00068300  0.00068300  0.00068300  1
  S  S19  1  0.35320600  0.63866400  0.63866400  1
  S  S20  1  0.63866400  0.35320600  0.63866400  1
  S  S21  1  0.63866400  0.63866400  0.35320600  1
  S  S22  1  0.35934400  0.35934400  0.35934400  1
  S  S23  1  0.99227000  0.72711800  0.72711800  1
  S  S24  1  0.72711800  0.99227000  0.72711800  1
  S  S25  1  0.72711800  0.72711800  0.99227000  1
  S  S26  1  0.00786600  0.72782300  0.27316300  1
  S  S27  1  0.27366800  0.99352300  0.27366800  1
  S  S28  1  0.27316300  0.72782300  0.00786600  1
  S  S29  1  0.99352300  0.27366800  0.27366800  1
  S  S30  1  0.72782300  0.00786600  0.27316300  1
  S  S31  1  0.72782300  0.27316300  0.00786600  1
  S  S32  1  0.00786600  0.27316300  0.72782300  1
  S  S33  1  0.27316300  0.00786600  0.72782300  1
  S  S34  1  0.27366800  0.27366800  0.99352300  1
