# generated using pymatgen
data_ThTlF5
_symmetry_space_group_name_H-M   'P 1'
_cell_length_a   7.33668000
_cell_length_b   8.26039600
_cell_length_c   8.98121570
_cell_angle_alpha   62.61731266
_cell_angle_beta   90.00000000
_cell_angle_gamma   90.00000000
_symmetry_Int_Tables_number   1
_chemical_formula_structural   ThTlF5
_chemical_formula_sum   'Th4 Tl4 F20'
_cell_volume   483.31050560
_cell_formula_units_Z   4
loop_
 _symmetry_equiv_pos_site_id
 _symmetry_equiv_pos_as_xyz
  1  'x, y, z'
loop_
 _atom_site_type_symbol
 _atom_site_label
 _atom_site_symmetry_multiplicity
 _atom_site_fract_x
 _atom_site_fract_y
 _atom_site_fract_z
 _atom_site_occupancy
  Th  Th0  1  0.65581000  0.41843300  0.36016700  1
  Th  Th1  1  0.84419000  0.41843300  0.86016700  1
  Th  Th2  1  0.34419000  0.58156700  0.63983300  1
  Th  Th3  1  0.15581000  0.58156700  0.13983300  1
  Tl  Tl4  1  0.62604600  0.92114800  0.84547700  1
  Tl  Tl5  1  0.87395400  0.92114800  0.34547700  1
  Tl  Tl6  1  0.37395400  0.07885200  0.15452300  1
  Tl  Tl7  1  0.12604600  0.07885200  0.65452300  1
  F  F8  1  0.47797900  0.65528900  0.14244900  1
  F  F9  1  0.02202100  0.65528900  0.64244900  1
  F  F10  1  0.52202100  0.34471100  0.85755100  1
  F  F11  1  0.97797900  0.34471100  0.35755100  1
  F  F12  1  0.57593800  0.66249000  0.42882300  1
  F  F13  1  0.92406200  0.66249000  0.92882300  1
  F  F14  1  0.42406200  0.33751000  0.57117700  1
  F  F15  1  0.07593800  0.33751000  0.07117700  1
  F  F16  1  0.68287700  0.11394500  0.49179600  1
  F  F17  1  0.81712300  0.11394500  0.99179600  1
  F  F18  1  0.31712300  0.88605500  0.50820400  1
  F  F19  1  0.18287700  0.88605500  0.00820400  1
  F  F20  1  0.36073700  0.33112500  0.28333500  1
  F  F21  1  0.13926300  0.33112500  0.78333500  1
  F  F22  1  0.63926300  0.66887500  0.71666500  1
  F  F23  1  0.86073700  0.66887500  0.21666500  1
  F  F24  1  0.79602200  0.36836300  0.62310500  1
  F  F25  1  0.70397800  0.36836300  0.12310500  1
  F  F26  1  0.20397800  0.63163700  0.37689500  1
  F  F27  1  0.29602200  0.63163700  0.87689500  1
