# generated using pymatgen
data_Mg7P6(HO6)4
_symmetry_space_group_name_H-M   'P 1'
_cell_length_a   6.48943992
_cell_length_b   7.90814614
_cell_length_c   9.53680127
_cell_angle_alpha   104.35940654
_cell_angle_beta   108.44401328
_cell_angle_gamma   101.23902193
_symmetry_Int_Tables_number   1
_chemical_formula_structural   Mg7P6(HO6)4
_chemical_formula_sum   'Mg7 P6 H4 O24'
_cell_volume   429.41898798
_cell_formula_units_Z   1
loop_
 _symmetry_equiv_pos_site_id
 _symmetry_equiv_pos_as_xyz
  1  'x, y, z'
loop_
 _atom_site_type_symbol
 _atom_site_label
 _atom_site_symmetry_multiplicity
 _atom_site_fract_x
 _atom_site_fract_y
 _atom_site_fract_z
 _atom_site_occupancy
  Mg  Mg0  1  0.38278200  0.45504300  0.10823700  1
  Mg  Mg1  1  0.61721800  0.54495700  0.89176300  1
  Mg  Mg2  1  0.00000000  0.00000000  0.00000000  1
  Mg  Mg3  1  0.05494100  0.71033100  0.51453800  1
  Mg  Mg4  1  0.94505900  0.28966900  0.48546200  1
  Mg  Mg5  1  0.27760400  0.80621000  0.28542600  1
  Mg  Mg6  1  0.72239600  0.19379000  0.71457400  1
  P  P7  1  0.77314500  0.85161800  0.22417400  1
  P  P8  1  0.22685500  0.14838300  0.77582600  1
  P  P9  1  0.91115100  0.41755000  0.17285200  1
  P  P10  1  0.08884900  0.58245000  0.82714800  1
  P  P11  1  0.58936200  0.76923900  0.62989200  1
  P  P12  1  0.41063800  0.23076100  0.37010800  1
  H  H13  1  0.82275900  0.12491400  0.19642200  1
  H  H14  1  0.17724100  0.87508600  0.80357800  1
  H  H15  1  0.63544100  0.58834300  0.43871300  1
  H  H16  1  0.36455900  0.41165700  0.56128700  1
  O  O17  1  0.98012800  0.81976800  0.33690900  1
  O  O18  1  0.01987200  0.18023200  0.66309100  1
  O  O19  1  0.77996700  0.81349600  0.05805200  1
  O  O20  1  0.22003300  0.18650400  0.94194800  1
  O  O21  1  0.54793900  0.75237100  0.22959500  1
  O  O22  1  0.45206100  0.24762900  0.77040500  1
  O  O23  1  0.79868800  0.06510600  0.28129200  1
  O  O24  1  0.20131200  0.93489400  0.71870800  1
  O  O25  1  0.69430700  0.46042200  0.08597600  1
  O  O26  1  0.30569300  0.53957800  0.91402400  1
  O  O27  1  0.93966400  0.45370700  0.34679400  1
  O  O28  1  0.06033600  0.54629300  0.65320600  1
  O  O29  1  0.89272300  0.21251300  0.10010900  1
  O  O30  1  0.10727700  0.78748700  0.89989100  1
  O  O31  1  0.12376400  0.53758500  0.16394800  1
  O  O32  1  0.87623600  0.46241500  0.83605200  1
  O  O33  1  0.37861400  0.78739100  0.50806400  1
  O  O34  1  0.62138600  0.21260900  0.49193600  1
  O  O35  1  0.52670400  0.61688700  0.69407900  1
  O  O36  1  0.47329600  0.38311300  0.30592100  1
  O  O37  1  0.73271300  0.95261200  0.76017600  1
  O  O38  1  0.26728700  0.04738700  0.23982400  1
  O  O39  1  0.73412800  0.70762700  0.52687100  1
  O  O40  1  0.26587200  0.29237300  0.47312900  1
