# generated using pymatgen
data_Cs6Ho21Te34Cl
_symmetry_space_group_name_H-M   'P 1'
_cell_length_a   14.46665096
_cell_length_b   14.46665096
_cell_length_c   14.45506995
_cell_angle_alpha   65.75596781
_cell_angle_beta   65.75596781
_cell_angle_gamma   97.66038796
_symmetry_Int_Tables_number   1
_chemical_formula_structural   Cs6Ho21Te34Cl
_chemical_formula_sum   'Cs6 Ho21 Te34 Cl1'
_cell_volume   2343.42784247
_cell_formula_units_Z   1
loop_
 _symmetry_equiv_pos_site_id
 _symmetry_equiv_pos_as_xyz
  1  'x, y, z'
loop_
 _atom_site_type_symbol
 _atom_site_label
 _atom_site_symmetry_multiplicity
 _atom_site_fract_x
 _atom_site_fract_y
 _atom_site_fract_z
 _atom_site_occupancy
  Cs  Cs0  1  0.04223700  0.80535300  0.72324400  1
  Cs  Cs1  1  0.80535300  0.04223700  0.72324400  1
  Cs  Cs2  1  0.95776300  0.19464700  0.27675600  1
  Cs  Cs3  1  0.19464700  0.95776300  0.27675600  1
  Cs  Cs4  1  0.78014700  0.78014700  0.57448000  1
  Cs  Cs5  1  0.21985300  0.21985300  0.42552000  1
  Ho  Ho6  1  0.69959000  0.30041000  0.00000000  1
  Ho  Ho7  1  0.30041000  0.69959000  0.00000000  1
  Ho  Ho8  1  0.04603900  0.45778600  0.75069100  1
  Ho  Ho9  1  0.45778600  0.04603900  0.75069100  1
  Ho  Ho10  1  0.95396100  0.54221400  0.24930900  1
  Ho  Ho11  1  0.54221400  0.95396100  0.24930900  1
  Ho  Ho12  1  0.83010400  0.42751800  0.62253000  1
  Ho  Ho13  1  0.42751800  0.83010400  0.62253000  1
  Ho  Ho14  1  0.16989600  0.57248200  0.37747000  1
  Ho  Ho15  1  0.57248200  0.16989600  0.37747000  1
  Ho  Ho16  1  0.90181000  0.09819000  0.00000000  1
  Ho  Ho17  1  0.09819000  0.90181000  0.00000000  1
  Ho  Ho18  1  0.26633900  0.47061900  0.88930900  1
  Ho  Ho19  1  0.47061900  0.26633900  0.88930900  1
  Ho  Ho20  1  0.73366100  0.52938100  0.11069100  1
  Ho  Ho21  1  0.52938100  0.73366100  0.11069100  1
  Ho  Ho22  1  0.39876800  0.60123200  0.50000000  1
  Ho  Ho23  1  0.60123200  0.39876800  0.50000000  1
  Ho  Ho24  1  0.50000000  0.50000000  0.00000000  1
  Ho  Ho25  1  0.24485100  0.24485100  0.74782800  1
  Ho  Ho26  1  0.75514900  0.75514900  0.25217200  1
  Te  Te27  1  0.68760700  0.68760700  0.93382100  1
  Te  Te28  1  0.31239300  0.31239300  0.06617900  1
  Te  Te29  1  0.05915200  0.05915200  0.81315500  1
  Te  Te30  1  0.94084800  0.94084800  0.18684500  1
  Te  Te31  1  0.08804500  0.28876000  0.93215400  1
  Te  Te32  1  0.28876000  0.08804500  0.93215400  1
  Te  Te33  1  0.91195500  0.71124000  0.06784600  1
  Te  Te34  1  0.71124000  0.91195500  0.06784600  1
  Te  Te35  1  0.88593800  0.48562400  0.93731600  1
  Te  Te36  1  0.48562400  0.88593800  0.93731600  1
  Te  Te37  1  0.11406200  0.51437600  0.06268400  1
  Te  Te38  1  0.51437600  0.11406200  0.06268400  1
  Te  Te39  1  0.86557900  0.26571600  0.81234500  1
  Te  Te40  1  0.26571600  0.86557900  0.81234500  1
  Te  Te41  1  0.13442100  0.73428400  0.18765500  1
  Te  Te42  1  0.73428400  0.13442100  0.18765500  1
  Te  Te43  1  0.24139300  0.63674700  0.68953500  1
  Te  Te44  1  0.63674700  0.24139300  0.68953500  1
  Te  Te45  1  0.75860700  0.36325300  0.31046500  1
  Te  Te46  1  0.36325300  0.75860700  0.31046500  1
  Te  Te47  1  0.01299200  0.61600000  0.55869000  1
  Te  Te48  1  0.61600000  0.01299200  0.55869000  1
  Te  Te49  1  0.98700800  0.38400000  0.44131000  1
  Te  Te50  1  0.38400000  0.98700800  0.44131000  1
  Te  Te51  1  0.21211000  0.41615200  0.56262900  1
  Te  Te52  1  0.41615200  0.21211000  0.56262900  1
  Te  Te53  1  0.78789000  0.58384800  0.43737100  1
  Te  Te54  1  0.58384800  0.78789000  0.43737100  1
  Te  Te55  1  0.65818700  0.45915000  0.81278200  1
  Te  Te56  1  0.45915000  0.65818700  0.81278200  1
  Te  Te57  1  0.34181300  0.54085000  0.18721800  1
  Te  Te58  1  0.54085000  0.34181300  0.18721800  1
  Te  Te59  1  0.43154100  0.43154100  0.69081300  1
  Te  Te60  1  0.56845900  0.56845900  0.30918700  1
  Cl  Cl61  1  0.00000000  0.00000000  0.50000000  1
