# generated using pymatgen
data_Mn2InAgTe4
_symmetry_space_group_name_H-M   'P 1'
_cell_length_a   6.46536500
_cell_length_b   6.46536500
_cell_length_c   7.85772559
_cell_angle_alpha   65.70707147
_cell_angle_beta   114.29292853
_cell_angle_gamma   90.00000000
_symmetry_Int_Tables_number   1
_chemical_formula_structural   Mn2InAgTe4
_chemical_formula_sum   'Mn2 In1 Ag1 Te4'
_cell_volume   267.14490432
_cell_formula_units_Z   1
loop_
 _symmetry_equiv_pos_site_id
 _symmetry_equiv_pos_as_xyz
  1  'x, y, z'
loop_
 _atom_site_type_symbol
 _atom_site_label
 _atom_site_symmetry_multiplicity
 _atom_site_fract_x
 _atom_site_fract_y
 _atom_site_fract_z
 _atom_site_occupancy
  Mn  Mn0  1  0.75000000  0.75000000  0.50000000  1
  Mn  Mn1  1  0.25000000  0.25000000  0.50000000  1
  In  In2  1  0.50000000  0.50000000  0.00000000  1
  Ag  Ag3  1  0.00000000  0.00000000  0.00000000  1
  Te  Te4  1  0.11700100  0.88299900  0.73834200  1
  Te  Te5  1  0.88299900  0.62134100  0.26165800  1
  Te  Te6  1  0.62134100  0.37865900  0.73834200  1
  Te  Te7  1  0.37865900  0.11700100  0.26165800  1
