# generated using pymatgen
data_Ba4MnGa2(S3F2)2
_symmetry_space_group_name_H-M   'P 1'
_cell_length_a   9.99511830
_cell_length_b   9.99511830
_cell_length_c   12.97184700
_cell_angle_alpha   90.00000000
_cell_angle_beta   90.00000000
_cell_angle_gamma   143.68779296
_symmetry_Int_Tables_number   1
_chemical_formula_structural   Ba4MnGa2(S3F2)2
_chemical_formula_sum   'Ba8 Mn2 Ga4 S12 F8'
_cell_volume   767.42333919
_cell_formula_units_Z   2
loop_
 _symmetry_equiv_pos_site_id
 _symmetry_equiv_pos_as_xyz
  1  'x, y, z'
loop_
 _atom_site_type_symbol
 _atom_site_label
 _atom_site_symmetry_multiplicity
 _atom_site_fract_x
 _atom_site_fract_y
 _atom_site_fract_z
 _atom_site_occupancy
  Ba  Ba0  1  0.06383200  0.40726800  0.37457700  1
  Ba  Ba1  1  0.59273200  0.93616800  0.62542300  1
  Ba  Ba2  1  0.09273200  0.43616800  0.87457700  1
  Ba  Ba3  1  0.56383200  0.90726800  0.12542300  1
  Ba  Ba4  1  0.93616800  0.59273200  0.62542300  1
  Ba  Ba5  1  0.40726800  0.06383200  0.37457700  1
  Ba  Ba6  1  0.90726800  0.56383200  0.12542300  1
  Ba  Ba7  1  0.43616800  0.09273200  0.87457700  1
  Mn  Mn8  1  0.50000000  0.50000000  0.50000000  1
  Mn  Mn9  1  0.00000000  0.00000000  0.00000000  1
  Ga  Ga10  1  0.85626200  0.85626200  0.32595600  1
  Ga  Ga11  1  0.14373800  0.14373800  0.67404400  1
  Ga  Ga12  1  0.64373800  0.64373800  0.82595600  1
  Ga  Ga13  1  0.35626200  0.35626200  0.17404400  1
  S  S14  1  0.23027500  0.23027500  0.34313100  1
  S  S15  1  0.76972500  0.76972500  0.65686900  1
  S  S16  1  0.26972500  0.26972500  0.84313100  1
  S  S17  1  0.73027500  0.73027500  0.15686900  1
  S  S18  1  0.82533200  0.62479600  0.39572200  1
  S  S19  1  0.37520400  0.17466800  0.60427800  1
  S  S20  1  0.87520400  0.67466800  0.89572200  1
  S  S21  1  0.32533200  0.12479600  0.10427800  1
  S  S22  1  0.17466800  0.37520400  0.60427800  1
  S  S23  1  0.62479600  0.82533200  0.39572200  1
  S  S24  1  0.12479600  0.32533200  0.10427800  1
  S  S25  1  0.67466800  0.87520400  0.89572200  1
  F  F26  1  0.74758800  0.25241200  0.50000000  1
  F  F27  1  0.24758800  0.75241200  0.00000000  1
  F  F28  1  0.25241200  0.74758800  0.50000000  1
  F  F29  1  0.75241200  0.24758800  0.00000000  1
  F  F30  1  0.23437200  0.73437200  0.25000000  1
  F  F31  1  0.26562800  0.76562800  0.75000000  1
  F  F32  1  0.76562800  0.26562800  0.75000000  1
  F  F33  1  0.73437200  0.23437200  0.25000000  1
