# generated using pymatgen
data_P2Pt5
_symmetry_space_group_name_H-M   'P 1'
_cell_length_a   6.12145539
_cell_length_b   6.12145539
_cell_length_c   7.52653613
_cell_angle_alpha   81.51940400
_cell_angle_beta   81.51940400
_cell_angle_gamma   52.85872552
_symmetry_Int_Tables_number   1
_chemical_formula_structural   P2Pt5
_chemical_formula_sum   'P4 Pt10'
_cell_volume   221.75497741
_cell_formula_units_Z   2
loop_
 _symmetry_equiv_pos_site_id
 _symmetry_equiv_pos_as_xyz
  1  'x, y, z'
loop_
 _atom_site_type_symbol
 _atom_site_label
 _atom_site_symmetry_multiplicity
 _atom_site_fract_x
 _atom_site_fract_y
 _atom_site_fract_z
 _atom_site_occupancy
  P  P0  1  0.75329000  0.56458100  0.22443600  1
  P  P1  1  0.43541900  0.24671000  0.27556400  1
  P  P2  1  0.24671000  0.43541900  0.77556400  1
  P  P3  1  0.56458100  0.75329000  0.72443600  1
  Pt  Pt4  1  0.60738800  0.15517000  0.96740900  1
  Pt  Pt5  1  0.84483000  0.39261200  0.53259100  1
  Pt  Pt6  1  0.62958300  0.08144100  0.59482200  1
  Pt  Pt7  1  0.91855900  0.37041700  0.90517800  1
  Pt  Pt8  1  0.37041700  0.91855900  0.40517800  1
  Pt  Pt9  1  0.08144100  0.62958300  0.09482200  1
  Pt  Pt10  1  0.15517000  0.60738800  0.46740900  1
  Pt  Pt11  1  0.39261200  0.84483000  0.03259100  1
  Pt  Pt12  1  0.11154100  0.88845900  0.75000000  1
  Pt  Pt13  1  0.88845900  0.11154100  0.25000000  1
