# generated using pymatgen
data_Na6GaAs3
_symmetry_space_group_name_H-M   'P 1'
_cell_length_a   8.40471019
_cell_length_b   8.35064758
_cell_length_c   16.36882618
_cell_angle_alpha   94.11996096
_cell_angle_beta   95.85539098
_cell_angle_gamma   119.60526826
_symmetry_Int_Tables_number   1
_chemical_formula_structural   Na6GaAs3
_chemical_formula_sum   'Na24 Ga4 As12'
_cell_volume   983.67422879
_cell_formula_units_Z   4
loop_
 _symmetry_equiv_pos_site_id
 _symmetry_equiv_pos_as_xyz
  1  'x, y, z'
loop_
 _atom_site_type_symbol
 _atom_site_label
 _atom_site_symmetry_multiplicity
 _atom_site_fract_x
 _atom_site_fract_y
 _atom_site_fract_z
 _atom_site_occupancy
  Na  Na0  1  0.02102500  0.83851700  0.07096200  1
  Na  Na1  1  0.14079900  0.96934700  0.41983400  1
  Na  Na2  1  0.07876000  0.56582000  0.18848600  1
  Na  Na3  1  0.04195700  0.23387900  0.30103100  1
  Na  Na4  1  0.36093400  0.85466500  0.53080600  1
  Na  Na5  1  0.21167100  0.44592800  0.68917300  1
  Na  Na6  1  0.43930600  0.94753100  0.30184100  1
  Na  Na7  1  0.20019300  0.35849600  0.50048700  1
  Na  Na8  1  0.31042000  0.50859000  0.06246000  1
  Na  Na9  1  0.28907800  0.15735000  0.80046700  1
  Na  Na10  1  0.64515000  0.84230300  0.00171700  1
  Na  Na11  1  0.62780000  0.74538500  0.79638700  1
  Na  Na12  1  0.37542500  0.25148600  0.20258200  1
  Na  Na13  1  0.35452300  0.15826900  0.99758900  1
  Na  Na14  1  0.70621500  0.84587200  0.19751300  1
  Na  Na15  1  0.68799100  0.49199100  0.93686000  1
  Na  Na16  1  0.81623300  0.65553500  0.50483900  1
  Na  Na17  1  0.55823100  0.05383000  0.70704700  1
  Na  Na18  1  0.78753300  0.57247300  0.30561100  1
  Na  Na19  1  0.97151200  0.76100800  0.69483200  1
  Na  Na20  1  0.78939300  0.27905100  0.44046700  1
  Na  Na21  1  0.92156400  0.43388700  0.81248800  1
  Na  Na22  1  0.84791200  0.03168000  0.57768900  1
  Na  Na23  1  0.97884100  0.16078900  0.92829000  1
  Ga  Ga24  1  0.29548100  0.79871200  0.90881600  1
  Ga  Ga25  1  0.47017800  0.63394100  0.40444600  1
  Ga  Ga26  1  0.52923400  0.35413600  0.59195900  1
  Ga  Ga27  1  0.70381200  0.20126100  0.09208700  1
  As  As28  1  0.00660800  0.82021900  0.87902100  1
  As  As29  1  0.15422200  0.61279000  0.37298500  1
  As  As30  1  0.39611900  0.89745000  0.10480600  1
  As  As31  1  0.30768200  0.50291000  0.87930700  1
  As  As32  1  0.22850800  0.08198000  0.61473500  1
  As  As33  1  0.54244400  0.67151700  0.60245200  1
  As  As34  1  0.46493600  0.32339800  0.40005400  1
  As  As35  1  0.76524900  0.91557200  0.38210200  1
  As  As36  1  0.69236200  0.49826900  0.11985100  1
  As  As37  1  0.60381600  0.10371600  0.89744200  1
  As  As38  1  0.83614700  0.37337900  0.62612000  1
  As  As39  1  0.99383500  0.17976600  0.11944000  1
