# generated using pymatgen
data_Y3Al3Cr2O12
_symmetry_space_group_name_H-M   'P 1'
_cell_length_a   10.63772952
_cell_length_b   10.63772952
_cell_length_c   10.63772952
_cell_angle_alpha   109.47122063
_cell_angle_beta   109.47122063
_cell_angle_gamma   109.47122063
_symmetry_Int_Tables_number   1
_chemical_formula_structural   Y3Al3Cr2O12
_chemical_formula_sum   'Y12 Al12 Cr8 O48'
_cell_volume   926.66965021
_cell_formula_units_Z   4
loop_
 _symmetry_equiv_pos_site_id
 _symmetry_equiv_pos_as_xyz
  1  'x, y, z'
loop_
 _atom_site_type_symbol
 _atom_site_label
 _atom_site_symmetry_multiplicity
 _atom_site_fract_x
 _atom_site_fract_y
 _atom_site_fract_z
 _atom_site_occupancy
  Y  Y0  1  0.25000000  0.37500000  0.12500000  1
  Y  Y1  1  0.75000000  0.62500000  0.87500000  1
  Y  Y2  1  0.75000000  0.12500000  0.37500000  1
  Y  Y3  1  0.12500000  0.25000000  0.37500000  1
  Y  Y4  1  0.37500000  0.75000000  0.12500000  1
  Y  Y5  1  0.25000000  0.87500000  0.62500000  1
  Y  Y6  1  0.87500000  0.75000000  0.62500000  1
  Y  Y7  1  0.62500000  0.25000000  0.87500000  1
  Y  Y8  1  0.37500000  0.12500000  0.25000000  1
  Y  Y9  1  0.62500000  0.87500000  0.75000000  1
  Y  Y10  1  0.12500000  0.37500000  0.75000000  1
  Y  Y11  1  0.87500000  0.62500000  0.25000000  1
  Al  Al12  1  0.25000000  0.62500000  0.37500000  1
  Al  Al13  1  0.75000000  0.37500000  0.62500000  1
  Al  Al14  1  0.75000000  0.87500000  0.12500000  1
  Al  Al15  1  0.37500000  0.25000000  0.62500000  1
  Al  Al16  1  0.62500000  0.75000000  0.37500000  1
  Al  Al17  1  0.25000000  0.12500000  0.87500000  1
  Al  Al18  1  0.12500000  0.75000000  0.87500000  1
  Al  Al19  1  0.87500000  0.25000000  0.12500000  1
  Al  Al20  1  0.62500000  0.37500000  0.25000000  1
  Al  Al21  1  0.37500000  0.62500000  0.75000000  1
  Al  Al22  1  0.87500000  0.12500000  0.75000000  1
  Al  Al23  1  0.12500000  0.87500000  0.25000000  1
  Cr  Cr24  1  0.00000000  0.00000000  0.00000000  1
  Cr  Cr25  1  0.50000000  0.00000000  0.50000000  1
  Cr  Cr26  1  0.00000000  0.50000000  0.50000000  1
  Cr  Cr27  1  0.50000000  0.00000000  0.00000000  1
  Cr  Cr28  1  0.50000000  0.50000000  0.00000000  1
  Cr  Cr29  1  0.50000000  0.50000000  0.50000000  1
  Cr  Cr30  1  0.00000000  0.00000000  0.50000000  1
  Cr  Cr31  1  0.00000000  0.50000000  0.00000000  1
  O  O32  1  0.47645200  0.37759200  0.29221400  1
  O  O33  1  0.52354800  0.62240800  0.70778600  1
  O  O34  1  0.58537800  0.18423800  0.20778600  1
  O  O35  1  0.91462200  0.12240800  0.59886000  1
  O  O36  1  0.29221400  0.47645200  0.37759200  1
  O  O37  1  0.31576200  0.91462200  0.29221400  1
  O  O38  1  0.41462200  0.81576200  0.79221400  1
  O  O39  1  0.08537800  0.87759200  0.40114000  1
  O  O40  1  0.70778600  0.52354800  0.62240800  1
  O  O41  1  0.68423800  0.08537800  0.70778600  1
  O  O42  1  0.02354800  0.31576200  0.90114000  1
  O  O43  1  0.20778600  0.58537800  0.18423800  1
  O  O44  1  0.12240800  0.02354800  0.20778600  1
  O  O45  1  0.97645200  0.68423800  0.09886000  1
  O  O46  1  0.79221400  0.41462200  0.81576200  1
  O  O47  1  0.87759200  0.97645200  0.79221400  1
  O  O48  1  0.59886000  0.91462200  0.12240800  1
  O  O49  1  0.18423800  0.47645200  0.59886000  1
  O  O50  1  0.40114000  0.08537800  0.87759200  1
  O  O51  1  0.81576200  0.52354800  0.40114000  1
  O  O52  1  0.90114000  0.02354800  0.31576200  1
  O  O53  1  0.37759200  0.58537800  0.90114000  1
  O  O54  1  0.09886000  0.97645200  0.68423800  1
  O  O55  1  0.62240800  0.41462200  0.09886000  1
  O  O56  1  0.37759200  0.29221400  0.47645200  1
  O  O57  1  0.58537800  0.90114000  0.37759200  1
  O  O58  1  0.62240800  0.70778600  0.52354800  1
  O  O59  1  0.41462200  0.09886000  0.62240800  1
  O  O60  1  0.12240800  0.59886000  0.91462200  1
  O  O61  1  0.02354800  0.20778600  0.12240800  1
  O  O62  1  0.87759200  0.40114000  0.08537800  1
  O  O63  1  0.97645200  0.79221400  0.87759200  1
  O  O64  1  0.31576200  0.90114000  0.02354800  1
  O  O65  1  0.91462200  0.29221400  0.31576200  1
  O  O66  1  0.68423800  0.09886000  0.97645200  1
  O  O67  1  0.08537800  0.70778600  0.68423800  1
  O  O68  1  0.18423800  0.20778600  0.58537800  1
  O  O69  1  0.47645200  0.59886000  0.18423800  1
  O  O70  1  0.81576200  0.79221400  0.41462200  1
  O  O71  1  0.52354800  0.40114000  0.81576200  1
  O  O72  1  0.29221400  0.31576200  0.91462200  1
  O  O73  1  0.70778600  0.68423800  0.08537800  1
  O  O74  1  0.20778600  0.12240800  0.02354800  1
  O  O75  1  0.79221400  0.87759200  0.97645200  1
  O  O76  1  0.90114000  0.37759200  0.58537800  1
  O  O77  1  0.09886000  0.62240800  0.41462200  1
  O  O78  1  0.59886000  0.18423800  0.47645200  1
  O  O79  1  0.40114000  0.81576200  0.52354800  1
