# generated using pymatgen
data_NbP2
_symmetry_space_group_name_H-M   'P 1'
_cell_length_a   4.75081300
_cell_length_b   4.75081300
_cell_length_c   7.56639478
_cell_angle_alpha   62.95498628
_cell_angle_beta   62.95498628
_cell_angle_gamma   40.54956116
_symmetry_Int_Tables_number   1
_chemical_formula_structural   NbP2
_chemical_formula_sum   'Nb2 P4'
_cell_volume   97.10728943
_cell_formula_units_Z   2
loop_
 _symmetry_equiv_pos_site_id
 _symmetry_equiv_pos_as_xyz
  1  'x, y, z'
loop_
 _atom_site_type_symbol
 _atom_site_label
 _atom_site_symmetry_multiplicity
 _atom_site_fract_x
 _atom_site_fract_y
 _atom_site_fract_z
 _atom_site_occupancy
  Nb  Nb0  1  0.16036600  0.16036600  0.79937000  1
  Nb  Nb1  1  0.83963400  0.83963400  0.20063000  1
  P  P2  1  0.40442600  0.40442600  0.89829100  1
  P  P3  1  0.59557400  0.59557400  0.10170900  1
  P  P4  1  0.86658400  0.86658400  0.52608100  1
  P  P5  1  0.13341600  0.13341600  0.47391900  1
