# generated using pymatgen
data_Zr3AgHg3F20
_symmetry_space_group_name_H-M   'P 1'
_cell_length_a   10.87654588
_cell_length_b   10.87654588
_cell_length_c   8.68059300
_cell_angle_alpha   90.00000000
_cell_angle_beta   90.00000000
_cell_angle_gamma   119.99999925
_symmetry_Int_Tables_number   1
_chemical_formula_structural   Zr3AgHg3F20
_chemical_formula_sum   'Zr6 Ag2 Hg6 F40'
_cell_volume   889.32811321
_cell_formula_units_Z   2
loop_
 _symmetry_equiv_pos_site_id
 _symmetry_equiv_pos_as_xyz
  1  'x, y, z'
loop_
 _atom_site_type_symbol
 _atom_site_label
 _atom_site_symmetry_multiplicity
 _atom_site_fract_x
 _atom_site_fract_y
 _atom_site_fract_z
 _atom_site_occupancy
  Zr  Zr0  1  0.58269700  0.72204700  0.75000000  1
  Zr  Zr1  1  0.41730300  0.27795300  0.25000000  1
  Zr  Zr2  1  0.13934900  0.41730300  0.75000000  1
  Zr  Zr3  1  0.86065100  0.58269700  0.25000000  1
  Zr  Zr4  1  0.27795300  0.86065100  0.75000000  1
  Zr  Zr5  1  0.72204700  0.13934900  0.25000000  1
  Ag  Ag6  1  0.00000000  0.00000000  0.75000000  1
  Ag  Ag7  1  0.00000000  0.00000000  0.25000000  1
  Hg  Hg8  1  0.72930200  0.16063500  0.75000000  1
  Hg  Hg9  1  0.27069800  0.83936500  0.25000000  1
  Hg  Hg10  1  0.43133300  0.27069800  0.75000000  1
  Hg  Hg11  1  0.56866700  0.72930200  0.25000000  1
  Hg  Hg12  1  0.83936500  0.56866700  0.75000000  1
  Hg  Hg13  1  0.16063500  0.43133300  0.25000000  1
  F  F14  1  0.57481700  0.72006000  0.98285700  1
  F  F15  1  0.42518300  0.27994000  0.01714300  1
  F  F16  1  0.14524400  0.42518300  0.98285700  1
  F  F17  1  0.42518300  0.27994000  0.48285700  1
  F  F18  1  0.85475600  0.57481700  0.01714300  1
  F  F19  1  0.57481700  0.72006000  0.51714300  1
  F  F20  1  0.27994000  0.85475600  0.98285700  1
  F  F21  1  0.85475600  0.57481700  0.48285700  1
  F  F22  1  0.72006000  0.14524400  0.01714300  1
  F  F23  1  0.14524400  0.42518300  0.51714300  1
  F  F24  1  0.72006000  0.14524400  0.48285700  1
  F  F25  1  0.27994000  0.85475600  0.51714300  1
  F  F26  1  0.71897100  0.94160100  0.75000000  1
  F  F27  1  0.28102900  0.05839900  0.25000000  1
  F  F28  1  0.22262900  0.28102900  0.75000000  1
  F  F29  1  0.77737100  0.71897100  0.25000000  1
  F  F30  1  0.05839900  0.77737100  0.75000000  1
  F  F31  1  0.94160100  0.22262900  0.25000000  1
  F  F32  1  0.96861400  0.20107500  0.75000000  1
  F  F33  1  0.03138600  0.79892500  0.25000000  1
  F  F34  1  0.23246200  0.03138600  0.75000000  1
  F  F35  1  0.76753800  0.96861400  0.25000000  1
  F  F36  1  0.79892500  0.76753800  0.75000000  1
  F  F37  1  0.20107500  0.23246200  0.25000000  1
  F  F38  1  0.66666700  0.33333300  0.75000000  1
  F  F39  1  0.33333300  0.66666700  0.25000000  1
  F  F40  1  0.36602800  0.55059100  0.75000000  1
  F  F41  1  0.63397200  0.44940900  0.25000000  1
  F  F42  1  0.18456400  0.63397200  0.75000000  1
  F  F43  1  0.81543600  0.36602800  0.25000000  1
  F  F44  1  0.44940900  0.81543600  0.75000000  1
  F  F45  1  0.55059100  0.18456400  0.25000000  1
  F  F46  1  0.94440000  0.41334600  0.75000000  1
  F  F47  1  0.05560000  0.58665400  0.25000000  1
  F  F48  1  0.46894600  0.05560000  0.75000000  1
  F  F49  1  0.53105400  0.94440000  0.25000000  1
  F  F50  1  0.58665400  0.53105400  0.75000000  1
  F  F51  1  0.41334600  0.46894600  0.25000000  1
  F  F52  1  0.00000000  0.00000000  0.00000000  1
  F  F53  1  0.00000000  0.00000000  0.50000000  1
