# generated using pymatgen
data_EuZn11
_symmetry_space_group_name_H-M   'P 1'
_cell_length_a   8.30652637
_cell_length_b   8.30652637
_cell_length_c   8.30652637
_cell_angle_alpha   100.00816176
_cell_angle_beta   100.00816176
_cell_angle_gamma   130.72454162
_symmetry_Int_Tables_number   1
_chemical_formula_structural   EuZn11
_chemical_formula_sum   'Eu2 Zn22'
_cell_volume   394.81174597
_cell_formula_units_Z   2
loop_
 _symmetry_equiv_pos_site_id
 _symmetry_equiv_pos_as_xyz
  1  'x, y, z'
loop_
 _atom_site_type_symbol
 _atom_site_label
 _atom_site_symmetry_multiplicity
 _atom_site_fract_x
 _atom_site_fract_y
 _atom_site_fract_z
 _atom_site_occupancy
  Eu  Eu0  1  0.00000000  0.00000000  0.00000000  1
  Eu  Eu1  1  0.25000000  0.75000000  0.50000000  1
  Zn  Zn2  1  0.75000000  0.25000000  0.50000000  1
  Zn  Zn3  1  0.50000000  0.50000000  0.00000000  1
  Zn  Zn4  1  0.12500000  0.37500000  0.75000000  1
  Zn  Zn5  1  0.62500000  0.87500000  0.25000000  1
  Zn  Zn6  1  0.62500000  0.37500000  0.75000000  1
  Zn  Zn7  1  0.62500000  0.37500000  0.25000000  1
  Zn  Zn8  1  0.18118100  0.50905600  0.08448300  1
  Zn  Zn9  1  0.18118100  0.09669800  0.67212500  1
  Zn  Zn10  1  0.75905600  0.93118100  0.58448300  1
  Zn  Zn11  1  0.75905600  0.17457300  0.82787500  1
  Zn  Zn12  1  0.42457300  0.50905600  0.32787500  1
  Zn  Zn13  1  0.42457300  0.09669800  0.91551700  1
  Zn  Zn14  1  0.34669800  0.93118100  0.17212500  1
  Zn  Zn15  1  0.34669800  0.17457300  0.41551700  1
  Zn  Zn16  1  0.06881900  0.24094400  0.41551700  1
  Zn  Zn17  1  0.06881900  0.65330200  0.82787500  1
  Zn  Zn18  1  0.49094400  0.81881900  0.91551700  1
  Zn  Zn19  1  0.49094400  0.57542700  0.67212500  1
  Zn  Zn20  1  0.82542700  0.24094400  0.17212500  1
  Zn  Zn21  1  0.82542700  0.65330200  0.58448300  1
  Zn  Zn22  1  0.90330200  0.81881900  0.32787500  1
  Zn  Zn23  1  0.90330200  0.57542700  0.08448300  1
