# generated using pymatgen
data_SbRhSe
_symmetry_space_group_name_H-M   'P 1'
_cell_length_a   6.26144900
_cell_length_b   6.26144900
_cell_length_c   6.26144900
_cell_angle_alpha   90.00000000
_cell_angle_beta   90.00000000
_cell_angle_gamma   90.00000000
_symmetry_Int_Tables_number   1
_chemical_formula_structural   SbRhSe
_chemical_formula_sum   'Sb4 Rh4 Se4'
_cell_volume   245.48476393
_cell_formula_units_Z   4
loop_
 _symmetry_equiv_pos_site_id
 _symmetry_equiv_pos_as_xyz
  1  'x, y, z'
loop_
 _atom_site_type_symbol
 _atom_site_label
 _atom_site_symmetry_multiplicity
 _atom_site_fract_x
 _atom_site_fract_y
 _atom_site_fract_z
 _atom_site_occupancy
  Sb  Sb0  1  0.87724400  0.37724400  0.12275600  1
  Sb  Sb1  1  0.37724400  0.12275600  0.87724400  1
  Sb  Sb2  1  0.12275600  0.87724400  0.37724400  1
  Sb  Sb3  1  0.62275600  0.62275600  0.62275600  1
  Rh  Rh4  1  0.50505600  0.00505600  0.49494400  1
  Rh  Rh5  1  0.00505600  0.49494400  0.50505600  1
  Rh  Rh6  1  0.49494400  0.50505600  0.00505600  1
  Rh  Rh7  1  0.99494400  0.99494400  0.99494400  1
  Se  Se8  1  0.12192200  0.62192200  0.87807800  1
  Se  Se9  1  0.62192200  0.87807800  0.12192200  1
  Se  Se10  1  0.87807800  0.12192200  0.62192200  1
  Se  Se11  1  0.37807800  0.37807800  0.37807800  1
