# generated using pymatgen
data_ErCrTeO6
_symmetry_space_group_name_H-M   'P 1'
_cell_length_a   5.18956170
_cell_length_b   5.18959516
_cell_length_c   9.69649300
_cell_angle_alpha   89.99992221
_cell_angle_beta   90.00003721
_cell_angle_gamma   120.00020948
_symmetry_Int_Tables_number   1
_chemical_formula_structural   ErCrTeO6
_chemical_formula_sum   'Er2 Cr2 Te2 O12'
_cell_volume   226.15623377
_cell_formula_units_Z   2
loop_
 _symmetry_equiv_pos_site_id
 _symmetry_equiv_pos_as_xyz
  1  'x, y, z'
loop_
 _atom_site_type_symbol
 _atom_site_label
 _atom_site_symmetry_multiplicity
 _atom_site_fract_x
 _atom_site_fract_y
 _atom_site_fract_z
 _atom_site_occupancy
  Er  Er0  1  0.00000000  0.00000000  0.00000000  1
  Er  Er1  1  0.00000000  0.00000000  0.50000000  1
  Cr  Cr2  1  0.33332400  0.66666200  0.25000000  1
  Cr  Cr3  1  0.66667600  0.33333800  0.75000000  1
  Te  Te4  1  0.33337900  0.66668900  0.75000000  1
  Te  Te5  1  0.66662100  0.33331100  0.25000000  1
  O  O6  1  0.36302900  0.35257200  0.13850200  1
  O  O7  1  0.64739300  0.01045000  0.13850200  1
  O  O8  1  0.98951700  0.63693600  0.13850200  1
  O  O9  1  0.63697100  0.64742800  0.86149800  1
  O  O10  1  0.35260700  0.98955000  0.86149800  1
  O  O11  1  0.01048300  0.36306400  0.86149800  1
  O  O12  1  0.64739300  0.63694300  0.36149800  1
  O  O13  1  0.36302900  0.01045700  0.36149800  1
  O  O14  1  0.98951700  0.35258100  0.36149800  1
  O  O15  1  0.35260700  0.36305700  0.63850200  1
  O  O16  1  0.63697100  0.98954300  0.63850200  1
  O  O17  1  0.01048300  0.64741900  0.63850200  1
