# generated using pymatgen
data_Sm2MoO6
_symmetry_space_group_name_H-M   'P 1'
_cell_length_a   10.12928206
_cell_length_b   10.12928206
_cell_length_c   5.52237557
_cell_angle_alpha   75.16988260
_cell_angle_beta   75.16988260
_cell_angle_gamma   68.44835803
_symmetry_Int_Tables_number   1
_chemical_formula_structural   Sm2MoO6
_chemical_formula_sum   'Sm8 Mo4 O24'
_cell_volume   501.11004597
_cell_formula_units_Z   4
loop_
 _symmetry_equiv_pos_site_id
 _symmetry_equiv_pos_as_xyz
  1  'x, y, z'
loop_
 _atom_site_type_symbol
 _atom_site_label
 _atom_site_symmetry_multiplicity
 _atom_site_fract_x
 _atom_site_fract_y
 _atom_site_fract_z
 _atom_site_occupancy
  Sm  Sm0  1  0.28642600  0.05468300  0.61967200  1
  Sm  Sm1  1  0.94531700  0.71357400  0.88032800  1
  Sm  Sm2  1  0.71357400  0.94531700  0.38032800  1
  Sm  Sm3  1  0.05468300  0.28642600  0.11967200  1
  Sm  Sm4  1  0.89149000  0.10851000  0.75000000  1
  Sm  Sm5  1  0.10851000  0.89149000  0.25000000  1
  Sm  Sm6  1  0.36597700  0.63402300  0.75000000  1
  Sm  Sm7  1  0.63402300  0.36597700  0.25000000  1
  Mo  Mo8  1  0.79696100  0.50892000  0.55962700  1
  Mo  Mo9  1  0.49108000  0.20303900  0.94037300  1
  Mo  Mo10  1  0.20303900  0.49108000  0.44037300  1
  Mo  Mo11  1  0.50892000  0.79696100  0.05962700  1
  O  O12  1  0.82628800  0.38429200  0.86491500  1
  O  O13  1  0.61570800  0.17371200  0.63508500  1
  O  O14  1  0.17371200  0.61570800  0.13508500  1
  O  O15  1  0.38429200  0.82628800  0.36491500  1
  O  O16  1  0.92993400  0.52597900  0.26112100  1
  O  O17  1  0.47402100  0.07006600  0.23887900  1
  O  O18  1  0.07006600  0.47402100  0.73887900  1
  O  O19  1  0.52597900  0.92993400  0.76112100  1
  O  O20  1  0.78818100  0.67780600  0.63682600  1
  O  O21  1  0.32219400  0.21181900  0.86317400  1
  O  O22  1  0.21181900  0.32219400  0.36317400  1
  O  O23  1  0.67780600  0.78818100  0.13682600  1
  O  O24  1  0.07544800  0.10870500  0.92203300  1
  O  O25  1  0.89129500  0.92455200  0.57796700  1
  O  O26  1  0.92455200  0.89129500  0.07796700  1
  O  O27  1  0.10870500  0.07544800  0.42203300  1
  O  O28  1  0.31150500  0.83716800  0.91579900  1
  O  O29  1  0.16283200  0.68849500  0.58420100  1
  O  O30  1  0.68849500  0.16283200  0.08420100  1
  O  O31  1  0.83716800  0.31150500  0.41579900  1
  O  O32  1  0.54617700  0.61362300  0.01752800  1
  O  O33  1  0.38637700  0.45382300  0.48247200  1
  O  O34  1  0.45382300  0.38637700  0.98247200  1
  O  O35  1  0.61362300  0.54617700  0.51752800  1
