# generated using pymatgen
data_Rb2Pb2O3
_symmetry_space_group_name_H-M   'P 1'
_cell_length_a   7.76307943
_cell_length_b   7.76307943
_cell_length_c   7.76307943
_cell_angle_alpha   109.47122063
_cell_angle_beta   109.47122063
_cell_angle_gamma   109.47122063
_symmetry_Int_Tables_number   1
_chemical_formula_structural   Rb2Pb2O3
_chemical_formula_sum   'Rb4 Pb4 O6'
_cell_volume   360.14732964
_cell_formula_units_Z   2
loop_
 _symmetry_equiv_pos_site_id
 _symmetry_equiv_pos_as_xyz
  1  'x, y, z'
loop_
 _atom_site_type_symbol
 _atom_site_label
 _atom_site_symmetry_multiplicity
 _atom_site_fract_x
 _atom_site_fract_y
 _atom_site_fract_z
 _atom_site_occupancy
  Rb  Rb0  1  0.46932200  0.46932200  0.46932200  1
  Rb  Rb1  1  0.03067800  0.50000000  0.00000000  1
  Rb  Rb2  1  0.00000000  0.03067800  0.50000000  1
  Rb  Rb3  1  0.50000000  0.00000000  0.03067800  1
  Pb  Pb4  1  0.00982700  0.00982700  0.00982700  1
  Pb  Pb5  1  0.49017300  0.50000000  0.00000000  1
  Pb  Pb6  1  0.00000000  0.49017300  0.50000000  1
  Pb  Pb7  1  0.50000000  0.00000000  0.49017300  1
  O  O8  1  0.22459200  0.97459200  0.25000000  1
  O  O9  1  0.27540800  0.52540800  0.75000000  1
  O  O10  1  0.97459200  0.25000000  0.22459200  1
  O  O11  1  0.52540800  0.75000000  0.27540800  1
  O  O12  1  0.25000000  0.22459200  0.97459200  1
  O  O13  1  0.75000000  0.27540800  0.52540800  1
