# generated using pymatgen
data_Th(Se2O5)2
_symmetry_space_group_name_H-M   'P 1'
_cell_length_a   12.07859600
_cell_length_b   12.61361200
_cell_length_c   13.25522100
_cell_angle_alpha   90.00000000
_cell_angle_beta   90.00000000
_cell_angle_gamma   90.00000000
_symmetry_Int_Tables_number   1
_chemical_formula_structural   Th(Se2O5)2
_chemical_formula_sum   'Th8 Se32 O80'
_cell_volume   2019.49552971
_cell_formula_units_Z   8
loop_
 _symmetry_equiv_pos_site_id
 _symmetry_equiv_pos_as_xyz
  1  'x, y, z'
loop_
 _atom_site_type_symbol
 _atom_site_label
 _atom_site_symmetry_multiplicity
 _atom_site_fract_x
 _atom_site_fract_y
 _atom_site_fract_z
 _atom_site_occupancy
  Th  Th0  1  0.74436500  0.79014000  0.76742700  1
  Th  Th1  1  0.75563500  0.29014000  0.23257300  1
  Th  Th2  1  0.24436500  0.20986000  0.73257300  1
  Th  Th3  1  0.25563500  0.70986000  0.26742700  1
  Th  Th4  1  0.25563500  0.20986000  0.23257300  1
  Th  Th5  1  0.24436500  0.70986000  0.76742700  1
  Th  Th6  1  0.75563500  0.79014000  0.26742700  1
  Th  Th7  1  0.74436500  0.29014000  0.73257300  1
  Se  Se8  1  0.76336500  0.01322300  0.58060900  1
  Se  Se9  1  0.73663500  0.51322300  0.41939100  1
  Se  Se10  1  0.26336500  0.98677700  0.91939100  1
  Se  Se11  1  0.23663500  0.48677700  0.08060900  1
  Se  Se12  1  0.23663500  0.98677700  0.41939100  1
  Se  Se13  1  0.26336500  0.48677700  0.58060900  1
  Se  Se14  1  0.73663500  0.01322300  0.08060900  1
  Se  Se15  1  0.76336500  0.51322300  0.91939100  1
  Se  Se16  1  0.51183900  0.76389200  0.45989900  1
  Se  Se17  1  0.98816100  0.26389200  0.54010100  1
  Se  Se18  1  0.01183900  0.23610800  0.04010100  1
  Se  Se19  1  0.48816100  0.73610800  0.95989900  1
  Se  Se20  1  0.48816100  0.23610800  0.54010100  1
  Se  Se21  1  0.01183900  0.73610800  0.45989900  1
  Se  Se22  1  0.98816100  0.76389200  0.95989900  1
  Se  Se23  1  0.51183900  0.26389200  0.04010100  1
  Se  Se24  1  0.88682000  0.04606500  0.36843100  1
  Se  Se25  1  0.61318000  0.54606500  0.63156900  1
  Se  Se26  1  0.38682000  0.95393500  0.13156900  1
  Se  Se27  1  0.11318000  0.45393500  0.86843100  1
  Se  Se28  1  0.11318000  0.95393500  0.63156900  1
  Se  Se29  1  0.38682000  0.45393500  0.36843100  1
  Se  Se30  1  0.61318000  0.04606500  0.86843100  1
  Se  Se31  1  0.88682000  0.54606500  0.13156900  1
  Se  Se32  1  0.45486800  0.90328400  0.65230600  1
  Se  Se33  1  0.04513200  0.40328400  0.34769400  1
  Se  Se34  1  0.95486800  0.09671600  0.84769400  1
  Se  Se35  1  0.54513200  0.59671600  0.15230600  1
  Se  Se36  1  0.54513200  0.09671600  0.34769400  1
  Se  Se37  1  0.95486800  0.59671600  0.65230600  1
  Se  Se38  1  0.04513200  0.90328400  0.15230600  1
  Se  Se39  1  0.45486800  0.40328400  0.84769400  1
  O  O40  1  0.77709400  0.96438400  0.35142600  1
  O  O41  1  0.72290600  0.46438400  0.64857400  1
  O  O42  1  0.27709400  0.03561600  0.14857400  1
  O  O43  1  0.22290600  0.53561600  0.85142600  1
  O  O44  1  0.22290600  0.03561600  0.64857400  1
  O  O45  1  0.27709400  0.53561600  0.35142600  1
  O  O46  1  0.72290600  0.96438400  0.85142600  1
  O  O47  1  0.77709400  0.46438400  0.14857400  1
  O  O48  1  0.82200100  0.91203800  0.64617600  1
  O  O49  1  0.67799900  0.41203800  0.35382400  1
  O  O50  1  0.32200100  0.08796200  0.85382400  1
  O  O51  1  0.17799900  0.58796200  0.14617600  1
  O  O52  1  0.17799900  0.08796200  0.35382400  1
  O  O53  1  0.32200100  0.58796200  0.64617600  1
  O  O54  1  0.67799900  0.91203800  0.14617600  1
  O  O55  1  0.82200100  0.41203800  0.85382400  1
  O  O56  1  0.59253800  0.89565600  0.67864000  1
  O  O57  1  0.90746200  0.39565600  0.32136000  1
  O  O58  1  0.09253800  0.10434400  0.82136000  1
  O  O59  1  0.40746200  0.60434400  0.17864000  1
  O  O60  1  0.40746200  0.10434400  0.32136000  1
  O  O61  1  0.09253800  0.60434400  0.67864000  1
  O  O62  1  0.90746200  0.89565600  0.17864000  1
  O  O63  1  0.59253800  0.39565600  0.82136000  1
  O  O64  1  0.45314500  0.88866100  0.51290800  1
  O  O65  1  0.04685500  0.38866100  0.48709200  1
  O  O66  1  0.95314500  0.11133900  0.98709200  1
  O  O67  1  0.54685500  0.61133900  0.01290800  1
  O  O68  1  0.54685500  0.11133900  0.48709200  1
  O  O69  1  0.95314500  0.61133900  0.51290800  1
  O  O70  1  0.04685500  0.88866100  0.01290800  1
  O  O71  1  0.45314500  0.38866100  0.98709200  1
  O  O72  1  0.89232800  0.04578300  0.50657000  1
  O  O73  1  0.60767200  0.54578300  0.49343000  1
  O  O74  1  0.39232800  0.95421700  0.99343000  1
  O  O75  1  0.10767200  0.45421700  0.00657000  1
  O  O76  1  0.10767200  0.95421700  0.49343000  1
  O  O77  1  0.39232800  0.45421700  0.50657000  1
  O  O78  1  0.60767200  0.04578300  0.00657000  1
  O  O79  1  0.89232800  0.54578300  0.99343000  1
  O  O80  1  0.90595500  0.71738800  0.68531700  1
  O  O81  1  0.59404500  0.21738800  0.31468300  1
  O  O82  1  0.40595500  0.28261200  0.81468300  1
  O  O83  1  0.09404500  0.78261200  0.18531700  1
  O  O84  1  0.09404500  0.28261200  0.31468300  1
  O  O85  1  0.40595500  0.78261200  0.68531700  1
  O  O86  1  0.59404500  0.71738800  0.18531700  1
  O  O87  1  0.90595500  0.21738800  0.81468300  1
  O  O88  1  0.83514100  0.17032400  0.35015100  1
  O  O89  1  0.66485900  0.67032400  0.64984900  1
  O  O90  1  0.33514100  0.82967600  0.14984900  1
  O  O91  1  0.16485900  0.32967600  0.85015100  1
  O  O92  1  0.16485900  0.82967600  0.64984900  1
  O  O93  1  0.33514100  0.32967600  0.35015100  1
  O  O94  1  0.66485900  0.17032400  0.85015100  1
  O  O95  1  0.83514100  0.67032400  0.14984900  1
  O  O96  1  0.88825700  0.82146700  0.88846700  1
  O  O97  1  0.61174300  0.32146700  0.11153300  1
  O  O98  1  0.38825700  0.17853300  0.61153300  1
  O  O99  1  0.11174300  0.67853300  0.38846700  1
  O  O100  1  0.11174300  0.17853300  0.11153300  1
  O  O101  1  0.38825700  0.67853300  0.88846700  1
  O  O102  1  0.61174300  0.82146700  0.38846700  1
  O  O103  1  0.88825700  0.32146700  0.61153300  1
  O  O104  1  0.59173200  0.76490300  0.87772700  1
  O  O105  1  0.90826800  0.26490300  0.12227300  1
  O  O106  1  0.09173200  0.23509700  0.62227300  1
  O  O107  1  0.40826800  0.73509700  0.37772700  1
  O  O108  1  0.40826800  0.23509700  0.12227300  1
  O  O109  1  0.09173200  0.73509700  0.87772700  1
  O  O110  1  0.90826800  0.76490300  0.37772700  1
  O  O111  1  0.59173200  0.26490300  0.62227300  1
  O  O112  1  0.77401700  0.11782800  0.65941600  1
  O  O113  1  0.72598300  0.61782800  0.34058400  1
  O  O114  1  0.27401700  0.88217200  0.84058400  1
  O  O115  1  0.22598300  0.38217200  0.15941600  1
  O  O116  1  0.22598300  0.88217200  0.34058400  1
  O  O117  1  0.27401700  0.38217200  0.65941600  1
  O  O118  1  0.72598300  0.11782800  0.15941600  1
  O  O119  1  0.77401700  0.61782800  0.84058400  1
