# generated using pymatgen
data_Tm2Mo2C3
_symmetry_space_group_name_H-M   'P 1'
_cell_length_a   6.02282392
_cell_length_b   6.02282392
_cell_length_c   5.66222476
_cell_angle_alpha   69.39786611
_cell_angle_beta   69.39786611
_cell_angle_gamma   31.89324583
_symmetry_Int_Tables_number   1
_chemical_formula_structural   Tm2Mo2C3
_chemical_formula_sum   'Tm2 Mo2 C3'
_cell_volume   100.98966582
_cell_formula_units_Z   1
loop_
 _symmetry_equiv_pos_site_id
 _symmetry_equiv_pos_as_xyz
  1  'x, y, z'
loop_
 _atom_site_type_symbol
 _atom_site_label
 _atom_site_symmetry_multiplicity
 _atom_site_fract_x
 _atom_site_fract_y
 _atom_site_fract_z
 _atom_site_occupancy
  Tm  Tm0  1  0.61104500  0.61104500  0.17197900  1
  Tm  Tm1  1  0.38895500  0.38895500  0.82802100  1
  Mo  Mo2  1  0.84422300  0.84422300  0.32761100  1
  Mo  Mo3  1  0.15577700  0.15577700  0.67238900  1
  C  C4  1  0.75269600  0.75269600  0.73671600  1
  C  C5  1  0.24730400  0.24730400  0.26328400  1
  C  C6  1  0.00000000  0.00000000  0.00000000  1
