# generated using pymatgen
data_Tm2AlNi2
_symmetry_space_group_name_H-M   'P 1'
_cell_length_a   5.33351897
_cell_length_b   5.33351897
_cell_length_c   5.33351897
_cell_angle_alpha   135.21050552
_cell_angle_beta   119.14361266
_cell_angle_gamma   78.65593453
_symmetry_Int_Tables_number   1
_chemical_formula_structural   Tm2AlNi2
_chemical_formula_sum   'Tm2 Al1 Ni2'
_cell_volume   90.57979561
_cell_formula_units_Z   1
loop_
 _symmetry_equiv_pos_site_id
 _symmetry_equiv_pos_as_xyz
  1  'x, y, z'
loop_
 _atom_site_type_symbol
 _atom_site_label
 _atom_site_symmetry_multiplicity
 _atom_site_fract_x
 _atom_site_fract_y
 _atom_site_fract_z
 _atom_site_occupancy
  Tm  Tm0  1  0.70434800  0.20434800  0.50000000  1
  Tm  Tm1  1  0.29565200  0.79565200  0.50000000  1
  Al  Al2  1  0.00000000  0.00000000  0.00000000  1
  Ni  Ni3  1  0.27354900  0.50000000  0.77354900  1
  Ni  Ni4  1  0.72645100  0.50000000  0.22645100  1
