# generated using pymatgen
data_Ba2U(Cu2Se3)2
_symmetry_space_group_name_H-M   'P 1'
_cell_length_a   9.82982600
_cell_length_b   7.33751600
_cell_length_c   8.95904063
_cell_angle_alpha   72.31193243
_cell_angle_beta   90.00000000
_cell_angle_gamma   90.00000000
_symmetry_Int_Tables_number   1
_chemical_formula_structural   Ba2U(Cu2Se3)2
_chemical_formula_sum   'Ba4 U2 Cu8 Se12'
_cell_volume   615.63578814
_cell_formula_units_Z   2
loop_
 _symmetry_equiv_pos_site_id
 _symmetry_equiv_pos_as_xyz
  1  'x, y, z'
loop_
 _atom_site_type_symbol
 _atom_site_label
 _atom_site_symmetry_multiplicity
 _atom_site_fract_x
 _atom_site_fract_y
 _atom_site_fract_z
 _atom_site_occupancy
  Ba  Ba0  1  0.26836100  0.48536800  0.12429200  1
  Ba  Ba1  1  0.76836100  0.51463200  0.37570800  1
  Ba  Ba2  1  0.73163900  0.51463200  0.87570800  1
  Ba  Ba3  1  0.23163900  0.48536800  0.62429200  1
  U  U4  1  0.00000000  0.00000000  0.00000000  1
  U  U5  1  0.50000000  0.00000000  0.50000000  1
  Cu  Cu6  1  0.00052000  0.99520100  0.36015400  1
  Cu  Cu7  1  0.50052000  0.00479900  0.13984600  1
  Cu  Cu8  1  0.99948000  0.00479900  0.63984600  1
  Cu  Cu9  1  0.49948000  0.99520100  0.86015400  1
  Cu  Cu10  1  0.25327200  0.93485400  0.26508600  1
  Cu  Cu11  1  0.75327200  0.06514600  0.23491400  1
  Cu  Cu12  1  0.74672800  0.06514600  0.73491400  1
  Cu  Cu13  1  0.24672800  0.93485400  0.76508600  1
  Se  Se14  1  0.71794500  0.88835200  0.02967200  1
  Se  Se15  1  0.21794500  0.11164800  0.47032800  1
  Se  Se16  1  0.28205500  0.11164800  0.97032800  1
  Se  Se17  1  0.78205500  0.88835200  0.52967200  1
  Se  Se18  1  0.44854500  0.71656200  0.35190000  1
  Se  Se19  1  0.94854500  0.28343800  0.14810000  1
  Se  Se20  1  0.55145500  0.28343800  0.64810000  1
  Se  Se21  1  0.05145500  0.71656200  0.85190000  1
  Se  Se22  1  0.06218500  0.71176300  0.28869600  1
  Se  Se23  1  0.56218500  0.28823700  0.21130400  1
  Se  Se24  1  0.93781500  0.28823700  0.71130400  1
  Se  Se25  1  0.43781500  0.71176300  0.78869600  1
