# generated using pymatgen
data_Sn3F8
_symmetry_space_group_name_H-M   'P 1'
_cell_length_a   5.49658000
_cell_length_b   5.49442900
_cell_length_c   13.60253288
_cell_angle_alpha   66.70069115
_cell_angle_beta   90.00000000
_cell_angle_gamma   90.00000000
_symmetry_Int_Tables_number   1
_chemical_formula_structural   Sn3F8
_chemical_formula_sum   'Sn6 F16'
_cell_volume   377.30361548
_cell_formula_units_Z   2
loop_
 _symmetry_equiv_pos_site_id
 _symmetry_equiv_pos_as_xyz
  1  'x, y, z'
loop_
 _atom_site_type_symbol
 _atom_site_label
 _atom_site_symmetry_multiplicity
 _atom_site_fract_x
 _atom_site_fract_y
 _atom_site_fract_z
 _atom_site_occupancy
  Sn  Sn0  1  0.44501900  0.37292400  0.16698900  1
  Sn  Sn1  1  0.94501900  0.62707600  0.33301100  1
  Sn  Sn2  1  0.55498100  0.62707600  0.83301100  1
  Sn  Sn3  1  0.05498100  0.37292400  0.66698900  1
  Sn  Sn4  1  0.50000000  0.00000000  0.50000000  1
  Sn  Sn5  1  0.00000000  0.00000000  0.00000000  1
  F  F6  1  0.10709000  0.41568300  0.24592900  1
  F  F7  1  0.60709000  0.58431700  0.25407100  1
  F  F8  1  0.89291000  0.58431700  0.75407100  1
  F  F9  1  0.39291000  0.41568300  0.74592900  1
  F  F10  1  0.30024500  0.32696100  0.46299800  1
  F  F11  1  0.80024500  0.67303900  0.03700200  1
  F  F12  1  0.03079200  0.01123400  0.85042500  1
  F  F13  1  0.53079200  0.98876600  0.64957500  1
  F  F14  1  0.96920800  0.98876600  0.14957500  1
  F  F15  1  0.46920800  0.01123400  0.35042500  1
  F  F16  1  0.19565300  0.77519900  0.54746200  1
  F  F17  1  0.69565300  0.22480100  0.95253800  1
  F  F18  1  0.80434700  0.22480100  0.45253800  1
  F  F19  1  0.30434700  0.77519900  0.04746200  1
  F  F20  1  0.19975500  0.32696100  0.96299800  1
  F  F21  1  0.69975500  0.67303900  0.53700200  1
