# generated using pymatgen
data_LuCrB4
_symmetry_space_group_name_H-M   'P 1'
_cell_length_a   3.39353300
_cell_length_b   5.87042500
_cell_length_c   11.34506200
_cell_angle_alpha   90.00000000
_cell_angle_beta   90.00000000
_cell_angle_gamma   90.00000000
_symmetry_Int_Tables_number   1
_chemical_formula_structural   LuCrB4
_chemical_formula_sum   'Lu4 Cr4 B16'
_cell_volume   226.01043664
_cell_formula_units_Z   4
loop_
 _symmetry_equiv_pos_site_id
 _symmetry_equiv_pos_as_xyz
  1  'x, y, z'
loop_
 _atom_site_type_symbol
 _atom_site_label
 _atom_site_symmetry_multiplicity
 _atom_site_fract_x
 _atom_site_fract_y
 _atom_site_fract_z
 _atom_site_occupancy
  Lu  Lu0  1  0.00000000  0.62583200  0.34924600  1
  Lu  Lu1  1  0.00000000  0.37416800  0.65075400  1
  Lu  Lu2  1  0.00000000  0.12583200  0.15075400  1
  Lu  Lu3  1  0.00000000  0.87416800  0.84924600  1
  Cr  Cr4  1  0.00000000  0.62357600  0.07987700  1
  Cr  Cr5  1  0.00000000  0.37642400  0.92012300  1
  Cr  Cr6  1  0.00000000  0.12357600  0.42012300  1
  Cr  Cr7  1  0.00000000  0.87642400  0.57987700  1
  B  B8  1  0.50000000  0.78357800  0.18481500  1
  B  B9  1  0.50000000  0.21642200  0.81518500  1
  B  B10  1  0.50000000  0.28357800  0.31518500  1
  B  B11  1  0.50000000  0.71642200  0.68481500  1
  B  B12  1  0.50000000  0.86495700  0.03263900  1
  B  B13  1  0.50000000  0.13504300  0.96736100  1
  B  B14  1  0.50000000  0.36495700  0.46736100  1
  B  B15  1  0.50000000  0.63504300  0.53263900  1
  B  B16  1  0.50000000  0.88574500  0.45279100  1
  B  B17  1  0.50000000  0.11425500  0.54720900  1
  B  B18  1  0.50000000  0.38574500  0.04720900  1
  B  B19  1  0.50000000  0.61425500  0.95279100  1
  B  B20  1  0.50000000  0.97606100  0.30741200  1
  B  B21  1  0.50000000  0.02393900  0.69258800  1
  B  B22  1  0.50000000  0.47606100  0.19258800  1
  B  B23  1  0.50000000  0.52393900  0.80741200  1
