# generated using pymatgen
data_TiW
_symmetry_space_group_name_H-M   'P 1'
_cell_length_a   2.78894442
_cell_length_b   2.78894442
_cell_length_c   4.45421700
_cell_angle_alpha   90.00000000
_cell_angle_beta   90.00000000
_cell_angle_gamma   110.48986275
_symmetry_Int_Tables_number   1
_chemical_formula_structural   TiW
_chemical_formula_sum   'Ti1 W1'
_cell_volume   32.45394051
_cell_formula_units_Z   1
loop_
 _symmetry_equiv_pos_site_id
 _symmetry_equiv_pos_as_xyz
  1  'x, y, z'
loop_
 _atom_site_type_symbol
 _atom_site_label
 _atom_site_symmetry_multiplicity
 _atom_site_fract_x
 _atom_site_fract_y
 _atom_site_fract_z
 _atom_site_occupancy
  Ti  Ti0  1  0.00000000  0.00000000  0.00000000  1
  W  W1  1  0.50000000  0.50000000  0.50000000  1
