# generated using pymatgen
data_Cs2La10Ru2I17
_symmetry_space_group_name_H-M   'P 1'
_cell_length_a   11.92790395
_cell_length_b   11.92790395
_cell_length_c   10.14047843
_cell_angle_alpha   86.88956555
_cell_angle_beta   86.88956555
_cell_angle_gamma   107.71069912
_symmetry_Int_Tables_number   1
_chemical_formula_structural   Cs2La10Ru2I17
_chemical_formula_sum   'Cs2 La10 Ru2 I17'
_cell_volume   1368.52866437
_cell_formula_units_Z   1
loop_
 _symmetry_equiv_pos_site_id
 _symmetry_equiv_pos_as_xyz
  1  'x, y, z'
loop_
 _atom_site_type_symbol
 _atom_site_label
 _atom_site_symmetry_multiplicity
 _atom_site_fract_x
 _atom_site_fract_y
 _atom_site_fract_z
 _atom_site_occupancy
  Cs  Cs0  1  0.67462400  0.32537600  0.00000000  1
  Cs  Cs1  1  0.32537600  0.67462400  0.00000000  1
  La  La2  1  0.70816400  0.00868000  0.42784500  1
  La  La3  1  0.29183600  0.99132000  0.57215500  1
  La  La4  1  0.99132000  0.29183600  0.57215500  1
  La  La5  1  0.00868000  0.70816400  0.42784500  1
  La  La6  1  0.66924600  0.66924600  0.55669200  1
  La  La7  1  0.33075400  0.33075400  0.44330800  1
  La  La8  1  0.93500400  0.93500400  0.67821100  1
  La  La9  1  0.06499600  0.06499600  0.32178900  1
  La  La10  1  0.79377400  0.79377400  0.18411900  1
  La  La11  1  0.20622600  0.20622600  0.81588100  1
  Ru  Ru12  1  0.85736200  0.85736200  0.42832500  1
  Ru  Ru13  1  0.14263800  0.14263800  0.57167500  1
  I  I14  1  0.61545100  0.95012700  0.13901300  1
  I  I15  1  0.38454900  0.04987300  0.86098700  1
  I  I16  1  0.04987300  0.38454900  0.86098700  1
  I  I17  1  0.95012700  0.61545100  0.13901300  1
  I  I18  1  0.52684700  0.18816700  0.42054100  1
  I  I19  1  0.47315300  0.81183300  0.57945900  1
  I  I20  1  0.81183300  0.47315300  0.57945900  1
  I  I21  1  0.18816700  0.52684700  0.42054100  1
  I  I22  1  0.56252900  0.56252900  0.28090200  1
  I  I23  1  0.43747100  0.43747100  0.71909800  1
  I  I24  1  0.24738900  0.89945000  0.27250400  1
  I  I25  1  0.75261100  0.10055000  0.72749600  1
  I  I26  1  0.10055000  0.75261100  0.72749600  1
  I  I27  1  0.89945000  0.24738900  0.27250400  1
  I  I28  1  0.28932000  0.28932000  0.13112500  1
  I  I29  1  0.71068000  0.71068000  0.86887500  1
  I  I30  1  0.00000000  0.00000000  0.00000000  1
