# generated using pymatgen
data_Co3(PO4)2
_symmetry_space_group_name_H-M   'P 1'
_cell_length_a   8.45744400
_cell_length_b   5.08594900
_cell_length_c   8.89529355
_cell_angle_alpha   59.96945492
_cell_angle_beta   90.00000000
_cell_angle_gamma   90.00000000
_symmetry_Int_Tables_number   1
_chemical_formula_structural   Co3(PO4)2
_chemical_formula_sum   'Co6 P4 O16'
_cell_volume   331.25946282
_cell_formula_units_Z   2
loop_
 _symmetry_equiv_pos_site_id
 _symmetry_equiv_pos_as_xyz
  1  'x, y, z'
loop_
 _atom_site_type_symbol
 _atom_site_label
 _atom_site_symmetry_multiplicity
 _atom_site_fract_x
 _atom_site_fract_y
 _atom_site_fract_z
 _atom_site_occupancy
  Co  Co0  1  0.85769300  0.02110900  0.38973800  1
  Co  Co1  1  0.64230700  0.02110900  0.88973800  1
  Co  Co2  1  0.00000000  0.00000000  0.00000000  1
  Co  Co3  1  0.35769300  0.97889100  0.11026200  1
  Co  Co4  1  0.14230700  0.97889100  0.61026200  1
  Co  Co5  1  0.50000000  0.00000000  0.50000000  1
  P  P6  1  0.19105800  0.33717000  0.19721500  1
  P  P7  1  0.30894200  0.33717000  0.69721500  1
  P  P8  1  0.80894200  0.66283000  0.80278500  1
  P  P9  1  0.69105800  0.66283000  0.30278500  1
  O  O10  1  0.57775300  0.81167000  0.14313500  1
  O  O11  1  0.92224700  0.81167000  0.64313500  1
  O  O12  1  0.36270600  0.26895100  0.55374000  1
  O  O13  1  0.30739600  0.68475600  0.62543100  1
  O  O14  1  0.86270600  0.73104900  0.94626000  1
  O  O15  1  0.35869500  0.19077800  0.25216100  1
  O  O16  1  0.64130500  0.80922200  0.74783900  1
  O  O17  1  0.13729400  0.26895100  0.05374000  1
  O  O18  1  0.69260400  0.31524400  0.37456900  1
  O  O19  1  0.42224700  0.18833000  0.85686500  1
  O  O20  1  0.07775300  0.18833000  0.35686500  1
  O  O21  1  0.14130500  0.19077800  0.75216100  1
  O  O22  1  0.63729400  0.73104900  0.44626000  1
  O  O23  1  0.80739600  0.31524400  0.87456900  1
  O  O24  1  0.19260400  0.68475600  0.12543100  1
  O  O25  1  0.85869500  0.80922200  0.24783900  1
