# generated using pymatgen
data_Rb4FeO4
_symmetry_space_group_name_H-M   'P 1'
_cell_length_a   6.86861800
_cell_length_b   10.88933400
_cell_length_c   11.22330702
_cell_angle_alpha   69.58491254
_cell_angle_beta   90.00000000
_cell_angle_gamma   90.00000000
_symmetry_Int_Tables_number   1
_chemical_formula_structural   Rb4FeO4
_chemical_formula_sum   'Rb16 Fe4 O16'
_cell_volume   786.71829554
_cell_formula_units_Z   4
loop_
 _symmetry_equiv_pos_site_id
 _symmetry_equiv_pos_as_xyz
  1  'x, y, z'
loop_
 _atom_site_type_symbol
 _atom_site_label
 _atom_site_symmetry_multiplicity
 _atom_site_fract_x
 _atom_site_fract_y
 _atom_site_fract_z
 _atom_site_occupancy
  Rb  Rb0  1  0.68694100  0.28578200  0.08784800  1
  Rb  Rb1  1  0.18036600  0.39749800  0.12253000  1
  Rb  Rb2  1  0.38291500  0.07371800  0.34200600  1
  Rb  Rb3  1  0.81305900  0.78578200  0.08784800  1
  Rb  Rb4  1  0.31963400  0.89749800  0.12253000  1
  Rb  Rb5  1  0.91617300  0.20450800  0.43522200  1
  Rb  Rb6  1  0.11708500  0.57371800  0.34200600  1
  Rb  Rb7  1  0.41617300  0.29549200  0.56477800  1
  Rb  Rb8  1  0.58382700  0.70450800  0.43522200  1
  Rb  Rb9  1  0.88291500  0.42628200  0.65799400  1
  Rb  Rb10  1  0.08382700  0.79549200  0.56477800  1
  Rb  Rb11  1  0.68036600  0.10250200  0.87747000  1
  Rb  Rb12  1  0.18694100  0.21421800  0.91215200  1
  Rb  Rb13  1  0.61708500  0.92628200  0.65799400  1
  Rb  Rb14  1  0.81963400  0.60250200  0.87747000  1
  Rb  Rb15  1  0.31305900  0.71421800  0.91215200  1
  Fe  Fe16  1  0.62411100  0.48683900  0.26075100  1
  Fe  Fe17  1  0.87588900  0.98683900  0.26075100  1
  Fe  Fe18  1  0.12411100  0.01316100  0.73924900  1
  Fe  Fe19  1  0.37588900  0.51316100  0.73924900  1
  O  O20  1  0.03840900  0.12654900  0.17617200  1
  O  O21  1  0.83742500  0.51109100  0.15379700  1
  O  O22  1  0.47221700  0.33832500  0.29853700  1
  O  O23  1  0.46159100  0.62654900  0.17617200  1
  O  O24  1  0.66257500  0.01109100  0.15379700  1
  O  O25  1  0.73793100  0.46417700  0.41459200  1
  O  O26  1  0.23793100  0.03582300  0.58540800  1
  O  O27  1  0.02778300  0.83832500  0.29853700  1
  O  O28  1  0.97221700  0.16167500  0.70146300  1
  O  O29  1  0.76206900  0.96417700  0.41459200  1
  O  O30  1  0.26206900  0.53582300  0.58540800  1
  O  O31  1  0.33742500  0.98890900  0.84620300  1
  O  O32  1  0.53840900  0.37345100  0.82382800  1
  O  O33  1  0.52778300  0.66167500  0.70146300  1
  O  O34  1  0.16257500  0.48890900  0.84620300  1
  O  O35  1  0.96159100  0.87345100  0.82382800  1
