# generated using pymatgen
data_Pr2Ni5B4
_symmetry_space_group_name_H-M   'P 1'
_cell_length_a   5.54788683
_cell_length_b   5.54788683
_cell_length_c   6.81422129
_cell_angle_alpha   58.93186744
_cell_angle_beta   58.93186744
_cell_angle_gamma   55.09036733
_symmetry_Int_Tables_number   1
_chemical_formula_structural   Pr2Ni5B4
_chemical_formula_sum   'Pr2 Ni5 B4'
_cell_volume   139.86006599
_cell_formula_units_Z   1
loop_
 _symmetry_equiv_pos_site_id
 _symmetry_equiv_pos_as_xyz
  1  'x, y, z'
loop_
 _atom_site_type_symbol
 _atom_site_label
 _atom_site_symmetry_multiplicity
 _atom_site_fract_x
 _atom_site_fract_y
 _atom_site_fract_z
 _atom_site_occupancy
  Pr  Pr0  1  0.27417400  0.27417400  0.64901500  1
  Pr  Pr1  1  0.72582600  0.72582600  0.35098500  1
  Ni  Ni2  1  0.17643900  0.67245600  0.87224300  1
  Ni  Ni3  1  0.67245600  0.17643900  0.87224300  1
  Ni  Ni4  1  0.82356100  0.32754400  0.12775700  1
  Ni  Ni5  1  0.32754400  0.82356100  0.12775700  1
  Ni  Ni6  1  0.00000000  0.00000000  0.50000000  1
  B  B7  1  0.77903300  0.77903300  0.84042300  1
  B  B8  1  0.22096700  0.22096700  0.15957700  1
  B  B9  1  0.40087300  0.40087300  0.13867400  1
  B  B10  1  0.59912700  0.59912700  0.86132600  1
