# generated using pymatgen
data_KNbWO6
_symmetry_space_group_name_H-M   'P 1'
_cell_length_a   7.45641767
_cell_length_b   7.45641767
_cell_length_c   7.45641767
_cell_angle_alpha   120.11011374
_cell_angle_beta   120.06184874
_cell_angle_gamma   89.85114562
_symmetry_Int_Tables_number   1
_chemical_formula_structural   KNbWO6
_chemical_formula_sum   'K2 Nb2 W2 O12'
_cell_volume   292.75830185
_cell_formula_units_Z   2
loop_
 _symmetry_equiv_pos_site_id
 _symmetry_equiv_pos_as_xyz
  1  'x, y, z'
loop_
 _atom_site_type_symbol
 _atom_site_label
 _atom_site_symmetry_multiplicity
 _atom_site_fract_x
 _atom_site_fract_y
 _atom_site_fract_z
 _atom_site_occupancy
  K  K0  1  0.59491600  0.41687300  0.32195700  1
  K  K1  1  0.40508400  0.72704100  0.82195700  1
  Nb  Nb2  1  0.50000000  0.01027700  0.51027700  1
  Nb  Nb3  1  0.00000000  0.01027700  0.01027700  1
  W  W4  1  0.99568000  0.00397500  0.50829500  1
  W  W5  1  0.00432000  0.51261400  0.00829500  1
  O  O6  1  0.68474400  0.92644900  0.74170600  1
  O  O7  1  0.05838700  0.30676100  0.74837400  1
  O  O8  1  0.06126600  0.31426000  0.11875900  1
  O  O9  1  0.69252600  0.93271800  0.37104700  1
  O  O10  1  0.06167100  0.93271800  0.74019200  1
  O  O11  1  0.69550100  0.31426000  0.75299500  1
  O  O12  1  0.31525600  0.05696200  0.24170600  1
  O  O13  1  0.94161300  0.68998700  0.24837400  1
  O  O14  1  0.93832900  0.67852000  0.87104700  1
  O  O15  1  0.30449900  0.05749400  0.61875900  1
  O  O16  1  0.93873400  0.05749400  0.25299500  1
  O  O17  1  0.30747400  0.67852000  0.24019200  1
