# generated using pymatgen
data_Th2Si3Rh
_symmetry_space_group_name_H-M   'P 1'
_cell_length_a   7.72204879
_cell_length_b   7.72204879
_cell_length_c   7.72204879
_cell_angle_alpha   149.42216223
_cell_angle_beta   148.09314103
_cell_angle_gamma   44.77750878
_symmetry_Int_Tables_number   1
_chemical_formula_structural   Th2Si3Rh
_chemical_formula_sum   'Th2 Si3 Rh1'
_cell_volume   123.42817331
_cell_formula_units_Z   1
loop_
 _symmetry_equiv_pos_site_id
 _symmetry_equiv_pos_as_xyz
  1  'x, y, z'
loop_
 _atom_site_type_symbol
 _atom_site_label
 _atom_site_symmetry_multiplicity
 _atom_site_fract_x
 _atom_site_fract_y
 _atom_site_fract_z
 _atom_site_occupancy
  Th  Th0  1  0.75239800  0.25239800  0.50000000  1
  Th  Th1  1  0.99961100  0.99961100  0.00000000  1
  Si  Si2  1  0.58390800  0.58390800  0.00000000  1
  Si  Si3  1  0.33117600  0.83117600  0.50000000  1
  Si  Si4  1  0.41772700  0.41772700  0.00000000  1
  Rh  Rh5  1  0.16518000  0.66518000  0.50000000  1
