# generated using pymatgen
data_Eu(CoGe)2
_symmetry_space_group_name_H-M   'P 1'
_cell_length_a   5.95846172
_cell_length_b   5.95846172
_cell_length_c   5.95846172
_cell_angle_alpha   140.72683259
_cell_angle_beta   140.72683259
_cell_angle_gamma   56.75135198
_symmetry_Int_Tables_number   1
_chemical_formula_structural   Eu(CoGe)2
_chemical_formula_sum   'Eu1 Co2 Ge2'
_cell_volume   84.07887169
_cell_formula_units_Z   1
loop_
 _symmetry_equiv_pos_site_id
 _symmetry_equiv_pos_as_xyz
  1  'x, y, z'
loop_
 _atom_site_type_symbol
 _atom_site_label
 _atom_site_symmetry_multiplicity
 _atom_site_fract_x
 _atom_site_fract_y
 _atom_site_fract_z
 _atom_site_occupancy
  Eu  Eu0  1  0.00000000  0.00000000  0.00000000  1
  Co  Co1  1  0.75000000  0.25000000  0.50000000  1
  Co  Co2  1  0.25000000  0.75000000  0.50000000  1
  Ge  Ge3  1  0.36524500  0.36524500  0.00000000  1
  Ge  Ge4  1  0.63475500  0.63475500  0.00000000  1
