# generated using pymatgen
data_Hf6CCl14
_symmetry_space_group_name_H-M   'P 1'
_cell_length_a   9.54613908
_cell_length_b   9.54613908
_cell_length_c   11.54281100
_cell_angle_alpha   90.00000000
_cell_angle_beta   90.00000000
_cell_angle_gamma   95.26226548
_symmetry_Int_Tables_number   1
_chemical_formula_structural   Hf6CCl14
_chemical_formula_sum   'Hf12 C2 Cl28'
_cell_volume   1047.44883351
_cell_formula_units_Z   2
loop_
 _symmetry_equiv_pos_site_id
 _symmetry_equiv_pos_as_xyz
  1  'x, y, z'
loop_
 _atom_site_type_symbol
 _atom_site_label
 _atom_site_symmetry_multiplicity
 _atom_site_fract_x
 _atom_site_fract_y
 _atom_site_fract_z
 _atom_site_occupancy
  Hf  Hf0  1  0.95330700  0.18245300  0.11629700  1
  Hf  Hf1  1  0.04669300  0.81754700  0.88370300  1
  Hf  Hf2  1  0.54669300  0.31754700  0.61629700  1
  Hf  Hf3  1  0.68245300  0.45330700  0.38370300  1
  Hf  Hf4  1  0.45330700  0.68245300  0.38370300  1
  Hf  Hf5  1  0.31754700  0.54669300  0.61629700  1
  Hf  Hf6  1  0.81754700  0.04669300  0.88370300  1
  Hf  Hf7  1  0.18245300  0.95330700  0.11629700  1
  Hf  Hf8  1  0.35687700  0.35687700  0.39645600  1
  Hf  Hf9  1  0.64312300  0.64312300  0.60354400  1
  Hf  Hf10  1  0.14312300  0.14312300  0.89645600  1
  Hf  Hf11  1  0.85687700  0.85687700  0.10354400  1
  C  C12  1  0.00000000  0.00000000  0.00000000  1
  C  C13  1  0.50000000  0.50000000  0.50000000  1
  Cl  Cl14  1  0.28719000  0.53465200  0.25442700  1
  Cl  Cl15  1  0.71281000  0.46534800  0.74557300  1
  Cl  Cl16  1  0.21281000  0.96534800  0.75442700  1
  Cl  Cl17  1  0.03465200  0.78719000  0.24557300  1
  Cl  Cl18  1  0.78719000  0.03465200  0.24557300  1
  Cl  Cl19  1  0.96534800  0.21281000  0.75442700  1
  Cl  Cl20  1  0.46534800  0.71281000  0.74557300  1
  Cl  Cl21  1  0.53465200  0.28719000  0.25442700  1
  Cl  Cl22  1  0.11501200  0.36176100  0.01012200  1
  Cl  Cl23  1  0.88498800  0.63823900  0.98987800  1
  Cl  Cl24  1  0.38498800  0.13823900  0.51012200  1
  Cl  Cl25  1  0.86176100  0.61501200  0.48987800  1
  Cl  Cl26  1  0.61501200  0.86176100  0.48987800  1
  Cl  Cl27  1  0.13823900  0.38498800  0.51012200  1
  Cl  Cl28  1  0.63823900  0.88498800  0.98987800  1
  Cl  Cl29  1  0.36176100  0.11501200  0.01012200  1
  Cl  Cl30  1  0.89735400  0.39735400  0.25000000  1
  Cl  Cl31  1  0.10264600  0.60264600  0.75000000  1
  Cl  Cl32  1  0.60264600  0.10264600  0.75000000  1
  Cl  Cl33  1  0.39735400  0.89735400  0.25000000  1
  Cl  Cl34  1  0.75001500  0.24998500  0.00000000  1
  Cl  Cl35  1  0.24998500  0.75001500  0.00000000  1
  Cl  Cl36  1  0.74998500  0.25001500  0.50000000  1
  Cl  Cl37  1  0.25001500  0.74998500  0.50000000  1
  Cl  Cl38  1  0.15291000  0.15291000  0.26270600  1
  Cl  Cl39  1  0.84709000  0.84709000  0.73729400  1
  Cl  Cl40  1  0.34709000  0.34709000  0.76270600  1
  Cl  Cl41  1  0.65291000  0.65291000  0.23729400  1
