# generated using pymatgen
data_YbP5O14
_symmetry_space_group_name_H-M   'P 1'
_cell_length_a   9.26586317
_cell_length_b   9.26586317
_cell_length_c   12.85977938
_cell_angle_alpha   88.45953349
_cell_angle_beta   88.45953349
_cell_angle_gamma   89.12004207
_symmetry_Int_Tables_number   1
_chemical_formula_structural   YbP5O14
_chemical_formula_sum   'Yb4 P20 O56'
_cell_volume   1103.17580043
_cell_formula_units_Z   4
loop_
 _symmetry_equiv_pos_site_id
 _symmetry_equiv_pos_as_xyz
  1  'x, y, z'
loop_
 _atom_site_type_symbol
 _atom_site_label
 _atom_site_symmetry_multiplicity
 _atom_site_fract_x
 _atom_site_fract_y
 _atom_site_fract_z
 _atom_site_occupancy
  Yb  Yb0  1  0.46334500  0.53665500  0.25000000  1
  Yb  Yb1  1  0.53665500  0.46334500  0.75000000  1
  Yb  Yb2  1  0.01798500  0.98201500  0.25000000  1
  Yb  Yb3  1  0.98201500  0.01798500  0.75000000  1
  P  P4  1  0.68277400  0.02428800  0.11305600  1
  P  P5  1  0.97571200  0.31722600  0.38694300  1
  P  P6  1  0.31722600  0.97571200  0.88694300  1
  P  P7  1  0.02428800  0.68277400  0.61305700  1
  P  P8  1  0.42690500  0.93794900  0.24423100  1
  P  P9  1  0.06205100  0.57309500  0.25576900  1
  P  P10  1  0.57309500  0.06205100  0.75576900  1
  P  P11  1  0.93794900  0.42690500  0.74423100  1
  P  P12  1  0.62992800  0.32589800  0.03244600  1
  P  P13  1  0.67410200  0.37007200  0.46755400  1
  P  P14  1  0.37007200  0.67410200  0.96755400  1
  P  P15  1  0.32589800  0.62992800  0.53244600  1
  P  P16  1  0.45420400  0.18639400  0.38734000  1
  P  P17  1  0.81360600  0.54579600  0.11266000  1
  P  P18  1  0.54579600  0.81360600  0.61266000  1
  P  P19  1  0.18639400  0.45420400  0.88734000  1
  P  P20  1  0.17613000  0.12007100  0.49116200  1
  P  P21  1  0.87992900  0.82387000  0.00883800  1
  P  P22  1  0.82387000  0.87992900  0.50883800  1
  P  P23  1  0.12007100  0.17613000  0.99116200  1
  O  O24  1  0.71973400  0.89315800  0.03901500  1
  O  O25  1  0.10684200  0.28026600  0.46098500  1
  O  O26  1  0.28026600  0.10684200  0.96098500  1
  O  O27  1  0.89315800  0.71973400  0.53901500  1
  O  O28  1  0.77788600  0.03849100  0.20158300  1
  O  O29  1  0.96150900  0.22211400  0.29841700  1
  O  O30  1  0.22211400  0.96150900  0.79841700  1
  O  O31  1  0.03849100  0.77788600  0.70158300  1
  O  O32  1  0.60140100  0.21261200  0.44347000  1
  O  O33  1  0.78738800  0.39859900  0.05653000  1
  O  O34  1  0.39859900  0.78738800  0.55653000  1
  O  O35  1  0.21261200  0.60140100  0.94347000  1
  O  O36  1  0.52747800  0.35404800  0.12153900  1
  O  O37  1  0.64595200  0.47252200  0.37846100  1
  O  O38  1  0.47252200  0.64595200  0.87846100  1
  O  O39  1  0.35404800  0.52747800  0.62153900  1
  O  O40  1  0.14310300  0.01505000  0.40872600  1
  O  O41  1  0.98495000  0.85689700  0.09127400  1
  O  O42  1  0.85689700  0.98495000  0.59127400  1
  O  O43  1  0.40995200  0.63511700  0.07624000  1
  O  O44  1  0.01505000  0.14310300  0.90872600  1
  O  O45  1  0.08141900  0.13868100  0.10149700  1
  O  O46  1  0.13868100  0.08141900  0.60149700  1
  O  O47  1  0.91858100  0.86131900  0.89850300  1
  O  O48  1  0.30057900  0.40287200  0.81519000  1
  O  O49  1  0.59712800  0.69942100  0.68481000  1
  O  O50  1  0.69942100  0.59712800  0.18481000  1
  O  O51  1  0.40287200  0.30057900  0.31519000  1
  O  O52  1  0.15663300  0.34684500  0.98472500  1
  O  O53  1  0.65315500  0.84336700  0.51527500  1
  O  O54  1  0.84336700  0.65315500  0.01527500  1
  O  O55  1  0.34684500  0.15663300  0.48472500  1
  O  O56  1  0.97350500  0.27251100  0.72430200  1
  O  O57  1  0.72748900  0.02649500  0.77569800  1
  O  O58  1  0.02649500  0.72748900  0.27569800  1
  O  O59  1  0.27251100  0.97350500  0.22430200  1
  O  O60  1  0.03369400  0.48637600  0.83912600  1
  O  O61  1  0.51362400  0.96630600  0.66087400  1
  O  O62  1  0.96630600  0.51362400  0.16087400  1
  O  O63  1  0.48637600  0.03369400  0.33912600  1
  O  O64  1  0.15708000  0.68107700  0.53219200  1
  O  O65  1  0.31892300  0.84292000  0.96780800  1
  O  O66  1  0.84292000  0.31892300  0.46780800  1
  O  O67  1  0.68107700  0.15708000  0.03219200  1
  O  O68  1  0.00435800  0.51716100  0.64257000  1
  O  O69  1  0.48283900  0.99564200  0.85743000  1
  O  O70  1  0.99564200  0.48283900  0.35743000  1
  O  O71  1  0.51716100  0.00435800  0.14257000  1
  O  O72  1  0.78733500  0.47609300  0.76720600  1
  O  O73  1  0.52390700  0.21266500  0.73279400  1
  O  O74  1  0.21266500  0.52390700  0.23279400  1
  O  O75  1  0.47609300  0.78733500  0.26720600  1
  O  O76  1  0.63511700  0.40995200  0.57624000  1
  O  O77  1  0.59004800  0.36488300  0.92376000  1
  O  O78  1  0.36488300  0.59004800  0.42376000  1
  O  O79  1  0.86131900  0.91858100  0.39850300  1
