# generated using pymatgen
data_Sm4Ge9Ir13
_symmetry_space_group_name_H-M   'P 1'
_cell_length_a   4.04619500
_cell_length_b   11.34498200
_cell_length_c   19.61540400
_cell_angle_alpha   90.00000000
_cell_angle_beta   90.00000000
_cell_angle_gamma   90.00000000
_symmetry_Int_Tables_number   1
_chemical_formula_structural   Sm4Ge9Ir13
_chemical_formula_sum   'Sm8 Ge18 Ir26'
_cell_volume   900.42569045
_cell_formula_units_Z   2
loop_
 _symmetry_equiv_pos_site_id
 _symmetry_equiv_pos_as_xyz
  1  'x, y, z'
loop_
 _atom_site_type_symbol
 _atom_site_label
 _atom_site_symmetry_multiplicity
 _atom_site_fract_x
 _atom_site_fract_y
 _atom_site_fract_z
 _atom_site_occupancy
  Sm  Sm0  1  0.50000000  0.80906400  0.29200300  1
  Sm  Sm1  1  0.50000000  0.19093600  0.29200300  1
  Sm  Sm2  1  0.00000000  0.69093600  0.70799700  1
  Sm  Sm3  1  0.00000000  0.30906400  0.70799700  1
  Sm  Sm4  1  0.50000000  0.00000000  0.47805700  1
  Sm  Sm5  1  0.00000000  0.50000000  0.52194300  1
  Sm  Sm6  1  0.50000000  0.50000000  0.98035000  1
  Sm  Sm7  1  0.00000000  0.00000000  0.01965000  1
  Ge  Ge8  1  0.50000000  0.31230700  0.58107700  1
  Ge  Ge9  1  0.50000000  0.68769300  0.58107700  1
  Ge  Ge10  1  0.00000000  0.18769300  0.41892300  1
  Ge  Ge11  1  0.00000000  0.81230700  0.41892300  1
  Ge  Ge12  1  0.50000000  0.81865800  0.08454000  1
  Ge  Ge13  1  0.50000000  0.18134200  0.08454000  1
  Ge  Ge14  1  0.00000000  0.68134200  0.91546000  1
  Ge  Ge15  1  0.00000000  0.31865800  0.91546000  1
  Ge  Ge16  1  0.50000000  0.87103000  0.76958600  1
  Ge  Ge17  1  0.50000000  0.12897000  0.76958600  1
  Ge  Ge18  1  0.00000000  0.62897000  0.23041400  1
  Ge  Ge19  1  0.00000000  0.37103000  0.23041400  1
  Ge  Ge20  1  0.50000000  0.00000000  0.89871500  1
  Ge  Ge21  1  0.00000000  0.50000000  0.10128500  1
  Ge  Ge22  1  0.50000000  0.50000000  0.76724700  1
  Ge  Ge23  1  0.00000000  0.00000000  0.23275300  1
  Ge  Ge24  1  0.50000000  0.50000000  0.39892500  1
  Ge  Ge25  1  0.00000000  0.00000000  0.60107500  1
  Ir  Ir26  1  0.50000000  0.29917000  0.45340900  1
  Ir  Ir27  1  0.50000000  0.70083000  0.45340900  1
  Ir  Ir28  1  0.00000000  0.20083000  0.54659100  1
  Ir  Ir29  1  0.00000000  0.79917000  0.54659100  1
  Ir  Ir30  1  0.50000000  0.31666000  0.83664300  1
  Ir  Ir31  1  0.50000000  0.68334000  0.83664300  1
  Ir  Ir32  1  0.00000000  0.18334000  0.16335700  1
  Ir  Ir33  1  0.00000000  0.81666000  0.16335700  1
  Ir  Ir34  1  0.50000000  0.37309800  0.14544700  1
  Ir  Ir35  1  0.50000000  0.62690200  0.14544700  1
  Ir  Ir36  1  0.00000000  0.12690200  0.85455300  1
  Ir  Ir37  1  0.00000000  0.87309800  0.85455300  1
  Ir  Ir38  1  0.50000000  0.80819600  0.95980500  1
  Ir  Ir39  1  0.50000000  0.19180400  0.95980500  1
  Ir  Ir40  1  0.00000000  0.69180400  0.04019500  1
  Ir  Ir41  1  0.00000000  0.30819600  0.04019500  1
  Ir  Ir42  1  0.50000000  0.87739700  0.64216200  1
  Ir  Ir43  1  0.50000000  0.12260300  0.64216200  1
  Ir  Ir44  1  0.00000000  0.62260300  0.35783800  1
  Ir  Ir45  1  0.00000000  0.37739700  0.35783800  1
  Ir  Ir46  1  0.50000000  0.00000000  0.15706700  1
  Ir  Ir47  1  0.00000000  0.50000000  0.84293300  1
  Ir  Ir48  1  0.50000000  0.50000000  0.64194500  1
  Ir  Ir49  1  0.00000000  0.00000000  0.35805500  1
  Ir  Ir50  1  0.50000000  0.50000000  0.27261600  1
  Ir  Ir51  1  0.00000000  0.00000000  0.72738400  1
