# generated using pymatgen
data_Cs2Hg6S7
_symmetry_space_group_name_H-M   'P 1'
_cell_length_a   14.35970700
_cell_length_b   14.35970700
_cell_length_c   4.26229200
_cell_angle_alpha   90.00000000
_cell_angle_beta   90.00000000
_cell_angle_gamma   90.00000000
_symmetry_Int_Tables_number   1
_chemical_formula_structural   Cs2Hg6S7
_chemical_formula_sum   'Cs4 Hg12 S14'
_cell_volume   878.88966175
_cell_formula_units_Z   2
loop_
 _symmetry_equiv_pos_site_id
 _symmetry_equiv_pos_as_xyz
  1  'x, y, z'
loop_
 _atom_site_type_symbol
 _atom_site_label
 _atom_site_symmetry_multiplicity
 _atom_site_fract_x
 _atom_site_fract_y
 _atom_site_fract_z
 _atom_site_occupancy
  Cs  Cs0  1  0.17035600  0.82964400  0.72198300  1
  Cs  Cs1  1  0.67035600  0.67035600  0.22198300  1
  Cs  Cs2  1  0.32964400  0.32964400  0.22198300  1
  Cs  Cs3  1  0.82964400  0.17035600  0.72198300  1
  Hg  Hg4  1  0.90207300  0.90207300  0.31500200  1
  Hg  Hg5  1  0.40207300  0.59792700  0.81500200  1
  Hg  Hg6  1  0.59792700  0.40207300  0.81500200  1
  Hg  Hg7  1  0.09792700  0.09792700  0.31500200  1
  Hg  Hg8  1  0.15448800  0.57163100  0.22333200  1
  Hg  Hg9  1  0.84551200  0.42836900  0.22333200  1
  Hg  Hg10  1  0.92836900  0.65448800  0.72333200  1
  Hg  Hg11  1  0.07163100  0.34551200  0.72333200  1
  Hg  Hg12  1  0.42836900  0.84551200  0.22333200  1
  Hg  Hg13  1  0.34551200  0.07163100  0.72333200  1
  Hg  Hg14  1  0.65448800  0.92836900  0.72333200  1
  Hg  Hg15  1  0.57163100  0.15448800  0.22333200  1
  S  S16  1  0.81849400  0.81849400  0.71154500  1
  S  S17  1  0.31849400  0.68150600  0.21154500  1
  S  S18  1  0.68150600  0.31849400  0.21154500  1
  S  S19  1  0.18150600  0.18150600  0.71154500  1
  S  S20  1  0.50000000  0.50000000  0.49682800  1
  S  S21  1  0.00000000  0.00000000  0.99682800  1
  S  S22  1  0.02442400  0.69072300  0.22348600  1
  S  S23  1  0.97557600  0.30927700  0.22348600  1
  S  S24  1  0.80927700  0.52442400  0.72348600  1
  S  S25  1  0.19072300  0.47557600  0.72348600  1
  S  S26  1  0.30927700  0.97557600  0.22348600  1
  S  S27  1  0.47557600  0.19072300  0.72348600  1
  S  S28  1  0.69072300  0.02442400  0.22348600  1
  S  S29  1  0.52442400  0.80927700  0.72348600  1
