# generated using pymatgen
data_Li(BH)6
_symmetry_space_group_name_H-M   'P 1'
_cell_length_a   9.63968100
_cell_length_b   9.63968100
_cell_length_c   9.63968100
_cell_angle_alpha   90.00000000
_cell_angle_beta   90.00000000
_cell_angle_gamma   90.00000000
_symmetry_Int_Tables_number   1
_chemical_formula_structural   Li(BH)6
_chemical_formula_sum   'Li8 B48 H48'
_cell_volume   895.75241332
_cell_formula_units_Z   8
loop_
 _symmetry_equiv_pos_site_id
 _symmetry_equiv_pos_as_xyz
  1  'x, y, z'
loop_
 _atom_site_type_symbol
 _atom_site_label
 _atom_site_symmetry_multiplicity
 _atom_site_fract_x
 _atom_site_fract_y
 _atom_site_fract_z
 _atom_site_occupancy
  Li  Li0  1  0.85901500  0.14098500  0.64098500  1
  Li  Li1  1  0.14098500  0.64098500  0.85901500  1
  Li  Li2  1  0.64098500  0.85901500  0.14098500  1
  Li  Li3  1  0.35901500  0.35901500  0.35901500  1
  Li  Li4  1  0.14098500  0.85901500  0.35901500  1
  Li  Li5  1  0.85901500  0.35901500  0.14098500  1
  Li  Li6  1  0.35901500  0.14098500  0.85901500  1
  Li  Li7  1  0.64098500  0.64098500  0.64098500  1
  B  B8  1  0.37895000  0.40973900  0.91164600  1
  B  B9  1  0.62105000  0.90973900  0.58835400  1
  B  B10  1  0.12105000  0.59026100  0.41164600  1
  B  B11  1  0.87895000  0.09026100  0.08835400  1
  B  B12  1  0.91164600  0.37895000  0.40973900  1
  B  B13  1  0.58835400  0.62105000  0.90973900  1
  B  B14  1  0.41164600  0.12105000  0.59026100  1
  B  B15  1  0.08835400  0.87895000  0.09026100  1
  B  B16  1  0.40973900  0.91164600  0.37895000  1
  B  B17  1  0.90973900  0.58835400  0.62105000  1
  B  B18  1  0.59026100  0.41164600  0.12105000  1
  B  B19  1  0.09026100  0.08835400  0.87895000  1
  B  B20  1  0.62105000  0.59026100  0.08835400  1
  B  B21  1  0.37895000  0.09026100  0.41164600  1
  B  B22  1  0.87895000  0.40973900  0.58835400  1
  B  B23  1  0.12105000  0.90973900  0.91164600  1
  B  B24  1  0.08835400  0.62105000  0.59026100  1
  B  B25  1  0.41164600  0.37895000  0.09026100  1
  B  B26  1  0.58835400  0.87895000  0.40973900  1
  B  B27  1  0.91164600  0.12105000  0.90973900  1
  B  B28  1  0.59026100  0.08835400  0.62105000  1
  B  B29  1  0.09026100  0.41164600  0.37895000  1
  B  B30  1  0.40973900  0.58835400  0.87895000  1
  B  B31  1  0.90973900  0.91164600  0.12105000  1
  B  B32  1  0.66751600  0.46361500  0.96252200  1
  B  B33  1  0.33248400  0.96361500  0.53747800  1
  B  B34  1  0.83248400  0.53638500  0.46252200  1
  B  B35  1  0.16751600  0.03638500  0.03747800  1
  B  B36  1  0.96252200  0.66751600  0.46361500  1
  B  B37  1  0.53747800  0.33248400  0.96361500  1
  B  B38  1  0.46252200  0.83248400  0.53638500  1
  B  B39  1  0.03747800  0.16751600  0.03638500  1
  B  B40  1  0.46361500  0.96252200  0.66751600  1
  B  B41  1  0.96361500  0.53747800  0.33248400  1
  B  B42  1  0.53638500  0.46252200  0.83248400  1
  B  B43  1  0.03638500  0.03747800  0.16751600  1
  B  B44  1  0.33248400  0.53638500  0.03747800  1
  B  B45  1  0.66751600  0.03638500  0.46252200  1
  B  B46  1  0.16751600  0.46361500  0.53747800  1
  B  B47  1  0.83248400  0.96361500  0.96252200  1
  B  B48  1  0.03747800  0.33248400  0.53638500  1
  B  B49  1  0.46252200  0.66751600  0.03638500  1
  B  B50  1  0.53747800  0.16751600  0.46361500  1
  B  B51  1  0.96252200  0.83248400  0.96361500  1
  B  B52  1  0.53638500  0.03747800  0.33248400  1
  B  B53  1  0.03638500  0.46252200  0.66751600  1
  B  B54  1  0.46361500  0.53747800  0.16751600  1
  B  B55  1  0.96361500  0.96252200  0.83248400  1
  H  H56  1  0.29216200  0.34683600  0.84750900  1
  H  H57  1  0.70783800  0.84683600  0.65249100  1
  H  H58  1  0.20783800  0.65316400  0.34750900  1
  H  H59  1  0.79216200  0.15316400  0.15249100  1
  H  H60  1  0.84750900  0.29216200  0.34683600  1
  H  H61  1  0.65249100  0.70783800  0.84683600  1
  H  H62  1  0.34750900  0.20783800  0.65316400  1
  H  H63  1  0.15249100  0.79216200  0.15316400  1
  H  H64  1  0.34683600  0.84750900  0.29216200  1
  H  H65  1  0.84683600  0.65249100  0.70783800  1
  H  H66  1  0.65316400  0.34750900  0.20783800  1
  H  H67  1  0.15316400  0.15249100  0.79216200  1
  H  H68  1  0.70783800  0.65316400  0.15249100  1
  H  H69  1  0.29216200  0.15316400  0.34750900  1
  H  H70  1  0.79216200  0.34683600  0.65249100  1
  H  H71  1  0.20783800  0.84683600  0.84750900  1
  H  H72  1  0.15249100  0.70783800  0.65316400  1
  H  H73  1  0.34750900  0.29216200  0.15316400  1
  H  H74  1  0.65249100  0.79216200  0.34683600  1
  H  H75  1  0.84750900  0.20783800  0.84683600  1
  H  H76  1  0.65316400  0.15249100  0.70783800  1
  H  H77  1  0.15316400  0.34750900  0.29216200  1
  H  H78  1  0.34683600  0.65249100  0.79216200  1
  H  H79  1  0.84683600  0.84750900  0.20783800  1
  H  H80  1  0.78723300  0.43925700  0.93508600  1
  H  H81  1  0.21276700  0.93925700  0.56491400  1
  H  H82  1  0.71276700  0.56074300  0.43508600  1
  H  H83  1  0.28723300  0.06074300  0.06491400  1
  H  H84  1  0.93508600  0.78723300  0.43925700  1
  H  H85  1  0.56491400  0.21276700  0.93925700  1
  H  H86  1  0.43508600  0.71276700  0.56074300  1
  H  H87  1  0.06491400  0.28723300  0.06074300  1
  H  H88  1  0.43925700  0.93508600  0.78723300  1
  H  H89  1  0.93925700  0.56491400  0.21276700  1
  H  H90  1  0.56074300  0.43508600  0.71276700  1
  H  H91  1  0.06074300  0.06491400  0.28723300  1
  H  H92  1  0.21276700  0.56074300  0.06491400  1
  H  H93  1  0.78723300  0.06074300  0.43508600  1
  H  H94  1  0.28723300  0.43925700  0.56491400  1
  H  H95  1  0.71276700  0.93925700  0.93508600  1
  H  H96  1  0.06491400  0.21276700  0.56074300  1
  H  H97  1  0.43508600  0.78723300  0.06074300  1
  H  H98  1  0.56491400  0.28723300  0.43925700  1
  H  H99  1  0.93508600  0.71276700  0.93925700  1
  H  H100  1  0.56074300  0.06491400  0.21276700  1
  H  H101  1  0.06074300  0.43508600  0.78723300  1
  H  H102  1  0.43925700  0.56491400  0.28723300  1
  H  H103  1  0.93925700  0.93508600  0.71276700  1
