# generated using pymatgen
data_Ta4CoNi
_symmetry_space_group_name_H-M   'P 1'
_cell_length_a   5.00718866
_cell_length_b   5.00718866
_cell_length_c   5.00718866
_cell_angle_alpha   103.93795766
_cell_angle_beta   103.93795766
_cell_angle_gamma   121.21546379
_symmetry_Int_Tables_number   1
_chemical_formula_structural   Ta4CoNi
_chemical_formula_sum   'Ta4 Co1 Ni1'
_cell_volume   93.54481593
_cell_formula_units_Z   1
loop_
 _symmetry_equiv_pos_site_id
 _symmetry_equiv_pos_as_xyz
  1  'x, y, z'
loop_
 _atom_site_type_symbol
 _atom_site_label
 _atom_site_symmetry_multiplicity
 _atom_site_fract_x
 _atom_site_fract_y
 _atom_site_fract_z
 _atom_site_occupancy
  Ta  Ta0  1  0.40941200  0.90941200  0.81882500  1
  Ta  Ta1  1  0.09058800  0.59058800  0.18117500  1
  Ta  Ta2  1  0.59058800  0.40941200  0.50000000  1
  Ta  Ta3  1  0.90941200  0.09058800  0.50000000  1
  Co  Co4  1  0.50000000  0.50000000  0.00000000  1
  Ni  Ni5  1  0.00000000  0.00000000  0.00000000  1
