# generated using pymatgen
data_FeNiSb6
_symmetry_space_group_name_H-M   'P 1'
_cell_length_a   7.89922987
_cell_length_b   7.89922987
_cell_length_c   9.12883578
_cell_angle_alpha   54.82613968
_cell_angle_beta   54.82613968
_cell_angle_gamma   70.61025269
_symmetry_Int_Tables_number   1
_chemical_formula_structural   FeNiSb6
_chemical_formula_sum   'Fe2 Ni2 Sb12'
_cell_volume   380.59443899
_cell_formula_units_Z   2
loop_
 _symmetry_equiv_pos_site_id
 _symmetry_equiv_pos_as_xyz
  1  'x, y, z'
loop_
 _atom_site_type_symbol
 _atom_site_label
 _atom_site_symmetry_multiplicity
 _atom_site_fract_x
 _atom_site_fract_y
 _atom_site_fract_z
 _atom_site_occupancy
  Fe  Fe0  1  0.00000000  0.50000000  0.00000000  1
  Fe  Fe1  1  0.50000000  0.00000000  0.00000000  1
  Ni  Ni2  1  0.50000000  0.00000000  0.50000000  1
  Ni  Ni3  1  0.00000000  0.50000000  0.50000000  1
  Sb  Sb4  1  0.67037700  0.67037700  0.16827700  1
  Sb  Sb5  1  0.32962300  0.32962300  0.83172300  1
  Sb  Sb6  1  0.66157000  0.66157000  0.49576400  1
  Sb  Sb7  1  0.33843000  0.33843000  0.50423600  1
  Sb  Sb8  1  0.84522800  0.16375600  0.33012800  1
  Sb  Sb9  1  0.15477200  0.83624400  0.66987200  1
  Sb  Sb10  1  0.16375600  0.84522800  0.33012800  1
  Sb  Sb11  1  0.83624400  0.15477200  0.66987200  1
  Sb  Sb12  1  0.49353900  0.82431800  0.84480000  1
  Sb  Sb13  1  0.50646100  0.17568200  0.15520000  1
  Sb  Sb14  1  0.17568200  0.50646100  0.15520000  1
  Sb  Sb15  1  0.82431800  0.49353900  0.84480000  1
