# generated using pymatgen
data_NaSmCu2F8
_symmetry_space_group_name_H-M   'P 1'
_cell_length_a   6.52087342
_cell_length_b   6.52087342
_cell_length_c   6.52087342
_cell_angle_alpha   130.15600253
_cell_angle_beta   130.15600253
_cell_angle_gamma   73.15749206
_symmetry_Int_Tables_number   1
_chemical_formula_structural   NaSmCu2F8
_chemical_formula_sum   'Na1 Sm1 Cu2 F8'
_cell_volume   158.15025151
_cell_formula_units_Z   1
loop_
 _symmetry_equiv_pos_site_id
 _symmetry_equiv_pos_as_xyz
  1  'x, y, z'
loop_
 _atom_site_type_symbol
 _atom_site_label
 _atom_site_symmetry_multiplicity
 _atom_site_fract_x
 _atom_site_fract_y
 _atom_site_fract_z
 _atom_site_occupancy
  Na  Na0  1  0.50000000  0.50000000  0.00000000  1
  Sm  Sm1  1  0.00000000  0.00000000  0.00000000  1
  Cu  Cu2  1  0.75000000  0.25000000  0.50000000  1
  Cu  Cu3  1  0.25000000  0.75000000  0.50000000  1
  F  F4  1  0.43659900  0.29155700  0.48217500  1
  F  F5  1  0.80938200  0.95442300  0.51782500  1
  F  F6  1  0.29155700  0.80938200  0.85495800  1
  F  F7  1  0.19061800  0.70844300  0.14504200  1
  F  F8  1  0.95442300  0.43659900  0.14504200  1
  F  F9  1  0.56340100  0.04557700  0.85495800  1
  F  F10  1  0.04557700  0.19061800  0.48217500  1
  F  F11  1  0.70844300  0.56340100  0.51782500  1
