# generated using pymatgen
data_NaAg3S2
_symmetry_space_group_name_H-M   'P 1'
_cell_length_a   8.89062327
_cell_length_b   8.89062327
_cell_length_c   8.89062327
_cell_angle_alpha   60.00000000
_cell_angle_beta   60.00000000
_cell_angle_gamma   60.00000000
_symmetry_Int_Tables_number   1
_chemical_formula_structural   NaAg3S2
_chemical_formula_sum   'Na4 Ag12 S8'
_cell_volume   496.91444913
_cell_formula_units_Z   4
loop_
 _symmetry_equiv_pos_site_id
 _symmetry_equiv_pos_as_xyz
  1  'x, y, z'
loop_
 _atom_site_type_symbol
 _atom_site_label
 _atom_site_symmetry_multiplicity
 _atom_site_fract_x
 _atom_site_fract_y
 _atom_site_fract_z
 _atom_site_occupancy
  Na  Na0  1  0.62500000  0.62500000  0.12500000  1
  Na  Na1  1  0.62500000  0.12500000  0.62500000  1
  Na  Na2  1  0.12500000  0.62500000  0.62500000  1
  Na  Na3  1  0.62500000  0.62500000  0.62500000  1
  Ag  Ag4  1  0.07854600  0.42145400  0.42145400  1
  Ag  Ag5  1  0.82854600  0.17145400  0.17145400  1
  Ag  Ag6  1  0.42145400  0.07854600  0.42145400  1
  Ag  Ag7  1  0.42145400  0.42145400  0.07854600  1
  Ag  Ag8  1  0.07854600  0.07854600  0.42145400  1
  Ag  Ag9  1  0.07854600  0.42145400  0.07854600  1
  Ag  Ag10  1  0.17145400  0.82854600  0.82854600  1
  Ag  Ag11  1  0.82854600  0.82854600  0.17145400  1
  Ag  Ag12  1  0.17145400  0.17145400  0.82854600  1
  Ag  Ag13  1  0.17145400  0.82854600  0.17145400  1
  Ag  Ag14  1  0.82854600  0.17145400  0.82854600  1
  Ag  Ag15  1  0.42145400  0.07854600  0.07854600  1
  S  S16  1  0.86198300  0.86198300  0.41405000  1
  S  S17  1  0.38801700  0.38801700  0.38801700  1
  S  S18  1  0.41405000  0.86198300  0.86198300  1
  S  S19  1  0.86198300  0.41405000  0.86198300  1
  S  S20  1  0.38801700  0.38801700  0.83595000  1
  S  S21  1  0.38801700  0.83595000  0.38801700  1
  S  S22  1  0.83595000  0.38801700  0.38801700  1
  S  S23  1  0.86198300  0.86198300  0.86198300  1
