# generated using pymatgen
data_Cs2W3SeO12
_symmetry_space_group_name_H-M   'P 1'
_cell_length_a   7.36012800
_cell_length_b   7.36012815
_cell_length_c   13.16243100
_cell_angle_alpha   90.00000000
_cell_angle_beta   90.00000000
_cell_angle_gamma   119.99999931
_symmetry_Int_Tables_number   1
_chemical_formula_structural   Cs2W3SeO12
_chemical_formula_sum   'Cs4 W6 Se2 O24'
_cell_volume   617.50074476
_cell_formula_units_Z   2
loop_
 _symmetry_equiv_pos_site_id
 _symmetry_equiv_pos_as_xyz
  1  'x, y, z'
loop_
 _atom_site_type_symbol
 _atom_site_label
 _atom_site_symmetry_multiplicity
 _atom_site_fract_x
 _atom_site_fract_y
 _atom_site_fract_z
 _atom_site_occupancy
  Cs  Cs0  1  0.66666700  0.33333300  0.22129800  1
  Cs  Cs1  1  0.33333300  0.66666700  0.09463100  1
  Cs  Cs2  1  0.33333300  0.66666700  0.72129800  1
  Cs  Cs3  1  0.66666700  0.33333300  0.59463100  1
  W  W4  1  0.81239200  0.66158500  0.89457200  1
  W  W5  1  0.15080700  0.81239200  0.39457200  1
  W  W6  1  0.18760800  0.33841500  0.39457200  1
  W  W7  1  0.66158500  0.84919300  0.39457200  1
  W  W8  1  0.84919300  0.18760800  0.89457200  1
  W  W9  1  0.33841500  0.15080700  0.89457200  1
  Se  Se10  1  0.00000000  0.00000000  0.67686800  1
  Se  Se11  1  0.00000000  0.00000000  0.17686800  1
  O  O12  1  0.87716500  0.12652800  0.73168800  1
  O  O13  1  0.75063700  0.87716500  0.23168800  1
  O  O14  1  0.12652800  0.24936300  0.23168800  1
  O  O15  1  0.87347200  0.75063700  0.73168800  1
  O  O16  1  0.24936300  0.12283500  0.73168800  1
  O  O17  1  0.12283500  0.87347200  0.23168800  1
  O  O18  1  0.91034700  0.45903300  0.85501100  1
  O  O19  1  0.45131400  0.91034700  0.35501100  1
  O  O20  1  0.45903300  0.54868600  0.35501100  1
  O  O21  1  0.54096700  0.45131400  0.85501100  1
  O  O22  1  0.54868600  0.08965300  0.85501100  1
  O  O23  1  0.08965300  0.54096700  0.35501100  1
  O  O24  1  0.87228600  0.75234600  0.40201900  1
  O  O25  1  0.11994000  0.87228600  0.90201900  1
  O  O26  1  0.75234600  0.88006000  0.90201900  1
  O  O27  1  0.24765400  0.11994000  0.40201900  1
  O  O28  1  0.88006000  0.12771400  0.40201900  1
  O  O29  1  0.12771400  0.24765400  0.90201900  1
  O  O30  1  0.19113000  0.79666700  0.52471100  1
  O  O31  1  0.39446300  0.19113000  0.02471100  1
  O  O32  1  0.79666700  0.60553700  0.02471100  1
  O  O33  1  0.20333300  0.39446300  0.52471100  1
  O  O34  1  0.60553700  0.80887000  0.52471100  1
  O  O35  1  0.80887000  0.20333300  0.02471100  1
