# generated using pymatgen
data_SmGeRh
_symmetry_space_group_name_H-M   'P 1'
_cell_length_a   4.44310000
_cell_length_b   7.05778500
_cell_length_c   7.56353300
_cell_angle_alpha   90.00000000
_cell_angle_beta   90.00000000
_cell_angle_gamma   90.00000000
_symmetry_Int_Tables_number   1
_chemical_formula_structural   SmGeRh
_chemical_formula_sum   'Sm4 Ge4 Rh4'
_cell_volume   237.18063006
_cell_formula_units_Z   4
loop_
 _symmetry_equiv_pos_site_id
 _symmetry_equiv_pos_as_xyz
  1  'x, y, z'
loop_
 _atom_site_type_symbol
 _atom_site_label
 _atom_site_symmetry_multiplicity
 _atom_site_fract_x
 _atom_site_fract_y
 _atom_site_fract_z
 _atom_site_occupancy
  Sm  Sm0  1  0.25000000  0.98484900  0.29885100  1
  Sm  Sm1  1  0.25000000  0.48484900  0.20114900  1
  Sm  Sm2  1  0.75000000  0.01515100  0.70114900  1
  Sm  Sm3  1  0.75000000  0.51515100  0.79885100  1
  Ge  Ge4  1  0.25000000  0.31488000  0.58316700  1
  Ge  Ge5  1  0.25000000  0.81488000  0.91683300  1
  Ge  Ge6  1  0.75000000  0.68512000  0.41683300  1
  Ge  Ge7  1  0.75000000  0.18512000  0.08316700  1
  Rh  Rh8  1  0.25000000  0.69999600  0.58853900  1
  Rh  Rh9  1  0.25000000  0.19999600  0.91146100  1
  Rh  Rh10  1  0.75000000  0.30000400  0.41146100  1
  Rh  Rh11  1  0.75000000  0.80000400  0.08853900  1
