# generated using pymatgen
data_Th6MnBr15
_symmetry_space_group_name_H-M   'P 1'
_cell_length_a   10.16507710
_cell_length_b   10.16507710
_cell_length_c   10.16507710
_cell_angle_alpha   109.47122063
_cell_angle_beta   109.47122063
_cell_angle_gamma   109.47122063
_symmetry_Int_Tables_number   1
_chemical_formula_structural   Th6MnBr15
_chemical_formula_sum   'Th6 Mn1 Br15'
_cell_volume   808.55606721
_cell_formula_units_Z   1
loop_
 _symmetry_equiv_pos_site_id
 _symmetry_equiv_pos_as_xyz
  1  'x, y, z'
loop_
 _atom_site_type_symbol
 _atom_site_label
 _atom_site_symmetry_multiplicity
 _atom_site_fract_x
 _atom_site_fract_y
 _atom_site_fract_z
 _atom_site_occupancy
  Th  Th0  1  0.00000000  0.23819500  0.23819500  1
  Th  Th1  1  0.00000000  0.76180500  0.76180500  1
  Th  Th2  1  0.23819500  0.00000000  0.23819500  1
  Th  Th3  1  0.76180500  0.00000000  0.76180500  1
  Th  Th4  1  0.23819500  0.23819500  0.00000000  1
  Th  Th5  1  0.76180500  0.76180500  0.00000000  1
  Mn  Mn6  1  0.00000000  0.00000000  0.00000000  1
  Br  Br7  1  0.49854100  0.24927100  0.24927100  1
  Br  Br8  1  0.50145900  0.75072900  0.75072900  1
  Br  Br9  1  0.00000000  0.24927100  0.75072900  1
  Br  Br10  1  0.00000000  0.75072900  0.24927100  1
  Br  Br11  1  0.24927100  0.49854100  0.24927100  1
  Br  Br12  1  0.75072900  0.00000000  0.24927100  1
  Br  Br13  1  0.75072900  0.50145900  0.75072900  1
  Br  Br14  1  0.24927100  0.00000000  0.75072900  1
  Br  Br15  1  0.24927100  0.24927100  0.49854100  1
  Br  Br16  1  0.75072900  0.75072900  0.50145900  1
  Br  Br17  1  0.75072900  0.24927100  0.00000000  1
  Br  Br18  1  0.24927100  0.75072900  0.00000000  1
  Br  Br19  1  0.00000000  0.50000000  0.50000000  1
  Br  Br20  1  0.50000000  0.00000000  0.50000000  1
  Br  Br21  1  0.50000000  0.50000000  0.00000000  1
