# generated using pymatgen
data_HfNiAs
_symmetry_space_group_name_H-M   'P 1'
_cell_length_a   3.86170400
_cell_length_b   6.45593100
_cell_length_c   7.28926500
_cell_angle_alpha   90.00000000
_cell_angle_beta   90.00000000
_cell_angle_gamma   90.00000000
_symmetry_Int_Tables_number   1
_chemical_formula_structural   HfNiAs
_chemical_formula_sum   'Hf4 Ni4 As4'
_cell_volume   181.72789718
_cell_formula_units_Z   4
loop_
 _symmetry_equiv_pos_site_id
 _symmetry_equiv_pos_as_xyz
  1  'x, y, z'
loop_
 _atom_site_type_symbol
 _atom_site_label
 _atom_site_symmetry_multiplicity
 _atom_site_fract_x
 _atom_site_fract_y
 _atom_site_fract_z
 _atom_site_occupancy
  Hf  Hf0  1  0.25000000  0.48844000  0.18890600  1
  Hf  Hf1  1  0.75000000  0.51156000  0.81109400  1
  Hf  Hf2  1  0.75000000  0.01156000  0.68890600  1
  Hf  Hf3  1  0.25000000  0.98844000  0.31109400  1
  Ni  Ni4  1  0.25000000  0.82917600  0.92252500  1
  Ni  Ni5  1  0.75000000  0.17082400  0.07747500  1
  Ni  Ni6  1  0.75000000  0.67082400  0.42252500  1
  Ni  Ni7  1  0.25000000  0.32917600  0.57747500  1
  As  As8  1  0.25000000  0.71455600  0.60312100  1
  As  As9  1  0.75000000  0.28544400  0.39687900  1
  As  As10  1  0.75000000  0.78544400  0.10312100  1
  As  As11  1  0.25000000  0.21455600  0.89687900  1
