# generated using pymatgen
data_K3In(PO4)2
_symmetry_space_group_name_H-M   'P 1'
_cell_length_a   9.79693400
_cell_length_b   9.83868381
_cell_length_c   9.90309427
_cell_angle_alpha   89.52461583
_cell_angle_beta   89.38547181
_cell_angle_gamma   71.22405322
_symmetry_Int_Tables_number   1
_chemical_formula_structural   K3In(PO4)2
_chemical_formula_sum   'K12 In4 P8 O32'
_cell_volume   903.68808452
_cell_formula_units_Z   4
loop_
 _symmetry_equiv_pos_site_id
 _symmetry_equiv_pos_as_xyz
  1  'x, y, z'
loop_
 _atom_site_type_symbol
 _atom_site_label
 _atom_site_symmetry_multiplicity
 _atom_site_fract_x
 _atom_site_fract_y
 _atom_site_fract_z
 _atom_site_occupancy
  K  K0  1  0.60921300  0.38686400  0.74477800  1
  K  K1  1  0.39659000  0.60201100  0.24982000  1
  K  K2  1  0.12443100  0.87212500  0.74410900  1
  K  K3  1  0.86119300  0.13257900  0.26190400  1
  K  K4  1  0.36330400  0.14449300  0.70350300  1
  K  K5  1  0.87074500  0.60999300  0.81057500  1
  K  K6  1  0.62382600  0.86118000  0.28615500  1
  K  K7  1  0.13730500  0.37272700  0.19969400  1
  K  K8  1  0.73189000  0.92341700  0.60801400  1
  K  K9  1  0.19191000  0.97847000  0.40818600  1
  K  K10  1  0.02440300  0.80582400  0.09458300  1
  K  K11  1  0.97198000  0.19375400  0.90137500  1
  In  In12  1  0.23619100  0.51473400  0.57778500  1
  In  In13  1  0.48508500  0.76440500  0.92155200  1
  In  In14  1  0.76659100  0.48495100  0.42179000  1
  In  In15  1  0.51318000  0.23526300  0.07831500  1
  P  P16  1  0.00565000  0.29756700  0.56825400  1
  P  P17  1  0.70325700  0.99584300  0.93248100  1
  P  P18  1  0.99749000  0.70202600  0.43071700  1
  P  P19  1  0.29560900  0.00348400  0.06764900  1
  P  P20  1  0.46411700  0.73475900  0.58086100  1
  P  P21  1  0.26598400  0.53830200  0.91923100  1
  P  P22  1  0.53836900  0.26525000  0.41890100  1
  P  P23  1  0.73497000  0.46184900  0.08048400  1
  O  O24  1  0.13396400  0.35202700  0.60183500  1
  O  O25  1  0.65258900  0.86631800  0.89264400  1
  O  O26  1  0.86316700  0.65548700  0.39999000  1
  O  O27  1  0.34687700  0.13334300  0.10220900  1
  O  O28  1  0.42462100  0.89757900  0.56496300  1
  O  O29  1  0.10291300  0.58197900  0.93725500  1
  O  O30  1  0.58462200  0.10229500  0.43456100  1
  O  O31  1  0.89806500  0.41814800  0.06119400  1
  O  O32  1  0.04028700  0.14456800  0.62577300  1
  O  O33  1  0.85682600  0.96681800  0.87578500  1
  O  O34  1  0.97052900  0.85372300  0.37251400  1
  O  O35  1  0.14222400  0.03130500  0.12449300  1
  O  O36  1  0.53600000  0.68244300  0.72006600  1
  O  O37  1  0.31775100  0.46721200  0.77941900  1
  O  O38  1  0.46404100  0.31501000  0.27984200  1
  O  O39  1  0.68462700  0.53392000  0.22010500  1
  O  O40  1  0.32300000  0.69404300  0.56255000  1
  O  O41  1  0.30800600  0.67820400  0.93715000  1
  O  O42  1  0.67493700  0.31301300  0.43353200  1
  O  O43  1  0.69137100  0.32253600  0.06335000  1
  O  O44  1  0.57360800  0.65687300  0.46872300  1
  O  O45  1  0.34443200  0.42925900  0.03102700  1
  O  O46  1  0.42905500  0.34254000  0.53184900  1
  O  O47  1  0.65552500  0.57141500  0.96922900  1
  O  O48  1  0.86117900  0.40493900  0.62786700  1
  O  O49  1  0.59332600  0.13899200  0.87427200  1
  O  O50  1  0.14011100  0.59146200  0.37192800  1
  O  O51  1  0.40496600  0.86014200  0.12689800  1
  O  O52  1  0.97934700  0.30328100  0.41061800  1
  O  O53  1  0.69673900  0.01954000  0.09004800  1
  O  O54  1  0.02186700  0.69658900  0.58884700  1
  O  O55  1  0.30254500  0.97732600  0.90995200  1
