# generated using pymatgen
data_TaVP
_symmetry_space_group_name_H-M   'P 1'
_cell_length_a   3.40832600
_cell_length_b   6.39951200
_cell_length_c   7.70189100
_cell_angle_alpha   90.00000000
_cell_angle_beta   90.00000000
_cell_angle_gamma   90.00000000
_symmetry_Int_Tables_number   1
_chemical_formula_structural   TaVP
_chemical_formula_sum   'Ta4 V4 P4'
_cell_volume   167.99074393
_cell_formula_units_Z   4
loop_
 _symmetry_equiv_pos_site_id
 _symmetry_equiv_pos_as_xyz
  1  'x, y, z'
loop_
 _atom_site_type_symbol
 _atom_site_label
 _atom_site_symmetry_multiplicity
 _atom_site_fract_x
 _atom_site_fract_y
 _atom_site_fract_z
 _atom_site_occupancy
  Ta  Ta0  1  0.25000000  0.53618900  0.16852300  1
  Ta  Ta1  1  0.75000000  0.46381100  0.83147700  1
  Ta  Ta2  1  0.75000000  0.96381100  0.66852300  1
  Ta  Ta3  1  0.25000000  0.03618900  0.33147700  1
  V  V4  1  0.25000000  0.63948900  0.55848700  1
  V  V5  1  0.75000000  0.36051100  0.44151300  1
  V  V6  1  0.75000000  0.86051100  0.05848700  1
  V  V7  1  0.25000000  0.13948900  0.94151300  1
  P  P8  1  0.25000000  0.76351200  0.86007200  1
  P  P9  1  0.75000000  0.23648800  0.13992800  1
  P  P10  1  0.75000000  0.73648800  0.36007200  1
  P  P11  1  0.25000000  0.26351200  0.63992800  1
