# generated using pymatgen
data_EuP3
_symmetry_space_group_name_H-M   'P 1'
_cell_length_a   5.77276093
_cell_length_b   5.77276093
_cell_length_c   5.51623798
_cell_angle_alpha   72.40621065
_cell_angle_beta   72.40621065
_cell_angle_gamma   77.64977870
_symmetry_Int_Tables_number   1
_chemical_formula_structural   EuP3
_chemical_formula_sum   'Eu2 P6'
_cell_volume   165.50648358
_cell_formula_units_Z   2
loop_
 _symmetry_equiv_pos_site_id
 _symmetry_equiv_pos_as_xyz
  1  'x, y, z'
loop_
 _atom_site_type_symbol
 _atom_site_label
 _atom_site_symmetry_multiplicity
 _atom_site_fract_x
 _atom_site_fract_y
 _atom_site_fract_z
 _atom_site_occupancy
  Eu  Eu0  1  0.16424400  0.16424400  0.65560800  1
  Eu  Eu1  1  0.83575600  0.83575600  0.34439200  1
  P  P2  1  0.90137200  0.37647900  0.18587000  1
  P  P3  1  0.37647900  0.90137200  0.18587000  1
  P  P4  1  0.09862800  0.62352100  0.81413000  1
  P  P5  1  0.62352100  0.09862800  0.81413000  1
  P  P6  1  0.50451600  0.50451600  0.20487500  1
  P  P7  1  0.49548400  0.49548400  0.79512500  1
