# generated using pymatgen
data_LaSmS2
_symmetry_space_group_name_H-M   'P 1'
_cell_length_a   7.12882726
_cell_length_b   7.12882726
_cell_length_c   7.12882693
_cell_angle_alpha   33.11443720
_cell_angle_beta   33.11443720
_cell_angle_gamma   33.11443092
_symmetry_Int_Tables_number   1
_chemical_formula_structural   LaSmS2
_chemical_formula_sum   'La1 Sm1 S2'
_cell_volume   96.24227183
_cell_formula_units_Z   1
loop_
 _symmetry_equiv_pos_site_id
 _symmetry_equiv_pos_as_xyz
  1  'x, y, z'
loop_
 _atom_site_type_symbol
 _atom_site_label
 _atom_site_symmetry_multiplicity
 _atom_site_fract_x
 _atom_site_fract_y
 _atom_site_fract_z
 _atom_site_occupancy
  La  La0  1  0.00000000  0.00000000  0.00000000  1
  Sm  Sm1  1  0.50000000  0.50000000  0.50000000  1
  S  S2  1  0.24638500  0.24638500  0.24638500  1
  S  S3  1  0.75361500  0.75361500  0.75361500  1
