# generated using pymatgen
data_SrGaBO4
_symmetry_space_group_name_H-M   'P 1'
_cell_length_a   5.98272300
_cell_length_b   9.11968000
_cell_length_c   15.55476500
_cell_angle_alpha   90.00000000
_cell_angle_beta   90.00000000
_cell_angle_gamma   90.00000000
_symmetry_Int_Tables_number   1
_chemical_formula_structural   SrGaBO4
_chemical_formula_sum   'Sr8 Ga8 B8 O32'
_cell_volume   848.67605581
_cell_formula_units_Z   8
loop_
 _symmetry_equiv_pos_site_id
 _symmetry_equiv_pos_as_xyz
  1  'x, y, z'
loop_
 _atom_site_type_symbol
 _atom_site_label
 _atom_site_symmetry_multiplicity
 _atom_site_fract_x
 _atom_site_fract_y
 _atom_site_fract_z
 _atom_site_occupancy
  Sr  Sr0  1  0.50261200  0.57390600  0.62067300  1
  Sr  Sr1  1  0.50261200  0.42609400  0.37932700  1
  Sr  Sr2  1  0.49738800  0.92609400  0.12067300  1
  Sr  Sr3  1  0.49738800  0.07390600  0.87932700  1
  Sr  Sr4  1  0.99700100  0.21321100  0.02136600  1
  Sr  Sr5  1  0.99700100  0.78678900  0.97863400  1
  Sr  Sr6  1  0.00299900  0.28678900  0.52136600  1
  Sr  Sr7  1  0.00299900  0.71321100  0.47863400  1
  Ga  Ga8  1  0.74675600  0.46182200  0.84555400  1
  Ga  Ga9  1  0.74675600  0.53817800  0.15444600  1
  Ga  Ga10  1  0.25324400  0.03817800  0.34555400  1
  Ga  Ga11  1  0.25324400  0.96182200  0.65444600  1
  Ga  Ga12  1  0.24748300  0.46355200  0.84647400  1
  Ga  Ga13  1  0.24748300  0.53644800  0.15352600  1
  Ga  Ga14  1  0.75251700  0.03644800  0.34647400  1
  Ga  Ga15  1  0.75251700  0.96355200  0.65352600  1
  B  B16  1  0.00023300  0.51974100  0.68685000  1
  B  B17  1  0.00023300  0.48025900  0.31315000  1
  B  B18  1  0.99976700  0.98025900  0.18685000  1
  B  B19  1  0.99976700  0.01974100  0.81315000  1
  B  B20  1  0.50234000  0.20724000  0.57579200  1
  B  B21  1  0.50234000  0.79276000  0.42420800  1
  B  B22  1  0.49766000  0.29276000  0.07579200  1
  B  B23  1  0.49766000  0.70724000  0.92420800  1
  O  O24  1  0.00293300  0.53070400  0.59901000  1
  O  O25  1  0.00293300  0.46929600  0.40099000  1
  O  O26  1  0.99706700  0.96929600  0.09901000  1
  O  O27  1  0.99706700  0.03070400  0.90099000  1
  O  O28  1  0.29379400  0.64095300  0.90543700  1
  O  O29  1  0.29379400  0.35904700  0.09456300  1
  O  O30  1  0.70620600  0.85904700  0.40543700  1
  O  O31  1  0.70620600  0.14095300  0.59456300  1
  O  O32  1  0.49648700  0.34604600  0.85396100  1
  O  O33  1  0.49648700  0.65395400  0.14603900  1
  O  O34  1  0.50351300  0.15395400  0.35396100  1
  O  O35  1  0.50351300  0.84604600  0.64603900  1
  O  O36  1  0.70042500  0.35783900  0.09808900  1
  O  O37  1  0.70042500  0.64216100  0.90191100  1
  O  O38  1  0.29957500  0.14216100  0.59808900  1
  O  O39  1  0.29957500  0.85783900  0.40191100  1
  O  O40  1  0.20314200  0.51783100  0.73119700  1
  O  O41  1  0.20314200  0.48216900  0.26880300  1
  O  O42  1  0.79685800  0.98216900  0.23119700  1
  O  O43  1  0.79685800  0.01783100  0.76880300  1
  O  O44  1  0.79539100  0.50739100  0.72920300  1
  O  O45  1  0.79539100  0.49260900  0.27079700  1
  O  O46  1  0.20460900  0.99260900  0.22920300  1
  O  O47  1  0.20460900  0.00739100  0.77079700  1
  O  O48  1  0.99704000  0.37662400  0.89176900  1
  O  O49  1  0.99704000  0.62337600  0.10823100  1
  O  O50  1  0.00296000  0.12337600  0.39176900  1
  O  O51  1  0.00296000  0.87662400  0.60823100  1
  O  O52  1  0.50100000  0.34030300  0.53433400  1
  O  O53  1  0.50100000  0.65969700  0.46566600  1
  O  O54  1  0.49900000  0.15969700  0.03433400  1
  O  O55  1  0.49900000  0.84030300  0.96566600  1
