# generated using pymatgen
data_CsHf6CCl15
_symmetry_space_group_name_H-M   'P 1'
_cell_length_a   9.86399900
_cell_length_b   14.12539300
_cell_length_c   18.74675700
_cell_angle_alpha   90.00000000
_cell_angle_beta   90.00000000
_cell_angle_gamma   90.00000000
_symmetry_Int_Tables_number   1
_chemical_formula_structural   CsHf6CCl15
_chemical_formula_sum   'Cs4 Hf24 C4 Cl60'
_cell_volume   2612.03931403
_cell_formula_units_Z   4
loop_
 _symmetry_equiv_pos_site_id
 _symmetry_equiv_pos_as_xyz
  1  'x, y, z'
loop_
 _atom_site_type_symbol
 _atom_site_label
 _atom_site_symmetry_multiplicity
 _atom_site_fract_x
 _atom_site_fract_y
 _atom_site_fract_z
 _atom_site_occupancy
  Cs  Cs0  1  0.82869200  0.24767600  0.75000000  1
  Cs  Cs1  1  0.17130800  0.75232400  0.25000000  1
  Cs  Cs2  1  0.82869200  0.75232400  0.75000000  1
  Cs  Cs3  1  0.17130800  0.24767600  0.25000000  1
  Hf  Hf4  1  0.11741800  0.50000000  0.75000000  1
  Hf  Hf5  1  0.88258200  0.50000000  0.25000000  1
  Hf  Hf6  1  0.07881500  0.00000000  0.11122700  1
  Hf  Hf7  1  0.92118500  0.00000000  0.88877300  1
  Hf  Hf8  1  0.07881500  0.00000000  0.38877300  1
  Hf  Hf9  1  0.92118500  0.00000000  0.61122700  1
  Hf  Hf10  1  0.34109100  0.38657100  0.66442500  1
  Hf  Hf11  1  0.65890900  0.61342900  0.33557500  1
  Hf  Hf12  1  0.34109100  0.61342900  0.83557500  1
  Hf  Hf13  1  0.65890900  0.38657100  0.33557500  1
  Hf  Hf14  1  0.65890900  0.38657100  0.16442500  1
  Hf  Hf15  1  0.34109100  0.61342900  0.66442500  1
  Hf  Hf16  1  0.65890900  0.61342900  0.16442500  1
  Hf  Hf17  1  0.34109100  0.38657100  0.83557500  1
  Hf  Hf18  1  0.56767200  0.50000000  0.75000000  1
  Hf  Hf19  1  0.43232800  0.50000000  0.25000000  1
  Hf  Hf20  1  0.15318800  0.11313500  0.52939400  1
  Hf  Hf21  1  0.84681200  0.88686500  0.47060600  1
  Hf  Hf22  1  0.15318800  0.88686500  0.97060600  1
  Hf  Hf23  1  0.84681200  0.11313500  0.47060600  1
  Hf  Hf24  1  0.84681200  0.11313500  0.02939400  1
  Hf  Hf25  1  0.15318800  0.88686500  0.52939400  1
  Hf  Hf26  1  0.84681200  0.88686500  0.02939400  1
  Hf  Hf27  1  0.15318800  0.11313500  0.97060600  1
  C  C28  1  0.00000000  0.00000000  0.50000000  1
  C  C29  1  0.00000000  0.00000000  0.00000000  1
  C  C30  1  0.34305800  0.50000000  0.75000000  1
  C  C31  1  0.65694200  0.50000000  0.25000000  1
  Cl  Cl32  1  0.82137900  0.00000000  0.75000000  1
  Cl  Cl33  1  0.17862100  0.00000000  0.25000000  1
  Cl  Cl34  1  0.84163300  0.50000000  0.75000000  1
  Cl  Cl35  1  0.15836700  0.50000000  0.25000000  1
  Cl  Cl36  1  0.34122500  0.50000000  0.56137400  1
  Cl  Cl37  1  0.65877500  0.50000000  0.43862600  1
  Cl  Cl38  1  0.34122500  0.50000000  0.93862600  1
  Cl  Cl39  1  0.65877500  0.50000000  0.06137400  1
  Cl  Cl40  1  0.00000000  0.24971900  0.50000000  1
  Cl  Cl41  1  0.00000000  0.75028100  0.50000000  1
  Cl  Cl42  1  0.00000000  0.75028100  0.00000000  1
  Cl  Cl43  1  0.00000000  0.24971900  0.00000000  1
  Cl  Cl44  1  0.34961100  0.24958600  0.75000000  1
  Cl  Cl45  1  0.65038900  0.75041400  0.25000000  1
  Cl  Cl46  1  0.34961100  0.75041400  0.75000000  1
  Cl  Cl47  1  0.65038900  0.24958600  0.25000000  1
  Cl  Cl48  1  0.33417000  0.24931400  0.56462500  1
  Cl  Cl49  1  0.66583000  0.75068600  0.43537500  1
  Cl  Cl50  1  0.33417000  0.75068600  0.93537500  1
  Cl  Cl51  1  0.66583000  0.24931400  0.43537500  1
  Cl  Cl52  1  0.66583000  0.24931400  0.06462500  1
  Cl  Cl53  1  0.33417000  0.75068600  0.56462500  1
  Cl  Cl54  1  0.66583000  0.75068600  0.06462500  1
  Cl  Cl55  1  0.33417000  0.24931400  0.93537500  1
  Cl  Cl56  1  0.08299800  0.12208500  0.65737500  1
  Cl  Cl57  1  0.91700200  0.87791500  0.34262500  1
  Cl  Cl58  1  0.08299800  0.87791500  0.84262500  1
  Cl  Cl59  1  0.91700200  0.12208500  0.34262500  1
  Cl  Cl60  1  0.91700200  0.12208500  0.15737500  1
  Cl  Cl61  1  0.08299800  0.87791500  0.65737500  1
  Cl  Cl62  1  0.91700200  0.87791500  0.15737500  1
  Cl  Cl63  1  0.08299800  0.12208500  0.84262500  1
  Cl  Cl64  1  0.08766300  0.37699300  0.65516900  1
  Cl  Cl65  1  0.91233700  0.62300700  0.34483100  1
  Cl  Cl66  1  0.08766300  0.62300700  0.84483100  1
  Cl  Cl67  1  0.91233700  0.37699300  0.34483100  1
  Cl  Cl68  1  0.91233700  0.37699300  0.15516900  1
  Cl  Cl69  1  0.08766300  0.62300700  0.65516900  1
  Cl  Cl70  1  0.91233700  0.62300700  0.15516900  1
  Cl  Cl71  1  0.08766300  0.37699300  0.84483100  1
  Cl  Cl72  1  0.33771500  0.00000000  0.56491600  1
  Cl  Cl73  1  0.66228500  0.00000000  0.43508400  1
  Cl  Cl74  1  0.33771500  0.00000000  0.93508400  1
  Cl  Cl75  1  0.66228500  0.00000000  0.06491600  1
  Cl  Cl76  1  0.59535100  0.37756400  0.65294500  1
  Cl  Cl77  1  0.40464900  0.62243600  0.34705500  1
  Cl  Cl78  1  0.59535100  0.62243600  0.84705500  1
  Cl  Cl79  1  0.40464900  0.37756400  0.34705500  1
  Cl  Cl80  1  0.40464900  0.37756400  0.15294500  1
  Cl  Cl81  1  0.59535100  0.62243600  0.65294500  1
  Cl  Cl82  1  0.40464900  0.62243600  0.15294500  1
  Cl  Cl83  1  0.59535100  0.37756400  0.84705500  1
  Cl  Cl84  1  0.25980900  0.12388000  0.09260600  1
  Cl  Cl85  1  0.74019100  0.87612000  0.90739400  1
  Cl  Cl86  1  0.25980900  0.87612000  0.40739400  1
  Cl  Cl87  1  0.74019100  0.12388000  0.90739400  1
  Cl  Cl88  1  0.74019100  0.12388000  0.59260600  1
  Cl  Cl89  1  0.25980900  0.87612000  0.09260600  1
  Cl  Cl90  1  0.74019100  0.87612000  0.59260600  1
  Cl  Cl91  1  0.25980900  0.12388000  0.40739400  1
