# generated using pymatgen
data_SrNp(PO4)2
_symmetry_space_group_name_H-M   'P 1'
_cell_length_a   6.97722498
_cell_length_b   6.97722498
_cell_length_c   13.39068800
_cell_angle_alpha   90.00000000
_cell_angle_beta   90.00000000
_cell_angle_gamma   99.23259073
_symmetry_Int_Tables_number   1
_chemical_formula_structural   SrNp(PO4)2
_chemical_formula_sum   'Sr4 Np4 P8 O32'
_cell_volume   643.43601981
_cell_formula_units_Z   4
loop_
 _symmetry_equiv_pos_site_id
 _symmetry_equiv_pos_as_xyz
  1  'x, y, z'
loop_
 _atom_site_type_symbol
 _atom_site_label
 _atom_site_symmetry_multiplicity
 _atom_site_fract_x
 _atom_site_fract_y
 _atom_site_fract_z
 _atom_site_occupancy
  Sr  Sr0  1  0.26894600  0.76894600  0.75000000  1
  Sr  Sr1  1  0.23105400  0.73105400  0.25000000  1
  Sr  Sr2  1  0.73105400  0.23105400  0.25000000  1
  Sr  Sr3  1  0.76894600  0.26894600  0.75000000  1
  Np  Np4  1  0.22818900  0.22818900  0.59120200  1
  Np  Np5  1  0.77181100  0.77181100  0.40879800  1
  Np  Np6  1  0.27181100  0.27181100  0.09120200  1
  Np  Np7  1  0.72818900  0.72818900  0.90879800  1
  P  P8  1  0.32017700  0.32017700  0.81719700  1
  P  P9  1  0.67982300  0.67982300  0.18280300  1
  P  P10  1  0.17982300  0.17982300  0.31719700  1
  P  P11  1  0.82017700  0.82017700  0.68280300  1
  P  P12  1  0.22716600  0.77283400  0.00000000  1
  P  P13  1  0.72716600  0.27283400  0.50000000  1
  P  P14  1  0.77283400  0.22716600  0.00000000  1
  P  P15  1  0.27283400  0.72716600  0.50000000  1
  O  O16  1  0.37889100  0.14699900  0.75759000  1
  O  O17  1  0.85300100  0.62110900  0.24241000  1
  O  O18  1  0.35300100  0.12110900  0.25759000  1
  O  O19  1  0.87889100  0.64699900  0.74241000  1
  O  O20  1  0.62110900  0.85300100  0.24241000  1
  O  O21  1  0.14699900  0.37889100  0.75759000  1
  O  O22  1  0.64699900  0.87889100  0.74241000  1
  O  O23  1  0.12110900  0.35300100  0.25759000  1
  O  O24  1  0.26605600  0.26605600  0.92653600  1
  O  O25  1  0.73394400  0.73394400  0.07346400  1
  O  O26  1  0.23394400  0.23394400  0.42653600  1
  O  O27  1  0.76605600  0.76605600  0.57346400  1
  O  O28  1  0.49175200  0.49175200  0.81234000  1
  O  O29  1  0.50824800  0.50824800  0.18766000  1
  O  O30  1  0.00824800  0.00824800  0.31234000  1
  O  O31  1  0.99175200  0.99175200  0.68766000  1
  O  O32  1  0.22620100  0.93978800  0.07690400  1
  O  O33  1  0.06021200  0.77379900  0.92309600  1
  O  O34  1  0.56021200  0.27379900  0.57690400  1
  O  O35  1  0.72620100  0.43978800  0.42309600  1
  O  O36  1  0.77379900  0.06021200  0.92309600  1
  O  O37  1  0.93978800  0.22620100  0.07690400  1
  O  O38  1  0.43978800  0.72620100  0.42309600  1
  O  O39  1  0.27379900  0.56021200  0.57690400  1
  O  O40  1  0.41407200  0.79392500  0.93566900  1
  O  O41  1  0.20607500  0.58592800  0.06433100  1
  O  O42  1  0.70607500  0.08592800  0.43566900  1
  O  O43  1  0.91407200  0.29392500  0.56433100  1
  O  O44  1  0.58592800  0.20607500  0.06433100  1
  O  O45  1  0.79392500  0.41407200  0.93566900  1
  O  O46  1  0.29392500  0.91407200  0.56433100  1
  O  O47  1  0.08592800  0.70607500  0.43566900  1
