# generated using pymatgen
data_SmGa2Ni
_symmetry_space_group_name_H-M   'P 1'
_cell_length_a   8.95607936
_cell_length_b   8.95607936
_cell_length_c   4.13498700
_cell_angle_alpha   90.00000000
_cell_angle_beta   90.00000000
_cell_angle_gamma   153.19172169
_symmetry_Int_Tables_number   1
_chemical_formula_structural   SmGa2Ni
_chemical_formula_sum   'Sm2 Ga4 Ni2'
_cell_volume   149.58664310
_cell_formula_units_Z   2
loop_
 _symmetry_equiv_pos_site_id
 _symmetry_equiv_pos_as_xyz
  1  'x, y, z'
loop_
 _atom_site_type_symbol
 _atom_site_label
 _atom_site_symmetry_multiplicity
 _atom_site_fract_x
 _atom_site_fract_y
 _atom_site_fract_z
 _atom_site_occupancy
  Sm  Sm0  1  0.64307100  0.35692900  0.50000000  1
  Sm  Sm1  1  0.35692900  0.64307100  0.50000000  1
  Ga  Ga2  1  0.79025500  0.20974500  0.00000000  1
  Ga  Ga3  1  0.20974500  0.79025500  0.00000000  1
  Ga  Ga4  1  0.00000000  0.00000000  0.50000000  1
  Ga  Ga5  1  0.50000000  0.50000000  0.00000000  1
  Ni  Ni6  1  0.92654000  0.07346000  0.00000000  1
  Ni  Ni7  1  0.07346000  0.92654000  0.00000000  1
