# generated using pymatgen
data_Th(BIr)4
_symmetry_space_group_name_H-M   'P 1'
_cell_length_a   3.96592900
_cell_length_b   7.76137600
_cell_length_c   7.76137600
_cell_angle_alpha   90.00000000
_cell_angle_beta   90.00000000
_cell_angle_gamma   90.00000000
_symmetry_Int_Tables_number   1
_chemical_formula_structural   Th(BIr)4
_chemical_formula_sum   'Th2 B8 Ir8'
_cell_volume   238.90342814
_cell_formula_units_Z   2
loop_
 _symmetry_equiv_pos_site_id
 _symmetry_equiv_pos_as_xyz
  1  'x, y, z'
loop_
 _atom_site_type_symbol
 _atom_site_label
 _atom_site_symmetry_multiplicity
 _atom_site_fract_x
 _atom_site_fract_y
 _atom_site_fract_z
 _atom_site_occupancy
  Th  Th0  1  0.25000000  0.25000000  0.25000000  1
  Th  Th1  1  0.75000000  0.75000000  0.75000000  1
  B  B2  1  0.35959300  0.90941200  0.03063300  1
  B  B3  1  0.35959300  0.59058800  0.46936700  1
  B  B4  1  0.85959300  0.53063300  0.09058800  1
  B  B5  1  0.85959300  0.96936700  0.40941200  1
  B  B6  1  0.64040700  0.09058800  0.96936700  1
  B  B7  1  0.64040700  0.40941200  0.53063300  1
  B  B8  1  0.14040700  0.46936700  0.90941200  1
  B  B9  1  0.14040700  0.03063300  0.59058800  1
  Ir  Ir10  1  0.13843300  0.41457900  0.64300000  1
  Ir  Ir11  1  0.13843300  0.08542100  0.85700000  1
  Ir  Ir12  1  0.63843300  0.14300000  0.58542100  1
  Ir  Ir13  1  0.63843300  0.35700000  0.91457900  1
  Ir  Ir14  1  0.86156700  0.58542100  0.35700000  1
  Ir  Ir15  1  0.86156700  0.91457900  0.14300000  1
  Ir  Ir16  1  0.36156700  0.85700000  0.41457900  1
  Ir  Ir17  1  0.36156700  0.64300000  0.08542100  1
