# generated using pymatgen
data_CsHo(NbBr3)6
_symmetry_space_group_name_H-M   'P 1'
_cell_length_a   9.93267982
_cell_length_b   9.93267982
_cell_length_c   18.54489500
_cell_angle_alpha   90.00000000
_cell_angle_beta   90.00000000
_cell_angle_gamma   119.99999880
_symmetry_Int_Tables_number   1
_chemical_formula_structural   CsHo(NbBr3)6
_chemical_formula_sum   'Cs2 Ho2 Nb12 Br36'
_cell_volume   1584.48410954
_cell_formula_units_Z   2
loop_
 _symmetry_equiv_pos_site_id
 _symmetry_equiv_pos_as_xyz
  1  'x, y, z'
loop_
 _atom_site_type_symbol
 _atom_site_label
 _atom_site_symmetry_multiplicity
 _atom_site_fract_x
 _atom_site_fract_y
 _atom_site_fract_z
 _atom_site_occupancy
  Cs  Cs0  1  0.33333300  0.66666700  0.75000000  1
  Cs  Cs1  1  0.66666700  0.33333300  0.25000000  1
  Ho  Ho2  1  0.66666700  0.33333300  0.75000000  1
  Ho  Ho3  1  0.33333300  0.66666700  0.25000000  1
  Nb  Nb4  1  0.85042500  0.03882400  0.56504300  1
  Nb  Nb5  1  0.14957500  0.96117600  0.43495700  1
  Nb  Nb6  1  0.96117600  0.81160100  0.56504300  1
  Nb  Nb7  1  0.85042500  0.81160100  0.93495700  1
  Nb  Nb8  1  0.03882400  0.18839900  0.43495700  1
  Nb  Nb9  1  0.14957500  0.18839900  0.06504300  1
  Nb  Nb10  1  0.18839900  0.14957500  0.56504300  1
  Nb  Nb11  1  0.96117600  0.14957500  0.93495700  1
  Nb  Nb12  1  0.81160100  0.85042500  0.43495700  1
  Nb  Nb13  1  0.03882400  0.85042500  0.06504300  1
  Nb  Nb14  1  0.18839900  0.03882400  0.93495700  1
  Nb  Nb15  1  0.81160100  0.96117600  0.06504300  1
  Br  Br16  1  0.63668600  0.08622600  0.66176000  1
  Br  Br17  1  0.36331400  0.91377400  0.33824000  1
  Br  Br18  1  0.91377400  0.55046000  0.66176000  1
  Br  Br19  1  0.63668600  0.55046000  0.83824000  1
  Br  Br20  1  0.08622600  0.44954000  0.33824000  1
  Br  Br21  1  0.36331400  0.44954000  0.16176000  1
  Br  Br22  1  0.44954000  0.36331400  0.66176000  1
  Br  Br23  1  0.91377400  0.36331400  0.83824000  1
  Br  Br24  1  0.55046000  0.63668600  0.33824000  1
  Br  Br25  1  0.08622600  0.63668600  0.16176000  1
  Br  Br26  1  0.44954000  0.08622600  0.83824000  1
  Br  Br27  1  0.55046000  0.91377400  0.16176000  1
  Br  Br28  1  0.04668400  0.23231400  0.65947100  1
  Br  Br29  1  0.95331600  0.76768600  0.34052900  1
  Br  Br30  1  0.76768600  0.81437000  0.65947100  1
  Br  Br31  1  0.04668400  0.81437000  0.84052900  1
  Br  Br32  1  0.23231400  0.18563000  0.34052900  1
  Br  Br33  1  0.95331600  0.18563000  0.15947100  1
  Br  Br34  1  0.18563000  0.95331600  0.65947100  1
  Br  Br35  1  0.76768600  0.95331600  0.84052900  1
  Br  Br36  1  0.81437000  0.04668400  0.34052900  1
  Br  Br37  1  0.23231400  0.04668400  0.15947100  1
  Br  Br38  1  0.18563000  0.23231400  0.84052900  1
  Br  Br39  1  0.81437000  0.76768600  0.15947100  1
  Br  Br40  1  0.27664100  0.41601700  0.50111100  1
  Br  Br41  1  0.72335900  0.58398300  0.49888900  1
  Br  Br42  1  0.58398300  0.86062500  0.50111100  1
  Br  Br43  1  0.27664100  0.86062500  0.99888900  1
  Br  Br44  1  0.41601700  0.13937500  0.49888900  1
  Br  Br45  1  0.72335900  0.13937500  0.00111100  1
  Br  Br46  1  0.13937500  0.72335900  0.50111100  1
  Br  Br47  1  0.58398300  0.72335900  0.99888900  1
  Br  Br48  1  0.86062500  0.27664100  0.49888900  1
  Br  Br49  1  0.41601700  0.27664100  0.00111100  1
  Br  Br50  1  0.13937500  0.41601700  0.99888900  1
  Br  Br51  1  0.86062500  0.58398300  0.00111100  1
