# generated using pymatgen
data_Ba6Na2Ta2V2O17
_symmetry_space_group_name_H-M   'P 1'
_cell_length_a   6.00097269
_cell_length_b   6.00097269
_cell_length_c   30.44647800
_cell_angle_alpha   90.00000000
_cell_angle_beta   90.00000000
_cell_angle_gamma   120.00000764
_symmetry_Int_Tables_number   1
_chemical_formula_structural   Ba6Na2Ta2V2O17
_chemical_formula_sum   'Ba12 Na4 Ta4 V4 O34'
_cell_volume   949.53496335
_cell_formula_units_Z   2
loop_
 _symmetry_equiv_pos_site_id
 _symmetry_equiv_pos_as_xyz
  1  'x, y, z'
loop_
 _atom_site_type_symbol
 _atom_site_label
 _atom_site_symmetry_multiplicity
 _atom_site_fract_x
 _atom_site_fract_y
 _atom_site_fract_z
 _atom_site_occupancy
  Ba  Ba0  1  0.33333300  0.66666700  0.18025100  1
  Ba  Ba1  1  0.66666700  0.33333300  0.81974900  1
  Ba  Ba2  1  0.66666700  0.33333300  0.68025100  1
  Ba  Ba3  1  0.33333300  0.66666700  0.31974900  1
  Ba  Ba4  1  0.00000000  0.00000000  0.00000000  1
  Ba  Ba5  1  0.00000000  0.00000000  0.50000000  1
  Ba  Ba6  1  0.33333300  0.66666700  0.59067100  1
  Ba  Ba7  1  0.66666700  0.33333300  0.40932900  1
  Ba  Ba8  1  0.66666700  0.33333300  0.09067100  1
  Ba  Ba9  1  0.33333300  0.66666700  0.90932900  1
  Ba  Ba10  1  0.00000000  0.00000000  0.25000000  1
  Ba  Ba11  1  0.00000000  0.00000000  0.75000000  1
  Na  Na12  1  0.00000000  0.00000000  0.12467700  1
  Na  Na13  1  0.00000000  0.00000000  0.87532300  1
  Na  Na14  1  0.00000000  0.00000000  0.62467700  1
  Na  Na15  1  0.00000000  0.00000000  0.37532300  1
  Ta  Ta16  1  0.33333300  0.66666700  0.70166000  1
  Ta  Ta17  1  0.66666700  0.33333300  0.29834000  1
  Ta  Ta18  1  0.66666700  0.33333300  0.20166000  1
  Ta  Ta19  1  0.33333300  0.66666700  0.79834000  1
  V  V20  1  0.33333300  0.66666700  0.05216200  1
  V  V21  1  0.66666700  0.33333300  0.94783800  1
  V  V22  1  0.66666700  0.33333300  0.55216200  1
  V  V23  1  0.33333300  0.66666700  0.44783800  1
  O  O24  1  0.33333300  0.66666700  0.50448800  1
  O  O25  1  0.66666700  0.33333300  0.49551200  1
  O  O26  1  0.66666700  0.33333300  0.00448800  1
  O  O27  1  0.33333300  0.66666700  0.99551200  1
  O  O28  1  0.17559400  0.35118700  0.66984400  1
  O  O29  1  0.82440600  0.64881300  0.33015600  1
  O  O30  1  0.64881300  0.82440600  0.66984400  1
  O  O31  1  0.82440600  0.64881300  0.16984400  1
  O  O32  1  0.35118700  0.17559400  0.33015600  1
  O  O33  1  0.17559400  0.35118700  0.83015600  1
  O  O34  1  0.17559400  0.82440600  0.66984400  1
  O  O35  1  0.35118700  0.17559400  0.16984400  1
  O  O36  1  0.82440600  0.17559400  0.33015600  1
  O  O37  1  0.64881300  0.82440600  0.83015600  1
  O  O38  1  0.82440600  0.17559400  0.16984400  1
  O  O39  1  0.17559400  0.82440600  0.83015600  1
  O  O40  1  0.51643700  0.03287400  0.25000000  1
  O  O41  1  0.48356300  0.96712600  0.75000000  1
  O  O42  1  0.96712600  0.48356300  0.25000000  1
  O  O43  1  0.03287400  0.51643700  0.75000000  1
  O  O44  1  0.51643700  0.48356300  0.25000000  1
  O  O45  1  0.48356300  0.51643700  0.75000000  1
  O  O46  1  0.17587400  0.35174900  0.07242300  1
  O  O47  1  0.82412600  0.64825100  0.92757700  1
  O  O48  1  0.64825100  0.82412600  0.07242300  1
  O  O49  1  0.82412600  0.64825100  0.57242300  1
  O  O50  1  0.35174900  0.17587400  0.92757700  1
  O  O51  1  0.17587400  0.35174900  0.42757700  1
  O  O52  1  0.17587400  0.82412600  0.07242300  1
  O  O53  1  0.35174900  0.17587400  0.57242300  1
  O  O54  1  0.82412600  0.17587400  0.92757700  1
  O  O55  1  0.64825100  0.82412600  0.42757700  1
  O  O56  1  0.82412600  0.17587400  0.57242300  1
  O  O57  1  0.17587400  0.82412600  0.42757700  1
