# generated using pymatgen
data_La12Ni6Pb
_symmetry_space_group_name_H-M   'P 1'
_cell_length_a   8.94740208
_cell_length_b   8.94740208
_cell_length_c   8.94740208
_cell_angle_alpha   109.47122063
_cell_angle_beta   109.47122063
_cell_angle_gamma   109.47122063
_symmetry_Int_Tables_number   1
_chemical_formula_structural   La12Ni6Pb
_chemical_formula_sum   'La12 Ni6 Pb1'
_cell_volume   551.40280616
_cell_formula_units_Z   1
loop_
 _symmetry_equiv_pos_site_id
 _symmetry_equiv_pos_as_xyz
  1  'x, y, z'
loop_
 _atom_site_type_symbol
 _atom_site_label
 _atom_site_symmetry_multiplicity
 _atom_site_fract_x
 _atom_site_fract_y
 _atom_site_fract_z
 _atom_site_occupancy
  La  La0  1  0.81412900  0.68939600  0.50352500  1
  La  La1  1  0.18587100  0.31060400  0.49647500  1
  La  La2  1  0.18587100  0.68939600  0.87526700  1
  La  La3  1  0.81412900  0.31060400  0.12473300  1
  La  La4  1  0.68939600  0.50352500  0.81412900  1
  La  La5  1  0.31060400  0.49647500  0.18587100  1
  La  La6  1  0.68939600  0.87526700  0.18587100  1
  La  La7  1  0.31060400  0.12473300  0.81412900  1
  La  La8  1  0.50352500  0.81412900  0.68939600  1
  La  La9  1  0.49647500  0.18587100  0.31060400  1
  La  La10  1  0.12473300  0.81412900  0.31060400  1
  La  La11  1  0.87526700  0.18587100  0.68939600  1
  Ni  Ni12  1  0.87782000  0.37782000  0.50000000  1
  Ni  Ni13  1  0.12218000  0.62218000  0.50000000  1
  Ni  Ni14  1  0.37782000  0.50000000  0.87782000  1
  Ni  Ni15  1  0.62218000  0.50000000  0.12218000  1
  Ni  Ni16  1  0.50000000  0.87782000  0.37782000  1
  Ni  Ni17  1  0.50000000  0.12218000  0.62218000  1
  Pb  Pb18  1  0.00000000  0.00000000  0.00000000  1
