# generated using pymatgen
data_K3Na(SeO4)2
_symmetry_space_group_name_H-M   'P 1'
_cell_length_a   5.98253916
_cell_length_b   5.98253916
_cell_length_c   15.41041994
_cell_angle_alpha   89.86870580
_cell_angle_beta   89.86870580
_cell_angle_gamma   59.98459397
_symmetry_Int_Tables_number   1
_chemical_formula_structural   K3Na(SeO4)2
_chemical_formula_sum   'K6 Na2 Se4 O16'
_cell_volume   477.58122358
_cell_formula_units_Z   2
loop_
 _symmetry_equiv_pos_site_id
 _symmetry_equiv_pos_as_xyz
  1  'x, y, z'
loop_
 _atom_site_type_symbol
 _atom_site_label
 _atom_site_symmetry_multiplicity
 _atom_site_fract_x
 _atom_site_fract_y
 _atom_site_fract_z
 _atom_site_occupancy
  K  K0  1  0.05280500  0.94719500  0.25000000  1
  K  K1  1  0.94719500  0.05280500  0.75000000  1
  K  K2  1  0.69532800  0.64389400  0.40694700  1
  K  K3  1  0.35610600  0.30467200  0.09305300  1
  K  K4  1  0.30467200  0.35610600  0.59305300  1
  K  K5  1  0.64389400  0.69532800  0.90694700  1
  Na  Na6  1  0.00000000  0.00000000  0.00000000  1
  Na  Na7  1  0.00000000  0.00000000  0.50000000  1
  Se  Se8  1  0.68305700  0.64556700  0.13377500  1
  Se  Se9  1  0.35443300  0.31694300  0.36622500  1
  Se  Se10  1  0.31694300  0.35443300  0.86622500  1
  Se  Se11  1  0.64556700  0.68305700  0.63377500  1
  O  O12  1  0.85924100  0.77101700  0.09436000  1
  O  O13  1  0.22898300  0.14075900  0.40564000  1
  O  O14  1  0.14075900  0.22898300  0.90564000  1
  O  O15  1  0.77101700  0.85924100  0.59436000  1
  O  O16  1  0.84543500  0.32458500  0.11799900  1
  O  O17  1  0.67541500  0.15456500  0.38200100  1
  O  O18  1  0.15456500  0.67541500  0.88200100  1
  O  O19  1  0.32458500  0.84543500  0.61799900  1
  O  O20  1  0.40556800  0.77332400  0.07698500  1
  O  O21  1  0.22667600  0.59443200  0.42301500  1
  O  O22  1  0.59443200  0.22667600  0.92301500  1
  O  O23  1  0.77332400  0.40556800  0.57698500  1
  O  O24  1  0.72318200  0.61296300  0.73758900  1
  O  O25  1  0.38703700  0.27681800  0.76241100  1
  O  O26  1  0.27681800  0.38703700  0.26241100  1
  O  O27  1  0.61296300  0.72318200  0.23758900  1
