# generated using pymatgen
data_Tl2FeH12(SO7)2
_symmetry_space_group_name_H-M   'P 1'
_cell_length_a   12.78137200
_cell_length_b   6.37694400
_cell_length_c   9.32354241
_cell_angle_alpha   74.75367955
_cell_angle_beta   90.00000000
_cell_angle_gamma   90.00000000
_symmetry_Int_Tables_number   1
_chemical_formula_structural   Tl2FeH12(SO7)2
_chemical_formula_sum   'Tl4 Fe2 H24 S4 O28'
_cell_volume   733.17934281
_cell_formula_units_Z   2
loop_
 _symmetry_equiv_pos_site_id
 _symmetry_equiv_pos_as_xyz
  1  'x, y, z'
loop_
 _atom_site_type_symbol
 _atom_site_label
 _atom_site_symmetry_multiplicity
 _atom_site_fract_x
 _atom_site_fract_y
 _atom_site_fract_z
 _atom_site_occupancy
  Tl  Tl0  1  0.13900600  0.65425300  0.62078800  1
  Tl  Tl1  1  0.63900600  0.34574700  0.87921200  1
  Tl  Tl2  1  0.86099400  0.34574700  0.37921200  1
  Tl  Tl3  1  0.36099400  0.65425300  0.12078800  1
  Fe  Fe4  1  0.50000000  0.00000000  0.50000000  1
  Fe  Fe5  1  0.00000000  0.00000000  0.00000000  1
  H  H6  1  0.40280100  0.67627200  0.71868800  1
  H  H7  1  0.90280100  0.32372800  0.78131200  1
  H  H8  1  0.59719900  0.32372800  0.28131200  1
  H  H9  1  0.09719900  0.67627200  0.21868800  1
  H  H10  1  0.37216600  0.90674800  0.74590300  1
  H  H11  1  0.87216600  0.09325200  0.75409700  1
  H  H12  1  0.62783400  0.09325200  0.25409700  1
  H  H13  1  0.12783400  0.90674800  0.24590300  1
  H  H14  1  0.39796700  0.06969100  0.22576900  1
  H  H15  1  0.89796700  0.93030900  0.27423100  1
  H  H16  1  0.60203300  0.93030900  0.77423100  1
  H  H17  1  0.10203300  0.06969100  0.72576900  1
  H  H18  1  0.31145100  0.00810700  0.35074100  1
  H  H19  1  0.81145100  0.99189300  0.14925900  1
  H  H20  1  0.68854900  0.99189300  0.64925900  1
  H  H21  1  0.18854900  0.00810700  0.85074100  1
  H  H22  1  0.56422000  0.66007100  0.40133800  1
  H  H23  1  0.06422000  0.33992900  0.09866200  1
  H  H24  1  0.43578000  0.33992900  0.59866200  1
  H  H25  1  0.93578000  0.66007100  0.90133800  1
  H  H26  1  0.64467000  0.67399400  0.52639000  1
  H  H27  1  0.14467000  0.32600600  0.97361000  1
  H  H28  1  0.35533000  0.32600600  0.47361000  1
  H  H29  1  0.85533000  0.67399400  0.02639000  1
  S  S30  1  0.36051200  0.26449200  0.90371000  1
  S  S31  1  0.86051200  0.73550800  0.59629000  1
  S  S32  1  0.63948800  0.73550800  0.09629000  1
  S  S33  1  0.13948800  0.26449200  0.40371000  1
  O  O34  1  0.26795400  0.40123200  0.91586000  1
  O  O35  1  0.76795400  0.59876800  0.58414000  1
  O  O36  1  0.73204600  0.59876800  0.08414000  1
  O  O37  1  0.23204600  0.40123200  0.41586000  1
  O  O38  1  0.42441200  0.22067300  0.04237200  1
  O  O39  1  0.92441200  0.77932700  0.45762800  1
  O  O40  1  0.57558800  0.77932700  0.95762800  1
  O  O41  1  0.07558800  0.22067300  0.54237200  1
  O  O42  1  0.42741500  0.38783100  0.77646000  1
  O  O43  1  0.92741500  0.61216900  0.72354000  1
  O  O44  1  0.57258500  0.61216900  0.22354000  1
  O  O45  1  0.07258500  0.38783100  0.27646000  1
  O  O46  1  0.32472500  0.05447100  0.87540900  1
  O  O47  1  0.82472500  0.94552900  0.62459100  1
  O  O48  1  0.67527500  0.94552900  0.12459100  1
  O  O49  1  0.17527500  0.05447100  0.37540900  1
  O  O50  1  0.38817500  0.83118200  0.66840400  1
  O  O51  1  0.88817500  0.16881800  0.83159600  1
  O  O52  1  0.61182500  0.16881800  0.33159600  1
  O  O53  1  0.11182500  0.83118200  0.16840400  1
  O  O54  1  0.38470500  0.97630800  0.32764600  1
  O  O55  1  0.88470500  0.02369200  0.17235400  1
  O  O56  1  0.61529500  0.02369200  0.67235400  1
  O  O57  1  0.11529500  0.97630800  0.82764600  1
  O  O58  1  0.56990500  0.69976300  0.49676900  1
  O  O59  1  0.06990500  0.30023700  0.00323100  1
  O  O60  1  0.43009500  0.30023700  0.50323100  1
  O  O61  1  0.93009500  0.69976300  0.99676900  1
