# generated using pymatgen
data_Gd2CrSbO7
_symmetry_space_group_name_H-M   'P 1'
_cell_length_a   7.33843422
_cell_length_b   7.33843422
_cell_length_c   7.33843422
_cell_angle_alpha   120.10138216
_cell_angle_beta   119.58330115
_cell_angle_gamma   90.27387265
_symmetry_Int_Tables_number   1
_chemical_formula_structural   Gd2CrSbO7
_chemical_formula_sum   'Gd4 Cr2 Sb2 O14'
_cell_volume   280.09961304
_cell_formula_units_Z   2
loop_
 _symmetry_equiv_pos_site_id
 _symmetry_equiv_pos_as_xyz
  1  'x, y, z'
loop_
 _atom_site_type_symbol
 _atom_site_label
 _atom_site_symmetry_multiplicity
 _atom_site_fract_x
 _atom_site_fract_y
 _atom_site_fract_z
 _atom_site_occupancy
  Gd  Gd0  1  0.50000000  0.00000000  0.00000000  1
  Gd  Gd1  1  0.50000000  0.50000000  0.50000000  1
  Gd  Gd2  1  0.50000000  0.00000000  0.50000000  1
  Gd  Gd3  1  0.00000000  0.00000000  0.00000000  1
  Cr  Cr4  1  0.00000000  0.50000000  0.00000000  1
  Cr  Cr5  1  0.00000000  0.00000000  0.50000000  1
  Sb  Sb6  1  0.00000000  0.50000000  0.50000000  1
  Sb  Sb7  1  0.50000000  0.50000000  0.00000000  1
  O  O8  1  0.91245700  0.16245700  0.75000000  1
  O  O9  1  0.33028500  0.58028500  0.75000000  1
  O  O10  1  0.91408200  0.57789700  0.74274100  1
  O  O11  1  0.33515600  0.17134100  0.75725900  1
  O  O12  1  0.91408200  0.17134100  0.33618500  1
  O  O13  1  0.33515600  0.57789700  0.16381500  1
  O  O14  1  0.08754300  0.83754300  0.25000000  1
  O  O15  1  0.66971500  0.41971500  0.25000000  1
  O  O16  1  0.08591800  0.42210300  0.25725900  1
  O  O17  1  0.66484400  0.82865900  0.24274100  1
  O  O18  1  0.08591800  0.82865900  0.66381500  1
  O  O19  1  0.66484400  0.42210300  0.83618500  1
  O  O20  1  0.62244000  0.87244000  0.75000000  1
  O  O21  1  0.37756000  0.12756000  0.25000000  1
