# generated using pymatgen
data_Ho2Fe3Si5
_symmetry_space_group_name_H-M   'P 1'
_cell_length_a   10.36210600
_cell_length_b   10.36210600
_cell_length_c   5.47164900
_cell_angle_alpha   90.00000000
_cell_angle_beta   90.00000000
_cell_angle_gamma   90.00000000
_symmetry_Int_Tables_number   1
_chemical_formula_structural   Ho2Fe3Si5
_chemical_formula_sum   'Ho8 Fe12 Si20'
_cell_volume   587.50868541
_cell_formula_units_Z   4
loop_
 _symmetry_equiv_pos_site_id
 _symmetry_equiv_pos_as_xyz
  1  'x, y, z'
loop_
 _atom_site_type_symbol
 _atom_site_label
 _atom_site_symmetry_multiplicity
 _atom_site_fract_x
 _atom_site_fract_y
 _atom_site_fract_z
 _atom_site_occupancy
  Ho  Ho0  1  0.56969000  0.73659700  0.50000000  1
  Ho  Ho1  1  0.43031000  0.26340300  0.50000000  1
  Ho  Ho2  1  0.06969000  0.76340300  0.00000000  1
  Ho  Ho3  1  0.93031000  0.23659700  0.00000000  1
  Ho  Ho4  1  0.26340300  0.56969000  0.50000000  1
  Ho  Ho5  1  0.73659700  0.43031000  0.50000000  1
  Ho  Ho6  1  0.23659700  0.06969000  0.00000000  1
  Ho  Ho7  1  0.76340300  0.93031000  0.00000000  1
  Fe  Fe8  1  0.87631600  0.85574700  0.50000000  1
  Fe  Fe9  1  0.12368400  0.14425300  0.50000000  1
  Fe  Fe10  1  0.37631600  0.64425300  0.00000000  1
  Fe  Fe11  1  0.62368400  0.35574700  0.00000000  1
  Fe  Fe12  1  0.14425300  0.87631600  0.50000000  1
  Fe  Fe13  1  0.85574700  0.12368400  0.50000000  1
  Fe  Fe14  1  0.35574700  0.37631600  0.00000000  1
  Fe  Fe15  1  0.64425300  0.62368400  0.00000000  1
  Fe  Fe16  1  0.50000000  0.00000000  0.25000000  1
  Fe  Fe17  1  0.00000000  0.50000000  0.75000000  1
  Fe  Fe18  1  0.00000000  0.50000000  0.25000000  1
  Fe  Fe19  1  0.50000000  0.00000000  0.75000000  1
  Si  Si20  1  0.67805300  0.17805300  0.25000000  1
  Si  Si21  1  0.32194700  0.82194700  0.25000000  1
  Si  Si22  1  0.17805300  0.32194700  0.75000000  1
  Si  Si23  1  0.82194700  0.67805300  0.75000000  1
  Si  Si24  1  0.82194700  0.67805300  0.25000000  1
  Si  Si25  1  0.17805300  0.32194700  0.25000000  1
  Si  Si26  1  0.67805300  0.17805300  0.75000000  1
  Si  Si27  1  0.32194700  0.82194700  0.75000000  1
  Si  Si28  1  0.50000000  0.50000000  0.23449500  1
  Si  Si29  1  0.00000000  0.00000000  0.73449500  1
  Si  Si30  1  0.50000000  0.50000000  0.76550500  1
  Si  Si31  1  0.00000000  0.00000000  0.26550500  1
  Si  Si32  1  0.68035400  0.97845700  0.50000000  1
  Si  Si33  1  0.31964600  0.02154300  0.50000000  1
  Si  Si34  1  0.18035400  0.52154300  0.00000000  1
  Si  Si35  1  0.81964600  0.47845700  0.00000000  1
  Si  Si36  1  0.02154300  0.68035400  0.50000000  1
  Si  Si37  1  0.97845700  0.31964600  0.50000000  1
  Si  Si38  1  0.47845700  0.18035400  0.00000000  1
  Si  Si39  1  0.52154300  0.81964600  0.00000000  1
