# generated using pymatgen
data_Rb(Nb3Se4)2
_symmetry_space_group_name_H-M   'P 1'
_cell_length_a   3.52278700
_cell_length_b   10.24938911
_cell_length_c   10.24937058
_cell_angle_alpha   119.99644875
_cell_angle_beta   90.00009528
_cell_angle_gamma   90.00079109
_symmetry_Int_Tables_number   1
_chemical_formula_structural   Rb(Nb3Se4)2
_chemical_formula_sum   'Rb1 Nb6 Se8'
_cell_volume   320.49977866
_cell_formula_units_Z   1
loop_
 _symmetry_equiv_pos_site_id
 _symmetry_equiv_pos_as_xyz
  1  'x, y, z'
loop_
 _atom_site_type_symbol
 _atom_site_label
 _atom_site_symmetry_multiplicity
 _atom_site_fract_x
 _atom_site_fract_y
 _atom_site_fract_z
 _atom_site_occupancy
  Rb  Rb0  1  0.50000000  0.00000000  0.00000000  1
  Nb  Nb1  1  0.74960500  0.38205900  0.89390300  1
  Nb  Nb2  1  0.74960800  0.10608500  0.48815500  1
  Nb  Nb3  1  0.74961000  0.51184300  0.61791700  1
  Nb  Nb4  1  0.25039500  0.61794100  0.10609700  1
  Nb  Nb5  1  0.25039200  0.89391500  0.51184500  1
  Nb  Nb6  1  0.25039000  0.48815700  0.38208300  1
  Se  Se7  1  0.75184300  0.06017600  0.71643700  1
  Se  Se8  1  0.75183600  0.28356300  0.34374900  1
  Se  Se9  1  0.75184200  0.65627500  0.93983700  1
  Se  Se10  1  0.24815700  0.93982400  0.28356300  1
  Se  Se11  1  0.24816400  0.71643700  0.65625100  1
  Se  Se12  1  0.24815800  0.34372500  0.06016300  1
  Se  Se13  1  0.75002000  0.66666200  0.33332900  1
  Se  Se14  1  0.24998000  0.33333800  0.66667100  1
