# generated using pymatgen
data_PuB2Os
_symmetry_space_group_name_H-M   'P 1'
_cell_length_a   5.36790100
_cell_length_b   5.75207600
_cell_length_c   6.45577600
_cell_angle_alpha   90.00000000
_cell_angle_beta   90.00000000
_cell_angle_gamma   90.00000000
_symmetry_Int_Tables_number   1
_chemical_formula_structural   PuB2Os
_chemical_formula_sum   'Pu4 B8 Os4'
_cell_volume   199.33224870
_cell_formula_units_Z   4
loop_
 _symmetry_equiv_pos_site_id
 _symmetry_equiv_pos_as_xyz
  1  'x, y, z'
loop_
 _atom_site_type_symbol
 _atom_site_label
 _atom_site_symmetry_multiplicity
 _atom_site_fract_x
 _atom_site_fract_y
 _atom_site_fract_z
 _atom_site_occupancy
  Pu  Pu0  1  0.75000000  0.49792200  0.16580800  1
  Pu  Pu1  1  0.75000000  0.99792200  0.33419200  1
  Pu  Pu2  1  0.25000000  0.50207800  0.83419200  1
  Pu  Pu3  1  0.25000000  0.00207800  0.66580800  1
  B  B4  1  0.91575600  0.13568800  0.96335000  1
  B  B5  1  0.58424400  0.63568800  0.53665000  1
  B  B6  1  0.41575600  0.86431200  0.03665000  1
  B  B7  1  0.08424400  0.36431200  0.46335000  1
  B  B8  1  0.08424400  0.86431200  0.03665000  1
  B  B9  1  0.41575600  0.36431200  0.46335000  1
  B  B10  1  0.58424400  0.13568800  0.96335000  1
  B  B11  1  0.91575600  0.63568800  0.53665000  1
  Os  Os12  1  0.75000000  0.31326000  0.68537200  1
  Os  Os13  1  0.75000000  0.81326000  0.81462800  1
  Os  Os14  1  0.25000000  0.68674000  0.31462800  1
  Os  Os15  1  0.25000000  0.18674000  0.18537200  1
