# generated using pymatgen
data_Y3Sb5O12
_symmetry_space_group_name_H-M   'P 1'
_cell_length_a   9.43774740
_cell_length_b   9.43774740
_cell_length_c   9.43774740
_cell_angle_alpha   109.47122063
_cell_angle_beta   109.47122063
_cell_angle_gamma   109.47122063
_symmetry_Int_Tables_number   1
_chemical_formula_structural   Y3Sb5O12
_chemical_formula_sum   'Y6 Sb10 O24'
_cell_volume   647.11751814
_cell_formula_units_Z   2
loop_
 _symmetry_equiv_pos_site_id
 _symmetry_equiv_pos_as_xyz
  1  'x, y, z'
loop_
 _atom_site_type_symbol
 _atom_site_label
 _atom_site_symmetry_multiplicity
 _atom_site_fract_x
 _atom_site_fract_y
 _atom_site_fract_z
 _atom_site_occupancy
  Y  Y0  1  0.25000000  0.75000000  0.50000000  1
  Y  Y1  1  0.75000000  0.25000000  0.50000000  1
  Y  Y2  1  0.75000000  0.50000000  0.25000000  1
  Y  Y3  1  0.25000000  0.50000000  0.75000000  1
  Y  Y4  1  0.50000000  0.25000000  0.75000000  1
  Y  Y5  1  0.50000000  0.75000000  0.25000000  1
  Sb  Sb6  1  0.51523700  0.51523700  0.51523700  1
  Sb  Sb7  1  0.48476300  0.00000000  0.00000000  1
  Sb  Sb8  1  0.00000000  0.48476300  0.00000000  1
  Sb  Sb9  1  0.00000000  0.00000000  0.48476300  1
  Sb  Sb10  1  0.71678800  0.71678800  0.00000000  1
  Sb  Sb11  1  0.28321200  0.28321200  0.00000000  1
  Sb  Sb12  1  0.71678800  0.00000000  0.71678800  1
  Sb  Sb13  1  0.28321200  0.00000000  0.28321200  1
  Sb  Sb14  1  0.00000000  0.71678800  0.71678800  1
  Sb  Sb15  1  0.00000000  0.28321200  0.28321200  1
  O  O16  1  0.79911800  0.50259500  0.50259500  1
  O  O17  1  0.20088200  0.70347700  0.70347700  1
  O  O18  1  0.00000000  0.49740500  0.29652300  1
  O  O19  1  0.50259500  0.50259500  0.79911800  1
  O  O20  1  0.00000000  0.29652300  0.49740500  1
  O  O21  1  0.70347700  0.70347700  0.20088200  1
  O  O22  1  0.49740500  0.29652300  0.00000000  1
  O  O23  1  0.29652300  0.49740500  0.00000000  1
  O  O24  1  0.50259500  0.79911800  0.50259500  1
  O  O25  1  0.29652300  0.00000000  0.49740500  1
  O  O26  1  0.49740500  0.00000000  0.29652300  1
  O  O27  1  0.70347700  0.20088200  0.70347700  1
  O  O28  1  0.27835700  0.47879400  0.47879400  1
  O  O29  1  0.72164300  0.20043600  0.20043600  1
  O  O30  1  0.00000000  0.52120600  0.79956400  1
  O  O31  1  0.47879400  0.47879400  0.27835700  1
  O  O32  1  0.00000000  0.79956400  0.52120600  1
  O  O33  1  0.20043600  0.20043600  0.72164300  1
  O  O34  1  0.52120600  0.79956400  0.00000000  1
  O  O35  1  0.79956400  0.52120600  0.00000000  1
  O  O36  1  0.47879400  0.27835700  0.47879400  1
  O  O37  1  0.79956400  0.00000000  0.52120600  1
  O  O38  1  0.52120600  0.00000000  0.79956400  1
  O  O39  1  0.20043600  0.72164300  0.20043600  1
