# generated using pymatgen
data_Sm5Ir3
_symmetry_space_group_name_H-M   'P 1'
_cell_length_a   11.14238300
_cell_length_b   11.14238300
_cell_length_c   6.48429500
_cell_angle_alpha   90.00000000
_cell_angle_beta   90.00000000
_cell_angle_gamma   90.00000000
_symmetry_Int_Tables_number   1
_chemical_formula_structural   Sm5Ir3
_chemical_formula_sum   'Sm20 Ir12'
_cell_volume   805.04272483
_cell_formula_units_Z   4
loop_
 _symmetry_equiv_pos_site_id
 _symmetry_equiv_pos_as_xyz
  1  'x, y, z'
loop_
 _atom_site_type_symbol
 _atom_site_label
 _atom_site_symmetry_multiplicity
 _atom_site_fract_x
 _atom_site_fract_y
 _atom_site_fract_z
 _atom_site_occupancy
  Sm  Sm0  1  0.29042200  0.08798300  0.37992300  1
  Sm  Sm1  1  0.29042200  0.91201700  0.87992300  1
  Sm  Sm2  1  0.70957800  0.08798300  0.87992300  1
  Sm  Sm3  1  0.70957800  0.91201700  0.37992300  1
  Sm  Sm4  1  0.58798300  0.79042200  0.87992300  1
  Sm  Sm5  1  0.58798300  0.20957800  0.37992300  1
  Sm  Sm6  1  0.41201700  0.79042200  0.37992300  1
  Sm  Sm7  1  0.41201700  0.20957800  0.87992300  1
  Sm  Sm8  1  0.20957800  0.41201700  0.62007700  1
  Sm  Sm9  1  0.20957800  0.58798300  0.12007700  1
  Sm  Sm10  1  0.79042200  0.41201700  0.12007700  1
  Sm  Sm11  1  0.79042200  0.58798300  0.62007700  1
  Sm  Sm12  1  0.91201700  0.70957800  0.12007700  1
  Sm  Sm13  1  0.91201700  0.29042200  0.62007700  1
  Sm  Sm14  1  0.08798300  0.70957800  0.62007700  1
  Sm  Sm15  1  0.08798300  0.29042200  0.12007700  1
  Sm  Sm16  1  0.00000000  0.00000000  0.50000000  1
  Sm  Sm17  1  0.00000000  0.00000000  0.00000000  1
  Sm  Sm18  1  0.50000000  0.50000000  0.00000000  1
  Sm  Sm19  1  0.50000000  0.50000000  0.50000000  1
  Ir  Ir20  1  0.84639200  0.15360800  0.25000000  1
  Ir  Ir21  1  0.84639200  0.84639200  0.75000000  1
  Ir  Ir22  1  0.15360800  0.15360800  0.75000000  1
  Ir  Ir23  1  0.15360800  0.84639200  0.25000000  1
  Ir  Ir24  1  0.65360800  0.34639200  0.75000000  1
  Ir  Ir25  1  0.65360800  0.65360800  0.25000000  1
  Ir  Ir26  1  0.34639200  0.34639200  0.25000000  1
  Ir  Ir27  1  0.34639200  0.65360800  0.75000000  1
  Ir  Ir28  1  0.50000000  0.00000000  0.11443300  1
  Ir  Ir29  1  0.50000000  0.00000000  0.61443300  1
  Ir  Ir30  1  0.00000000  0.50000000  0.88556700  1
  Ir  Ir31  1  0.00000000  0.50000000  0.38556700  1
