# generated using pymatgen
data_NaBi(MoO4)2
_symmetry_space_group_name_H-M   'P 1'
_cell_length_a   6.93707613
_cell_length_b   6.93707613
_cell_length_c   6.93707613
_cell_angle_alpha   134.82608469
_cell_angle_beta   134.82608469
_cell_angle_gamma   65.80054501
_symmetry_Int_Tables_number   1
_chemical_formula_structural   NaBi(MoO4)2
_chemical_formula_sum   'Na1 Bi1 Mo2 O8'
_cell_volume   165.39630330
_cell_formula_units_Z   1
loop_
 _symmetry_equiv_pos_site_id
 _symmetry_equiv_pos_as_xyz
  1  'x, y, z'
loop_
 _atom_site_type_symbol
 _atom_site_label
 _atom_site_symmetry_multiplicity
 _atom_site_fract_x
 _atom_site_fract_y
 _atom_site_fract_z
 _atom_site_occupancy
  Na  Na0  1  0.75000000  0.25000000  0.50000000  1
  Bi  Bi1  1  0.50000000  0.50000000  0.00000000  1
  Mo  Mo2  1  0.00000000  0.00000000  0.00000000  1
  Mo  Mo3  1  0.25000000  0.75000000  0.50000000  1
  O  O4  1  0.48094300  0.07816600  0.88656400  1
  O  O5  1  0.19160200  0.59437900  0.11343600  1
  O  O6  1  0.92183400  0.80839800  0.40277800  1
  O  O7  1  0.40562100  0.51905700  0.59722200  1
  O  O8  1  0.32465700  0.92672800  0.08668900  1
  O  O9  1  0.84003900  0.23796800  0.91331100  1
  O  O10  1  0.07327200  0.15996100  0.39792900  1
  O  O11  1  0.76203200  0.67534300  0.60207100  1
