# generated using pymatgen
data_CaCoGeO4
_symmetry_space_group_name_H-M   'P 1'
_cell_length_a   5.05885500
_cell_length_b   6.47101000
_cell_length_c   11.39348800
_cell_angle_alpha   90.00000000
_cell_angle_beta   90.00000000
_cell_angle_gamma   90.00000000
_symmetry_Int_Tables_number   1
_chemical_formula_structural   CaCoGeO4
_chemical_formula_sum   'Ca4 Co4 Ge4 O16'
_cell_volume   372.97609856
_cell_formula_units_Z   4
loop_
 _symmetry_equiv_pos_site_id
 _symmetry_equiv_pos_as_xyz
  1  'x, y, z'
loop_
 _atom_site_type_symbol
 _atom_site_label
 _atom_site_symmetry_multiplicity
 _atom_site_fract_x
 _atom_site_fract_y
 _atom_site_fract_z
 _atom_site_occupancy
  Ca  Ca0  1  0.01126000  0.75000000  0.72512600  1
  Ca  Ca1  1  0.98874000  0.25000000  0.27487400  1
  Ca  Ca2  1  0.51126000  0.25000000  0.77487400  1
  Ca  Ca3  1  0.48874000  0.75000000  0.22512600  1
  Co  Co4  1  0.50000000  0.50000000  0.50000000  1
  Co  Co5  1  0.00000000  0.50000000  0.00000000  1
  Co  Co6  1  0.50000000  0.00000000  0.50000000  1
  Co  Co7  1  0.00000000  0.00000000  0.00000000  1
  Ge  Ge8  1  0.57613000  0.75000000  0.91772300  1
  Ge  Ge9  1  0.42387000  0.25000000  0.08227700  1
  Ge  Ge10  1  0.07613000  0.25000000  0.58227700  1
  Ge  Ge11  1  0.92387000  0.75000000  0.41772300  1
  O  O12  1  0.22594700  0.75000000  0.91873400  1
  O  O13  1  0.77405300  0.25000000  0.08126600  1
  O  O14  1  0.72594700  0.25000000  0.58126600  1
  O  O15  1  0.27405300  0.75000000  0.41873400  1
  O  O16  1  0.73088300  0.53294600  0.84923000  1
  O  O17  1  0.26911700  0.46705400  0.15077000  1
  O  O18  1  0.23088300  0.46705400  0.65077000  1
  O  O19  1  0.26911700  0.03294600  0.15077000  1
  O  O20  1  0.76911700  0.53294600  0.34923000  1
  O  O21  1  0.73088300  0.96705400  0.84923000  1
  O  O22  1  0.76911700  0.96705400  0.34923000  1
  O  O23  1  0.23088300  0.03294600  0.65077000  1
  O  O24  1  0.75073500  0.75000000  0.55619100  1
  O  O25  1  0.24926500  0.25000000  0.44380900  1
  O  O26  1  0.25073500  0.25000000  0.94380900  1
  O  O27  1  0.74926500  0.75000000  0.05619100  1
