# generated using pymatgen
data_Rb2WS4
_symmetry_space_group_name_H-M   'P 1'
_cell_length_a   7.18286500
_cell_length_b   9.95350200
_cell_length_c   12.79735300
_cell_angle_alpha   90.00000000
_cell_angle_beta   90.00000000
_cell_angle_gamma   90.00000000
_symmetry_Int_Tables_number   1
_chemical_formula_structural   Rb2WS4
_chemical_formula_sum   'Rb8 W4 S16'
_cell_volume   914.94241627
_cell_formula_units_Z   4
loop_
 _symmetry_equiv_pos_site_id
 _symmetry_equiv_pos_as_xyz
  1  'x, y, z'
loop_
 _atom_site_type_symbol
 _atom_site_label
 _atom_site_symmetry_multiplicity
 _atom_site_fract_x
 _atom_site_fract_y
 _atom_site_fract_z
 _atom_site_occupancy
  Rb  Rb0  1  0.25000000  0.65467400  0.39434300  1
  Rb  Rb1  1  0.75000000  0.34532600  0.60565700  1
  Rb  Rb2  1  0.25000000  0.15467400  0.10565700  1
  Rb  Rb3  1  0.75000000  0.84532600  0.89434300  1
  Rb  Rb4  1  0.25000000  0.46048000  0.83203100  1
  Rb  Rb5  1  0.75000000  0.53952000  0.16796900  1
  Rb  Rb6  1  0.25000000  0.96048000  0.66796900  1
  Rb  Rb7  1  0.75000000  0.03952000  0.33203100  1
  W  W8  1  0.25000000  0.24587800  0.42894900  1
  W  W9  1  0.75000000  0.75412200  0.57105100  1
  W  W10  1  0.25000000  0.74587800  0.07105100  1
  W  W11  1  0.75000000  0.25412200  0.92894900  1
  S  S12  1  0.25000000  0.02759100  0.39515700  1
  S  S13  1  0.75000000  0.97240900  0.60484300  1
  S  S14  1  0.25000000  0.52759100  0.10484300  1
  S  S15  1  0.75000000  0.47240900  0.89515700  1
  S  S16  1  0.50102300  0.66032600  0.64031600  1
  S  S17  1  0.00102300  0.33967400  0.35968400  1
  S  S18  1  0.99897700  0.16032600  0.85968400  1
  S  S19  1  0.49897700  0.83967400  0.14031600  1
  S  S20  1  0.49897700  0.33967400  0.35968400  1
  S  S21  1  0.99897700  0.66032600  0.64031600  1
  S  S22  1  0.00102300  0.83967400  0.14031600  1
  S  S23  1  0.50102300  0.16032600  0.85968400  1
  S  S24  1  0.75000000  0.21692300  0.09927900  1
  S  S25  1  0.25000000  0.78307700  0.90072100  1
  S  S26  1  0.75000000  0.71692300  0.40072100  1
  S  S27  1  0.25000000  0.28307700  0.59927900  1
