# generated using pymatgen
data_Dy2CoGe4
_symmetry_space_group_name_H-M   'P 1'
_cell_length_a   4.13637500
_cell_length_b   4.14090200
_cell_length_c   8.17734164
_cell_angle_alpha   75.33342308
_cell_angle_beta   90.00000000
_cell_angle_gamma   90.00000000
_symmetry_Int_Tables_number   1
_chemical_formula_structural   Dy2CoGe4
_chemical_formula_sum   'Dy2 Co1 Ge4'
_cell_volume   135.50024892
_cell_formula_units_Z   1
loop_
 _symmetry_equiv_pos_site_id
 _symmetry_equiv_pos_as_xyz
  1  'x, y, z'
loop_
 _atom_site_type_symbol
 _atom_site_label
 _atom_site_symmetry_multiplicity
 _atom_site_fract_x
 _atom_site_fract_y
 _atom_site_fract_z
 _atom_site_occupancy
  Dy  Dy0  1  0.25000000  0.89316900  0.21366100  1
  Dy  Dy1  1  0.75000000  0.10007800  0.79984400  1
  Co  Co2  1  0.25000000  0.68927200  0.62145600  1
  Ge  Ge3  1  0.25000000  0.25641100  0.48717700  1
  Ge  Ge4  1  0.75000000  0.75466800  0.49066300  1
  Ge  Ge5  1  0.25000000  0.54431400  0.91137200  1
  Ge  Ge6  1  0.75000000  0.44108700  0.11782600  1
