# generated using pymatgen
data_MnZnSe2
_symmetry_space_group_name_H-M   'P 1'
_cell_length_a   7.12873859
_cell_length_b   7.12873859
_cell_length_c   7.12873854
_cell_angle_alpha   33.64766336
_cell_angle_beta   33.64766336
_cell_angle_gamma   33.64765445
_symmetry_Int_Tables_number   1
_chemical_formula_structural   MnZnSe2
_chemical_formula_sum   'Mn1 Zn1 Se2'
_cell_volume   99.08254381
_cell_formula_units_Z   1
loop_
 _symmetry_equiv_pos_site_id
 _symmetry_equiv_pos_as_xyz
  1  'x, y, z'
loop_
 _atom_site_type_symbol
 _atom_site_label
 _atom_site_symmetry_multiplicity
 _atom_site_fract_x
 _atom_site_fract_y
 _atom_site_fract_z
 _atom_site_occupancy
  Mn  Mn0  1  0.00032900  0.00032900  0.00032900  1
  Zn  Zn1  1  0.50009900  0.50009900  0.50009900  1
  Se  Se2  1  0.12635800  0.12635800  0.12635800  1
  Se  Se3  1  0.62321500  0.62321500  0.62321500  1
