# generated using pymatgen
data_LiErS2
_symmetry_space_group_name_H-M   'P 1'
_cell_length_a   6.55935693
_cell_length_b   6.55935693
_cell_length_c   6.55935729
_cell_angle_alpha   34.36061942
_cell_angle_beta   34.36061942
_cell_angle_gamma   34.36061665
_symmetry_Int_Tables_number   1
_chemical_formula_structural   LiErS2
_chemical_formula_sum   'Li1 Er1 S2'
_cell_volume   80.18263603
_cell_formula_units_Z   1
loop_
 _symmetry_equiv_pos_site_id
 _symmetry_equiv_pos_as_xyz
  1  'x, y, z'
loop_
 _atom_site_type_symbol
 _atom_site_label
 _atom_site_symmetry_multiplicity
 _atom_site_fract_x
 _atom_site_fract_y
 _atom_site_fract_z
 _atom_site_occupancy
  Li  Li0  1  0.50000000  0.50000000  0.50000000  1
  Er  Er1  1  0.00000000  0.00000000  0.00000000  1
  S  S2  1  0.74975400  0.74975400  0.74975400  1
  S  S3  1  0.25024600  0.25024600  0.25024600  1
