# generated using pymatgen
data_Yb2Te5O13
_symmetry_space_group_name_H-M   'P 1'
_cell_length_a   7.18670700
_cell_length_b   9.01022300
_cell_length_c   10.44781036
_cell_angle_alpha   85.27765574
_cell_angle_beta   88.08474612
_cell_angle_gamma   78.53843027
_symmetry_Int_Tables_number   1
_chemical_formula_structural   Yb2Te5O13
_chemical_formula_sum   'Yb4 Te10 O26'
_cell_volume   660.69280145
_cell_formula_units_Z   2
loop_
 _symmetry_equiv_pos_site_id
 _symmetry_equiv_pos_as_xyz
  1  'x, y, z'
loop_
 _atom_site_type_symbol
 _atom_site_label
 _atom_site_symmetry_multiplicity
 _atom_site_fract_x
 _atom_site_fract_y
 _atom_site_fract_z
 _atom_site_occupancy
  Yb  Yb0  1  0.96657000  0.25292000  0.25789700  1
  Yb  Yb1  1  0.44226100  0.45310800  0.17545800  1
  Yb  Yb2  1  0.55773900  0.54689200  0.82454200  1
  Yb  Yb3  1  0.03343000  0.74708000  0.74210300  1
  Te  Te4  1  0.25701700  0.38583800  0.51460500  1
  Te  Te5  1  0.70736900  0.15486300  0.99342300  1
  Te  Te6  1  0.89551100  0.18606600  0.65005300  1
  Te  Te7  1  0.10448900  0.81393400  0.34994700  1
  Te  Te8  1  0.50374700  0.89688200  0.69124200  1
  Te  Te9  1  0.29263100  0.84513700  0.00657700  1
  Te  Te10  1  0.49625300  0.10311800  0.30875800  1
  Te  Te11  1  0.87345600  0.62746100  0.08767200  1
  Te  Te12  1  0.74298300  0.61416200  0.48539500  1
  Te  Te13  1  0.12654400  0.37253900  0.91232800  1
  O  O14  1  0.76318400  0.48985600  0.19276700  1
  O  O15  1  0.02585900  0.32809400  0.46540700  1
  O  O16  1  0.71122500  0.77616500  0.77571000  1
  O  O17  1  0.31561300  0.50703000  0.37127900  1
  O  O18  1  0.12492100  0.49722000  0.08850100  1
  O  O19  1  0.87507900  0.50278000  0.91149900  1
  O  O20  1  0.63039700  0.00238500  0.09750000  1
  O  O21  1  0.46627700  0.66251700  0.01568900  1
  O  O22  1  0.27251100  0.87204300  0.18482300  1
  O  O23  1  0.05968900  0.82017300  0.95370400  1
  O  O24  1  0.57743900  0.81032200  0.51807000  1
  O  O25  1  0.06255100  0.27358400  0.74366400  1
  O  O26  1  0.28877500  0.22383500  0.22429000  1
  O  O27  1  0.68438700  0.49297000  0.62872100  1
  O  O28  1  0.53372300  0.33748300  0.98431100  1
  O  O29  1  0.34843800  0.75685500  0.73592100  1
  O  O30  1  0.96606900  0.00861900  0.35141400  1
  O  O31  1  0.94031100  0.17982700  0.04629600  1
  O  O32  1  0.97414100  0.67190600  0.53459300  1
  O  O33  1  0.36960300  0.99761500  0.90250000  1
  O  O34  1  0.72748900  0.12795700  0.81517700  1
  O  O35  1  0.23681600  0.51014400  0.80723300  1
  O  O36  1  0.42256100  0.18967800  0.48193000  1
  O  O37  1  0.93744900  0.72641600  0.25633600  1
  O  O38  1  0.03393100  0.99138100  0.64858600  1
  O  O39  1  0.65156200  0.24314500  0.26407900  1
