# generated using pymatgen
data_CeSiOs2C
_symmetry_space_group_name_H-M   'P 1'
_cell_length_a   5.92686982
_cell_length_b   5.92686982
_cell_length_c   7.13804400
_cell_angle_alpha   90.00000000
_cell_angle_beta   90.00000000
_cell_angle_gamma   141.01219954
_symmetry_Int_Tables_number   1
_chemical_formula_structural   CeSiOs2C
_chemical_formula_sum   'Ce2 Si2 Os4 C2'
_cell_volume   157.75661698
_cell_formula_units_Z   2
loop_
 _symmetry_equiv_pos_site_id
 _symmetry_equiv_pos_as_xyz
  1  'x, y, z'
loop_
 _atom_site_type_symbol
 _atom_site_label
 _atom_site_symmetry_multiplicity
 _atom_site_fract_x
 _atom_site_fract_y
 _atom_site_fract_z
 _atom_site_occupancy
  Ce  Ce0  1  0.55232900  0.44767100  0.25000000  1
  Ce  Ce1  1  0.44767100  0.55232900  0.75000000  1
  Si  Si2  1  0.27229800  0.72770200  0.25000000  1
  Si  Si3  1  0.72770200  0.27229800  0.75000000  1
  Os  Os4  1  0.83453500  0.16546500  0.05723900  1
  Os  Os5  1  0.16546500  0.83453500  0.94276100  1
  Os  Os6  1  0.16546500  0.83453500  0.55723900  1
  Os  Os7  1  0.83453500  0.16546500  0.44276100  1
  C  C8  1  0.00000000  0.00000000  0.00000000  1
  C  C9  1  0.00000000  0.00000000  0.50000000  1
