# generated using pymatgen
data_TbWC2
_symmetry_space_group_name_H-M   'P 1'
_cell_length_a   3.40390600
_cell_length_b   5.74934800
_cell_length_c   10.84121800
_cell_angle_alpha   90.00000000
_cell_angle_beta   90.00000000
_cell_angle_gamma   90.00000000
_symmetry_Int_Tables_number   1
_chemical_formula_structural   TbWC2
_chemical_formula_sum   'Tb4 W4 C8'
_cell_volume   212.16523981
_cell_formula_units_Z   4
loop_
 _symmetry_equiv_pos_site_id
 _symmetry_equiv_pos_as_xyz
  1  'x, y, z'
loop_
 _atom_site_type_symbol
 _atom_site_label
 _atom_site_symmetry_multiplicity
 _atom_site_fract_x
 _atom_site_fract_y
 _atom_site_fract_z
 _atom_site_occupancy
  Tb  Tb0  1  0.25000000  0.08517400  0.86289200  1
  Tb  Tb1  1  0.25000000  0.58517400  0.63710800  1
  Tb  Tb2  1  0.75000000  0.91482600  0.13710800  1
  Tb  Tb3  1  0.75000000  0.41482600  0.36289200  1
  W  W4  1  0.25000000  0.40426700  0.11037000  1
  W  W5  1  0.25000000  0.90426700  0.38963000  1
  W  W6  1  0.75000000  0.59573300  0.88963000  1
  W  W7  1  0.75000000  0.09573300  0.61037000  1
  C  C8  1  0.25000000  0.16084000  0.24722800  1
  C  C9  1  0.25000000  0.66084000  0.25277200  1
  C  C10  1  0.75000000  0.83916000  0.75277200  1
  C  C11  1  0.75000000  0.33916000  0.74722800  1
  C  C12  1  0.25000000  0.72046300  0.98430700  1
  C  C13  1  0.25000000  0.22046300  0.51569300  1
  C  C14  1  0.75000000  0.27953700  0.01569300  1
  C  C15  1  0.75000000  0.77953700  0.48430700  1
