# generated using pymatgen
data_Gd2MgNi2
_symmetry_space_group_name_H-M   'P 1'
_cell_length_a   7.36702000
_cell_length_b   7.36702000
_cell_length_c   3.79798300
_cell_angle_alpha   90.00000000
_cell_angle_beta   90.00000000
_cell_angle_gamma   90.00000000
_symmetry_Int_Tables_number   1
_chemical_formula_structural   Gd2MgNi2
_chemical_formula_sum   'Gd4 Mg2 Ni4'
_cell_volume   206.12786938
_cell_formula_units_Z   2
loop_
 _symmetry_equiv_pos_site_id
 _symmetry_equiv_pos_as_xyz
  1  'x, y, z'
loop_
 _atom_site_type_symbol
 _atom_site_label
 _atom_site_symmetry_multiplicity
 _atom_site_fract_x
 _atom_site_fract_y
 _atom_site_fract_z
 _atom_site_occupancy
  Gd  Gd0  1  0.67448800  0.17448800  0.50000000  1
  Gd  Gd1  1  0.32551200  0.82551200  0.50000000  1
  Gd  Gd2  1  0.17448800  0.32551200  0.50000000  1
  Gd  Gd3  1  0.82551200  0.67448800  0.50000000  1
  Mg  Mg4  1  0.00000000  0.00000000  0.00000000  1
  Mg  Mg5  1  0.50000000  0.50000000  0.00000000  1
  Ni  Ni6  1  0.11997200  0.61997200  0.00000000  1
  Ni  Ni7  1  0.88002800  0.38002800  0.00000000  1
  Ni  Ni8  1  0.61997200  0.88002800  0.00000000  1
  Ni  Ni9  1  0.38002800  0.11997200  0.00000000  1
