# generated using pymatgen
data_NdCoGe3
_symmetry_space_group_name_H-M   'P 1'
_cell_length_a   5.82596401
_cell_length_b   5.82596401
_cell_length_c   5.82596401
_cell_angle_alpha   136.41700280
_cell_angle_beta   136.41700280
_cell_angle_gamma   63.33629705
_symmetry_Int_Tables_number   1
_chemical_formula_structural   NdCoGe3
_chemical_formula_sum   'Nd1 Co1 Ge3'
_cell_volume   92.77518670
_cell_formula_units_Z   1
loop_
 _symmetry_equiv_pos_site_id
 _symmetry_equiv_pos_as_xyz
  1  'x, y, z'
loop_
 _atom_site_type_symbol
 _atom_site_label
 _atom_site_symmetry_multiplicity
 _atom_site_fract_x
 _atom_site_fract_y
 _atom_site_fract_z
 _atom_site_occupancy
  Nd  Nd0  1  0.66499200  0.66499200  0.00000000  1
  Co  Co1  1  0.99829500  0.99829500  0.00000000  1
  Ge  Ge2  1  0.40602100  0.90602100  0.50000000  1
  Ge  Ge3  1  0.22907100  0.22907100  0.00000000  1
  Ge  Ge4  1  0.90602100  0.40602100  0.50000000  1
