# generated using pymatgen
data_Rb3(Cr5Se8)4
_symmetry_space_group_name_H-M   'P 1'
_cell_length_a   10.96516400
_cell_length_b   11.57618058
_cell_length_c   11.73158645
_cell_angle_alpha   111.15082244
_cell_angle_beta   81.57533806
_cell_angle_gamma   117.30054549
_symmetry_Int_Tables_number   1
_chemical_formula_structural   Rb3(Cr5Se8)4
_chemical_formula_sum   'Rb3 Cr20 Se32'
_cell_volume   1233.80617986
_cell_formula_units_Z   1
loop_
 _symmetry_equiv_pos_site_id
 _symmetry_equiv_pos_as_xyz
  1  'x, y, z'
loop_
 _atom_site_type_symbol
 _atom_site_label
 _atom_site_symmetry_multiplicity
 _atom_site_fract_x
 _atom_site_fract_y
 _atom_site_fract_z
 _atom_site_occupancy
  Rb  Rb0  1  0.23179000  0.73167600  0.73186300  1
  Rb  Rb1  1  0.50000000  0.00000000  0.00000000  1
  Rb  Rb2  1  0.76821000  0.26832400  0.26813700  1
  Cr  Cr3  1  0.79374500  0.60932800  0.12927800  1
  Cr  Cr4  1  0.04288500  0.85888100  0.37863300  1
  Cr  Cr5  1  0.29210300  0.10732000  0.62723200  1
  Cr  Cr6  1  0.54315200  0.35845100  0.87814200  1
  Cr  Cr7  1  0.95711500  0.14111900  0.62136700  1
  Cr  Cr8  1  0.20625500  0.39067200  0.87072200  1
  Cr  Cr9  1  0.45684800  0.64154900  0.12185800  1
  Cr  Cr10  1  0.70789700  0.89268000  0.37276800  1
  Cr  Cr11  1  0.37424100  0.87453500  0.37578800  1
  Cr  Cr12  1  0.62575900  0.12546500  0.62421200  1
  Cr  Cr13  1  0.87556700  0.37531100  0.87425600  1
  Cr  Cr14  1  0.12443300  0.62468900  0.12574400  1
  Cr  Cr15  1  0.41254800  0.32238300  0.48621500  1
  Cr  Cr16  1  0.66250600  0.57113500  0.73564900  1
  Cr  Cr17  1  0.91119200  0.82066600  0.98515300  1
  Cr  Cr18  1  0.16174400  0.07101300  0.23579200  1
  Cr  Cr19  1  0.33749400  0.42886500  0.26435100  1
  Cr  Cr20  1  0.58745200  0.67761700  0.51378500  1
  Cr  Cr21  1  0.83825600  0.92898700  0.76420800  1
  Cr  Cr22  1  0.08880800  0.17933400  0.01484700  1
  Se  Se23  1  0.34385600  0.50046300  0.49171400  1
  Se  Se24  1  0.59380300  0.75084900  0.74181500  1
  Se  Se25  1  0.84426400  0.00152200  0.99232500  1
  Se  Se26  1  0.09449300  0.25058500  0.24201600  1
  Se  Se27  1  0.40619700  0.24915100  0.25818500  1
  Se  Se28  1  0.65614400  0.49953700  0.50828600  1
  Se  Se29  1  0.90550700  0.74941500  0.75798400  1
  Se  Se30  1  0.15573600  0.99847800  0.00767500  1
  Se  Se31  1  0.06837400  0.39283700  0.72337100  1
  Se  Se32  1  0.31862900  0.64428900  0.97359800  1
  Se  Se33  1  0.57009000  0.89566000  0.22486700  1
  Se  Se34  1  0.82047800  0.14494700  0.47541800  1
  Se  Se35  1  0.68137100  0.35571100  0.02640200  1
  Se  Se36  1  0.93162600  0.60716300  0.27662900  1
  Se  Se37  1  0.17952200  0.85505300  0.52458200  1
  Se  Se38  1  0.42991000  0.10434000  0.77513300  1
  Se  Se39  1  0.26553100  0.61614000  0.27181800  1
  Se  Se40  1  0.51549500  0.86637300  0.52186900  1
  Se  Se41  1  0.76557700  0.11625100  0.77175600  1
  Se  Se42  1  0.01588200  0.36631100  0.02157800  1
  Se  Se43  1  0.48450500  0.13362700  0.47813100  1
  Se  Se44  1  0.73446900  0.38386000  0.72818200  1
  Se  Se45  1  0.98411800  0.63368900  0.97842200  1
  Se  Se46  1  0.23442300  0.88374900  0.22824400  1
  Se  Se47  1  0.59532200  0.61813400  0.27381700  1
  Se  Se48  1  0.84547800  0.86753700  0.52379500  1
  Se  Se49  1  0.09558700  0.11757200  0.77358100  1
  Se  Se50  1  0.34569500  0.36828900  0.02409900  1
  Se  Se51  1  0.15452200  0.13246300  0.47620500  1
  Se  Se52  1  0.40467800  0.38186600  0.72618300  1
  Se  Se53  1  0.65430500  0.63171100  0.97590100  1
  Se  Se54  1  0.90441300  0.88242800  0.22641900  1
