# generated using pymatgen
data_Ce5Sn3Au
_symmetry_space_group_name_H-M   'P 1'
_cell_length_a   9.54526614
_cell_length_b   9.54526614
_cell_length_c   6.62143300
_cell_angle_alpha   90.00000000
_cell_angle_beta   90.00000000
_cell_angle_gamma   120.00000095
_symmetry_Int_Tables_number   1
_chemical_formula_structural   Ce5Sn3Au
_chemical_formula_sum   'Ce10 Sn6 Au2'
_cell_volume   522.46680162
_cell_formula_units_Z   2
loop_
 _symmetry_equiv_pos_site_id
 _symmetry_equiv_pos_as_xyz
  1  'x, y, z'
loop_
 _atom_site_type_symbol
 _atom_site_label
 _atom_site_symmetry_multiplicity
 _atom_site_fract_x
 _atom_site_fract_y
 _atom_site_fract_z
 _atom_site_occupancy
  Ce  Ce0  1  0.27467700  0.00000000  0.75000000  1
  Ce  Ce1  1  0.72532300  0.00000000  0.25000000  1
  Ce  Ce2  1  0.00000000  0.27467700  0.75000000  1
  Ce  Ce3  1  0.00000000  0.72532300  0.25000000  1
  Ce  Ce4  1  0.72532300  0.72532300  0.75000000  1
  Ce  Ce5  1  0.27467700  0.27467700  0.25000000  1
  Ce  Ce6  1  0.33333300  0.66666700  0.50000000  1
  Ce  Ce7  1  0.66666700  0.33333300  0.50000000  1
  Ce  Ce8  1  0.66666700  0.33333300  0.00000000  1
  Ce  Ce9  1  0.33333300  0.66666700  0.00000000  1
  Sn  Sn10  1  0.62064100  0.00000000  0.75000000  1
  Sn  Sn11  1  0.37935900  0.00000000  0.25000000  1
  Sn  Sn12  1  0.00000000  0.62064100  0.75000000  1
  Sn  Sn13  1  0.00000000  0.37935900  0.25000000  1
  Sn  Sn14  1  0.37935900  0.37935900  0.75000000  1
  Sn  Sn15  1  0.62064100  0.62064100  0.25000000  1
  Au  Au16  1  0.00000000  0.00000000  0.50000000  1
  Au  Au17  1  0.00000000  0.00000000  0.00000000  1
