# generated using pymatgen
data_SrPrFeRuO6
_symmetry_space_group_name_H-M   'P 1'
_cell_length_a   5.64361500
_cell_length_b   5.59754100
_cell_length_c   9.70137388
_cell_angle_alpha   54.78574903
_cell_angle_beta   90.00000000
_cell_angle_gamma   90.00000000
_symmetry_Int_Tables_number   1
_chemical_formula_structural   SrPrFeRuO6
_chemical_formula_sum   'Sr2 Pr2 Fe2 Ru2 O12'
_cell_volume   250.38641254
_cell_formula_units_Z   2
loop_
 _symmetry_equiv_pos_site_id
 _symmetry_equiv_pos_as_xyz
  1  'x, y, z'
loop_
 _atom_site_type_symbol
 _atom_site_label
 _atom_site_symmetry_multiplicity
 _atom_site_fract_x
 _atom_site_fract_y
 _atom_site_fract_z
 _atom_site_occupancy
  Sr  Sr0  1  0.72208500  0.75386300  0.75009400  1
  Sr  Sr1  1  0.27791500  0.75386300  0.25009400  1
  Pr  Pr2  1  0.20717500  0.23825000  0.74951300  1
  Pr  Pr3  1  0.79282500  0.23825000  0.24951300  1
  Fe  Fe4  1  0.25391300  0.49951100  0.99983300  1
  Fe  Fe5  1  0.74608700  0.49951100  0.49983300  1
  Ru  Ru6  1  0.25213400  0.99956600  0.50048300  1
  Ru  Ru7  1  0.74786600  0.99956600  0.00048300  1
  O  O8  1  0.25991800  0.66685900  0.74953700  1
  O  O9  1  0.76975800  0.31225100  0.75057000  1
  O  O10  1  0.23024200  0.31225100  0.25057000  1
  O  O11  1  0.74008200  0.66685900  0.24953700  1
  O  O12  1  0.02518500  0.76263600  0.46324200  1
  O  O13  1  0.53924900  0.24731900  0.04141400  1
  O  O14  1  0.46231600  0.83297400  0.95812500  1
  O  O15  1  0.97575600  0.18677100  0.53718900  1
  O  O16  1  0.46075100  0.24731900  0.54141400  1
  O  O17  1  0.97481500  0.76263600  0.96324200  1
  O  O18  1  0.02424400  0.18677100  0.03718900  1
  O  O19  1  0.53768400  0.83297400  0.45812500  1
