# generated using pymatgen
data_Pu2US5
_symmetry_space_group_name_H-M   'P 1'
_cell_length_a   7.20285400
_cell_length_b   7.83590900
_cell_length_c   11.28162700
_cell_angle_alpha   90.00000000
_cell_angle_beta   90.00000000
_cell_angle_gamma   90.00000000
_symmetry_Int_Tables_number   1
_chemical_formula_structural   Pu2US5
_chemical_formula_sum   'Pu8 U4 S20'
_cell_volume   636.74527706
_cell_formula_units_Z   4
loop_
 _symmetry_equiv_pos_site_id
 _symmetry_equiv_pos_as_xyz
  1  'x, y, z'
loop_
 _atom_site_type_symbol
 _atom_site_label
 _atom_site_symmetry_multiplicity
 _atom_site_fract_x
 _atom_site_fract_y
 _atom_site_fract_z
 _atom_site_occupancy
  Pu  Pu0  1  0.52417000  0.50273900  0.32150000  1
  Pu  Pu1  1  0.97583000  0.99726100  0.82150000  1
  Pu  Pu2  1  0.47583000  0.00273900  0.67850000  1
  Pu  Pu3  1  0.02417000  0.49726100  0.17850000  1
  Pu  Pu4  1  0.47583000  0.49726100  0.67850000  1
  Pu  Pu5  1  0.02417000  0.00273900  0.17850000  1
  Pu  Pu6  1  0.52417000  0.99726100  0.32150000  1
  Pu  Pu7  1  0.97583000  0.50273900  0.82150000  1
  U  U8  1  0.07984000  0.75000000  0.48860200  1
  U  U9  1  0.42016000  0.75000000  0.98860200  1
  U  U10  1  0.92016000  0.25000000  0.51139800  1
  U  U11  1  0.57984000  0.25000000  0.01139800  1
  S  S12  1  0.82962100  0.95021800  0.59468200  1
  S  S13  1  0.67037900  0.54978200  0.09468200  1
  S  S14  1  0.17037900  0.45021800  0.40531800  1
  S  S15  1  0.32962100  0.04978200  0.90531800  1
  S  S16  1  0.17037900  0.04978200  0.40531800  1
  S  S17  1  0.32962100  0.45021800  0.90531800  1
  S  S18  1  0.82962100  0.54978200  0.59468200  1
  S  S19  1  0.67037900  0.95021800  0.09468200  1
  S  S20  1  0.82818400  0.75000000  0.30894000  1
  S  S21  1  0.67181600  0.75000000  0.80894000  1
  S  S22  1  0.17181600  0.25000000  0.69106000  1
  S  S23  1  0.32818400  0.25000000  0.19106000  1
  S  S24  1  0.46540800  0.75000000  0.50130400  1
  S  S25  1  0.03459200  0.75000000  0.00130400  1
  S  S26  1  0.53459200  0.25000000  0.49869600  1
  S  S27  1  0.96540800  0.25000000  0.99869600  1
  S  S28  1  0.20235500  0.75000000  0.72108800  1
  S  S29  1  0.29764500  0.75000000  0.22108800  1
  S  S30  1  0.79764500  0.25000000  0.27891200  1
  S  S31  1  0.70235500  0.25000000  0.77891200  1
