# generated using pymatgen
data_TbAlAu
_symmetry_space_group_name_H-M   'P 1'
_cell_length_a   4.46605400
_cell_length_b   7.24943700
_cell_length_c   7.83019100
_cell_angle_alpha   90.00000000
_cell_angle_beta   90.00000000
_cell_angle_gamma   90.00000000
_symmetry_Int_Tables_number   1
_chemical_formula_structural   TbAlAu
_chemical_formula_sum   'Tb4 Al4 Au4'
_cell_volume   253.51321667
_cell_formula_units_Z   4
loop_
 _symmetry_equiv_pos_site_id
 _symmetry_equiv_pos_as_xyz
  1  'x, y, z'
loop_
 _atom_site_type_symbol
 _atom_site_label
 _atom_site_symmetry_multiplicity
 _atom_site_fract_x
 _atom_site_fract_y
 _atom_site_fract_z
 _atom_site_occupancy
  Tb  Tb0  1  0.25000000  0.00957100  0.30771800  1
  Tb  Tb1  1  0.25000000  0.50957100  0.19228200  1
  Tb  Tb2  1  0.75000000  0.99042900  0.69228200  1
  Tb  Tb3  1  0.75000000  0.49042900  0.80771800  1
  Al  Al4  1  0.25000000  0.16600700  0.92485300  1
  Al  Al5  1  0.25000000  0.66600700  0.57514700  1
  Al  Al6  1  0.75000000  0.83399300  0.07514700  1
  Al  Al7  1  0.75000000  0.33399300  0.42485300  1
  Au  Au8  1  0.25000000  0.28675800  0.60005300  1
  Au  Au9  1  0.25000000  0.78675800  0.89994700  1
  Au  Au10  1  0.75000000  0.71324200  0.39994700  1
  Au  Au11  1  0.75000000  0.21324200  0.10005300  1
