# generated using pymatgen
data_TbGe3Rh5
_symmetry_space_group_name_H-M   'P 1'
_cell_length_a   3.93561840
_cell_length_b   22.75742827
_cell_length_c   22.75742827
_cell_angle_alpha   119.99999804
_cell_angle_beta   90.00000000
_cell_angle_gamma   90.00000000
_symmetry_Int_Tables_number   1
_chemical_formula_structural   TbGe3Rh5
_chemical_formula_sum   'Tb12 Ge36 Rh60'
_cell_volume   1765.18402156
_cell_formula_units_Z   12
loop_
 _symmetry_equiv_pos_site_id
 _symmetry_equiv_pos_as_xyz
  1  'x, y, z'
loop_
 _atom_site_type_symbol
 _atom_site_label
 _atom_site_symmetry_multiplicity
 _atom_site_fract_x
 _atom_site_fract_y
 _atom_site_fract_z
 _atom_site_occupancy
  Tb  Tb0  1  0.75000000  0.73457056  0.77018908  1
  Tb  Tb1  1  0.25000000  0.26542944  0.22981092  1
  Tb  Tb2  1  0.75000000  0.03561852  0.26542944  1
  Tb  Tb3  1  0.25000000  0.96438148  0.73457056  1
  Tb  Tb4  1  0.75000000  0.22981092  0.96438148  1
  Tb  Tb5  1  0.25000000  0.77018908  0.03561852  1
  Tb  Tb6  1  0.75000000  0.38415618  0.52462177  1
  Tb  Tb7  1  0.25000000  0.61584382  0.47537823  1
  Tb  Tb8  1  0.75000000  0.14046559  0.61584382  1
  Tb  Tb9  1  0.25000000  0.85953441  0.38415618  1
  Tb  Tb10  1  0.75000000  0.47537823  0.85953441  1
  Tb  Tb11  1  0.25000000  0.52462177  0.14046559  1
  Ge  Ge12  1  0.75000000  0.88894869  0.06286583  1
  Ge  Ge13  1  0.25000000  0.11105131  0.93713417  1
  Ge  Ge14  1  0.75000000  0.17391715  0.11105131  1
  Ge  Ge15  1  0.25000000  0.82608285  0.88894869  1
  Ge  Ge16  1  0.75000000  0.93713417  0.82608285  1
  Ge  Ge17  1  0.25000000  0.06286583  0.17391715  1
  Ge  Ge18  1  0.75000000  0.63839358  0.16502238  1
  Ge  Ge19  1  0.25000000  0.36160642  0.83497762  1
  Ge  Ge20  1  0.75000000  0.52662880  0.36160642  1
  Ge  Ge21  1  0.25000000  0.47337120  0.63839358  1
  Ge  Ge22  1  0.75000000  0.83497762  0.47337120  1
  Ge  Ge23  1  0.25000000  0.16502238  0.52662880  1
  Ge  Ge24  1  0.75000000  0.77907108  0.26692295  1
  Ge  Ge25  1  0.25000000  0.22092892  0.73307705  1
  Ge  Ge26  1  0.75000000  0.48785187  0.22092892  1
  Ge  Ge27  1  0.25000000  0.51214813  0.77907108  1
  Ge  Ge28  1  0.75000000  0.73307705  0.51214813  1
  Ge  Ge29  1  0.25000000  0.26692295  0.48785187  1
  Ge  Ge30  1  0.75000000  0.73940470  0.12402300  1
  Ge  Ge31  1  0.25000000  0.26059530  0.87597700  1
  Ge  Ge32  1  0.75000000  0.38461831  0.26059530  1
  Ge  Ge33  1  0.25000000  0.61538169  0.73940470  1
  Ge  Ge34  1  0.75000000  0.87597700  0.61538169  1
  Ge  Ge35  1  0.25000000  0.12402300  0.38461831  1
  Ge  Ge36  1  0.75000000  0.98437597  0.41488825  1
  Ge  Ge37  1  0.25000000  0.01562403  0.58511175  1
  Ge  Ge38  1  0.75000000  0.43051228  0.01562403  1
  Ge  Ge39  1  0.25000000  0.56948772  0.98437597  1
  Ge  Ge40  1  0.75000000  0.58511175  0.56948772  1
  Ge  Ge41  1  0.25000000  0.41488825  0.43051228  1
  Ge  Ge42  1  0.75000000  0.68317377  0.91773658  1
  Ge  Ge43  1  0.25000000  0.31682623  0.08226342  1
  Ge  Ge44  1  0.75000000  0.23456281  0.31682623  1
  Ge  Ge45  1  0.25000000  0.76543719  0.68317377  1
  Ge  Ge46  1  0.75000000  0.08226342  0.76543719  1
  Ge  Ge47  1  0.25000000  0.91773658  0.23456281  1
  Rh  Rh48  1  0.75000000  0.74460122  0.35361919  1
  Rh  Rh49  1  0.25000000  0.25539878  0.64638081  1
  Rh  Rh50  1  0.75000000  0.60901797  0.25539878  1
  Rh  Rh51  1  0.25000000  0.39098203  0.74460122  1
  Rh  Rh52  1  0.75000000  0.64638081  0.39098203  1
  Rh  Rh53  1  0.25000000  0.35361919  0.60901797  1
  Rh  Rh54  1  0.75000000  0.44680804  0.69652908  1
  Rh  Rh55  1  0.25000000  0.55319196  0.30347092  1
  Rh  Rh56  1  0.75000000  0.24972104  0.55319197  1
  Rh  Rh57  1  0.25000000  0.75027896  0.44680803  1
  Rh  Rh58  1  0.75000000  0.30347092  0.75027896  1
  Rh  Rh59  1  0.25000000  0.69652908  0.24972104  1
  Rh  Rh60  1  0.75000000  0.85983877  0.15447307  1
  Rh  Rh61  1  0.25000000  0.14016123  0.84552693  1
  Rh  Rh62  1  0.75000000  0.29463430  0.14016123  1
  Rh  Rh63  1  0.25000000  0.70536570  0.85983877  1
  Rh  Rh64  1  0.75000000  0.84552693  0.70536570  1
  Rh  Rh65  1  0.25000000  0.15447307  0.29463430  1
  Rh  Rh66  1  0.75000000  0.95777785  0.50622584  1
  Rh  Rh67  1  0.25000000  0.04222215  0.49377416  1
  Rh  Rh68  1  0.75000000  0.54844798  0.04222215  1
  Rh  Rh69  1  0.25000000  0.45155202  0.95777785  1
  Rh  Rh70  1  0.75000000  0.49377416  0.45155202  1
  Rh  Rh71  1  0.25000000  0.50622584  0.54844798  1
  Rh  Rh72  1  0.75000000  0.59157402  0.79839452  1
  Rh  Rh73  1  0.25000000  0.40842598  0.20160548  1
  Rh  Rh74  1  0.75000000  0.20682050  0.40842598  1
  Rh  Rh75  1  0.25000000  0.79317950  0.59157402  1
  Rh  Rh76  1  0.75000000  0.20160548  0.79317950  1
  Rh  Rh77  1  0.25000000  0.79839452  0.20682050  1
  Rh  Rh78  1  0.75000000  0.80218454  0.94343792  1
  Rh  Rh79  1  0.25000000  0.19781546  0.05656208  1
  Rh  Rh80  1  0.75000000  0.14125338  0.19781546  1
  Rh  Rh81  1  0.25000000  0.85874662  0.80218454  1
  Rh  Rh82  1  0.75000000  0.05656208  0.85874662  1
  Rh  Rh83  1  0.25000000  0.94343792  0.14125338  1
  Rh  Rh84  1  0.75000000  0.89955265  0.29434090  1
  Rh  Rh85  1  0.25000000  0.10044735  0.70565910  1
  Rh  Rh86  1  0.75000000  0.39478824  0.10044735  1
  Rh  Rh87  1  0.25000000  0.60521176  0.89955265  1
  Rh  Rh88  1  0.75000000  0.70565910  0.60521176  1
  Rh  Rh89  1  0.25000000  0.29434090  0.39478824  1
  Rh  Rh90  1  0.75000000  0.91092438  0.91766800  1
  Rh  Rh91  1  0.25000000  0.08907562  0.08233200  1
  Rh  Rh92  1  0.75000000  0.00674362  0.08907562  1
  Rh  Rh93  1  0.25000000  0.99325638  0.91092438  1
  Rh  Rh94  1  0.75000000  0.08233200  0.99325638  1
  Rh  Rh95  1  0.25000000  0.91766800  0.00674362  1
  Rh  Rh96  1  0.75000000  0.55168807  0.65743491  1
  Rh  Rh97  1  0.25000000  0.44831193  0.34256509  1
  Rh  Rh98  1  0.75000000  0.10574684  0.44831193  1
  Rh  Rh99  1  0.25000000  0.89425316  0.55168807  1
  Rh  Rh100  1  0.75000000  0.34256509  0.89425316  1
  Rh  Rh101  1  0.25000000  0.65743491  0.10574684  1
  Rh  Rh102  1  0.75000000  0.64832365  0.00438643  1
  Rh  Rh103  1  0.25000000  0.35167635  0.99561357  1
  Rh  Rh104  1  0.75000000  0.35606278  0.35167635  1
  Rh  Rh105  1  0.25000000  0.64393722  0.64832365  1
  Rh  Rh106  1  0.75000000  0.99561357  0.64393722  1
  Rh  Rh107  1  0.25000000  0.00438643  0.35606278  1
