# generated using pymatgen
data_EuGe3Pd
_symmetry_space_group_name_H-M   'P 1'
_cell_length_a   6.07117106
_cell_length_b   6.07117106
_cell_length_c   6.07117106
_cell_angle_alpha   136.82123595
_cell_angle_beta   136.82123595
_cell_angle_gamma   62.71321467
_symmetry_Int_Tables_number   1
_chemical_formula_structural   EuGe3Pd
_chemical_formula_sum   'Eu1 Ge3 Pd1'
_cell_volume   103.48806710
_cell_formula_units_Z   1
loop_
 _symmetry_equiv_pos_site_id
 _symmetry_equiv_pos_as_xyz
  1  'x, y, z'
loop_
 _atom_site_type_symbol
 _atom_site_label
 _atom_site_symmetry_multiplicity
 _atom_site_fract_x
 _atom_site_fract_y
 _atom_site_fract_z
 _atom_site_occupancy
  Eu  Eu0  1  0.99960900  0.99960900  0.00000000  1
  Ge  Ge1  1  0.25811200  0.75811200  0.50000000  1
  Ge  Ge2  1  0.75811200  0.25811200  0.50000000  1
  Ge  Ge3  1  0.40920100  0.40920100  0.00000000  1
  Pd  Pd4  1  0.64796700  0.64796700  0.00000000  1
