# generated using pymatgen
data_Re2BiO6
_symmetry_space_group_name_H-M   'P 1'
_cell_length_a   4.99645900
_cell_length_b   5.59226725
_cell_length_c   8.50736990
_cell_angle_alpha   92.15817848
_cell_angle_beta   107.07689077
_cell_angle_gamma   90.00000000
_symmetry_Int_Tables_number   1
_chemical_formula_structural   Re2BiO6
_chemical_formula_sum   'Re4 Bi2 O12'
_cell_volume   227.05234504
_cell_formula_units_Z   2
loop_
 _symmetry_equiv_pos_site_id
 _symmetry_equiv_pos_as_xyz
  1  'x, y, z'
loop_
 _atom_site_type_symbol
 _atom_site_label
 _atom_site_symmetry_multiplicity
 _atom_site_fract_x
 _atom_site_fract_y
 _atom_site_fract_z
 _atom_site_occupancy
  Re  Re0  1  0.58331100  0.11239100  0.63735100  1
  Re  Re1  1  0.94595900  0.38760900  0.36264900  1
  Re  Re2  1  0.41668900  0.88760900  0.36264900  1
  Re  Re3  1  0.05404100  0.61239100  0.63735100  1
  Bi  Bi4  1  0.72472200  0.75000000  0.00000000  1
  Bi  Bi5  1  0.27527800  0.25000000  0.00000000  1
  O  O6  1  0.30588400  0.82989600  0.56836600  1
  O  O7  1  0.73751800  0.67010400  0.43163400  1
  O  O8  1  0.69411600  0.17010400  0.43163400  1
  O  O9  1  0.26248200  0.32989600  0.56836600  1
  O  O10  1  0.88947900  0.88938100  0.72242400  1
  O  O11  1  0.16705600  0.61061900  0.27757600  1
  O  O12  1  0.11052100  0.11061900  0.27757600  1
  O  O13  1  0.83294400  0.38938100  0.72242400  1
  O  O14  1  0.52765200  0.08272100  0.85850800  1
  O  O15  1  0.66914400  0.41727900  0.14149200  1
  O  O16  1  0.47234800  0.91727900  0.14149200  1
  O  O17  1  0.33085600  0.58272100  0.85850800  1
