# generated using pymatgen
data_Dy3NiPd2
_symmetry_space_group_name_H-M   'P 1'
_cell_length_a   4.49258700
_cell_length_b   5.52677800
_cell_length_c   10.54499966
_cell_angle_alpha   83.02416924
_cell_angle_beta   90.00000000
_cell_angle_gamma   90.00000000
_symmetry_Int_Tables_number   1
_chemical_formula_structural   Dy3NiPd2
_chemical_formula_sum   'Dy6 Ni2 Pd4'
_cell_volume   259.88921115
_cell_formula_units_Z   2
loop_
 _symmetry_equiv_pos_site_id
 _symmetry_equiv_pos_as_xyz
  1  'x, y, z'
loop_
 _atom_site_type_symbol
 _atom_site_label
 _atom_site_symmetry_multiplicity
 _atom_site_fract_x
 _atom_site_fract_y
 _atom_site_fract_z
 _atom_site_occupancy
  Dy  Dy0  1  0.25000000  0.40414800  0.78374800  1
  Dy  Dy1  1  0.75000000  0.59585200  0.21625200  1
  Dy  Dy2  1  0.25000000  0.11125100  0.12374600  1
  Dy  Dy3  1  0.75000000  0.88874900  0.87625400  1
  Dy  Dy4  1  0.25000000  0.25880500  0.45626700  1
  Dy  Dy5  1  0.75000000  0.74119500  0.54373300  1
  Ni  Ni6  1  0.25000000  0.77477400  0.35963000  1
  Ni  Ni7  1  0.75000000  0.22522600  0.64037000  1
  Pd  Pd8  1  0.25000000  0.64624100  0.02807800  1
  Pd  Pd9  1  0.75000000  0.35375900  0.97192200  1
  Pd  Pd10  1  0.25000000  0.92370600  0.69400600  1
  Pd  Pd11  1  0.75000000  0.07629400  0.30599400  1
