# generated using pymatgen
data_Sr3SbI3
_symmetry_space_group_name_H-M   'P 1'
_cell_length_a   11.68086578
_cell_length_b   11.68086578
_cell_length_c   11.68086578
_cell_angle_alpha   109.47122063
_cell_angle_beta   109.47122063
_cell_angle_gamma   109.47122063
_symmetry_Int_Tables_number   1
_chemical_formula_structural   Sr3SbI3
_chemical_formula_sum   'Sr12 Sb4 I12'
_cell_volume   1226.88317219
_cell_formula_units_Z   4
loop_
 _symmetry_equiv_pos_site_id
 _symmetry_equiv_pos_as_xyz
  1  'x, y, z'
loop_
 _atom_site_type_symbol
 _atom_site_label
 _atom_site_symmetry_multiplicity
 _atom_site_fract_x
 _atom_site_fract_y
 _atom_site_fract_z
 _atom_site_occupancy
  Sr  Sr0  1  0.48422700  0.49211300  0.24211300  1
  Sr  Sr1  1  0.75000000  0.24211300  0.25788700  1
  Sr  Sr2  1  0.75000000  0.00788700  0.49211300  1
  Sr  Sr3  1  0.24211300  0.48422700  0.49211300  1
  Sr  Sr4  1  0.25788700  0.75000000  0.24211300  1
  Sr  Sr5  1  0.01577300  0.25788700  0.00788700  1
  Sr  Sr6  1  0.00788700  0.01577300  0.25788700  1
  Sr  Sr7  1  0.49211300  0.75000000  0.00788700  1
  Sr  Sr8  1  0.49211300  0.24211300  0.48422700  1
  Sr  Sr9  1  0.00788700  0.49211300  0.75000000  1
  Sr  Sr10  1  0.25788700  0.00788700  0.01577300  1
  Sr  Sr11  1  0.24211300  0.25788700  0.75000000  1
  Sb  Sb12  1  0.25000000  0.25000000  0.25000000  1
  Sb  Sb13  1  0.50000000  0.00000000  0.25000000  1
  Sb  Sb14  1  0.00000000  0.25000000  0.50000000  1
  Sb  Sb15  1  0.25000000  0.50000000  0.00000000  1
  I  I16  1  0.25000000  0.75140600  0.74859400  1
  I  I17  1  0.50281200  0.50140600  0.75140600  1
  I  I18  1  0.99718800  0.74859400  0.99859400  1
  I  I19  1  0.74859400  0.25000000  0.75140600  1
  I  I20  1  0.99859400  0.99718800  0.74859400  1
  I  I21  1  0.25000000  0.99859400  0.50140600  1
  I  I22  1  0.75140600  0.50281200  0.50140600  1
  I  I23  1  0.50140600  0.25000000  0.99859400  1
  I  I24  1  0.75140600  0.74859400  0.25000000  1
  I  I25  1  0.74859400  0.99859400  0.99718800  1
  I  I26  1  0.99859400  0.50140600  0.25000000  1
  I  I27  1  0.50140600  0.75140600  0.50281200  1
