# generated using pymatgen
data_SrNd4Si3O13
_symmetry_space_group_name_H-M   'P 1'
_cell_length_a   9.67851847
_cell_length_b   9.67851847
_cell_length_c   7.16195100
_cell_angle_alpha   90.00000000
_cell_angle_beta   90.00000000
_cell_angle_gamma   120.00000320
_symmetry_Int_Tables_number   1
_chemical_formula_structural   SrNd4Si3O13
_chemical_formula_sum   'Sr2 Nd8 Si6 O26'
_cell_volume   581.00481195
_cell_formula_units_Z   2
loop_
 _symmetry_equiv_pos_site_id
 _symmetry_equiv_pos_as_xyz
  1  'x, y, z'
loop_
 _atom_site_type_symbol
 _atom_site_label
 _atom_site_symmetry_multiplicity
 _atom_site_fract_x
 _atom_site_fract_y
 _atom_site_fract_z
 _atom_site_occupancy
  Sr  Sr0  1  0.33333300  0.66666700  0.99877900  1
  Sr  Sr1  1  0.66666700  0.33333300  0.49877900  1
  Nd  Nd2  1  0.66666700  0.33333300  0.99872900  1
  Nd  Nd3  1  0.33333300  0.66666700  0.49872900  1
  Nd  Nd4  1  0.23326400  0.99094300  0.75005500  1
  Nd  Nd5  1  0.75767900  0.76673600  0.75005500  1
  Nd  Nd6  1  0.00905700  0.24232100  0.75005500  1
  Nd  Nd7  1  0.76673600  0.00905700  0.25005500  1
  Nd  Nd8  1  0.24232100  0.23326400  0.25005500  1
  Nd  Nd9  1  0.99094300  0.75767900  0.25005500  1
  Si  Si10  1  0.97126100  0.60202800  0.74874600  1
  Si  Si11  1  0.63076700  0.02873900  0.74874600  1
  Si  Si12  1  0.39797200  0.36923300  0.74874600  1
  Si  Si13  1  0.02873900  0.39797200  0.24874600  1
  Si  Si14  1  0.36923300  0.97126100  0.24874600  1
  Si  Si15  1  0.60202800  0.63076700  0.24874600  1
  O  O16  1  0.90969700  0.65872000  0.93402000  1
  O  O17  1  0.74902300  0.09030300  0.93402000  1
  O  O18  1  0.34128000  0.25097700  0.93402000  1
  O  O19  1  0.09030300  0.34128000  0.43402000  1
  O  O20  1  0.25097700  0.90969700  0.43402000  1
  O  O21  1  0.65872000  0.74902300  0.43402000  1
  O  O22  1  0.09119900  0.33771000  0.06848700  1
  O  O23  1  0.24651000  0.90880100  0.06848700  1
  O  O24  1  0.66229000  0.75349000  0.06848700  1
  O  O25  1  0.90880100  0.66229000  0.56848700  1
  O  O26  1  0.75349000  0.09119900  0.56848700  1
  O  O27  1  0.33771000  0.24651000  0.56848700  1
  O  O28  1  0.16570200  0.68505500  0.74001900  1
  O  O29  1  0.51935300  0.83429800  0.74001900  1
  O  O30  1  0.31494500  0.48064700  0.74001900  1
  O  O31  1  0.83429800  0.31494500  0.24001900  1
  O  O32  1  0.48064700  0.16570200  0.24001900  1
  O  O33  1  0.68505500  0.51935300  0.24001900  1
  O  O34  1  0.87882300  0.40586000  0.75873800  1
  O  O35  1  0.52703700  0.12117700  0.75873800  1
  O  O36  1  0.59414000  0.47296300  0.75873800  1
  O  O37  1  0.12117700  0.59414000  0.25873800  1
  O  O38  1  0.47296300  0.87882300  0.25873800  1
  O  O39  1  0.40586000  0.52703700  0.25873800  1
  O  O40  1  0.00000000  0.00000000  0.75228400  1
  O  O41  1  0.00000000  0.00000000  0.25228400  1
