# generated using pymatgen
data_EuIn4Au
_symmetry_space_group_name_H-M   'P 1'
_cell_length_a   8.94528236
_cell_length_b   8.94528236
_cell_length_c   7.56369700
_cell_angle_alpha   90.00000000
_cell_angle_beta   90.00000000
_cell_angle_gamma   149.29974228
_symmetry_Int_Tables_number   1
_chemical_formula_structural   EuIn4Au
_chemical_formula_sum   'Eu2 In8 Au2'
_cell_volume   308.99950019
_cell_formula_units_Z   2
loop_
 _symmetry_equiv_pos_site_id
 _symmetry_equiv_pos_as_xyz
  1  'x, y, z'
loop_
 _atom_site_type_symbol
 _atom_site_label
 _atom_site_symmetry_multiplicity
 _atom_site_fract_x
 _atom_site_fract_y
 _atom_site_fract_z
 _atom_site_occupancy
  Eu  Eu0  1  0.62569900  0.37430100  0.75000000  1
  Eu  Eu1  1  0.37430100  0.62569900  0.25000000  1
  In  In2  1  0.82127900  0.17872100  0.95174800  1
  In  In3  1  0.17872100  0.82127900  0.04825200  1
  In  In4  1  0.82127900  0.17872100  0.54825200  1
  In  In5  1  0.17872100  0.82127900  0.45174800  1
  In  In6  1  0.43664900  0.56335100  0.75000000  1
  In  In7  1  0.56335100  0.43664900  0.25000000  1
  In  In8  1  0.00000000  0.00000000  0.00000000  1
  In  In9  1  0.00000000  0.00000000  0.50000000  1
  Au  Au10  1  0.27409900  0.72590100  0.75000000  1
  Au  Au11  1  0.72590100  0.27409900  0.25000000  1
