# generated using pymatgen
data_Eu(AlSe2)2
_symmetry_space_group_name_H-M   'P 1'
_cell_length_a   6.30708454
_cell_length_b   6.30708454
_cell_length_c   11.03448400
_cell_angle_alpha   90.00000000
_cell_angle_beta   90.00000000
_cell_angle_gamma   120.42771463
_symmetry_Int_Tables_number   1
_chemical_formula_structural   Eu(AlSe2)2
_chemical_formula_sum   'Eu2 Al4 Se8'
_cell_volume   378.48790229
_cell_formula_units_Z   2
loop_
 _symmetry_equiv_pos_site_id
 _symmetry_equiv_pos_as_xyz
  1  'x, y, z'
loop_
 _atom_site_type_symbol
 _atom_site_label
 _atom_site_symmetry_multiplicity
 _atom_site_fract_x
 _atom_site_fract_y
 _atom_site_fract_z
 _atom_site_occupancy
  Eu  Eu0  1  0.50000000  0.50000000  0.75000000  1
  Eu  Eu1  1  0.50000000  0.50000000  0.25000000  1
  Al  Al2  1  0.76076200  0.24125200  0.50000000  1
  Al  Al3  1  0.23923800  0.75874800  0.50000000  1
  Al  Al4  1  0.75874800  0.23923800  0.00000000  1
  Al  Al5  1  0.24125200  0.76076200  0.00000000  1
  Se  Se6  1  0.34753400  0.18433900  0.50000000  1
  Se  Se7  1  0.65246600  0.81566100  0.50000000  1
  Se  Se8  1  0.81566100  0.65246600  0.00000000  1
  Se  Se9  1  0.18433900  0.34753400  0.00000000  1
  Se  Se10  1  0.50000000  0.00000000  0.83198900  1
  Se  Se11  1  0.00000000  0.50000000  0.66801100  1
  Se  Se12  1  0.50000000  0.00000000  0.16801100  1
  Se  Se13  1  0.00000000  0.50000000  0.33198900  1
