# generated using pymatgen
data_Lu2SiO5
_symmetry_space_group_name_H-M   'P 1'
_cell_length_a   7.88268494
_cell_length_b   7.88268494
_cell_length_c   10.28811137
_cell_angle_alpha   61.31669944
_cell_angle_beta   61.31669944
_cell_angle_gamma   50.08516105
_symmetry_Int_Tables_number   1
_chemical_formula_structural   Lu2SiO5
_chemical_formula_sum   'Lu8 Si4 O20'
_cell_volume   415.85999554
_cell_formula_units_Z   4
loop_
 _symmetry_equiv_pos_site_id
 _symmetry_equiv_pos_as_xyz
  1  'x, y, z'
loop_
 _atom_site_type_symbol
 _atom_site_label
 _atom_site_symmetry_multiplicity
 _atom_site_fract_x
 _atom_site_fract_y
 _atom_site_fract_z
 _atom_site_occupancy
  Lu  Lu0  1  0.52289300  0.75965200  0.66084100  1
  Lu  Lu1  1  0.24034800  0.47710700  0.83915900  1
  Lu  Lu2  1  0.47710700  0.24034800  0.33915900  1
  Lu  Lu3  1  0.75965200  0.52289300  0.16084100  1
  Lu  Lu4  1  0.29506600  0.78147800  0.02863200  1
  Lu  Lu5  1  0.21852200  0.70493400  0.47136800  1
  Lu  Lu6  1  0.70493400  0.21852200  0.97136800  1
  Lu  Lu7  1  0.78147800  0.29506600  0.52863200  1
  Si  Si8  1  0.90982900  0.72508700  0.30601300  1
  Si  Si9  1  0.27491300  0.09017100  0.19398700  1
  Si  Si10  1  0.09017100  0.27491300  0.69398700  1
  Si  Si11  1  0.72508700  0.90982900  0.80601300  1
  O  O12  1  0.42114000  0.61148700  0.60435900  1
  O  O13  1  0.38851300  0.57886000  0.89564100  1
  O  O14  1  0.57886000  0.38851300  0.39564100  1
  O  O15  1  0.61148700  0.42114000  0.10435900  1
  O  O16  1  0.72030600  0.87397700  0.43372800  1
  O  O17  1  0.12602300  0.27969400  0.06627200  1
  O  O18  1  0.27969400  0.12602300  0.56627200  1
  O  O19  1  0.87397700  0.72030600  0.93372800  1
  O  O20  1  0.85200900  0.54986900  0.32137500  1
  O  O21  1  0.45013100  0.14799100  0.17862500  1
  O  O22  1  0.14799100  0.45013100  0.67862500  1
  O  O23  1  0.54986900  0.85200900  0.82137500  1
  O  O24  1  0.89764500  0.92568500  0.63399000  1
  O  O25  1  0.07431500  0.10235500  0.86601000  1
  O  O26  1  0.10235500  0.07431500  0.36601000  1
  O  O27  1  0.92568500  0.89764500  0.13399000  1
  O  O28  1  0.58957700  0.16628400  0.83064900  1
  O  O29  1  0.83371600  0.41042300  0.66935100  1
  O  O30  1  0.41042300  0.83371600  0.16935100  1
  O  O31  1  0.16628400  0.58957700  0.33064900  1
