# generated using pymatgen
data_Y(MnAl2)4
_symmetry_space_group_name_H-M   'P 1'
_cell_length_a   6.68921472
_cell_length_b   6.68921472
_cell_length_c   6.68921472
_cell_angle_alpha   97.83098544
_cell_angle_beta   97.83098544
_cell_angle_gamma   136.67699267
_symmetry_Int_Tables_number   1
_chemical_formula_structural   Y(MnAl2)4
_chemical_formula_sum   'Y1 Mn4 Al8'
_cell_volume   190.85924088
_cell_formula_units_Z   1
loop_
 _symmetry_equiv_pos_site_id
 _symmetry_equiv_pos_as_xyz
  1  'x, y, z'
loop_
 _atom_site_type_symbol
 _atom_site_label
 _atom_site_symmetry_multiplicity
 _atom_site_fract_x
 _atom_site_fract_y
 _atom_site_fract_z
 _atom_site_occupancy
  Y  Y0  1  0.00000000  0.00000000  0.00000000  1
  Mn  Mn1  1  0.00000000  0.50000000  0.00000000  1
  Mn  Mn2  1  0.50000000  0.50000000  0.50000000  1
  Mn  Mn3  1  0.00000000  0.00000000  0.50000000  1
  Mn  Mn4  1  0.50000000  0.00000000  0.00000000  1
  Al  Al5  1  0.34165300  0.00000000  0.34165300  1
  Al  Al6  1  0.00000000  0.65834700  0.65834700  1
  Al  Al7  1  0.00000000  0.34165300  0.34165300  1
  Al  Al8  1  0.65834700  0.00000000  0.65834700  1
  Al  Al9  1  0.28147900  0.50000000  0.78147900  1
  Al  Al10  1  0.50000000  0.71852100  0.21852100  1
  Al  Al11  1  0.50000000  0.28147900  0.78147900  1
  Al  Al12  1  0.71852100  0.50000000  0.21852100  1
