# generated using pymatgen
data_BaHf(SiO3)3
_symmetry_space_group_name_H-M   'P 1'
_cell_length_a   6.83591161
_cell_length_b   6.83591161
_cell_length_c   10.11018000
_cell_angle_alpha   90.00000000
_cell_angle_beta   90.00000000
_cell_angle_gamma   119.99999623
_symmetry_Int_Tables_number   1
_chemical_formula_structural   BaHf(SiO3)3
_chemical_formula_sum   'Ba2 Hf2 Si6 O18'
_cell_volume   409.14986584
_cell_formula_units_Z   2
loop_
 _symmetry_equiv_pos_site_id
 _symmetry_equiv_pos_as_xyz
  1  'x, y, z'
loop_
 _atom_site_type_symbol
 _atom_site_label
 _atom_site_symmetry_multiplicity
 _atom_site_fract_x
 _atom_site_fract_y
 _atom_site_fract_z
 _atom_site_occupancy
  Ba  Ba0  1  0.00000000  0.00000000  0.00000000  1
  Ba  Ba1  1  0.00000000  0.00000000  0.50000000  1
  Hf  Hf2  1  0.33333300  0.66666700  0.00000000  1
  Hf  Hf3  1  0.33333300  0.66666700  0.50000000  1
  Si  Si4  1  0.94754300  0.39387500  0.75000000  1
  Si  Si5  1  0.60612500  0.55366900  0.75000000  1
  Si  Si6  1  0.44633100  0.05245700  0.75000000  1
  Si  Si7  1  0.94754300  0.55366900  0.25000000  1
  Si  Si8  1  0.60612500  0.05245700  0.25000000  1
  Si  Si9  1  0.44633100  0.39387500  0.25000000  1
  O  O10  1  0.86132300  0.58117300  0.75000000  1
  O  O11  1  0.41882700  0.28015000  0.75000000  1
  O  O12  1  0.71985000  0.13867700  0.75000000  1
  O  O13  1  0.86132300  0.28015000  0.25000000  1
  O  O14  1  0.41882700  0.13867700  0.25000000  1
  O  O15  1  0.71985000  0.58117300  0.25000000  1
  O  O16  1  0.08722000  0.41088400  0.88380000  1
  O  O17  1  0.58911600  0.67633600  0.88380000  1
  O  O18  1  0.32366400  0.91278000  0.88380000  1
  O  O19  1  0.08722000  0.41088400  0.61620000  1
  O  O20  1  0.58911600  0.67633600  0.61620000  1
  O  O21  1  0.32366400  0.91278000  0.61620000  1
  O  O22  1  0.08722000  0.67633600  0.38380000  1
  O  O23  1  0.58911600  0.91278000  0.38380000  1
  O  O24  1  0.32366400  0.41088400  0.38380000  1
  O  O25  1  0.08722000  0.67633600  0.11620000  1
  O  O26  1  0.58911600  0.91278000  0.11620000  1
  O  O27  1  0.32366400  0.41088400  0.11620000  1
