# generated using pymatgen
data_TlAgPSe3
_symmetry_space_group_name_H-M   'P 1'
_cell_length_a   12.82208200
_cell_length_b   9.84255300
_cell_length_c   10.48154777
_cell_angle_alpha   82.88649706
_cell_angle_beta   90.00000000
_cell_angle_gamma   90.00000000
_symmetry_Int_Tables_number   1
_chemical_formula_structural   TlAgPSe3
_chemical_formula_sum   'Tl8 Ag8 P8 Se24'
_cell_volume   1312.61069477
_cell_formula_units_Z   8
loop_
 _symmetry_equiv_pos_site_id
 _symmetry_equiv_pos_as_xyz
  1  'x, y, z'
loop_
 _atom_site_type_symbol
 _atom_site_label
 _atom_site_symmetry_multiplicity
 _atom_site_fract_x
 _atom_site_fract_y
 _atom_site_fract_z
 _atom_site_occupancy
  Tl  Tl0  1  0.61572500  0.38137600  0.08048800  1
  Tl  Tl1  1  0.11572500  0.11862400  0.91951200  1
  Tl  Tl2  1  0.38427500  0.61862400  0.91951200  1
  Tl  Tl3  1  0.88427500  0.88137600  0.08048800  1
  Tl  Tl4  1  0.82688900  0.39436500  0.67576600  1
  Tl  Tl5  1  0.32688900  0.10563500  0.32423400  1
  Tl  Tl6  1  0.17311100  0.60563500  0.32423400  1
  Tl  Tl7  1  0.67311100  0.89436500  0.67576600  1
  Ag  Ag8  1  0.05240300  0.21181200  0.21485800  1
  Ag  Ag9  1  0.55240300  0.28818800  0.78514200  1
  Ag  Ag10  1  0.94759700  0.78818800  0.78514200  1
  Ag  Ag11  1  0.44759700  0.71181200  0.21485800  1
  Ag  Ag12  1  0.81534200  0.23668900  0.32550900  1
  Ag  Ag13  1  0.31534200  0.26331100  0.67449100  1
  Ag  Ag14  1  0.18465800  0.76331100  0.67449100  1
  Ag  Ag15  1  0.68465800  0.73668900  0.32550900  1
  P  P16  1  0.52314600  0.41555000  0.43487500  1
  P  P17  1  0.02314600  0.08445000  0.56512500  1
  P  P18  1  0.47685400  0.58445000  0.56512500  1
  P  P19  1  0.97685400  0.91555000  0.43487500  1
  P  P20  1  0.91829800  0.49554800  0.04667900  1
  P  P21  1  0.41829800  0.00445200  0.95332100  1
  P  P22  1  0.08170200  0.50445200  0.95332100  1
  P  P23  1  0.58170200  0.99554800  0.04667900  1
  Se  Se24  1  0.57275800  0.08760500  0.22812800  1
  Se  Se25  1  0.07275800  0.41239500  0.77187200  1
  Se  Se26  1  0.42724200  0.91239500  0.77187200  1
  Se  Se27  1  0.92724200  0.58760500  0.22812800  1
  Se  Se28  1  0.18614800  0.39613100  0.10144800  1
  Se  Se29  1  0.68614800  0.10386900  0.89855200  1
  Se  Se30  1  0.81385200  0.60386900  0.89855200  1
  Se  Se31  1  0.31385200  0.89613100  0.10144800  1
  Se  Se32  1  0.08868900  0.94668000  0.27069900  1
  Se  Se33  1  0.58868900  0.55332000  0.72930100  1
  Se  Se34  1  0.91131100  0.05332000  0.72930100  1
  Se  Se35  1  0.41131100  0.44668000  0.27069900  1
  Se  Se36  1  0.69181700  0.45700800  0.37627000  1
  Se  Se37  1  0.19181700  0.04299200  0.62373000  1
  Se  Se38  1  0.30818300  0.54299200  0.62373000  1
  Se  Se39  1  0.80818300  0.95700800  0.37627000  1
  Se  Se40  1  0.49909300  0.21143300  0.54751500  1
  Se  Se41  1  0.99909300  0.28856700  0.45248500  1
  Se  Se42  1  0.50090700  0.78856700  0.45248500  1
  Se  Se43  1  0.00090700  0.71143300  0.54751500  1
  Se  Se44  1  0.87545700  0.27466200  0.07171200  1
  Se  Se45  1  0.37545700  0.22533800  0.92828800  1
  Se  Se46  1  0.12454300  0.72533800  0.92828800  1
  Se  Se47  1  0.62454300  0.77466200  0.07171200  1
