# generated using pymatgen
data_K2Mg2Be3F12
_symmetry_space_group_name_H-M   'P 1'
_cell_length_a   10.03943700
_cell_length_b   10.03943700
_cell_length_c   10.03943700
_cell_angle_alpha   90.00000000
_cell_angle_beta   90.00000000
_cell_angle_gamma   90.00000000
_symmetry_Int_Tables_number   1
_chemical_formula_structural   K2Mg2Be3F12
_chemical_formula_sum   'K8 Mg8 Be12 F48'
_cell_volume   1011.87781964
_cell_formula_units_Z   4
loop_
 _symmetry_equiv_pos_site_id
 _symmetry_equiv_pos_as_xyz
  1  'x, y, z'
loop_
 _atom_site_type_symbol
 _atom_site_label
 _atom_site_symmetry_multiplicity
 _atom_site_fract_x
 _atom_site_fract_y
 _atom_site_fract_z
 _atom_site_occupancy
  K  K0  1  0.70150500  0.79849500  0.20150500  1
  K  K1  1  0.79849500  0.20150500  0.70150500  1
  K  K2  1  0.20150500  0.70150500  0.79849500  1
  K  K3  1  0.29849500  0.29849500  0.29849500  1
  K  K4  1  0.93519700  0.56480300  0.43519700  1
  K  K5  1  0.56480300  0.43519700  0.93519700  1
  K  K6  1  0.43519700  0.93519700  0.56480300  1
  K  K7  1  0.06480300  0.06480300  0.06480300  1
  Mg  Mg8  1  0.14670400  0.35329600  0.64670400  1
  Mg  Mg9  1  0.35329600  0.64670400  0.14670400  1
  Mg  Mg10  1  0.64670400  0.14670400  0.35329600  1
  Mg  Mg11  1  0.85329600  0.85329600  0.85329600  1
  Mg  Mg12  1  0.41469300  0.08530700  0.91469300  1
  Mg  Mg13  1  0.08530700  0.91469300  0.41469300  1
  Mg  Mg14  1  0.91469300  0.41469300  0.08530700  1
  Mg  Mg15  1  0.58530700  0.58530700  0.58530700  1
  Be  Be16  1  0.62619100  0.46004800  0.27145000  1
  Be  Be17  1  0.87380900  0.53995200  0.77145000  1
  Be  Be18  1  0.37380900  0.96004800  0.22855000  1
  Be  Be19  1  0.12619100  0.03995200  0.72855000  1
  Be  Be20  1  0.96004800  0.22855000  0.37380900  1
  Be  Be21  1  0.72855000  0.12619100  0.03995200  1
  Be  Be22  1  0.22855000  0.37380900  0.96004800  1
  Be  Be23  1  0.53995200  0.77145000  0.87380900  1
  Be  Be24  1  0.77145000  0.87380900  0.53995200  1
  Be  Be25  1  0.03995200  0.72855000  0.12619100  1
  Be  Be26  1  0.46004800  0.27145000  0.62619100  1
  Be  Be27  1  0.27145000  0.62619100  0.46004800  1
  F  F28  1  0.41719400  0.65254000  0.50354800  1
  F  F29  1  0.42396400  0.81278600  0.23351200  1
  F  F30  1  0.07603600  0.18721400  0.73351200  1
  F  F31  1  0.81278600  0.23351200  0.42396400  1
  F  F32  1  0.97831900  0.44799000  0.70011600  1
  F  F33  1  0.52168100  0.55201000  0.20011600  1
  F  F34  1  0.20011600  0.52168100  0.55201000  1
  F  F35  1  0.55201000  0.20011600  0.52168100  1
  F  F36  1  0.94799000  0.79988400  0.02168100  1
  F  F37  1  0.70011600  0.97831900  0.44799000  1
  F  F38  1  0.44799000  0.70011600  0.97831900  1
  F  F39  1  0.29988400  0.47831900  0.05201000  1
  F  F40  1  0.79988400  0.02168100  0.94799000  1
  F  F41  1  0.05201000  0.29988400  0.47831900  1
  F  F42  1  0.02168100  0.94799000  0.79988400  1
  F  F43  1  0.47831900  0.05201000  0.29988400  1
  F  F44  1  0.65254000  0.50354800  0.41719400  1
  F  F45  1  0.92396400  0.68721400  0.76648800  1
  F  F46  1  0.50354800  0.41719400  0.65254000  1
  F  F47  1  0.99645200  0.58280600  0.15254000  1
  F  F48  1  0.91719400  0.84746000  0.49645200  1
  F  F49  1  0.49645200  0.91719400  0.84746000  1
  F  F50  1  0.08280600  0.34746000  0.00354800  1
  F  F51  1  0.58280600  0.15254000  0.99645200  1
  F  F52  1  0.00354800  0.08280600  0.34746000  1
  F  F53  1  0.15254000  0.99645200  0.58280600  1
  F  F54  1  0.34746000  0.00354800  0.08280600  1
  F  F55  1  0.84746000  0.49645200  0.91719400  1
  F  F56  1  0.75695700  0.47921100  0.18958500  1
  F  F57  1  0.18958500  0.75695700  0.47921100  1
  F  F58  1  0.47921100  0.18958500  0.75695700  1
  F  F59  1  0.02078900  0.81041500  0.25695700  1
  F  F60  1  0.68958500  0.74304300  0.52078900  1
  F  F61  1  0.52078900  0.68958500  0.74304300  1
  F  F62  1  0.31041500  0.24304300  0.97921100  1
  F  F63  1  0.81041500  0.25695700  0.02078900  1
  F  F64  1  0.97921100  0.31041500  0.24304300  1
  F  F65  1  0.25695700  0.02078900  0.81041500  1
  F  F66  1  0.24304300  0.97921100  0.31041500  1
  F  F67  1  0.74304300  0.52078900  0.68958500  1
  F  F68  1  0.57603600  0.31278600  0.26648800  1
  F  F69  1  0.26648800  0.57603600  0.31278600  1
  F  F70  1  0.31278600  0.26648800  0.57603600  1
  F  F71  1  0.18721400  0.73351200  0.07603600  1
  F  F72  1  0.76648800  0.92396400  0.68721400  1
  F  F73  1  0.73351200  0.07603600  0.18721400  1
  F  F74  1  0.23351200  0.42396400  0.81278600  1
  F  F75  1  0.68721400  0.76648800  0.92396400  1
