# generated using pymatgen
data_CePS
_symmetry_space_group_name_H-M   'P 1'
_cell_length_a   5.47124100
_cell_length_b   5.56920100
_cell_length_c   16.57375000
_cell_angle_alpha   90.00000000
_cell_angle_beta   90.00000000
_cell_angle_gamma   90.00000000
_symmetry_Int_Tables_number   1
_chemical_formula_structural   CePS
_chemical_formula_sum   'Ce8 P8 S8'
_cell_volume   505.00946901
_cell_formula_units_Z   8
loop_
 _symmetry_equiv_pos_site_id
 _symmetry_equiv_pos_as_xyz
  1  'x, y, z'
loop_
 _atom_site_type_symbol
 _atom_site_label
 _atom_site_symmetry_multiplicity
 _atom_site_fract_x
 _atom_site_fract_y
 _atom_site_fract_z
 _atom_site_occupancy
  Ce  Ce0  1  0.75000000  0.01927200  0.35427700  1
  Ce  Ce1  1  0.25000000  0.48072800  0.85427700  1
  Ce  Ce2  1  0.75000000  0.51927200  0.14572300  1
  Ce  Ce3  1  0.25000000  0.98072800  0.64572300  1
  Ce  Ce4  1  0.75000000  0.48302000  0.63393900  1
  Ce  Ce5  1  0.25000000  0.01698000  0.13393900  1
  Ce  Ce6  1  0.75000000  0.98302000  0.86606100  1
  Ce  Ce7  1  0.25000000  0.51698000  0.36606100  1
  P  P8  1  0.53259300  0.29853400  0.00193600  1
  P  P9  1  0.46740700  0.20146600  0.50193600  1
  P  P10  1  0.96740700  0.79853400  0.49806400  1
  P  P11  1  0.03259300  0.70146600  0.99806400  1
  P  P12  1  0.46740700  0.70146600  0.99806400  1
  P  P13  1  0.53259300  0.79853400  0.49806400  1
  P  P14  1  0.03259300  0.20146600  0.50193600  1
  P  P15  1  0.96740700  0.29853400  0.00193600  1
  S  S16  1  0.75000000  0.01613800  0.17886900  1
  S  S17  1  0.25000000  0.48386200  0.67886900  1
  S  S18  1  0.75000000  0.51613800  0.32113100  1
  S  S19  1  0.25000000  0.98386200  0.82113100  1
  S  S20  1  0.75000000  0.48421300  0.81303100  1
  S  S21  1  0.25000000  0.01578700  0.31303100  1
  S  S22  1  0.75000000  0.98421300  0.68696900  1
  S  S23  1  0.25000000  0.51578700  0.18696900  1
