# generated using pymatgen
data_Ba10Nd4Y(MoO6)5
_symmetry_space_group_name_H-M   'P 1'
_cell_length_a   6.06181600
_cell_length_b   6.11254006
_cell_length_c   25.08468801
_cell_angle_alpha   84.00584713
_cell_angle_beta   83.12170283
_cell_angle_gamma   60.31099506
_symmetry_Int_Tables_number   1
_chemical_formula_structural   Ba10Nd4Y(MoO6)5
_chemical_formula_sum   'Ba10 Nd4 Y1 Mo5 O30'
_cell_volume   800.54252918
_cell_formula_units_Z   1
loop_
 _symmetry_equiv_pos_site_id
 _symmetry_equiv_pos_as_xyz
  1  'x, y, z'
loop_
 _atom_site_type_symbol
 _atom_site_label
 _atom_site_symmetry_multiplicity
 _atom_site_fract_x
 _atom_site_fract_y
 _atom_site_fract_z
 _atom_site_occupancy
  Ba  Ba0  1  0.25116300  0.24752700  0.75104400  1
  Ba  Ba1  1  0.45094400  0.45047000  0.14748100  1
  Ba  Ba2  1  0.65230400  0.65075100  0.54996200  1
  Ba  Ba3  1  0.84832900  0.85136700  0.95168600  1
  Ba  Ba4  1  0.04821000  0.04744800  0.34994600  1
  Ba  Ba5  1  0.54905600  0.54953000  0.85251900  1
  Ba  Ba6  1  0.74883700  0.75247300  0.24895600  1
  Ba  Ba7  1  0.95179000  0.95255200  0.65005400  1
  Ba  Ba8  1  0.15167100  0.14863300  0.04831400  1
  Ba  Ba9  1  0.34769600  0.34924900  0.45003800  1
  Nd  Nd10  1  0.90153800  0.90028100  0.80130500  1
  Nd  Nd11  1  0.29781600  0.30010700  0.59992800  1
  Nd  Nd12  1  0.70218400  0.69989300  0.40007200  1
  Nd  Nd13  1  0.09846200  0.09971900  0.19869500  1
  Y  Y14  1  0.50000000  0.50000000  0.00000000  1
  Mo  Mo15  1  0.19845000  0.19988700  0.90202100  1
  Mo  Mo16  1  0.39945400  0.39971400  0.29947000  1
  Mo  Mo17  1  0.60054600  0.60028600  0.70053000  1
  Mo  Mo18  1  0.80155000  0.80011300  0.09797900  1
  Mo  Mo19  1  0.00000000  0.00000000  0.50000000  1
  O  O20  1  0.74109600  0.27065000  0.74698500  1
  O  O21  1  0.93939400  0.47489200  0.14524000  1
  O  O22  1  0.14312600  0.67268000  0.54690300  1
  O  O23  1  0.34269200  0.86678000  0.94870500  1
  O  O24  1  0.53738200  0.07284700  0.34656000  1
  O  O25  1  0.06060600  0.52510800  0.85476000  1
  O  O26  1  0.25890400  0.72935000  0.25301500  1
  O  O27  1  0.46261800  0.92715300  0.65344000  1
  O  O28  1  0.65730800  0.13322000  0.05129500  1
  O  O29  1  0.85687400  0.32732000  0.45309700  1
  O  O30  1  0.90076200  0.43645300  0.64548000  1
  O  O31  1  0.29032900  0.84090300  0.44682500  1
  O  O32  1  0.70079800  0.23438800  0.24474400  1
  O  O33  1  0.11242500  0.64252500  0.04613500  1
  O  O34  1  0.50110000  0.04369900  0.84962800  1
  O  O35  1  0.29920200  0.76561200  0.75525600  1
  O  O36  1  0.70967100  0.15909700  0.55317500  1
  O  O37  1  0.09923800  0.56354700  0.35452000  1
  O  O38  1  0.49890000  0.95630100  0.15037200  1
  O  O39  1  0.88757500  0.35747500  0.95386500  1
  O  O40  1  0.41804800  0.48345300  0.66172300  1
  O  O41  1  0.80512900  0.88360900  0.46091400  1
  O  O42  1  0.21657400  0.28234300  0.26069600  1
  O  O43  1  0.61310800  0.68151500  0.05904200  1
  O  O44  1  0.00642000  0.08761300  0.86374500  1
  O  O45  1  0.38689200  0.31848500  0.94095800  1
  O  O46  1  0.78342600  0.71765700  0.73930400  1
  O  O47  1  0.19487100  0.11639100  0.53908600  1
  O  O48  1  0.58195200  0.51654700  0.33827700  1
  O  O49  1  0.99358000  0.91238700  0.13625500  1
