# generated using pymatgen
data_AsXe2BrOF12
_symmetry_space_group_name_H-M   'P 1'
_cell_length_a   6.24866700
_cell_length_b   14.54009900
_cell_length_c   16.15908038
_cell_angle_alpha   90.00000000
_cell_angle_beta   112.56988484
_cell_angle_gamma   90.00000000
_symmetry_Int_Tables_number   1
_chemical_formula_structural   AsXe2BrOF12
_chemical_formula_sum   'As4 Xe8 Br4 O4 F48'
_cell_volume   1355.71042882
_cell_formula_units_Z   4
loop_
 _symmetry_equiv_pos_site_id
 _symmetry_equiv_pos_as_xyz
  1  'x, y, z'
loop_
 _atom_site_type_symbol
 _atom_site_label
 _atom_site_symmetry_multiplicity
 _atom_site_fract_x
 _atom_site_fract_y
 _atom_site_fract_z
 _atom_site_occupancy
  As  As0  1  0.71891300  0.23212800  0.20951200  1
  As  As1  1  0.28108700  0.73212800  0.29048800  1
  As  As2  1  0.28108700  0.76787200  0.79048800  1
  As  As3  1  0.71891300  0.26787200  0.70951200  1
  Xe  Xe4  1  0.04607100  0.33318900  0.03401400  1
  Xe  Xe5  1  0.95392900  0.83318900  0.46598600  1
  Xe  Xe6  1  0.95392900  0.66681100  0.96598600  1
  Xe  Xe7  1  0.04607100  0.16681100  0.53401400  1
  Xe  Xe8  1  0.68818200  0.54191500  0.19542000  1
  Xe  Xe9  1  0.31181800  0.04191500  0.30458000  1
  Xe  Xe10  1  0.31181800  0.45808500  0.80458000  1
  Xe  Xe11  1  0.68818200  0.95808500  0.69542000  1
  Br  Br12  1  0.16982200  0.40295800  0.40529900  1
  Br  Br13  1  0.83017800  0.90295800  0.09470100  1
  Br  Br14  1  0.83017800  0.59704200  0.59470100  1
  Br  Br15  1  0.16982200  0.09704200  0.90529900  1
  O  O16  1  0.23998300  0.47195200  0.48798000  1
  O  O17  1  0.76001700  0.97195200  0.01202000  1
  O  O18  1  0.76001700  0.52804800  0.51202000  1
  O  O19  1  0.23998300  0.02804800  0.98798000  1
  F  F20  1  0.00092400  0.20089400  0.97074100  1
  F  F21  1  0.99907600  0.70089400  0.52925900  1
  F  F22  1  0.99907600  0.79910600  0.02925900  1
  F  F23  1  0.00092400  0.29910600  0.47074100  1
  F  F24  1  0.08364900  0.45877200  0.09508000  1
  F  F25  1  0.91635100  0.95877200  0.40492000  1
  F  F26  1  0.91635100  0.54122800  0.90492000  1
  F  F27  1  0.08364900  0.04122800  0.59508000  1
  F  F28  1  0.84459300  0.48806600  0.32941800  1
  F  F29  1  0.15540700  0.98806600  0.17058200  1
  F  F30  1  0.15540700  0.51193400  0.67058200  1
  F  F31  1  0.84459300  0.01193400  0.82941800  1
  F  F32  1  0.53743200  0.59253300  0.06840400  1
  F  F33  1  0.46256800  0.09253300  0.43159600  1
  F  F34  1  0.46256800  0.40746700  0.93159600  1
  F  F35  1  0.53743200  0.90746700  0.56840400  1
  F  F36  1  0.81261200  0.15149800  0.29874700  1
  F  F37  1  0.18738800  0.65149800  0.20125300  1
  F  F38  1  0.18738800  0.84850200  0.70125300  1
  F  F39  1  0.81261200  0.34850200  0.79874700  1
  F  F40  1  0.98798300  0.29456100  0.26280700  1
  F  F41  1  0.01201700  0.79456100  0.23719300  1
  F  F42  1  0.01201700  0.70543900  0.73719300  1
  F  F43  1  0.98798300  0.20543900  0.76280700  1
  F  F44  1  0.45610000  0.17139200  0.15682900  1
  F  F45  1  0.54390000  0.67139200  0.34317100  1
  F  F46  1  0.54390000  0.82860800  0.84317100  1
  F  F47  1  0.45610000  0.32860800  0.65682900  1
  F  F48  1  0.85386300  0.16665800  0.15091800  1
  F  F49  1  0.14613700  0.66665800  0.34908200  1
  F  F50  1  0.14613700  0.83334200  0.84908200  1
  F  F51  1  0.85386300  0.33334200  0.65091800  1
  F  F52  1  0.59261400  0.30014700  0.26909000  1
  F  F53  1  0.40738600  0.80014700  0.23091000  1
  F  F54  1  0.40738600  0.69985300  0.73091000  1
  F  F55  1  0.59261400  0.19985300  0.76909000  1
  F  F56  1  0.63404000  0.31474900  0.12180000  1
  F  F57  1  0.36596000  0.81474900  0.37820000  1
  F  F58  1  0.36596000  0.68525100  0.87820000  1
  F  F59  1  0.63404000  0.18525100  0.62180000  1
  F  F60  1  0.28827300  0.45832700  0.33275900  1
  F  F61  1  0.71172700  0.95832700  0.16724100  1
  F  F62  1  0.71172700  0.54167300  0.66724100  1
  F  F63  1  0.28827300  0.04167300  0.83275900  1
  F  F64  1  0.41064000  0.32463100  0.43988200  1
  F  F65  1  0.58936000  0.82463100  0.06011800  1
  F  F66  1  0.58936000  0.67536900  0.56011800  1
  F  F67  1  0.41064000  0.17536900  0.93988200  1
