# generated using pymatgen
data_TiNi
_symmetry_space_group_name_H-M   'P 1'
_cell_length_a   4.05501000
_cell_length_b   2.91546100
_cell_length_c   4.75410703
_cell_angle_alpha   79.06806292
_cell_angle_beta   90.00000000
_cell_angle_gamma   90.00000000
_symmetry_Int_Tables_number   1
_chemical_formula_structural   TiNi
_chemical_formula_sum   'Ti2 Ni2'
_cell_volume   55.18418868
_cell_formula_units_Z   2
loop_
 _symmetry_equiv_pos_site_id
 _symmetry_equiv_pos_as_xyz
  1  'x, y, z'
loop_
 _atom_site_type_symbol
 _atom_site_label
 _atom_site_symmetry_multiplicity
 _atom_site_fract_x
 _atom_site_fract_y
 _atom_site_fract_z
 _atom_site_occupancy
  Ti  Ti0  1  0.25000000  0.60448300  0.71534000  1
  Ti  Ti1  1  0.75000000  0.39551700  0.28466000  1
  Ni  Ni2  1  0.25000000  0.94334900  0.17197500  1
  Ni  Ni3  1  0.75000000  0.05665100  0.82802500  1
