# generated using pymatgen
data_Dy5CoBi2
_symmetry_space_group_name_H-M   'P 1'
_cell_length_a   7.98610300
_cell_length_b   8.85697800
_cell_length_c   12.36980400
_cell_angle_alpha   90.00000000
_cell_angle_beta   90.00000000
_cell_angle_gamma   90.00000000
_symmetry_Int_Tables_number   1
_chemical_formula_structural   Dy5CoBi2
_chemical_formula_sum   'Dy20 Co4 Bi8'
_cell_volume   874.95011258
_cell_formula_units_Z   4
loop_
 _symmetry_equiv_pos_site_id
 _symmetry_equiv_pos_as_xyz
  1  'x, y, z'
loop_
 _atom_site_type_symbol
 _atom_site_label
 _atom_site_symmetry_multiplicity
 _atom_site_fract_x
 _atom_site_fract_y
 _atom_site_fract_z
 _atom_site_occupancy
  Dy  Dy0  1  0.84525900  0.75000000  0.80049600  1
  Dy  Dy1  1  0.15474100  0.25000000  0.19950400  1
  Dy  Dy2  1  0.34525900  0.25000000  0.69950400  1
  Dy  Dy3  1  0.65474100  0.75000000  0.30049600  1
  Dy  Dy4  1  0.37727600  0.75000000  0.68938100  1
  Dy  Dy5  1  0.62272400  0.25000000  0.31061900  1
  Dy  Dy6  1  0.87727600  0.25000000  0.81061900  1
  Dy  Dy7  1  0.12272400  0.75000000  0.18938100  1
  Dy  Dy8  1  0.95265100  0.75000000  0.50254000  1
  Dy  Dy9  1  0.04734900  0.25000000  0.49746000  1
  Dy  Dy10  1  0.45265100  0.25000000  0.99746000  1
  Dy  Dy11  1  0.54734900  0.75000000  0.00254000  1
  Dy  Dy12  1  0.67513200  0.03477100  0.56395800  1
  Dy  Dy13  1  0.32486800  0.96522900  0.43604200  1
  Dy  Dy14  1  0.17513200  0.96522900  0.93604200  1
  Dy  Dy15  1  0.32486800  0.53477100  0.43604200  1
  Dy  Dy16  1  0.82486800  0.03477100  0.06395800  1
  Dy  Dy17  1  0.67513200  0.46522900  0.56395800  1
  Dy  Dy18  1  0.82486800  0.46522900  0.06395800  1
  Dy  Dy19  1  0.17513200  0.53477100  0.93604200  1
  Co  Co20  1  0.56153900  0.75000000  0.50834900  1
  Co  Co21  1  0.43846100  0.25000000  0.49165100  1
  Co  Co22  1  0.06153900  0.25000000  0.99165100  1
  Co  Co23  1  0.93846100  0.75000000  0.00834900  1
  Bi  Bi24  1  0.56846900  0.49253400  0.82614300  1
  Bi  Bi25  1  0.43153100  0.50746600  0.17385700  1
  Bi  Bi26  1  0.06846900  0.50746600  0.67385700  1
  Bi  Bi27  1  0.43153100  0.99253400  0.17385700  1
  Bi  Bi28  1  0.93153100  0.49253400  0.32614300  1
  Bi  Bi29  1  0.56846900  0.00746600  0.82614300  1
  Bi  Bi30  1  0.93153100  0.00746600  0.32614300  1
  Bi  Bi31  1  0.06846900  0.99253400  0.67385700  1
