# generated using pymatgen
data_NaVO2
_symmetry_space_group_name_H-M   'P 1'
_cell_length_a   5.28158107
_cell_length_b   6.16736106
_cell_length_c   5.68517462
_cell_angle_alpha   90.00218550
_cell_angle_beta   107.38194093
_cell_angle_gamma   90.00462879
_symmetry_Int_Tables_number   1
_chemical_formula_structural   NaVO2
_chemical_formula_sum   'Na4 V4 O8'
_cell_volume   176.72898035
_cell_formula_units_Z   4
loop_
 _symmetry_equiv_pos_site_id
 _symmetry_equiv_pos_as_xyz
  1  'x, y, z'
loop_
 _atom_site_type_symbol
 _atom_site_label
 _atom_site_symmetry_multiplicity
 _atom_site_fract_x
 _atom_site_fract_y
 _atom_site_fract_z
 _atom_site_occupancy
  Na  Na0  1  0.99999900  0.74999300  0.50000800  1
  Na  Na1  1  0.00000100  0.25000000  0.49999200  1
  Na  Na2  1  0.50000100  0.50000700  0.49999200  1
  Na  Na3  1  0.49999900  0.00000000  0.50000800  1
  V  V4  1  0.50001000  0.74993100  0.99998000  1
  V  V5  1  0.99999100  0.50007000  0.00002000  1
  V  V6  1  0.49998200  0.24987900  0.00001900  1
  V  V7  1  0.00001800  0.00012100  0.99998100  1
  O  O8  1  0.76412000  0.74989200  0.79870000  1
  O  O9  1  0.76420200  0.24994000  0.79870700  1
  O  O10  1  0.26418400  0.50011600  0.79871400  1
  O  O11  1  0.26413700  0.00009000  0.79868900  1
  O  O12  1  0.23581600  0.74988400  0.20128700  1
  O  O13  1  0.23586300  0.24991000  0.20131100  1
  O  O14  1  0.73588000  0.50010800  0.20130000  1
  O  O15  1  0.73579800  0.00006000  0.20129300  1
