# generated using pymatgen
data_LuGaPd
_symmetry_space_group_name_H-M   'P 1'
_cell_length_a   4.36291600
_cell_length_b   6.82128500
_cell_length_c   7.65823300
_cell_angle_alpha   90.00000000
_cell_angle_beta   90.00000000
_cell_angle_gamma   90.00000000
_symmetry_Int_Tables_number   1
_chemical_formula_structural   LuGaPd
_chemical_formula_sum   'Lu4 Ga4 Pd4'
_cell_volume   227.91432481
_cell_formula_units_Z   4
loop_
 _symmetry_equiv_pos_site_id
 _symmetry_equiv_pos_as_xyz
  1  'x, y, z'
loop_
 _atom_site_type_symbol
 _atom_site_label
 _atom_site_symmetry_multiplicity
 _atom_site_fract_x
 _atom_site_fract_y
 _atom_site_fract_z
 _atom_site_occupancy
  Lu  Lu0  1  0.25000000  0.50654000  0.19800400  1
  Lu  Lu1  1  0.75000000  0.49346000  0.80199600  1
  Lu  Lu2  1  0.75000000  0.99346000  0.69800400  1
  Lu  Lu3  1  0.25000000  0.00654000  0.30199600  1
  Ga  Ga4  1  0.25000000  0.78567200  0.89614400  1
  Ga  Ga5  1  0.75000000  0.21432800  0.10385600  1
  Ga  Ga6  1  0.75000000  0.71432800  0.39614400  1
  Ga  Ga7  1  0.25000000  0.28567200  0.60385600  1
  Pd  Pd8  1  0.25000000  0.67563800  0.56859100  1
  Pd  Pd9  1  0.75000000  0.32436200  0.43140900  1
  Pd  Pd10  1  0.75000000  0.82436200  0.06859100  1
  Pd  Pd11  1  0.25000000  0.17563800  0.93140900  1
