# generated using pymatgen
data_K2V3O8
_symmetry_space_group_name_H-M   'P 1'
_cell_length_a   9.02440700
_cell_length_b   9.02440700
_cell_length_c   5.50644300
_cell_angle_alpha   90.00000000
_cell_angle_beta   90.00000000
_cell_angle_gamma   90.00000000
_symmetry_Int_Tables_number   1
_chemical_formula_structural   K2V3O8
_chemical_formula_sum   'K4 V6 O16'
_cell_volume   448.44428677
_cell_formula_units_Z   2
loop_
 _symmetry_equiv_pos_site_id
 _symmetry_equiv_pos_as_xyz
  1  'x, y, z'
loop_
 _atom_site_type_symbol
 _atom_site_label
 _atom_site_symmetry_multiplicity
 _atom_site_fract_x
 _atom_site_fract_y
 _atom_site_fract_z
 _atom_site_occupancy
  K  K0  1  0.17007000  0.67007000  0.17740700  1
  K  K1  1  0.67007000  0.82993000  0.17740700  1
  K  K2  1  0.32993000  0.17007000  0.17740700  1
  K  K3  1  0.82993000  0.32993000  0.17740700  1
  V  V4  1  0.36569100  0.86569100  0.64309000  1
  V  V5  1  0.13430900  0.36569100  0.64309000  1
  V  V6  1  0.63430900  0.13430900  0.64309000  1
  V  V7  1  0.86569100  0.63430900  0.64309000  1
  V  V8  1  0.00000000  0.00000000  0.63480400  1
  V  V9  1  0.50000000  0.50000000  0.63480400  1
  O  O10  1  0.50000000  0.50000000  0.93308300  1
  O  O11  1  0.00000000  0.00000000  0.93308300  1
  O  O12  1  0.00000000  0.50000000  0.52501300  1
  O  O13  1  0.50000000  0.00000000  0.52501300  1
  O  O14  1  0.86806600  0.63193400  0.94602800  1
  O  O15  1  0.63193400  0.13193400  0.94602800  1
  O  O16  1  0.36806600  0.86806600  0.94602800  1
  O  O17  1  0.13193400  0.36806600  0.94602800  1
  O  O18  1  0.69198500  0.58683200  0.52899800  1
  O  O19  1  0.30801500  0.41316800  0.52899800  1
  O  O20  1  0.08683200  0.19198500  0.52899800  1
  O  O21  1  0.19198500  0.91316800  0.52899800  1
  O  O22  1  0.80801500  0.08683200  0.52899800  1
  O  O23  1  0.91316800  0.80801500  0.52899800  1
  O  O24  1  0.58683200  0.30801500  0.52899800  1
  O  O25  1  0.41316800  0.69198500  0.52899800  1
