# generated using pymatgen
data_Fe3P2(HO5)2
_symmetry_space_group_name_H-M   'P 1'
_cell_length_a   7.38326258
_cell_length_b   7.50555007
_cell_length_c   7.63816900
_cell_angle_alpha   90.00000000
_cell_angle_beta   90.00000000
_cell_angle_gamma   118.13943515
_symmetry_Int_Tables_number   1
_chemical_formula_structural   Fe3P2(HO5)2
_chemical_formula_sum   'Fe6 P4 H4 O20'
_cell_volume   373.24278052
_cell_formula_units_Z   2
loop_
 _symmetry_equiv_pos_site_id
 _symmetry_equiv_pos_as_xyz
  1  'x, y, z'
loop_
 _atom_site_type_symbol
 _atom_site_label
 _atom_site_symmetry_multiplicity
 _atom_site_fract_x
 _atom_site_fract_y
 _atom_site_fract_z
 _atom_site_occupancy
  Fe  Fe0  1  0.50000000  0.50000000  0.50000000  1
  Fe  Fe1  1  0.00000000  0.00000000  0.00000000  1
  Fe  Fe2  1  0.77264300  0.50671600  0.76713300  1
  Fe  Fe3  1  0.27264300  0.00671600  0.73286700  1
  Fe  Fe4  1  0.22735700  0.49328400  0.23286700  1
  Fe  Fe5  1  0.72735700  0.99328400  0.26713300  1
  P  P6  1  0.49723300  0.74502500  0.88865500  1
  P  P7  1  0.99723300  0.24502500  0.61134500  1
  P  P8  1  0.50276700  0.25497500  0.11134500  1
  P  P9  1  0.00276700  0.75497500  0.38865500  1
  H  H10  1  0.08966500  0.70510200  0.94209100  1
  H  H11  1  0.58966500  0.20510200  0.55790900  1
  H  H12  1  0.91033500  0.29489800  0.05790900  1
  H  H13  1  0.41033500  0.79489800  0.44209100  1
  O  O14  1  0.30437200  0.61146200  0.99858700  1
  O  O15  1  0.80437200  0.11146200  0.50141300  1
  O  O16  1  0.69562800  0.38853800  0.00141300  1
  O  O17  1  0.19562800  0.88853800  0.49858700  1
  O  O18  1  0.44902200  0.88091700  0.76803600  1
  O  O19  1  0.94902200  0.38091700  0.73196400  1
  O  O20  1  0.55097800  0.11908300  0.23196400  1
  O  O21  1  0.05097800  0.61908300  0.26803600  1
  O  O22  1  0.67986600  0.87413800  0.01406800  1
  O  O23  1  0.17986600  0.37413800  0.48593200  1
  O  O24  1  0.32013400  0.12586200  0.98593200  1
  O  O25  1  0.82013400  0.62586200  0.51406800  1
  O  O26  1  0.56386500  0.61608000  0.77058300  1
  O  O27  1  0.06386500  0.11608000  0.72941700  1
  O  O28  1  0.43613500  0.38392000  0.22941700  1
  O  O29  1  0.93613500  0.88392000  0.27058300  1
  O  O30  1  0.02181600  0.76170100  0.86584400  1
  O  O31  1  0.52181600  0.26170100  0.63415600  1
  O  O32  1  0.97818400  0.23829900  0.13415600  1
  O  O33  1  0.47818400  0.73829900  0.36584400  1
