# generated using pymatgen
data_CeSi2Ag
_symmetry_space_group_name_H-M   'P 1'
_cell_length_a   9.09650077
_cell_length_b   9.09650077
_cell_length_c   4.21654200
_cell_angle_alpha   90.00000000
_cell_angle_beta   90.00000000
_cell_angle_gamma   153.35363848
_symmetry_Int_Tables_number   1
_chemical_formula_structural   CeSi2Ag
_chemical_formula_sum   'Ce2 Si4 Ag2'
_cell_volume   156.47703598
_cell_formula_units_Z   2
loop_
 _symmetry_equiv_pos_site_id
 _symmetry_equiv_pos_as_xyz
  1  'x, y, z'
loop_
 _atom_site_type_symbol
 _atom_site_label
 _atom_site_symmetry_multiplicity
 _atom_site_fract_x
 _atom_site_fract_y
 _atom_site_fract_z
 _atom_site_occupancy
  Ce  Ce0  1  0.59501900  0.40498100  0.25000000  1
  Ce  Ce1  1  0.40498100  0.59501900  0.75000000  1
  Si  Si2  1  0.96862400  0.03137600  0.25000000  1
  Si  Si3  1  0.03137600  0.96862400  0.75000000  1
  Si  Si4  1  0.83782300  0.16217700  0.25000000  1
  Si  Si5  1  0.16217700  0.83782300  0.75000000  1
  Ag  Ag6  1  0.25165100  0.74834900  0.25000000  1
  Ag  Ag7  1  0.74834900  0.25165100  0.75000000  1
