# generated using pymatgen
data_Ce4SiRh12
_symmetry_space_group_name_H-M   'P 1'
_cell_length_a   7.20584751
_cell_length_b   7.20584751
_cell_length_c   7.20584751
_cell_angle_alpha   109.47122063
_cell_angle_beta   109.47122063
_cell_angle_gamma   109.47122063
_symmetry_Int_Tables_number   1
_chemical_formula_structural   Ce4SiRh12
_chemical_formula_sum   'Ce4 Si1 Rh12'
_cell_volume   288.02707326
_cell_formula_units_Z   1
loop_
 _symmetry_equiv_pos_site_id
 _symmetry_equiv_pos_as_xyz
  1  'x, y, z'
loop_
 _atom_site_type_symbol
 _atom_site_label
 _atom_site_symmetry_multiplicity
 _atom_site_fract_x
 _atom_site_fract_y
 _atom_site_fract_z
 _atom_site_occupancy
  Ce  Ce0  1  0.00000000  0.00000000  0.50000000  1
  Ce  Ce1  1  0.00000000  0.50000000  0.00000000  1
  Ce  Ce2  1  0.50000000  0.00000000  0.00000000  1
  Ce  Ce3  1  0.50000000  0.50000000  0.50000000  1
  Si  Si4  1  0.00000000  0.00000000  0.00000000  1
  Rh  Rh5  1  0.75000000  0.25000000  0.50000000  1
  Rh  Rh6  1  0.75000000  0.50000000  0.25000000  1
  Rh  Rh7  1  0.50000000  0.25000000  0.75000000  1
  Rh  Rh8  1  0.25000000  0.50000000  0.75000000  1
  Rh  Rh9  1  0.25000000  0.75000000  0.50000000  1
  Rh  Rh10  1  0.50000000  0.75000000  0.25000000  1
  Rh  Rh11  1  0.72102400  0.72102400  0.00000000  1
  Rh  Rh12  1  0.27897600  0.00000000  0.27897600  1
  Rh  Rh13  1  0.00000000  0.27897600  0.27897600  1
  Rh  Rh14  1  0.27897600  0.27897600  0.00000000  1
  Rh  Rh15  1  0.72102400  0.00000000  0.72102400  1
  Rh  Rh16  1  0.00000000  0.72102400  0.72102400  1
