# generated using pymatgen
data_CsTaV2O8
_symmetry_space_group_name_H-M   'P 1'
_cell_length_a   5.71194000
_cell_length_b   9.30666200
_cell_length_c   16.99538652
_cell_angle_alpha   74.40986783
_cell_angle_beta   90.00000000
_cell_angle_gamma   90.00000000
_symmetry_Int_Tables_number   1
_chemical_formula_structural   CsTaV2O8
_chemical_formula_sum   'Cs4 Ta4 V8 O32'
_cell_volume   870.22007226
_cell_formula_units_Z   4
loop_
 _symmetry_equiv_pos_site_id
 _symmetry_equiv_pos_as_xyz
  1  'x, y, z'
loop_
 _atom_site_type_symbol
 _atom_site_label
 _atom_site_symmetry_multiplicity
 _atom_site_fract_x
 _atom_site_fract_y
 _atom_site_fract_z
 _atom_site_occupancy
  Cs  Cs0  1  0.25000000  0.00886000  0.38908400  1
  Cs  Cs1  1  0.75000000  0.99114000  0.61091600  1
  Cs  Cs2  1  0.25000000  0.46749400  0.11679700  1
  Cs  Cs3  1  0.75000000  0.53250600  0.88320300  1
  Ta  Ta4  1  0.25000000  0.91186500  0.15123900  1
  Ta  Ta5  1  0.75000000  0.08813500  0.84876100  1
  Ta  Ta6  1  0.25000000  0.58230500  0.34664000  1
  Ta  Ta7  1  0.75000000  0.41769500  0.65336000  1
  V  V8  1  0.75000000  0.79010600  0.04397900  1
  V  V9  1  0.25000000  0.20989400  0.95602100  1
  V  V10  1  0.75000000  0.70560700  0.45006900  1
  V  V11  1  0.25000000  0.29439300  0.54993100  1
  V  V12  1  0.75000000  0.35456800  0.33219900  1
  V  V13  1  0.25000000  0.64543200  0.66780100  1
  V  V14  1  0.75000000  0.11640600  0.20155400  1
  V  V15  1  0.25000000  0.88359400  0.79844600  1
  O  O16  1  0.00497900  0.82783500  0.09511400  1
  O  O17  1  0.50497900  0.17216500  0.90488600  1
  O  O18  1  0.99502100  0.17216500  0.90488600  1
  O  O19  1  0.49502100  0.82783500  0.09511400  1
  O  O20  1  0.75000000  0.89790000  0.94205900  1
  O  O21  1  0.25000000  0.10210000  0.05794100  1
  O  O22  1  0.00709000  0.00870500  0.20604000  1
  O  O23  1  0.50709000  0.99129500  0.79396000  1
  O  O24  1  0.99291000  0.99129500  0.79396000  1
  O  O25  1  0.49291000  0.00870500  0.20604000  1
  O  O26  1  0.25000000  0.73610200  0.24398300  1
  O  O27  1  0.75000000  0.26389800  0.75601700  1
  O  O28  1  0.00672500  0.46273500  0.30370100  1
  O  O29  1  0.50672500  0.53726500  0.69629900  1
  O  O30  1  0.99327500  0.53726500  0.69629900  1
  O  O31  1  0.49327500  0.46273500  0.30370100  1
  O  O32  1  0.75000000  0.58088100  0.54729300  1
  O  O33  1  0.25000000  0.41911900  0.45270700  1
  O  O34  1  0.00339200  0.68266400  0.39309600  1
  O  O35  1  0.50339200  0.31733600  0.60690400  1
  O  O36  1  0.99660800  0.31733600  0.60690400  1
  O  O37  1  0.49660800  0.68266400  0.39309600  1
  O  O38  1  0.75000000  0.60967400  0.04779500  1
  O  O39  1  0.25000000  0.39032600  0.95220500  1
  O  O40  1  0.75000000  0.87978600  0.45759700  1
  O  O41  1  0.25000000  0.12021400  0.54240300  1
  O  O42  1  0.75000000  0.28179900  0.43135200  1
  O  O43  1  0.25000000  0.71820100  0.56864800  1
  O  O44  1  0.75000000  0.19615200  0.28780700  1
  O  O45  1  0.25000000  0.80384800  0.71219300  1
  O  O46  1  0.75000000  0.25250600  0.11709400  1
  O  O47  1  0.25000000  0.74749400  0.88290600  1
