# generated using pymatgen
data_Ni(AsO3)2
_symmetry_space_group_name_H-M   'P 1'
_cell_length_a   4.84553663
_cell_length_b   9.04108000
_cell_length_c   4.84553600
_cell_angle_alpha   90.00000000
_cell_angle_beta   119.99999569
_cell_angle_gamma   90.00000000
_symmetry_Int_Tables_number   1
_chemical_formula_structural   Ni(AsO3)2
_chemical_formula_sum   'Ni2 As4 O12'
_cell_volume   183.83773826
_cell_formula_units_Z   2
loop_
 _symmetry_equiv_pos_site_id
 _symmetry_equiv_pos_as_xyz
  1  'x, y, z'
loop_
 _atom_site_type_symbol
 _atom_site_label
 _atom_site_symmetry_multiplicity
 _atom_site_fract_x
 _atom_site_fract_y
 _atom_site_fract_z
 _atom_site_occupancy
  Ni  Ni0  1  0.00000000  0.50000000  0.00000000  1
  Ni  Ni1  1  0.00000000  0.00000000  0.00000000  1
  As  As2  1  0.66666700  0.25000000  0.33333300  1
  As  As3  1  0.66666700  0.75000000  0.33333300  1
  As  As4  1  0.33333300  0.25000000  0.66666700  1
  As  As5  1  0.33333300  0.75000000  0.66666700  1
  O  O6  1  0.36209700  0.36366000  0.36209700  1
  O  O7  1  0.36209700  0.86366000  0.36209700  1
  O  O8  1  0.00000000  0.36366000  0.63790300  1
  O  O9  1  0.00000000  0.86366000  0.63790300  1
  O  O10  1  0.63790300  0.36366000  0.00000000  1
  O  O11  1  0.63790300  0.86366000  0.00000000  1
  O  O12  1  0.00000000  0.13634000  0.36209700  1
  O  O13  1  0.00000000  0.63634000  0.36209700  1
  O  O14  1  0.36209700  0.13634000  0.00000000  1
  O  O15  1  0.36209700  0.63634000  0.00000000  1
  O  O16  1  0.63790300  0.13634000  0.63790300  1
  O  O17  1  0.63790300  0.63634000  0.63790300  1
