# generated using pymatgen
data_CsY2Cl7
_symmetry_space_group_name_H-M   'P 1'
_cell_length_a   7.05732900
_cell_length_b   12.74830700
_cell_length_c   14.08731400
_cell_angle_alpha   90.00000000
_cell_angle_beta   90.00000000
_cell_angle_gamma   90.00000000
_symmetry_Int_Tables_number   1
_chemical_formula_structural   CsY2Cl7
_chemical_formula_sum   'Cs4 Y8 Cl28'
_cell_volume   1267.42150667
_cell_formula_units_Z   4
loop_
 _symmetry_equiv_pos_site_id
 _symmetry_equiv_pos_as_xyz
  1  'x, y, z'
loop_
 _atom_site_type_symbol
 _atom_site_label
 _atom_site_symmetry_multiplicity
 _atom_site_fract_x
 _atom_site_fract_y
 _atom_site_fract_z
 _atom_site_occupancy
  Cs  Cs0  1  0.25000000  0.80363400  0.04123500  1
  Cs  Cs1  1  0.75000000  0.19636600  0.95876500  1
  Cs  Cs2  1  0.75000000  0.30363400  0.45876500  1
  Cs  Cs3  1  0.25000000  0.69636600  0.54123500  1
  Y  Y4  1  0.25000000  0.45909500  0.23786200  1
  Y  Y5  1  0.75000000  0.54090500  0.76213800  1
  Y  Y6  1  0.75000000  0.95909500  0.26213800  1
  Y  Y7  1  0.25000000  0.04090500  0.73786200  1
  Y  Y8  1  0.25000000  0.15638000  0.25037000  1
  Y  Y9  1  0.75000000  0.84362000  0.74963000  1
  Y  Y10  1  0.75000000  0.65638000  0.24963000  1
  Y  Y11  1  0.25000000  0.34362000  0.75037000  1
  Cl  Cl12  1  0.01342000  0.30586600  0.17875500  1
  Cl  Cl13  1  0.98658000  0.69413400  0.82124500  1
  Cl  Cl14  1  0.98658000  0.80586600  0.32124500  1
  Cl  Cl15  1  0.51342000  0.69413400  0.82124500  1
  Cl  Cl16  1  0.01342000  0.19413400  0.67875500  1
  Cl  Cl17  1  0.48658000  0.30586600  0.17875500  1
  Cl  Cl18  1  0.48658000  0.19413400  0.67875500  1
  Cl  Cl19  1  0.51342000  0.80586600  0.32124500  1
  Cl  Cl20  1  0.00891700  0.57446400  0.12796600  1
  Cl  Cl21  1  0.99108300  0.42553600  0.87203400  1
  Cl  Cl22  1  0.99108300  0.07446400  0.37203400  1
  Cl  Cl23  1  0.50891700  0.42553600  0.87203400  1
  Cl  Cl24  1  0.00891700  0.92553600  0.62796600  1
  Cl  Cl25  1  0.49108300  0.57446400  0.12796600  1
  Cl  Cl26  1  0.49108300  0.92553600  0.62796600  1
  Cl  Cl27  1  0.50891700  0.07446400  0.37203400  1
  Cl  Cl28  1  0.00903500  0.04034300  0.13855000  1
  Cl  Cl29  1  0.99096500  0.95965700  0.86145000  1
  Cl  Cl30  1  0.99096500  0.54034300  0.36145000  1
  Cl  Cl31  1  0.50903500  0.95965700  0.86145000  1
  Cl  Cl32  1  0.00903500  0.45965700  0.63855000  1
  Cl  Cl33  1  0.49096500  0.04034300  0.13855000  1
  Cl  Cl34  1  0.49096500  0.45965700  0.63855000  1
  Cl  Cl35  1  0.50903500  0.54034300  0.36145000  1
  Cl  Cl36  1  0.25000000  0.31086100  0.38460000  1
  Cl  Cl37  1  0.75000000  0.68913900  0.61540000  1
  Cl  Cl38  1  0.75000000  0.81086100  0.11540000  1
  Cl  Cl39  1  0.25000000  0.18913900  0.88460000  1
