# generated using pymatgen
data_Na7Mn5P3H6O15F13
_symmetry_space_group_name_H-M   'P 1'
_cell_length_a   10.79608677
_cell_length_b   10.75532427
_cell_length_c   23.23413115
_cell_angle_alpha   90.00000003
_cell_angle_beta   88.77438710
_cell_angle_gamma   119.87518171
_symmetry_Int_Tables_number   1
_chemical_formula_structural   Na7Mn5P3H6O15F13
_chemical_formula_sum   'Na28 Mn20 P12 H24 O60 F52'
_cell_volume   2338.61987287
_cell_formula_units_Z   4
loop_
 _symmetry_equiv_pos_site_id
 _symmetry_equiv_pos_as_xyz
  1  'x, y, z'
loop_
 _atom_site_type_symbol
 _atom_site_label
 _atom_site_symmetry_multiplicity
 _atom_site_fract_x
 _atom_site_fract_y
 _atom_site_fract_z
 _atom_site_occupancy
  Na  Na0  1  0.00000000  0.00029557  0.75000000  1
  Na  Na1  1  1.00000000  0.99970443  0.25000000  1
  Na  Na2  1  0.00000000  0.00000000  0.50000000  1
  Na  Na3  1  0.00000000  0.00000000  0.00000000  1
  Na  Na4  1  0.37925225  0.00011198  0.75004429  1
  Na  Na5  1  1.00000000  0.37599475  0.75000000  1
  Na  Na6  1  0.62074775  0.62085973  0.74995571  1
  Na  Na7  1  0.37925225  0.37914027  0.25004429  1
  Na  Na8  1  0.62074775  0.99988802  0.24995571  1
  Na  Na9  1  0.00000000  0.62400525  0.25000000  1
  Na  Na10  1  0.67022022  0.63571334  0.50758617  1
  Na  Na11  1  0.36244104  0.03626920  0.50627850  1
  Na  Na12  1  0.96451722  0.33077252  0.50617187  1
  Na  Na13  1  0.67022022  0.03450687  0.00758617  1
  Na  Na14  1  0.96451722  0.63374470  0.00617187  1
  Na  Na15  1  0.36244104  0.32617184  0.00627850  1
  Na  Na16  1  0.32977978  0.36428666  0.49241383  1
  Na  Na17  1  0.63755896  0.96373080  0.49372150  1
  Na  Na18  1  0.03548278  0.66922748  0.49382813  1
  Na  Na19  1  0.32977978  0.96549313  0.99241383  1
  Na  Na20  1  0.03548278  0.36625530  0.99382813  1
  Na  Na21  1  0.63755896  0.67382816  0.99372150  1
  Na  Na22  1  0.00000000  0.68788212  0.75000000  1
  Na  Na23  1  0.31208777  0.31346325  0.74883721  1
  Na  Na24  1  0.68791223  0.00137548  0.75116279  1
  Na  Na25  1  1.00000000  0.31211788  0.25000000  1
  Na  Na26  1  0.68791223  0.68653675  0.25116279  1
  Na  Na27  1  0.31208777  0.99862452  0.24883721  1
  Mn  Mn28  1  0.88333947  0.75782204  0.62572061  1
  Mn  Mn29  1  0.24283780  0.12628203  0.62475235  1
  Mn  Mn30  1  0.87485463  0.11557095  0.62496948  1
  Mn  Mn31  1  0.88333947  0.12551743  0.12572061  1
  Mn  Mn32  1  0.87485463  0.75928368  0.12496948  1
  Mn  Mn33  1  0.24283780  0.11655577  0.12475235  1
  Mn  Mn34  1  0.11666053  0.24217796  0.37427939  1
  Mn  Mn35  1  0.75716220  0.87371797  0.37524765  1
  Mn  Mn36  1  0.12514537  0.88442905  0.37503052  1
  Mn  Mn37  1  0.11666053  0.87448257  0.87427939  1
  Mn  Mn38  1  0.12514537  0.24071632  0.87503052  1
  Mn  Mn39  1  0.75716220  0.88344423  0.87524765  1
  Mn  Mn40  1  0.33666788  0.67074864  0.71925071  1
  Mn  Mn41  1  0.33666788  0.66591925  0.21925071  1
  Mn  Mn42  1  0.66333212  0.32925136  0.28074929  1
  Mn  Mn43  1  0.66333212  0.33408075  0.78074929  1
  Mn  Mn44  1  0.33063930  0.66294316  0.53278742  1
  Mn  Mn45  1  0.33063930  0.66769614  0.03278742  1
  Mn  Mn46  1  0.66936070  0.33705684  0.46721258  1
  Mn  Mn47  1  0.66936070  0.33230386  0.96721258  1
  P  P48  1  0.20732983  0.80960354  0.62610097  1
  P  P49  1  0.18542816  0.39593834  0.62501271  1
  P  P50  1  0.60397148  0.79591458  0.62586526  1
  P  P51  1  0.20732983  0.39772629  0.12610097  1
  P  P52  1  0.60397148  0.80805690  0.12586526  1
  P  P53  1  0.18542816  0.78948981  0.12501271  1
  P  P54  1  0.79267017  0.19039646  0.37389903  1
  P  P55  1  0.81457184  0.60406166  0.37498729  1
  P  P56  1  0.39602852  0.20408542  0.37413474  1
  P  P57  1  0.79267017  0.60227371  0.87389903  1
  P  P58  1  0.39602852  0.19194310  0.87413474  1
  P  P59  1  0.81457184  0.21051019  0.87498729  1
  H  H60  1  0.80413037  0.48496414  0.58705197  1
  H  H61  1  0.51650739  0.31987259  0.58799651  1
  H  H62  1  0.68229124  0.20054079  0.58866733  1
  H  H63  1  0.80413037  0.31916623  0.08705197  1
  H  H64  1  0.68229124  0.48175045  0.08866733  1
  H  H65  1  0.51650739  0.19663479  0.08799651  1
  H  H66  1  0.19586963  0.51503586  0.41294803  1
  H  H67  1  0.48349261  0.68012741  0.41200349  1
  H  H68  1  0.31770876  0.79945921  0.41133267  1
  H  H69  1  0.19586963  0.68083377  0.91294803  1
  H  H70  1  0.31770876  0.51824955  0.91133267  1
  H  H71  1  0.48349261  0.80336521  0.91200349  1
  H  H72  1  0.80215511  0.48179642  0.65595640  1
  H  H73  1  0.51429652  0.32002715  0.65699884  1
  H  H74  1  0.67907146  0.19667364  0.65703813  1
  H  H75  1  0.80215511  0.32035869  0.15595640  1
  H  H76  1  0.67907146  0.48239782  0.15703813  1
  H  H77  1  0.51429652  0.19426936  0.15699884  1
  H  H78  1  0.19784489  0.51820358  0.34404360  1
  H  H79  1  0.48570348  0.67997285  0.34300116  1
  H  H80  1  0.32092854  0.80332636  0.34296187  1
  H  H81  1  0.19784489  0.67964131  0.84404360  1
  H  H82  1  0.32092854  0.51760218  0.84296187  1
  H  H83  1  0.48570348  0.80573064  0.84300116  1
  O  O84  1  0.26735792  0.96475358  0.60153288  1
  O  O85  1  0.03562679  0.29810392  0.59891155  1
  O  O86  1  0.69865147  0.73300594  0.60345116  1
  O  O87  1  0.26735792  0.30260434  0.10153288  1
  O  O88  1  0.69865147  0.96564553  0.10345116  1
  O  O89  1  0.03562679  0.73752287  0.09891155  1
  O  O90  1  0.73264208  0.03524642  0.39846712  1
  O  O91  1  0.96437321  0.70189608  0.40108845  1
  O  O92  1  0.30134853  0.26699406  0.39654884  1
  O  O93  1  0.73264208  0.69739566  0.89846712  1
  O  O94  1  0.30134853  0.03435447  0.89654884  1
  O  O95  1  0.96437321  0.26247713  0.90108845  1
  O  O96  1  0.05528248  0.75834118  0.65229513  1
  O  O97  1  0.24315008  0.29926842  0.64860094  1
  O  O98  1  0.70304763  0.94513532  0.65278905  1
  O  O99  1  0.05528248  0.29694130  0.15229513  1
  O  O100  1  0.70304763  0.75791231  0.15278905  1
  O  O101  1  0.24315008  0.94388166  0.14860094  1
  O  O102  1  0.94471752  0.24165882  0.34770487  1
  O  O103  1  0.75684992  0.70073158  0.35139906  1
  O  O104  1  0.29695237  0.05486468  0.34721095  1
  O  O105  1  0.94471752  0.70305870  0.84770487  1
  O  O106  1  0.29695237  0.24208769  0.84721095  1
  O  O107  1  0.75684992  0.05611834  0.85139906  1
  O  O108  1  0.30382148  0.81221245  0.67496203  1
  O  O109  1  0.17909052  0.48558858  0.67434936  1
  O  O110  1  0.50524246  0.69760064  0.67602677  1
  O  O111  1  0.30382148  0.49160904  0.17496203  1
  O  O112  1  0.50524246  0.80764182  0.17602677  1
  O  O113  1  0.17909052  0.69350194  0.17434936  1
  O  O114  1  0.69617852  0.18778755  0.32503797  1
  O  O115  1  0.82090948  0.51441142  0.32565064  1
  O  O116  1  0.49475754  0.30239936  0.32397323  1
  O  O117  1  0.69617852  0.50839096  0.82503797  1
  O  O118  1  0.49475754  0.19235818  0.82397323  1
  O  O119  1  0.82090948  0.30649806  0.82565064  1
  O  O120  1  0.19734148  0.71113585  0.57594651  1
  O  O121  1  0.28660593  0.48899315  0.57418373  1
  O  O122  1  0.52051748  0.80586110  0.57581181  1
  O  O123  1  0.19734148  0.48620563  0.07594651  1
  O  O124  1  0.52051748  0.71465638  0.07581181  1
  O  O125  1  0.28660593  0.79761278  0.07418373  1
  O  O126  1  0.80265852  0.28886415  0.42405349  1
  O  O127  1  0.71339407  0.51100685  0.42581627  1
  O  O128  1  0.47948252  0.19413890  0.42418819  1
  O  O129  1  0.80265852  0.51379437  0.92405349  1
  O  O130  1  0.47948252  0.28534362  0.92418819  1
  O  O131  1  0.71339407  0.20238722  0.92581627  1
  O  O132  1  0.78082585  0.52292163  0.62242246  1
  O  O133  1  0.47861375  0.25741478  0.62267588  1
  O  O134  1  0.74226754  0.21987324  0.62260429  1
  O  O135  1  0.78082585  0.25790422  0.12242246  1
  O  O136  1  0.74226754  0.52239430  0.12260429  1
  O  O137  1  0.47861375  0.22119897  0.12267588  1
  O  O138  1  0.21917415  0.47707837  0.37757754  1
  O  O139  1  0.52138625  0.74258522  0.37732412  1
  O  O140  1  0.25773246  0.78012676  0.37739571  1
  O  O141  1  0.21917415  0.74209578  0.87757754  1
  O  O142  1  0.25773246  0.47760570  0.87739571  1
  O  O143  1  0.52138625  0.77880103  0.87732412  1
  F  F144  1  0.99985136  0.00000412  0.62758233  1
  F  F145  1  0.99985136  0.99984724  0.12758233  1
  F  F146  1  0.00014864  -0.00000412  0.37241767  1
  F  F147  1  0.00014864  0.00015276  0.87241767  1
  F  F148  1  0.84443465  0.75925849  0.70542382  1
  F  F149  1  0.23799032  0.08652298  0.70470587  1
  F  F150  1  0.91402451  0.15401124  0.70447249  1
  F  F151  1  0.84443465  0.08517616  0.20542382  1
  F  F152  1  0.91402451  0.76001326  0.20447249  1
  F  F153  1  0.23799032  0.15146734  0.20470587  1
  F  F154  1  0.15556535  0.24074151  0.29457618  1
  F  F155  1  0.76200968  0.91347702  0.29529413  1
  F  F156  1  0.08597549  0.84598876  0.29552751  1
  F  F157  1  0.15556535  0.91482384  0.79457618  1
  F  F158  1  0.08597549  0.23998674  0.79552751  1
  F  F159  1  0.76200968  0.84853266  0.79529413  1
  F  F160  1  0.92972347  0.77373452  0.54573396  1
  F  F161  1  0.22879896  0.15594657  0.54490942  1
  F  F162  1  0.84211007  0.07056743  0.54546833  1
  F  F163  1  0.92972347  0.15598895  0.04573396  1
  F  F164  1  0.84211007  0.77154264  0.04546833  1
  F  F165  1  0.22879896  0.07285238  0.04490942  1
  F  F166  1  0.07027653  0.22626548  0.45426604  1
  F  F167  1  0.77120104  0.84405343  0.45509058  1
  F  F168  1  0.15788993  0.92943257  0.45453167  1
  F  F169  1  0.07027653  0.84401105  0.95426604  1
  F  F170  1  0.15788993  0.22845736  0.95453167  1
  F  F171  1  0.77120104  0.92714762  0.95509058  1
  F  F172  1  0.45939260  0.84392037  0.77334123  1
  F  F173  1  0.17187973  0.62380958  0.76735879  1
  F  F174  1  0.37766665  0.54793917  0.76928745  1
  F  F175  1  0.45939260  0.61547223  0.27334123  1
  F  F176  1  0.37766665  0.82972748  0.26928745  1
  F  F177  1  0.17187973  0.54807015  0.26735879  1
  F  F178  1  0.54060740  0.15607963  0.22665877  1
  F  F179  1  0.82812027  0.37619042  0.23264121  1
  F  F180  1  0.62233335  0.45206083  0.23071255  1
  F  F181  1  0.54060740  0.38452777  0.72665877  1
  F  F182  1  0.62233335  0.17027252  0.73071255  1
  F  F183  1  0.82812027  0.45192985  0.73264121  1
  F  F184  1  0.38600777  0.82896510  0.48500394  1
  F  F185  1  0.15812198  0.54630795  0.47893013  1
  F  F186  1  0.44965238  0.61194962  0.48132555  1
  F  F187  1  0.38600777  0.55704267  0.98500394  1
  F  F188  1  0.44965238  0.83770275  0.98132555  1
  F  F189  1  0.15812198  0.61181404  0.97893013  1
  F  F190  1  0.61399223  0.17103490  0.51499606  1
  F  F191  1  0.84187802  0.45369205  0.52106987  1
  F  F192  1  0.55034762  0.38805038  0.51867445  1
  F  F193  1  0.61399223  0.44295733  0.01499606  1
  F  F194  1  0.55034762  0.16229725  0.01867445  1
  F  F195  1  0.84187802  0.38818596  0.02106987  1
