# generated using pymatgen
data_Na4Eu2SiP4
_symmetry_space_group_name_H-M   'P 1'
_cell_length_a   9.27588746
_cell_length_b   9.27588746
_cell_length_c   7.11688248
_cell_angle_alpha   89.36646217
_cell_angle_beta   89.36646217
_cell_angle_gamma   119.44215419
_symmetry_Int_Tables_number   1
_chemical_formula_structural   Na4Eu2SiP4
_chemical_formula_sum   'Na8 Eu4 Si2 P8'
_cell_volume   533.13947251
_cell_formula_units_Z   2
loop_
 _symmetry_equiv_pos_site_id
 _symmetry_equiv_pos_as_xyz
  1  'x, y, z'
loop_
 _atom_site_type_symbol
 _atom_site_label
 _atom_site_symmetry_multiplicity
 _atom_site_fract_x
 _atom_site_fract_y
 _atom_site_fract_z
 _atom_site_occupancy
  Na  Na0  1  0.05509800  0.52655400  0.61277600  1
  Na  Na1  1  0.52655400  0.05509800  0.11277600  1
  Na  Na2  1  0.27529500  0.13456600  0.80666200  1
  Na  Na3  1  0.86858600  0.71823500  0.78552100  1
  Na  Na4  1  0.86473400  0.14872500  0.79268500  1
  Na  Na5  1  0.71823500  0.86858600  0.28552100  1
  Na  Na6  1  0.13456600  0.27529500  0.30666200  1
  Na  Na7  1  0.14872500  0.86473400  0.29268500  1
  Eu  Eu8  1  0.47030900  0.94881100  0.61575200  1
  Eu  Eu9  1  0.46721300  0.51990600  0.61540400  1
  Eu  Eu10  1  0.94881100  0.47030900  0.11575200  1
  Eu  Eu11  1  0.51990600  0.46721300  0.11540400  1
  Si  Si12  1  0.67158700  0.33661100  0.49842600  1
  Si  Si13  1  0.33661100  0.67158700  0.99842600  1
  P  P14  1  0.60672800  0.79842200  0.88782800  1
  P  P15  1  0.19817100  0.39457700  0.90787100  1
  P  P16  1  0.19302500  0.79912300  0.89943100  1
  P  P17  1  0.39457700  0.19817100  0.40787100  1
  P  P18  1  0.79842200  0.60672800  0.38782800  1
  P  P19  1  0.79912300  0.19302500  0.39943100  1
  P  P20  1  0.66283900  0.34004400  0.82468100  1
  P  P21  1  0.34004400  0.66283900  0.32468100  1
