# generated using pymatgen
data_Tb(PO3)3
_symmetry_space_group_name_H-M   'P 1'
_cell_length_a   13.36765729
_cell_length_b   13.36765729
_cell_length_c   10.17944636
_cell_angle_alpha   84.25526307
_cell_angle_beta   84.25526307
_cell_angle_gamma   61.20354359
_symmetry_Int_Tables_number   1
_chemical_formula_structural   Tb(PO3)3
_chemical_formula_sum   'Tb8 P24 O72'
_cell_volume   1583.24777522
_cell_formula_units_Z   8
loop_
 _symmetry_equiv_pos_site_id
 _symmetry_equiv_pos_as_xyz
  1  'x, y, z'
loop_
 _atom_site_type_symbol
 _atom_site_label
 _atom_site_symmetry_multiplicity
 _atom_site_fract_x
 _atom_site_fract_y
 _atom_site_fract_z
 _atom_site_occupancy
  Tb  Tb0  1  0.97998000  0.25220500  0.23041300  1
  Tb  Tb1  1  0.74779500  0.02002000  0.26958700  1
  Tb  Tb2  1  0.02002000  0.74779500  0.76958700  1
  Tb  Tb3  1  0.25220500  0.97998000  0.73041300  1
  Tb  Tb4  1  0.48484900  0.24543200  0.73387800  1
  Tb  Tb5  1  0.75456800  0.51515100  0.76612200  1
  Tb  Tb6  1  0.51515100  0.75456800  0.26612200  1
  Tb  Tb7  1  0.24543200  0.48484900  0.23387800  1
  P  P8  1  0.15630800  0.22757700  0.93721400  1
  P  P9  1  0.77242300  0.84369200  0.56278600  1
  P  P10  1  0.84369200  0.77242300  0.06278600  1
  P  P11  1  0.22757700  0.15630800  0.43721400  1
  P  P12  1  0.21262300  0.35528000  0.56723900  1
  P  P13  1  0.64472000  0.78737700  0.93276100  1
  P  P14  1  0.78737700  0.64472000  0.43276100  1
  P  P15  1  0.35528000  0.21262300  0.06723900  1
  P  P16  1  0.04919100  0.46126400  0.79339000  1
  P  P17  1  0.53873600  0.95080900  0.70661000  1
  P  P18  1  0.95080900  0.53873600  0.20661000  1
  P  P19  1  0.46126400  0.04919100  0.29339000  1
  P  P20  1  0.52921600  0.47078400  0.25000000  1
  P  P21  1  0.47078400  0.52921600  0.75000000  1
  P  P22  1  0.71989100  0.35835300  0.05012900  1
  P  P23  1  0.64164700  0.28010900  0.44987100  1
  P  P24  1  0.28010900  0.64164700  0.94987100  1
  P  P25  1  0.35835300  0.71989100  0.55012900  1
  P  P26  1  0.73566700  0.15840600  0.92648400  1
  P  P27  1  0.84159400  0.26433300  0.57351600  1
  P  P28  1  0.26433300  0.84159400  0.07351600  1
  P  P29  1  0.15840600  0.73566700  0.42648400  1
  P  P30  1  0.95174600  0.04825400  0.75000000  1
  P  P31  1  0.04825400  0.95174600  0.25000000  1
  O  O32  1  0.14505000  0.21377800  0.33009000  1
  O  O33  1  0.78622200  0.85495000  0.16991000  1
  O  O34  1  0.85495000  0.78622200  0.66991000  1
  O  O35  1  0.21377800  0.14505000  0.83009000  1
  O  O36  1  0.05171200  0.23359100  0.01355700  1
  O  O37  1  0.76640900  0.94828800  0.48644300  1
  O  O38  1  0.94828800  0.76640900  0.98644300  1
  O  O39  1  0.23359100  0.05171200  0.51355700  1
  O  O40  1  0.21217200  0.41725500  0.43619500  1
  O  O41  1  0.58274500  0.78782800  0.06380500  1
  O  O42  1  0.78782800  0.58274500  0.56380500  1
  O  O43  1  0.41725500  0.21217200  0.93619500  1
  O  O44  1  0.30699400  0.32502200  0.65661400  1
  O  O45  1  0.67497800  0.69300600  0.84338600  1
  O  O46  1  0.69300600  0.67497800  0.34338600  1
  O  O47  1  0.32502200  0.30699400  0.15661400  1
  O  O48  1  0.93038300  0.47651200  0.81658900  1
  O  O49  1  0.52348800  0.06961700  0.68341100  1
  O  O50  1  0.06961700  0.52348800  0.18341100  1
  O  O51  1  0.47651200  0.93038300  0.31658900  1
  O  O52  1  0.06851300  0.56030900  0.81239800  1
  O  O53  1  0.43969100  0.93148700  0.68760200  1
  O  O54  1  0.93148700  0.43969100  0.18760200  1
  O  O55  1  0.56030900  0.06851300  0.31239800  1
  O  O56  1  0.41757700  0.46904000  0.27094400  1
  O  O57  1  0.53096000  0.58242300  0.22905600  1
  O  O58  1  0.58242300  0.53096000  0.72905600  1
  O  O59  1  0.46904000  0.41757700  0.77094400  1
  O  O60  1  0.71982100  0.46107100  0.97588300  1
  O  O61  1  0.53892900  0.28017900  0.52411700  1
  O  O62  1  0.28017900  0.53892900  0.02411700  1
  O  O63  1  0.46107100  0.71982100  0.47588300  1
  O  O64  1  0.81590000  0.28631300  0.13854000  1
  O  O65  1  0.71368700  0.18410000  0.36146000  1
  O  O66  1  0.18410000  0.71368700  0.86146000  1
  O  O67  1  0.28631300  0.81590000  0.63854000  1
  O  O68  1  0.66413900  0.16158000  0.81989400  1
  O  O69  1  0.83842000  0.33586100  0.68010600  1
  O  O70  1  0.33586100  0.83842000  0.18010600  1
  O  O71  1  0.16158000  0.66413900  0.31989400  1
  O  O72  1  0.72858600  0.10336100  0.06028100  1
  O  O73  1  0.89664000  0.27141400  0.43971900  1
  O  O74  1  0.27141400  0.89664000  0.93971900  1
  O  O75  1  0.10336000  0.72858600  0.56028100  1
  O  O76  1  0.95401500  0.93723400  0.73244400  1
  O  O77  1  0.06276600  0.04598500  0.76755600  1
  O  O78  1  0.04598500  0.06276600  0.26755600  1
  O  O79  1  0.93723400  0.95401500  0.23244400  1
  O  O80  1  0.24310600  0.20263200  0.04849200  1
  O  O81  1  0.79736800  0.75689400  0.45150800  1
  O  O82  1  0.75689400  0.79736800  0.95150800  1
  O  O83  1  0.20263200  0.24310600  0.54849200  1
  O  O84  1  0.09017700  0.42505600  0.64364400  1
  O  O85  1  0.57494400  0.90982300  0.85635600  1
  O  O86  1  0.90982300  0.57494400  0.35635600  1
  O  O87  1  0.42505600  0.09017700  0.14364400  1
  O  O88  1  0.13560200  0.35395600  0.88272400  1
  O  O89  1  0.64604400  0.86439800  0.61727600  1
  O  O90  1  0.86439800  0.64604400  0.11727600  1
  O  O91  1  0.35395600  0.13560200  0.38272400  1
  O  O92  1  0.59814600  0.39185700  0.12894400  1
  O  O93  1  0.60814300  0.40185400  0.37105600  1
  O  O94  1  0.40185400  0.60814300  0.87105600  1
  O  O95  1  0.39185700  0.59814600  0.62894400  1
  O  O96  1  0.70708200  0.28810200  0.94016700  1
  O  O97  1  0.71189800  0.29291800  0.55983300  1
  O  O98  1  0.29291800  0.71189800  0.05983300  1
  O  O99  1  0.28810200  0.70708200  0.44016700  1
  O  O100  1  0.86844300  0.10610500  0.87608200  1
  O  O101  1  0.89389500  0.13155700  0.62391800  1
  O  O102  1  0.13155700  0.89389500  0.12391800  1
  O  O103  1  0.10610500  0.86844300  0.37608200  1
