# generated using pymatgen
data_YbB4
_symmetry_space_group_name_H-M   'P 1'
_cell_length_a   7.12275200
_cell_length_b   7.12275200
_cell_length_c   4.07439200
_cell_angle_alpha   90.00000000
_cell_angle_beta   90.00000000
_cell_angle_gamma   90.00000000
_symmetry_Int_Tables_number   1
_chemical_formula_structural   YbB4
_chemical_formula_sum   'Yb4 B16'
_cell_volume   206.70855789
_cell_formula_units_Z   4
loop_
 _symmetry_equiv_pos_site_id
 _symmetry_equiv_pos_as_xyz
  1  'x, y, z'
loop_
 _atom_site_type_symbol
 _atom_site_label
 _atom_site_symmetry_multiplicity
 _atom_site_fract_x
 _atom_site_fract_y
 _atom_site_fract_z
 _atom_site_occupancy
  Yb  Yb0  1  0.81536500  0.31536500  0.00000000  1
  Yb  Yb1  1  0.18463500  0.68463500  0.00000000  1
  Yb  Yb2  1  0.31536500  0.18463500  0.00000000  1
  Yb  Yb3  1  0.68463500  0.81536500  0.00000000  1
  B  B4  1  0.50000000  0.50000000  0.79515100  1
  B  B5  1  0.00000000  0.00000000  0.79515100  1
  B  B6  1  0.50000000  0.50000000  0.20484900  1
  B  B7  1  0.00000000  0.00000000  0.20484900  1
  B  B8  1  0.91471400  0.58528600  0.50000000  1
  B  B9  1  0.08528600  0.41471400  0.50000000  1
  B  B10  1  0.41471400  0.91471400  0.50000000  1
  B  B11  1  0.58528600  0.08528600  0.50000000  1
  B  B12  1  0.67563200  0.53659600  0.50000000  1
  B  B13  1  0.32436800  0.46340400  0.50000000  1
  B  B14  1  0.17563200  0.96340400  0.50000000  1
  B  B15  1  0.82436800  0.03659600  0.50000000  1
  B  B16  1  0.46340400  0.67563200  0.50000000  1
  B  B17  1  0.53659600  0.32436800  0.50000000  1
  B  B18  1  0.03659600  0.17563200  0.50000000  1
  B  B19  1  0.96340400  0.82436800  0.50000000  1
