# generated using pymatgen
data_Cs3TaS4
_symmetry_space_group_name_H-M   'P 1'
_cell_length_a   10.07824700
_cell_length_b   10.19941900
_cell_length_c   11.83322300
_cell_angle_alpha   90.00000000
_cell_angle_beta   90.00000000
_cell_angle_gamma   90.00000000
_symmetry_Int_Tables_number   1
_chemical_formula_structural   Cs3TaS4
_chemical_formula_sum   'Cs12 Ta4 S16'
_cell_volume   1216.36378186
_cell_formula_units_Z   4
loop_
 _symmetry_equiv_pos_site_id
 _symmetry_equiv_pos_as_xyz
  1  'x, y, z'
loop_
 _atom_site_type_symbol
 _atom_site_label
 _atom_site_symmetry_multiplicity
 _atom_site_fract_x
 _atom_site_fract_y
 _atom_site_fract_z
 _atom_site_occupancy
  Cs  Cs0  1  0.94955700  0.71066000  0.95816500  1
  Cs  Cs1  1  0.44955700  0.78934000  0.95816500  1
  Cs  Cs2  1  0.55044300  0.21066000  0.45816500  1
  Cs  Cs3  1  0.05044300  0.28934000  0.04183500  1
  Cs  Cs4  1  0.14537500  0.07957700  0.75000000  1
  Cs  Cs5  1  0.64537500  0.42042300  0.75000000  1
  Cs  Cs6  1  0.35462500  0.57957700  0.25000000  1
  Cs  Cs7  1  0.85462500  0.92042300  0.25000000  1
  Cs  Cs8  1  0.05044300  0.28934000  0.45816500  1
  Cs  Cs9  1  0.44955700  0.78934000  0.54183500  1
  Cs  Cs10  1  0.55044300  0.21066000  0.04183500  1
  Cs  Cs11  1  0.94955700  0.71066000  0.54183500  1
  Ta  Ta12  1  0.77864800  0.48525600  0.25000000  1
  Ta  Ta13  1  0.27864800  0.01474400  0.25000000  1
  Ta  Ta14  1  0.72135200  0.98525600  0.75000000  1
  Ta  Ta15  1  0.22135200  0.51474400  0.75000000  1
  S  S16  1  0.20427000  0.73885700  0.75000000  1
  S  S17  1  0.70427000  0.76114300  0.75000000  1
  S  S18  1  0.29573000  0.23885700  0.25000000  1
  S  S19  1  0.79573000  0.26114300  0.25000000  1
  S  S20  1  0.01231400  0.42591500  0.75000000  1
  S  S21  1  0.51231400  0.07408500  0.75000000  1
  S  S22  1  0.48768600  0.92591500  0.25000000  1
  S  S23  1  0.98768600  0.57408500  0.25000000  1
  S  S24  1  0.66781800  0.54850100  0.40965600  1
  S  S25  1  0.16781800  0.95149900  0.09034400  1
  S  S26  1  0.83218200  0.04850100  0.59034400  1
  S  S27  1  0.33218200  0.45149900  0.90965600  1
  S  S28  1  0.33218200  0.45149900  0.59034400  1
  S  S29  1  0.66781800  0.54850100  0.09034400  1
  S  S30  1  0.16781800  0.95149900  0.40965600  1
  S  S31  1  0.83218200  0.04850100  0.90965600  1
