# generated using pymatgen
data_MnGa2(CuSe2)3
_symmetry_space_group_name_H-M   'P 1'
_cell_length_a   13.25567274
_cell_length_b   12.66092849
_cell_length_c   6.89191392
_cell_angle_alpha   79.40592422
_cell_angle_beta   69.85965058
_cell_angle_gamma   30.73442520
_symmetry_Int_Tables_number   1
_chemical_formula_structural   MnGa2(CuSe2)3
_chemical_formula_sum   'Mn2 Ga4 Cu6 Se12'
_cell_volume   539.61594858
_cell_formula_units_Z   2
loop_
 _symmetry_equiv_pos_site_id
 _symmetry_equiv_pos_as_xyz
  1  'x, y, z'
loop_
 _atom_site_type_symbol
 _atom_site_label
 _atom_site_symmetry_multiplicity
 _atom_site_fract_x
 _atom_site_fract_y
 _atom_site_fract_z
 _atom_site_occupancy
  Mn  Mn0  1  0.41663400  0.08336600  0.41663400  1
  Mn  Mn1  1  0.16663400  0.83336600  0.16663400  1
  Ga  Ga2  1  0.75178600  0.41419900  0.08168000  1
  Ga  Ga3  1  0.08168000  0.75233500  0.75178600  1
  Ga  Ga4  1  0.49766500  0.16832000  0.83580100  1
  Ga  Ga5  1  0.83580100  0.49821400  0.49766500  1
  Cu  Cu6  1  0.58418100  0.24915800  0.24802200  1
  Cu  Cu7  1  0.91787200  0.58212800  0.91787200  1
  Cu  Cu8  1  0.24802200  0.91863900  0.58418100  1
  Cu  Cu9  1  0.00084200  0.66581900  0.33136100  1
  Cu  Cu10  1  0.33136100  0.00197800  0.00084200  1
  Cu  Cu11  1  0.66787200  0.33212800  0.66787200  1
  Se  Se12  1  0.70568200  0.62969500  0.87701500  1
  Se  Se13  1  0.03950200  0.96216300  0.54450500  1
  Se  Se14  1  0.37312300  0.29608000  0.21000100  1
  Se  Se15  1  0.21000100  0.12079500  0.37312300  1
  Se  Se16  1  0.54450500  0.45382900  0.03950200  1
  Se  Se17  1  0.87701500  0.78760800  0.70568200  1
  Se  Se18  1  0.28783700  0.21049800  0.79617100  1
  Se  Se19  1  0.62030500  0.54431800  0.46239200  1
  Se  Se20  1  0.95392000  0.87687700  0.12920500  1
  Se  Se21  1  0.46239200  0.37298500  0.62030500  1
  Se  Se22  1  0.79617100  0.70549500  0.28783700  1
  Se  Se23  1  0.12920500  0.03999900  0.95392000  1
