# generated using pymatgen
data_Ba4MgTa10O30
_symmetry_space_group_name_H-M   'P 1'
_cell_length_a   10.03801645
_cell_length_b   10.03801645
_cell_length_c   10.03801645
_cell_angle_alpha   133.53011992
_cell_angle_beta   117.81853125
_cell_angle_gamma   81.05951011
_symmetry_Int_Tables_number   1
_chemical_formula_structural   Ba4MgTa10O30
_chemical_formula_sum   'Ba4 Mg1 Ta10 O30'
_cell_volume   626.45225080
_cell_formula_units_Z   1
loop_
 _symmetry_equiv_pos_site_id
 _symmetry_equiv_pos_as_xyz
  1  'x, y, z'
loop_
 _atom_site_type_symbol
 _atom_site_label
 _atom_site_symmetry_multiplicity
 _atom_site_fract_x
 _atom_site_fract_y
 _atom_site_fract_z
 _atom_site_occupancy
  Ba  Ba0  1  0.45088100  0.95088100  0.50000000  1
  Ba  Ba1  1  0.46073400  0.46073400  0.00000000  1
  Ba  Ba2  1  0.04975100  0.04975100  0.00000000  1
  Ba  Ba3  1  0.05212100  0.55212100  0.50000000  1
  Mg  Mg4  1  0.72806400  0.72806400  0.00000000  1
  Ta  Ta5  1  0.81061800  0.87726700  0.43871200  1
  Ta  Ta6  1  0.81061800  0.37190600  0.93335100  1
  Ta  Ta7  1  0.43855500  0.87726700  0.06664900  1
  Ta  Ta8  1  0.43855500  0.37190600  0.56128800  1
  Ta  Ta9  1  0.25484000  0.50543400  0.25059500  1
  Ta  Ta10  1  0.25484000  0.00424500  0.74940500  1
  Ta  Ta11  1  0.05893300  0.62676300  0.93189900  1
  Ta  Ta12  1  0.05893300  0.12703400  0.43217000  1
  Ta  Ta13  1  0.69486400  0.12703400  0.06810100  1
  Ta  Ta14  1  0.69486400  0.62676300  0.56783000  1
  O  O15  1  0.02912900  0.89920200  0.60854300  1
  O  O16  1  0.02912900  0.42058600  0.12992700  1
  O  O17  1  0.29065900  0.89920200  0.87007300  1
  O  O18  1  0.29065900  0.42058600  0.39145700  1
  O  O19  1  0.82112400  0.13153500  0.68959000  1
  O  O20  1  0.77083100  0.62288500  0.14794600  1
  O  O21  1  0.44194500  0.13153500  0.31041000  1
  O  O22  1  0.47493900  0.62288500  0.85205400  1
  O  O23  1  0.21951400  0.10034200  0.61927600  1
  O  O24  1  0.21951400  0.60023800  0.11917200  1
  O  O25  1  0.48106600  0.10034200  0.88082800  1
  O  O26  1  0.48106600  0.60023800  0.38072400  1
  O  O27  1  0.58541500  0.31367500  0.72825900  1
  O  O28  1  0.58541500  0.85715600  0.27174100  1
  O  O29  1  0.92578100  0.67141000  0.74562900  1
  O  O30  1  0.92578100  0.18015200  0.25437100  1
  O  O31  1  0.88848500  0.54210100  0.91981900  1
  O  O32  1  0.88848500  0.96866600  0.34638400  1
  O  O33  1  0.62228200  0.96866600  0.08018100  1
  O  O34  1  0.62228200  0.54210100  0.65361600  1
  O  O35  1  0.05745700  0.37875600  0.67870100  1
  O  O36  1  0.07555600  0.89848700  0.17706900  1
  O  O37  1  0.70005500  0.37875600  0.32129900  1
  O  O38  1  0.72141800  0.89848700  0.82293100  1
  O  O39  1  0.25793400  0.74589700  0.99184300  1
  O  O40  1  0.25793400  0.26609100  0.51203700  1
  O  O41  1  0.75405400  0.74589700  0.48796300  1
  O  O42  1  0.75405400  0.26609100  0.00815700  1
  O  O43  1  0.25821300  0.75821300  0.50000000  1
  O  O44  1  0.25035200  0.25035200  0.00000000  1
