# generated using pymatgen
data_KGd(MoO4)2
_symmetry_space_group_name_H-M   'P 1'
_cell_length_a   5.19307100
_cell_length_b   8.22557600
_cell_length_c   18.52048300
_cell_angle_alpha   90.00000000
_cell_angle_beta   90.00000000
_cell_angle_gamma   90.00000000
_symmetry_Int_Tables_number   1
_chemical_formula_structural   KGd(MoO4)2
_chemical_formula_sum   'K4 Gd4 Mo8 O32'
_cell_volume   791.12095523
_cell_formula_units_Z   4
loop_
 _symmetry_equiv_pos_site_id
 _symmetry_equiv_pos_as_xyz
  1  'x, y, z'
loop_
 _atom_site_type_symbol
 _atom_site_label
 _atom_site_symmetry_multiplicity
 _atom_site_fract_x
 _atom_site_fract_y
 _atom_site_fract_z
 _atom_site_occupancy
  K  K0  1  0.00000000  0.75000000  0.76990400  1
  K  K1  1  0.00000000  0.25000000  0.23009600  1
  K  K2  1  0.50000000  0.25000000  0.73009600  1
  K  K3  1  0.50000000  0.75000000  0.26990400  1
  Gd  Gd4  1  0.00000000  0.75000000  0.00619700  1
  Gd  Gd5  1  0.00000000  0.25000000  0.99380300  1
  Gd  Gd6  1  0.50000000  0.25000000  0.49380300  1
  Gd  Gd7  1  0.50000000  0.75000000  0.50619700  1
  Mo  Mo8  1  0.02336100  0.51654500  0.39887900  1
  Mo  Mo9  1  0.97663900  0.48345500  0.60112100  1
  Mo  Mo10  1  0.47663900  0.01654500  0.10112100  1
  Mo  Mo11  1  0.97663900  0.98345500  0.39887900  1
  Mo  Mo12  1  0.52336100  0.98345500  0.89887900  1
  Mo  Mo13  1  0.02336100  0.01654500  0.60112100  1
  Mo  Mo14  1  0.52336100  0.48345500  0.10112100  1
  Mo  Mo15  1  0.47663900  0.51654500  0.89887900  1
  O  O16  1  0.10210000  0.97467400  0.31094600  1
  O  O17  1  0.89790000  0.02532600  0.68905400  1
  O  O18  1  0.39790000  0.47467400  0.18905400  1
  O  O19  1  0.89790000  0.52532600  0.31094600  1
  O  O20  1  0.60210000  0.52532600  0.81094600  1
  O  O21  1  0.10210000  0.47467400  0.68905400  1
  O  O22  1  0.60210000  0.02532600  0.18905400  1
  O  O23  1  0.39790000  0.97467400  0.81094600  1
  O  O24  1  0.27215000  0.83993000  0.09953800  1
  O  O25  1  0.72785000  0.16007000  0.90046200  1
  O  O26  1  0.22785000  0.33993000  0.40046200  1
  O  O27  1  0.72785000  0.66007000  0.09953800  1
  O  O28  1  0.77215000  0.66007000  0.59953800  1
  O  O29  1  0.27215000  0.33993000  0.90046200  1
  O  O30  1  0.77215000  0.16007000  0.40046200  1
  O  O31  1  0.22785000  0.83993000  0.59953800  1
  O  O32  1  0.25223600  0.50372300  0.03539800  1
  O  O33  1  0.74776400  0.49627700  0.96460200  1
  O  O34  1  0.24776400  0.00372300  0.46460200  1
  O  O35  1  0.74776400  0.99627700  0.03539800  1
  O  O36  1  0.75223600  0.99627700  0.53539800  1
  O  O37  1  0.25223600  0.00372300  0.96460200  1
  O  O38  1  0.75223600  0.49627700  0.46460200  1
  O  O39  1  0.24776400  0.50372300  0.53539800  1
  O  O40  1  0.24349100  0.68776300  0.40693700  1
  O  O41  1  0.75650900  0.31223700  0.59306300  1
  O  O42  1  0.25650900  0.18776300  0.09306300  1
  O  O43  1  0.75650900  0.81223700  0.40693700  1
  O  O44  1  0.74349100  0.81223700  0.90693700  1
  O  O45  1  0.24349100  0.18776300  0.59306300  1
  O  O46  1  0.74349100  0.31223700  0.09306300  1
  O  O47  1  0.25650900  0.68776300  0.90693700  1
