# generated using pymatgen
data_Pr(Al4Fe)2
_symmetry_space_group_name_H-M   'P 1'
_cell_length_a   4.03002300
_cell_length_b   12.56940500
_cell_length_c   14.35567200
_cell_angle_alpha   90.00000000
_cell_angle_beta   90.00000000
_cell_angle_gamma   90.00000000
_symmetry_Int_Tables_number   1
_chemical_formula_structural   Pr(Al4Fe)2
_chemical_formula_sum   'Pr4 Al32 Fe8'
_cell_volume   727.18643949
_cell_formula_units_Z   4
loop_
 _symmetry_equiv_pos_site_id
 _symmetry_equiv_pos_as_xyz
  1  'x, y, z'
loop_
 _atom_site_type_symbol
 _atom_site_label
 _atom_site_symmetry_multiplicity
 _atom_site_fract_x
 _atom_site_fract_y
 _atom_site_fract_z
 _atom_site_occupancy
  Pr  Pr0  1  0.00000000  0.83869800  0.18126900  1
  Pr  Pr1  1  0.00000000  0.16130200  0.81873100  1
  Pr  Pr2  1  0.00000000  0.33869800  0.31873100  1
  Pr  Pr3  1  0.00000000  0.66130200  0.68126900  1
  Al  Al4  1  0.00000000  0.50000000  0.50000000  1
  Al  Al5  1  0.00000000  0.00000000  0.00000000  1
  Al  Al6  1  0.50000000  0.50000000  0.00000000  1
  Al  Al7  1  0.50000000  0.00000000  0.50000000  1
  Al  Al8  1  0.50000000  0.73422600  0.33039000  1
  Al  Al9  1  0.50000000  0.26577400  0.66961000  1
  Al  Al10  1  0.50000000  0.23422600  0.16961000  1
  Al  Al11  1  0.50000000  0.76577400  0.83039000  1
  Al  Al12  1  0.50000000  0.95111900  0.32252400  1
  Al  Al13  1  0.50000000  0.04888100  0.67747600  1
  Al  Al14  1  0.50000000  0.45111900  0.17747600  1
  Al  Al15  1  0.50000000  0.54888100  0.82252400  1
  Al  Al16  1  0.50000000  0.65756400  0.12164700  1
  Al  Al17  1  0.50000000  0.34243600  0.87835300  1
  Al  Al18  1  0.50000000  0.15756400  0.37835300  1
  Al  Al19  1  0.50000000  0.84243600  0.62164700  1
  Al  Al20  1  0.00000000  0.83406200  0.45647500  1
  Al  Al21  1  0.00000000  0.16593800  0.54352500  1
  Al  Al22  1  0.00000000  0.33406200  0.04352500  1
  Al  Al23  1  0.00000000  0.66593800  0.95647500  1
  Al  Al24  1  0.00000000  0.59220000  0.24651200  1
  Al  Al25  1  0.00000000  0.40780000  0.75348800  1
  Al  Al26  1  0.00000000  0.09220000  0.25348800  1
  Al  Al27  1  0.00000000  0.90780000  0.74651200  1
  Al  Al28  1  0.50000000  0.83229600  0.00801100  1
  Al  Al29  1  0.50000000  0.16770400  0.99198900  1
  Al  Al30  1  0.50000000  0.33229600  0.49198900  1
  Al  Al31  1  0.50000000  0.66770400  0.50801100  1
  Al  Al32  1  0.50000000  0.52753000  0.36794500  1
  Al  Al33  1  0.50000000  0.47247000  0.63205500  1
  Al  Al34  1  0.50000000  0.02753000  0.13205500  1
  Al  Al35  1  0.50000000  0.97247000  0.86794500  1
  Fe  Fe36  1  0.00000000  0.64946000  0.40250300  1
  Fe  Fe37  1  0.00000000  0.35054000  0.59749700  1
  Fe  Fe38  1  0.00000000  0.14946000  0.09749700  1
  Fe  Fe39  1  0.00000000  0.85054000  0.90250300  1
  Fe  Fe40  1  0.00000000  0.53320900  0.08990100  1
  Fe  Fe41  1  0.00000000  0.46679100  0.91009900  1
  Fe  Fe42  1  0.00000000  0.03320900  0.41009900  1
  Fe  Fe43  1  0.00000000  0.96679100  0.58990100  1
