# generated using pymatgen
data_Cs2Mn2(MoO4)3
_symmetry_space_group_name_H-M   'P 1'
_cell_length_a   11.27290100
_cell_length_b   11.27290100
_cell_length_c   11.27290100
_cell_angle_alpha   90.00000000
_cell_angle_beta   90.00000000
_cell_angle_gamma   90.00000000
_symmetry_Int_Tables_number   1
_chemical_formula_structural   Cs2Mn2(MoO4)3
_chemical_formula_sum   'Cs8 Mn8 Mo12 O48'
_cell_volume   1432.54106083
_cell_formula_units_Z   4
loop_
 _symmetry_equiv_pos_site_id
 _symmetry_equiv_pos_as_xyz
  1  'x, y, z'
loop_
 _atom_site_type_symbol
 _atom_site_label
 _atom_site_symmetry_multiplicity
 _atom_site_fract_x
 _atom_site_fract_y
 _atom_site_fract_z
 _atom_site_occupancy
  Cs  Cs0  1  0.04978500  0.04978500  0.04978500  1
  Cs  Cs1  1  0.45021500  0.95021500  0.54978500  1
  Cs  Cs2  1  0.95021500  0.54978500  0.45021500  1
  Cs  Cs3  1  0.54978500  0.45021500  0.95021500  1
  Cs  Cs4  1  0.81792300  0.81792300  0.81792300  1
  Cs  Cs5  1  0.68207700  0.18207700  0.31792300  1
  Cs  Cs6  1  0.18207700  0.31792300  0.68207700  1
  Cs  Cs7  1  0.31792300  0.68207700  0.18207700  1
  Mn  Mn8  1  0.33547400  0.33547400  0.33547400  1
  Mn  Mn9  1  0.16452600  0.66452600  0.83547400  1
  Mn  Mn10  1  0.66452600  0.83547400  0.16452600  1
  Mn  Mn11  1  0.83547400  0.16452600  0.66452600  1
  Mn  Mn12  1  0.60084500  0.60084500  0.60084500  1
  Mn  Mn13  1  0.89915500  0.39915500  0.10084500  1
  Mn  Mn14  1  0.39915500  0.10084500  0.89915500  1
  Mn  Mn15  1  0.10084500  0.89915500  0.39915500  1
  Mo  Mo16  1  0.01997500  0.21440500  0.37599900  1
  Mo  Mo17  1  0.48002500  0.78559500  0.87599900  1
  Mo  Mo18  1  0.98002500  0.71440500  0.12400100  1
  Mo  Mo19  1  0.37599900  0.01997500  0.21440500  1
  Mo  Mo20  1  0.51997500  0.28559500  0.62400100  1
  Mo  Mo21  1  0.87599900  0.48002500  0.78559500  1
  Mo  Mo22  1  0.12400100  0.98002500  0.71440500  1
  Mo  Mo23  1  0.62400100  0.51997500  0.28559500  1
  Mo  Mo24  1  0.21440500  0.37599900  0.01997500  1
  Mo  Mo25  1  0.71440500  0.12400100  0.98002500  1
  Mo  Mo26  1  0.28559500  0.62400100  0.51997500  1
  Mo  Mo27  1  0.78559500  0.87599900  0.48002500  1
  O  O28  1  0.01420500  0.06126200  0.32976700  1
  O  O29  1  0.48579500  0.93873800  0.82976700  1
  O  O30  1  0.98579500  0.56126200  0.17023300  1
  O  O31  1  0.32976700  0.01420500  0.06126200  1
  O  O32  1  0.51420500  0.43873800  0.67023300  1
  O  O33  1  0.82976700  0.48579500  0.93873800  1
  O  O34  1  0.17023300  0.98579500  0.56126200  1
  O  O35  1  0.67023300  0.51420500  0.43873800  1
  O  O36  1  0.06126200  0.32976700  0.01420500  1
  O  O37  1  0.56126200  0.17023300  0.98579500  1
  O  O38  1  0.43873800  0.67023300  0.51420500  1
  O  O39  1  0.93873800  0.82976700  0.48579500  1
  O  O40  1  0.26777300  0.48928600  0.43575400  1
  O  O41  1  0.23222700  0.51071400  0.93575400  1
  O  O42  1  0.73222700  0.98928600  0.06424600  1
  O  O43  1  0.43575400  0.26777300  0.48928600  1
  O  O44  1  0.76777300  0.01071400  0.56424600  1
  O  O45  1  0.93575400  0.23222700  0.51071400  1
  O  O46  1  0.06424600  0.73222700  0.98928600  1
  O  O47  1  0.56424600  0.76777300  0.01071400  1
  O  O48  1  0.48928600  0.43575400  0.26777300  1
  O  O49  1  0.98928600  0.06424600  0.73222700  1
  O  O50  1  0.01071400  0.56424600  0.76777300  1
  O  O51  1  0.51071400  0.93575400  0.23222700  1
  O  O52  1  0.04698800  0.80783800  0.23511100  1
  O  O53  1  0.45301200  0.19216200  0.73511100  1
  O  O54  1  0.95301200  0.30783800  0.26488900  1
  O  O55  1  0.23511100  0.04698800  0.80783800  1
  O  O56  1  0.54698800  0.69216200  0.76488900  1
  O  O57  1  0.73511100  0.45301200  0.19216200  1
  O  O58  1  0.26488900  0.95301200  0.30783800  1
  O  O59  1  0.76488900  0.54698800  0.69216200  1
  O  O60  1  0.80783800  0.23511100  0.04698800  1
  O  O61  1  0.30783800  0.26488900  0.95301200  1
  O  O62  1  0.69216200  0.76488900  0.54698800  1
  O  O63  1  0.19216200  0.73511100  0.45301200  1
  O  O64  1  0.17054800  0.25921300  0.40129200  1
  O  O65  1  0.32945200  0.74078700  0.90129200  1
  O  O66  1  0.82945200  0.75921300  0.09870800  1
  O  O67  1  0.40129200  0.17054800  0.25921300  1
  O  O68  1  0.67054800  0.24078700  0.59870800  1
  O  O69  1  0.90129200  0.32945200  0.74078700  1
  O  O70  1  0.09870800  0.82945200  0.75921300  1
  O  O71  1  0.59870800  0.67054800  0.24078700  1
  O  O72  1  0.25921300  0.40129200  0.17054800  1
  O  O73  1  0.75921300  0.09870800  0.82945200  1
  O  O74  1  0.24078700  0.59870800  0.67054800  1
  O  O75  1  0.74078700  0.90129200  0.32945200  1
