# generated using pymatgen
data_Pr2GeRh3
_symmetry_space_group_name_H-M   'P 1'
_cell_length_a   5.23760723
_cell_length_b   5.23760723
_cell_length_c   5.23760683
_cell_angle_alpha   66.03429684
_cell_angle_beta   66.03429684
_cell_angle_gamma   66.03429906
_symmetry_Int_Tables_number   1
_chemical_formula_structural   Pr2GeRh3
_chemical_formula_sum   'Pr2 Ge1 Rh3'
_cell_volume   114.86058532
_cell_formula_units_Z   1
loop_
 _symmetry_equiv_pos_site_id
 _symmetry_equiv_pos_as_xyz
  1  'x, y, z'
loop_
 _atom_site_type_symbol
 _atom_site_label
 _atom_site_symmetry_multiplicity
 _atom_site_fract_x
 _atom_site_fract_y
 _atom_site_fract_z
 _atom_site_occupancy
  Pr  Pr0  1  0.62810300  0.62810300  0.62810300  1
  Pr  Pr1  1  0.37189700  0.37189700  0.37189700  1
  Ge  Ge2  1  0.00000000  0.00000000  0.00000000  1
  Rh  Rh3  1  0.00000000  0.00000000  0.50000000  1
  Rh  Rh4  1  0.50000000  0.00000000  0.00000000  1
  Rh  Rh5  1  0.00000000  0.50000000  0.00000000  1
