# generated using pymatgen
data_Ba3In2(PO4)4
_symmetry_space_group_name_H-M   'P 1'
_cell_length_a   9.80208300
_cell_length_b   9.07536100
_cell_length_c   9.30199423
_cell_angle_alpha   64.80617763
_cell_angle_beta   90.00000000
_cell_angle_gamma   90.00000000
_symmetry_Int_Tables_number   1
_chemical_formula_structural   Ba3In2(PO4)4
_chemical_formula_sum   'Ba6 In4 P8 O32'
_cell_volume   748.76572920
_cell_formula_units_Z   2
loop_
 _symmetry_equiv_pos_site_id
 _symmetry_equiv_pos_as_xyz
  1  'x, y, z'
loop_
 _atom_site_type_symbol
 _atom_site_label
 _atom_site_symmetry_multiplicity
 _atom_site_fract_x
 _atom_site_fract_y
 _atom_site_fract_z
 _atom_site_occupancy
  Ba  Ba0  1  0.00000000  0.00000000  0.00000000  1
  Ba  Ba1  1  0.50000000  0.00000000  0.50000000  1
  Ba  Ba2  1  0.67647100  0.27242900  0.05397200  1
  Ba  Ba3  1  0.17647100  0.72757100  0.44602800  1
  Ba  Ba4  1  0.32352900  0.72757100  0.94602800  1
  Ba  Ba5  1  0.82352900  0.27242900  0.55397200  1
  In  In6  1  0.12691800  0.25803400  0.24152400  1
  In  In7  1  0.62691800  0.74196600  0.25847600  1
  In  In8  1  0.87308200  0.74196600  0.75847600  1
  In  In9  1  0.37308200  0.25803400  0.74152400  1
  P  P10  1  0.36145700  0.02955400  0.14523200  1
  P  P11  1  0.86145700  0.97044600  0.35476800  1
  P  P12  1  0.63854300  0.97044600  0.85476800  1
  P  P13  1  0.13854300  0.02955400  0.64523200  1
  P  P14  1  0.91376800  0.58423400  0.18472100  1
  P  P15  1  0.41376800  0.41576600  0.31527900  1
  P  P16  1  0.08623200  0.41576600  0.81527900  1
  P  P17  1  0.58623200  0.58423400  0.68472100  1
  O  O18  1  0.41017100  0.18002200  0.99555400  1
  O  O19  1  0.91017100  0.81997800  0.50444600  1
  O  O20  1  0.58982900  0.81997800  0.00444600  1
  O  O21  1  0.08982900  0.18002200  0.49555400  1
  O  O22  1  0.49281500  0.94190300  0.23843800  1
  O  O23  1  0.99281500  0.05809700  0.26156200  1
  O  O24  1  0.50718500  0.05809700  0.76156200  1
  O  O25  1  0.00718500  0.94190300  0.73843800  1
  O  O26  1  0.26879900  0.91252300  0.10955500  1
  O  O27  1  0.76879900  0.08747700  0.39044500  1
  O  O28  1  0.73120100  0.08747700  0.89044500  1
  O  O29  1  0.23120100  0.91252300  0.60955500  1
  O  O30  1  0.28734600  0.07848300  0.26768800  1
  O  O31  1  0.78734600  0.92151700  0.23231200  1
  O  O32  1  0.71265400  0.92151700  0.73231200  1
  O  O33  1  0.21265400  0.07848300  0.76768800  1
  O  O34  1  0.78354300  0.56593100  0.29143800  1
  O  O35  1  0.28354300  0.43406900  0.20856200  1
  O  O36  1  0.21645700  0.43406900  0.70856200  1
  O  O37  1  0.71645700  0.56593100  0.79143800  1
  O  O38  1  0.94514600  0.40475500  0.21538700  1
  O  O39  1  0.44514600  0.59524500  0.28461300  1
  O  O40  1  0.05485400  0.59524500  0.78461300  1
  O  O41  1  0.55485400  0.40475500  0.71538700  1
  O  O42  1  0.87894600  0.69246400  0.00865600  1
  O  O43  1  0.37894600  0.30753600  0.49134400  1
  O  O44  1  0.12105400  0.30753600  0.99134400  1
  O  O45  1  0.62105400  0.69246400  0.50865600  1
  O  O46  1  0.03187900  0.66478000  0.23442500  1
  O  O47  1  0.53187900  0.33522000  0.26557500  1
  O  O48  1  0.96812100  0.33522000  0.76557500  1
  O  O49  1  0.46812100  0.66478000  0.73442500  1
