# generated using pymatgen
data_Yb3(SnPd)2
_symmetry_space_group_name_H-M   'P 1'
_cell_length_a   5.83056100
_cell_length_b   13.88462100
_cell_length_c   17.01045200
_cell_angle_alpha   90.00000000
_cell_angle_beta   90.00000000
_cell_angle_gamma   90.00000000
_symmetry_Int_Tables_number   1
_chemical_formula_structural   Yb3(SnPd)2
_chemical_formula_sum   'Yb24 Sn16 Pd16'
_cell_volume   1377.08334796
_cell_formula_units_Z   8
loop_
 _symmetry_equiv_pos_site_id
 _symmetry_equiv_pos_as_xyz
  1  'x, y, z'
loop_
 _atom_site_type_symbol
 _atom_site_label
 _atom_site_symmetry_multiplicity
 _atom_site_fract_x
 _atom_site_fract_y
 _atom_site_fract_z
 _atom_site_occupancy
  Yb  Yb0  1  0.19634700  0.09578800  0.32304600  1
  Yb  Yb1  1  0.80365300  0.59578800  0.67695400  1
  Yb  Yb2  1  0.19634700  0.90421200  0.17695400  1
  Yb  Yb3  1  0.80365300  0.40421200  0.82304600  1
  Yb  Yb4  1  0.80365300  0.90421200  0.67695400  1
  Yb  Yb5  1  0.19634700  0.40421200  0.32304600  1
  Yb  Yb6  1  0.80365300  0.09578800  0.82304600  1
  Yb  Yb7  1  0.19634700  0.59578800  0.17695400  1
  Yb  Yb8  1  0.49982900  0.09551600  0.57326300  1
  Yb  Yb9  1  0.50017100  0.59551600  0.42673700  1
  Yb  Yb10  1  0.49982900  0.90448400  0.92673700  1
  Yb  Yb11  1  0.50017100  0.40448400  0.07326300  1
  Yb  Yb12  1  0.50017100  0.90448400  0.42673700  1
  Yb  Yb13  1  0.49982900  0.40448400  0.57326300  1
  Yb  Yb14  1  0.50017100  0.09551600  0.07326300  1
  Yb  Yb15  1  0.49982900  0.59551600  0.92673700  1
  Yb  Yb16  1  0.98117500  0.25000000  0.50244200  1
  Yb  Yb17  1  0.01882500  0.75000000  0.49755800  1
  Yb  Yb18  1  0.98117500  0.75000000  0.99755800  1
  Yb  Yb19  1  0.01882500  0.25000000  0.00244200  1
  Yb  Yb20  1  0.28740800  0.25000000  0.75346000  1
  Yb  Yb21  1  0.71259200  0.75000000  0.24654000  1
  Yb  Yb22  1  0.28740800  0.75000000  0.74654000  1
  Yb  Yb23  1  0.71259200  0.25000000  0.25346000  1
  Sn  Sn24  1  0.51911400  0.25000000  0.92819200  1
  Sn  Sn25  1  0.48088600  0.75000000  0.07180800  1
  Sn  Sn26  1  0.51911400  0.75000000  0.57180800  1
  Sn  Sn27  1  0.48088600  0.25000000  0.42819200  1
  Sn  Sn28  1  0.21582100  0.25000000  0.17743200  1
  Sn  Sn29  1  0.78417900  0.75000000  0.82256800  1
  Sn  Sn30  1  0.21582100  0.75000000  0.32256800  1
  Sn  Sn31  1  0.78417900  0.25000000  0.67743200  1
  Sn  Sn32  1  0.31243900  0.00000000  0.75000000  1
  Sn  Sn33  1  0.68756100  0.50000000  0.25000000  1
  Sn  Sn34  1  0.68756100  0.00000000  0.25000000  1
  Sn  Sn35  1  0.31243900  0.50000000  0.75000000  1
  Sn  Sn36  1  0.00000000  0.00000000  0.00000000  1
  Sn  Sn37  1  0.00000000  0.50000000  0.00000000  1
  Sn  Sn38  1  0.00000000  0.00000000  0.50000000  1
  Sn  Sn39  1  0.00000000  0.50000000  0.50000000  1
  Pd  Pd40  1  0.02830400  0.09005200  0.64291800  1
  Pd  Pd41  1  0.97169600  0.59005200  0.35708200  1
  Pd  Pd42  1  0.02830400  0.90994800  0.85708200  1
  Pd  Pd43  1  0.97169600  0.40994800  0.14291800  1
  Pd  Pd44  1  0.97169600  0.90994800  0.35708200  1
  Pd  Pd45  1  0.02830400  0.40994800  0.64291800  1
  Pd  Pd46  1  0.97169600  0.09005200  0.14291800  1
  Pd  Pd47  1  0.02830400  0.59005200  0.85708200  1
  Pd  Pd48  1  0.27438100  0.09111700  0.89227700  1
  Pd  Pd49  1  0.72561900  0.59111700  0.10772300  1
  Pd  Pd50  1  0.27438100  0.90888300  0.60772300  1
  Pd  Pd51  1  0.72561900  0.40888300  0.39227700  1
  Pd  Pd52  1  0.72561900  0.90888300  0.10772300  1
  Pd  Pd53  1  0.27438100  0.40888300  0.89227700  1
  Pd  Pd54  1  0.72561900  0.09111700  0.39227700  1
  Pd  Pd55  1  0.27438100  0.59111700  0.60772300  1
