# generated using pymatgen
data_Ti2Sb
_symmetry_space_group_name_H-M   'P 1'
_cell_length_a   7.89233590
_cell_length_b   7.89233590
_cell_length_c   7.89233590
_cell_angle_alpha   151.11474392
_cell_angle_beta   151.11474392
_cell_angle_gamma   41.30750096
_symmetry_Int_Tables_number   1
_chemical_formula_structural   Ti2Sb
_chemical_formula_sum   'Ti4 Sb2'
_cell_volume   114.46061048
_cell_formula_units_Z   2
loop_
 _symmetry_equiv_pos_site_id
 _symmetry_equiv_pos_as_xyz
  1  'x, y, z'
loop_
 _atom_site_type_symbol
 _atom_site_label
 _atom_site_symmetry_multiplicity
 _atom_site_fract_x
 _atom_site_fract_y
 _atom_site_fract_z
 _atom_site_occupancy
  Ti  Ti0  1  0.17010700  0.17010700  0.00000000  1
  Ti  Ti1  1  0.82989300  0.82989300  0.00000000  1
  Ti  Ti2  1  0.50000000  0.00000000  0.50000000  1
  Ti  Ti3  1  0.00000000  0.50000000  0.50000000  1
  Sb  Sb4  1  0.35986400  0.35986400  0.00000000  1
  Sb  Sb5  1  0.64013600  0.64013600  0.00000000  1
