# generated using pymatgen
data_LaP5O14
_symmetry_space_group_name_H-M   'P 1'
_cell_length_a   8.94331600
_cell_length_b   9.27666400
_cell_length_c   13.26766500
_cell_angle_alpha   90.00000000
_cell_angle_beta   90.00000000
_cell_angle_gamma   90.00000000
_symmetry_Int_Tables_number   1
_chemical_formula_structural   LaP5O14
_chemical_formula_sum   'La4 P20 O56'
_cell_volume   1100.74038440
_cell_formula_units_Z   4
loop_
 _symmetry_equiv_pos_site_id
 _symmetry_equiv_pos_as_xyz
  1  'x, y, z'
loop_
 _atom_site_type_symbol
 _atom_site_label
 _atom_site_symmetry_multiplicity
 _atom_site_fract_x
 _atom_site_fract_y
 _atom_site_fract_z
 _atom_site_occupancy
  La  La0  1  0.72277000  0.81226800  0.00000000  1
  La  La1  1  0.27723000  0.18773200  0.00000000  1
  La  La2  1  0.72277000  0.68773200  0.50000000  1
  La  La3  1  0.27723000  0.31226800  0.50000000  1
  P  P4  1  0.50000000  0.00000000  0.79387400  1
  P  P5  1  0.50000000  0.50000000  0.70612600  1
  P  P6  1  0.50000000  0.00000000  0.20612600  1
  P  P7  1  0.50000000  0.50000000  0.29387400  1
  P  P8  1  0.31307400  0.74814600  0.50000000  1
  P  P9  1  0.68692600  0.25185400  0.50000000  1
  P  P10  1  0.31307400  0.75185400  0.00000000  1
  P  P11  1  0.68692600  0.24814600  0.00000000  1
  P  P12  1  0.00000000  0.00000000  0.82291400  1
  P  P13  1  0.00000000  0.50000000  0.67708600  1
  P  P14  1  0.00000000  0.00000000  0.17708600  1
  P  P15  1  0.00000000  0.50000000  0.32291400  1
  P  P16  1  0.23546200  0.95102400  0.66274100  1
  P  P17  1  0.76453800  0.04897600  0.66274100  1
  P  P18  1  0.23546200  0.54897600  0.83725900  1
  P  P19  1  0.76453800  0.45102400  0.83725900  1
  P  P20  1  0.76453800  0.04897600  0.33725900  1
  P  P21  1  0.23546200  0.95102400  0.33725900  1
  P  P22  1  0.76453800  0.45102400  0.16274100  1
  P  P23  1  0.23546200  0.54897600  0.16274100  1
  O  O24  1  0.22405200  0.09192300  0.61168200  1
  O  O25  1  0.77594800  0.90807700  0.61168200  1
  O  O26  1  0.22405200  0.40807700  0.88831800  1
  O  O27  1  0.77594800  0.59192300  0.88831800  1
  O  O28  1  0.77594800  0.90807700  0.38831800  1
  O  O29  1  0.22405200  0.09192300  0.38831800  1
  O  O30  1  0.77594800  0.59192300  0.11168200  1
  O  O31  1  0.22405200  0.40807700  0.11168200  1
  O  O32  1  0.58502900  0.88529500  0.84736200  1
  O  O33  1  0.41497100  0.11470500  0.84736200  1
  O  O34  1  0.58502900  0.61470500  0.65263800  1
  O  O35  1  0.41497100  0.38529500  0.65263800  1
  O  O36  1  0.41497100  0.11470500  0.15263800  1
  O  O37  1  0.58502900  0.88529500  0.15263800  1
  O  O38  1  0.41497100  0.38529500  0.34736200  1
  O  O39  1  0.58502900  0.61470500  0.34736200  1
  O  O40  1  0.11225000  0.91800400  0.74434800  1
  O  O41  1  0.88775000  0.08199600  0.74434800  1
  O  O42  1  0.11225000  0.58199600  0.75565200  1
  O  O43  1  0.88775000  0.41800400  0.75565200  1
  O  O44  1  0.88775000  0.08199600  0.25565200  1
  O  O45  1  0.11225000  0.91800400  0.25565200  1
  O  O46  1  0.88775000  0.41800400  0.24434800  1
  O  O47  1  0.11225000  0.58199600  0.24434800  1
  O  O48  1  0.46593500  0.81315600  0.50000000  1
  O  O49  1  0.53406500  0.18684400  0.50000000  1
  O  O50  1  0.46593500  0.68684400  0.00000000  1
  O  O51  1  0.53406500  0.31315600  0.00000000  1
  O  O52  1  0.38998400  0.91654700  0.71552000  1
  O  O53  1  0.61001600  0.08345300  0.71552000  1
  O  O54  1  0.38998400  0.58345300  0.78448000  1
  O  O55  1  0.61001600  0.41654700  0.78448000  1
  O  O56  1  0.61001600  0.08345300  0.28448000  1
  O  O57  1  0.38998400  0.91654700  0.28448000  1
  O  O58  1  0.61001600  0.41654700  0.21552000  1
  O  O59  1  0.38998400  0.58345300  0.21552000  1
  O  O60  1  0.91859100  0.88349000  0.87700800  1
  O  O61  1  0.08140900  0.11651000  0.87700800  1
  O  O62  1  0.91859100  0.61651000  0.62299200  1
  O  O63  1  0.08140900  0.38349000  0.62299200  1
  O  O64  1  0.08140900  0.11651000  0.12299200  1
  O  O65  1  0.91859100  0.88349000  0.12299200  1
  O  O66  1  0.08140900  0.38349000  0.37700800  1
  O  O67  1  0.91859100  0.61651000  0.37700800  1
  O  O68  1  0.28732300  0.58997700  0.50000000  1
  O  O69  1  0.71267700  0.41002300  0.50000000  1
  O  O70  1  0.28732300  0.91002300  0.00000000  1
  O  O71  1  0.71267700  0.08997700  0.00000000  1
  O  O72  1  0.21427400  0.81380200  0.59362000  1
  O  O73  1  0.78572600  0.18619800  0.59362000  1
  O  O74  1  0.21427400  0.68619800  0.90638000  1
  O  O75  1  0.78572600  0.31380200  0.90638000  1
  O  O76  1  0.78572600  0.18619800  0.40638000  1
  O  O77  1  0.21427400  0.81380200  0.40638000  1
  O  O78  1  0.78572600  0.31380200  0.09362000  1
  O  O79  1  0.21427400  0.68619800  0.09362000  1
