# generated using pymatgen
data_Sm2Co17
_symmetry_space_group_name_H-M   'P 1'
_cell_length_a   6.31633996
_cell_length_b   6.31633996
_cell_length_c   6.31634021
_cell_angle_alpha   82.96872490
_cell_angle_beta   82.96872490
_cell_angle_gamma   82.96871990
_symmetry_Int_Tables_number   1
_chemical_formula_structural   Sm2Co17
_chemical_formula_sum   'Sm2 Co17'
_cell_volume   246.74097991
_cell_formula_units_Z   1
loop_
 _symmetry_equiv_pos_site_id
 _symmetry_equiv_pos_as_xyz
  1  'x, y, z'
loop_
 _atom_site_type_symbol
 _atom_site_label
 _atom_site_symmetry_multiplicity
 _atom_site_fract_x
 _atom_site_fract_y
 _atom_site_fract_z
 _atom_site_occupancy
  Sm  Sm0  1  0.65599200  0.65599200  0.65599200  1
  Sm  Sm1  1  0.34400800  0.34400800  0.34400800  1
  Co  Co2  1  0.90391800  0.90391800  0.90391800  1
  Co  Co3  1  0.09608200  0.09608200  0.09608200  1
  Co  Co4  1  0.00000000  0.00000000  0.50000000  1
  Co  Co5  1  0.00000000  0.50000000  0.00000000  1
  Co  Co6  1  0.50000000  0.00000000  0.00000000  1
  Co  Co7  1  0.28625400  0.71374600  0.00000000  1
  Co  Co8  1  0.71374600  0.00000000  0.28625400  1
  Co  Co9  1  0.00000000  0.28625400  0.71374600  1
  Co  Co10  1  0.28625400  0.00000000  0.71374600  1
  Co  Co11  1  0.00000000  0.71374600  0.28625400  1
  Co  Co12  1  0.71374600  0.28625400  0.00000000  1
  Co  Co13  1  0.85037900  0.34397100  0.34397100  1
  Co  Co14  1  0.34397100  0.34397100  0.85037900  1
  Co  Co15  1  0.34397100  0.85037900  0.34397100  1
  Co  Co16  1  0.14962100  0.65602900  0.65602900  1
  Co  Co17  1  0.65602900  0.65602900  0.14962100  1
  Co  Co18  1  0.65602900  0.14962100  0.65602900  1
