# generated using pymatgen
data_MnB2F8
_symmetry_space_group_name_H-M   'P 1'
_cell_length_a   5.56085400
_cell_length_b   8.72106800
_cell_length_c   11.12058200
_cell_angle_alpha   90.00000000
_cell_angle_beta   90.00000000
_cell_angle_gamma   90.00000000
_symmetry_Int_Tables_number   1
_chemical_formula_structural   MnB2F8
_chemical_formula_sum   'Mn4 B8 F32'
_cell_volume   539.31025991
_cell_formula_units_Z   4
loop_
 _symmetry_equiv_pos_site_id
 _symmetry_equiv_pos_as_xyz
  1  'x, y, z'
loop_
 _atom_site_type_symbol
 _atom_site_label
 _atom_site_symmetry_multiplicity
 _atom_site_fract_x
 _atom_site_fract_y
 _atom_site_fract_z
 _atom_site_occupancy
  Mn  Mn0  1  0.25000000  0.25267500  0.60136000  1
  Mn  Mn1  1  0.75000000  0.74732500  0.39864000  1
  Mn  Mn2  1  0.25000000  0.75267500  0.89864000  1
  Mn  Mn3  1  0.75000000  0.24732500  0.10136000  1
  B  B4  1  0.25000000  0.35411600  0.90669200  1
  B  B5  1  0.75000000  0.64588400  0.09330800  1
  B  B6  1  0.25000000  0.85411600  0.59330800  1
  B  B7  1  0.75000000  0.14588400  0.40669200  1
  B  B8  1  0.25000000  0.00573000  0.15452300  1
  B  B9  1  0.75000000  0.99427000  0.84547700  1
  B  B10  1  0.25000000  0.50573000  0.34547700  1
  B  B11  1  0.75000000  0.49427000  0.65452300  1
  F  F12  1  0.25000000  0.24647200  0.81203500  1
  F  F13  1  0.25000000  0.93180900  0.04022800  1
  F  F14  1  0.75000000  0.56819100  0.54022800  1
  F  F15  1  0.25000000  0.43180900  0.45977200  1
  F  F16  1  0.75000000  0.49360100  0.14049200  1
  F  F17  1  0.25000000  0.50639900  0.85950800  1
  F  F18  1  0.75000000  0.99360100  0.35950800  1
  F  F19  1  0.25000000  0.00639900  0.64049200  1
  F  F20  1  0.04242300  0.10301000  0.16010200  1
  F  F21  1  0.54242300  0.89699000  0.83989800  1
  F  F22  1  0.45757700  0.60301000  0.33989800  1
  F  F23  1  0.75000000  0.06819100  0.95977200  1
  F  F24  1  0.95757700  0.89699000  0.83989800  1
  F  F25  1  0.45757700  0.10301000  0.16010200  1
  F  F26  1  0.54242300  0.39699000  0.66010200  1
  F  F27  1  0.04242300  0.60301000  0.33989800  1
  F  F28  1  0.04114000  0.33419100  0.97818200  1
  F  F29  1  0.54114000  0.66580900  0.02181800  1
  F  F30  1  0.45886000  0.83419100  0.52181800  1
  F  F31  1  0.95886000  0.16580900  0.47818200  1
  F  F32  1  0.95886000  0.66580900  0.02181800  1
  F  F33  1  0.45886000  0.33419100  0.97818200  1
  F  F34  1  0.54114000  0.16580900  0.47818200  1
  F  F35  1  0.04114000  0.83419100  0.52181800  1
  F  F36  1  0.75000000  0.09692400  0.75206300  1
  F  F37  1  0.25000000  0.90307600  0.24793700  1
  F  F38  1  0.75000000  0.59692400  0.74793700  1
  F  F39  1  0.25000000  0.40307600  0.25206300  1
  F  F40  1  0.25000000  0.74647200  0.68796500  1
  F  F41  1  0.75000000  0.25352800  0.31203500  1
  F  F42  1  0.95757700  0.39699000  0.66010200  1
  F  F43  1  0.75000000  0.75352800  0.18796500  1
