# generated using pymatgen
data_Ce2NiRu3
_symmetry_space_group_name_H-M   'P 1'
_cell_length_a   5.22651344
_cell_length_b   5.22651344
_cell_length_c   5.22651324
_cell_angle_alpha   61.46573035
_cell_angle_beta   61.46573035
_cell_angle_gamma   61.46573588
_symmetry_Int_Tables_number   1
_chemical_formula_structural   Ce2NiRu3
_chemical_formula_sum   'Ce2 Ni1 Ru3'
_cell_volume   104.27581844
_cell_formula_units_Z   1
loop_
 _symmetry_equiv_pos_site_id
 _symmetry_equiv_pos_as_xyz
  1  'x, y, z'
loop_
 _atom_site_type_symbol
 _atom_site_label
 _atom_site_symmetry_multiplicity
 _atom_site_fract_x
 _atom_site_fract_y
 _atom_site_fract_z
 _atom_site_occupancy
  Ce  Ce0  1  0.62469500  0.62469500  0.62469500  1
  Ce  Ce1  1  0.37530500  0.37530500  0.37530500  1
  Ni  Ni2  1  0.00000000  0.00000000  0.00000000  1
  Ru  Ru3  1  0.00000000  0.50000000  0.00000000  1
  Ru  Ru4  1  0.50000000  0.00000000  0.00000000  1
  Ru  Ru5  1  0.00000000  0.00000000  0.50000000  1
