# generated using pymatgen
data_Cd3SiO5
_symmetry_space_group_name_H-M   'P 1'
_cell_length_a   6.92604100
_cell_length_b   6.92604100
_cell_length_c   5.07476600
_cell_angle_alpha   90.00000000
_cell_angle_beta   90.00000000
_cell_angle_gamma   90.00000000
_symmetry_Int_Tables_number   1
_chemical_formula_structural   Cd3SiO5
_chemical_formula_sum   'Cd6 Si2 O10'
_cell_volume   243.43674797
_cell_formula_units_Z   2
loop_
 _symmetry_equiv_pos_site_id
 _symmetry_equiv_pos_as_xyz
  1  'x, y, z'
loop_
 _atom_site_type_symbol
 _atom_site_label
 _atom_site_symmetry_multiplicity
 _atom_site_fract_x
 _atom_site_fract_y
 _atom_site_fract_z
 _atom_site_occupancy
  Cd  Cd0  1  0.50000000  0.00000000  0.96626700  1
  Cd  Cd1  1  0.00000000  0.50000000  0.03373300  1
  Cd  Cd2  1  0.25000000  0.25000000  0.50000000  1
  Cd  Cd3  1  0.75000000  0.25000000  0.50000000  1
  Cd  Cd4  1  0.25000000  0.75000000  0.50000000  1
  Cd  Cd5  1  0.75000000  0.75000000  0.50000000  1
  Si  Si6  1  0.00000000  0.00000000  0.00000000  1
  Si  Si7  1  0.50000000  0.50000000  0.00000000  1
  O  O8  1  0.50000000  0.00000000  0.39377200  1
  O  O9  1  0.00000000  0.50000000  0.60622800  1
  O  O10  1  0.50000000  0.31106100  0.80180500  1
  O  O11  1  0.50000000  0.68893900  0.80180500  1
  O  O12  1  0.18893900  0.00000000  0.80180500  1
  O  O13  1  0.81106100  0.00000000  0.80180500  1
  O  O14  1  0.31106100  0.50000000  0.19819500  1
  O  O15  1  0.00000000  0.18893900  0.19819500  1
  O  O16  1  0.68893900  0.50000000  0.19819500  1
  O  O17  1  0.00000000  0.81106100  0.19819500  1
