# generated using pymatgen
data_Tm(CuS)3
_symmetry_space_group_name_H-M   'P 1'
_cell_length_a   7.36659400
_cell_length_b   7.36659400
_cell_length_c   7.36659373
_cell_angle_alpha   53.66573343
_cell_angle_beta   53.66573343
_cell_angle_gamma   53.66573248
_symmetry_Int_Tables_number   1
_chemical_formula_structural   Tm(CuS)3
_chemical_formula_sum   'Tm2 Cu6 S6'
_cell_volume   240.80072678
_cell_formula_units_Z   2
loop_
 _symmetry_equiv_pos_site_id
 _symmetry_equiv_pos_as_xyz
  1  'x, y, z'
loop_
 _atom_site_type_symbol
 _atom_site_label
 _atom_site_symmetry_multiplicity
 _atom_site_fract_x
 _atom_site_fract_y
 _atom_site_fract_z
 _atom_site_occupancy
  Tm  Tm0  1  0.83342300  0.83342300  0.83342300  1
  Tm  Tm1  1  0.16657700  0.16657700  0.16657700  1
  Cu  Cu2  1  0.28748200  0.95961900  0.62350400  1
  Cu  Cu3  1  0.62350400  0.28748200  0.95961900  1
  Cu  Cu4  1  0.95961900  0.62350400  0.28748200  1
  Cu  Cu5  1  0.04038100  0.37649600  0.71251800  1
  Cu  Cu6  1  0.37649600  0.71251800  0.04038100  1
  Cu  Cu7  1  0.71251800  0.04038100  0.37649600  1
  S  S8  1  0.08354200  0.75136300  0.41866200  1
  S  S9  1  0.75136300  0.41866200  0.08354200  1
  S  S10  1  0.41866200  0.08354200  0.75136300  1
  S  S11  1  0.58133800  0.91645800  0.24863700  1
  S  S12  1  0.24863700  0.58133800  0.91645800  1
  S  S13  1  0.91645800  0.24863700  0.58133800  1
