# generated using pymatgen
data_Nd2VFeO6
_symmetry_space_group_name_H-M   'P 1'
_cell_length_a   5.69966800
_cell_length_b   5.50020500
_cell_length_c   9.58229552
_cell_angle_alpha   55.18610588
_cell_angle_beta   90.00000000
_cell_angle_gamma   90.00000000
_symmetry_Int_Tables_number   1
_chemical_formula_structural   Nd2VFeO6
_chemical_formula_sum   'Nd4 V2 Fe2 O12'
_cell_volume   246.63054360
_cell_formula_units_Z   2
loop_
 _symmetry_equiv_pos_site_id
 _symmetry_equiv_pos_as_xyz
  1  'x, y, z'
loop_
 _atom_site_type_symbol
 _atom_site_label
 _atom_site_symmetry_multiplicity
 _atom_site_fract_x
 _atom_site_fract_y
 _atom_site_fract_z
 _atom_site_occupancy
  Nd  Nd0  1  0.55564500  0.76439800  0.74955900  1
  Nd  Nd1  1  0.05564500  0.23560200  0.75044100  1
  Nd  Nd2  1  0.44435500  0.23560200  0.25044100  1
  Nd  Nd3  1  0.94435500  0.76439800  0.24955900  1
  V  V4  1  0.50000000  0.50000000  0.50000000  1
  V  V5  1  0.00000000  0.50000000  0.00000000  1
  Fe  Fe6  1  0.50000000  0.00000000  0.00000000  1
  Fe  Fe7  1  0.00000000  0.00000000  0.50000000  1
  O  O8  1  0.70274500  0.24586600  0.05071900  1
  O  O9  1  0.20274500  0.75413400  0.44928100  1
  O  O10  1  0.29578300  0.15284900  0.54955000  1
  O  O11  1  0.79578300  0.84715100  0.95045000  1
  O  O12  1  0.29725500  0.75413400  0.94928100  1
  O  O13  1  0.79725500  0.24586600  0.55071900  1
  O  O14  1  0.70421700  0.84715100  0.45045000  1
  O  O15  1  0.20421700  0.15284900  0.04955000  1
  O  O16  1  0.47294200  0.34260800  0.75178500  1
  O  O17  1  0.97294200  0.65739200  0.74821500  1
  O  O18  1  0.52705800  0.65739200  0.24821500  1
  O  O19  1  0.02705800  0.34260800  0.25178500  1
