# generated using pymatgen
data_Li3VFeP2(O4F)2
_symmetry_space_group_name_H-M   'P 1'
_cell_length_a   5.41651508
_cell_length_b   7.62441115
_cell_length_c   10.28182619
_cell_angle_alpha   75.52568276
_cell_angle_beta   81.65064369
_cell_angle_gamma   110.16016037
_symmetry_Int_Tables_number   1
_chemical_formula_structural   Li3VFeP2(O4F)2
_chemical_formula_sum   'Li6 V2 Fe2 P4 O16 F4'
_cell_volume   373.23823054
_cell_formula_units_Z   2
loop_
 _symmetry_equiv_pos_site_id
 _symmetry_equiv_pos_as_xyz
  1  'x, y, z'
loop_
 _atom_site_type_symbol
 _atom_site_label
 _atom_site_symmetry_multiplicity
 _atom_site_fract_x
 _atom_site_fract_y
 _atom_site_fract_z
 _atom_site_occupancy
  Li  Li0  1  0.88837200  0.30560600  0.54901100  1
  Li  Li1  1  0.38979100  0.80617400  0.04865700  1
  Li  Li2  1  0.96867300  0.00067900  0.50831900  1
  Li  Li3  1  0.47407500  0.50110300  0.00792600  1
  Li  Li4  1  0.11296700  0.70697200  0.45089900  1
  Li  Li5  1  0.61428400  0.20744000  0.95085700  1
  V  V6  1  0.49942500  0.49981300  0.49930100  1
  V  V7  1  0.00015400  0.99975400  0.99981100  1
  Fe  Fe8  1  0.24924300  0.24583600  0.25325600  1
  Fe  Fe9  1  0.74965800  0.74592800  0.75292000  1
  P  P10  1  0.59092800  0.95128700  0.28859100  1
  P  P11  1  0.09218500  0.45103500  0.78852300  1
  P  P12  1  0.40810200  0.04781300  0.71090600  1
  P  P13  1  0.90904400  0.54728900  0.21078300  1
  O  O14  1  0.66250500  0.99501800  0.12604200  1
  O  O15  1  0.16206600  0.49474400  0.62594100  1
  O  O16  1  0.84165800  0.05693700  0.33460800  1
  O  O17  1  0.34462400  0.55711600  0.83342400  1
  O  O18  1  0.34713000  0.00292400  0.33429100  1
  O  O19  1  0.84925300  0.50272800  0.83523800  1
  O  O20  1  0.47608100  0.72118700  0.35845800  1
  O  O21  1  0.97788400  0.22106800  0.85847800  1
  O  O22  1  0.52217400  0.27779900  0.64012000  1
  O  O23  1  0.02409300  0.77741000  0.13994300  1
  O  O24  1  0.65099600  0.99527800  0.66380700  1
  O  O25  1  0.15253500  0.49432500  0.16496800  1
  O  O26  1  0.15299100  0.94095600  0.66814900  1
  O  O27  1  0.65558400  0.44105400  0.16694600  1
  O  O28  1  0.34112500  0.00687500  0.87336100  1
  O  O29  1  0.84029100  0.50655900  0.37325900  1
  F  F30  1  0.20713600  0.29459100  0.44821700  1
  F  F31  1  0.70764900  0.79488800  0.94830600  1
  F  F32  1  0.78559800  0.70355100  0.55400200  1
  F  F33  1  0.28635300  0.20389100  0.05418500  1
