# generated using pymatgen
data_Tb2Co14B
_symmetry_space_group_name_H-M   'P 1'
_cell_length_a   8.57662300
_cell_length_b   8.57662300
_cell_length_c   11.66528300
_cell_angle_alpha   90.00000000
_cell_angle_beta   90.00000000
_cell_angle_gamma   90.00000000
_symmetry_Int_Tables_number   1
_chemical_formula_structural   Tb2Co14B
_chemical_formula_sum   'Tb8 Co56 B4'
_cell_volume   858.08027726
_cell_formula_units_Z   4
loop_
 _symmetry_equiv_pos_site_id
 _symmetry_equiv_pos_as_xyz
  1  'x, y, z'
loop_
 _atom_site_type_symbol
 _atom_site_label
 _atom_site_symmetry_multiplicity
 _atom_site_fract_x
 _atom_site_fract_y
 _atom_site_fract_z
 _atom_site_occupancy
  Tb  Tb0  1  0.22394300  0.77605700  0.50000000  1
  Tb  Tb1  1  0.77605700  0.22394300  0.50000000  1
  Tb  Tb2  1  0.27605700  0.27605700  0.00000000  1
  Tb  Tb3  1  0.72394300  0.72394300  0.00000000  1
  Tb  Tb4  1  0.64619300  0.64619300  0.50000000  1
  Tb  Tb5  1  0.35380700  0.35380700  0.50000000  1
  Tb  Tb6  1  0.85380700  0.14619300  0.00000000  1
  Tb  Tb7  1  0.14619300  0.85380700  0.00000000  1
  Co  Co8  1  0.00000000  0.50000000  0.50000000  1
  Co  Co9  1  0.50000000  0.00000000  0.00000000  1
  Co  Co10  1  0.50000000  0.00000000  0.50000000  1
  Co  Co11  1  0.00000000  0.50000000  0.00000000  1
  Co  Co12  1  0.50000000  0.50000000  0.11668300  1
  Co  Co13  1  0.00000000  0.00000000  0.61668300  1
  Co  Co14  1  0.50000000  0.50000000  0.88331700  1
  Co  Co15  1  0.00000000  0.00000000  0.38331700  1
  Co  Co16  1  0.18206900  0.81793100  0.25376700  1
  Co  Co17  1  0.81793100  0.18206900  0.25376700  1
  Co  Co18  1  0.31793100  0.31793100  0.75376700  1
  Co  Co19  1  0.68206900  0.68206900  0.75376700  1
  Co  Co20  1  0.81793100  0.18206900  0.74623300  1
  Co  Co21  1  0.18206900  0.81793100  0.74623300  1
  Co  Co22  1  0.68206900  0.68206900  0.24623300  1
  Co  Co23  1  0.31793100  0.31793100  0.24623300  1
  Co  Co24  1  0.40181600  0.59818400  0.29820900  1
  Co  Co25  1  0.59818400  0.40181600  0.29820900  1
  Co  Co26  1  0.09818400  0.09818400  0.79820900  1
  Co  Co27  1  0.90181600  0.90181600  0.79820900  1
  Co  Co28  1  0.59818400  0.40181600  0.70179100  1
  Co  Co29  1  0.40181600  0.59818400  0.70179100  1
  Co  Co30  1  0.90181600  0.90181600  0.20179100  1
  Co  Co31  1  0.09818400  0.09818400  0.20179100  1
  Co  Co32  1  0.14072800  0.53683000  0.32245800  1
  Co  Co33  1  0.85927200  0.46317000  0.32245800  1
  Co  Co34  1  0.35927200  0.03683000  0.82245800  1
  Co  Co35  1  0.64072800  0.96317000  0.82245800  1
  Co  Co36  1  0.85927200  0.46317000  0.67754200  1
  Co  Co37  1  0.14072800  0.53683000  0.67754200  1
  Co  Co38  1  0.64072800  0.96317000  0.17754200  1
  Co  Co39  1  0.35927200  0.03683000  0.17754200  1
  Co  Co40  1  0.53683000  0.14072800  0.32245800  1
  Co  Co41  1  0.46317000  0.85927200  0.32245800  1
  Co  Co42  1  0.03683000  0.35927200  0.82245800  1
  Co  Co43  1  0.96317000  0.64072800  0.82245800  1
  Co  Co44  1  0.46317000  0.85927200  0.67754200  1
  Co  Co45  1  0.53683000  0.14072800  0.67754200  1
  Co  Co46  1  0.96317000  0.64072800  0.17754200  1
  Co  Co47  1  0.03683000  0.35927200  0.17754200  1
  Co  Co48  1  0.93128000  0.72419500  0.37380900  1
  Co  Co49  1  0.06872000  0.27580500  0.37380900  1
  Co  Co50  1  0.56872000  0.22419500  0.87380900  1
  Co  Co51  1  0.43128000  0.77580500  0.87380900  1
  Co  Co52  1  0.06872000  0.27580500  0.62619100  1
  Co  Co53  1  0.93128000  0.72419500  0.62619100  1
  Co  Co54  1  0.43128000  0.77580500  0.12619100  1
  Co  Co55  1  0.56872000  0.22419500  0.12619100  1
  Co  Co56  1  0.72419500  0.93128000  0.37380900  1
  Co  Co57  1  0.27580500  0.06872000  0.37380900  1
  Co  Co58  1  0.22419500  0.56872000  0.87380900  1
  Co  Co59  1  0.77580500  0.43128000  0.87380900  1
  Co  Co60  1  0.27580500  0.06872000  0.62619100  1
  Co  Co61  1  0.72419500  0.93128000  0.62619100  1
  Co  Co62  1  0.77580500  0.43128000  0.12619100  1
  Co  Co63  1  0.22419500  0.56872000  0.12619100  1
  B  B64  1  0.87719600  0.87719600  0.50000000  1
  B  B65  1  0.12280400  0.12280400  0.50000000  1
  B  B66  1  0.62280400  0.37719600  0.00000000  1
  B  B67  1  0.37719600  0.62280400  0.00000000  1
