# generated using pymatgen
data_CsNa2H3(SO4)3
_symmetry_space_group_name_H-M   'P 1'
_cell_length_a   10.71621700
_cell_length_b   10.71621700
_cell_length_c   10.71621700
_cell_angle_alpha   90.00000000
_cell_angle_beta   90.00000000
_cell_angle_gamma   90.00000000
_symmetry_Int_Tables_number   1
_chemical_formula_structural   CsNa2H3(SO4)3
_chemical_formula_sum   'Cs4 Na8 H12 S12 O48'
_cell_volume   1230.62149927
_cell_formula_units_Z   4
loop_
 _symmetry_equiv_pos_site_id
 _symmetry_equiv_pos_as_xyz
  1  'x, y, z'
loop_
 _atom_site_type_symbol
 _atom_site_label
 _atom_site_symmetry_multiplicity
 _atom_site_fract_x
 _atom_site_fract_y
 _atom_site_fract_z
 _atom_site_occupancy
  Cs  Cs0  1  0.05199700  0.94800300  0.44800300  1
  Cs  Cs1  1  0.55199700  0.55199700  0.55199700  1
  Cs  Cs2  1  0.44800300  0.05199700  0.94800300  1
  Cs  Cs3  1  0.94800300  0.44800300  0.05199700  1
  Na  Na4  1  0.82764700  0.82764700  0.82764700  1
  Na  Na5  1  0.17235300  0.32764700  0.67235300  1
  Na  Na6  1  0.32764700  0.67235300  0.17235300  1
  Na  Na7  1  0.67235300  0.17235300  0.32764700  1
  Na  Na8  1  0.40066100  0.90066100  0.59933900  1
  Na  Na9  1  0.90066100  0.59933900  0.40066100  1
  Na  Na10  1  0.59933900  0.40066100  0.90066100  1
  Na  Na11  1  0.09933900  0.09933900  0.09933900  1
  H  H12  1  0.14096800  0.82768600  0.99870200  1
  H  H13  1  0.00129800  0.64096800  0.67231400  1
  H  H14  1  0.32768600  0.50129800  0.85903200  1
  H  H15  1  0.64096800  0.67231400  0.00129800  1
  H  H16  1  0.50129800  0.85903200  0.32768600  1
  H  H17  1  0.82768600  0.99870200  0.14096800  1
  H  H18  1  0.85903200  0.32768600  0.50129800  1
  H  H19  1  0.99870200  0.14096800  0.82768600  1
  H  H20  1  0.67231400  0.00129800  0.64096800  1
  H  H21  1  0.35903200  0.17231400  0.49870200  1
  H  H22  1  0.49870200  0.35903200  0.17231400  1
  H  H23  1  0.17231400  0.49870200  0.35903200  1
  S  S24  1  0.98454600  0.78693000  0.12181900  1
  S  S25  1  0.87818100  0.48454600  0.71307000  1
  S  S26  1  0.28693000  0.37818100  0.01545400  1
  S  S27  1  0.48454600  0.71307000  0.87818100  1
  S  S28  1  0.37818100  0.01545400  0.28693000  1
  S  S29  1  0.78693000  0.12181900  0.98454600  1
  S  S30  1  0.01545400  0.28693000  0.37818100  1
  S  S31  1  0.12181900  0.98454600  0.78693000  1
  S  S32  1  0.71307000  0.87818100  0.48454600  1
  S  S33  1  0.51545400  0.21307000  0.62181900  1
  S  S34  1  0.62181900  0.51545400  0.21307000  1
  S  S35  1  0.21307000  0.62181900  0.51545400  1
  O  O36  1  0.12469600  0.76888400  0.06978800  1
  O  O37  1  0.93021200  0.62469600  0.73111600  1
  O  O38  1  0.26888400  0.43021200  0.87530400  1
  O  O39  1  0.62469600  0.73111600  0.93021200  1
  O  O40  1  0.43021200  0.87530400  0.26888400  1
  O  O41  1  0.76888400  0.06978800  0.12469600  1
  O  O42  1  0.87530400  0.26888400  0.43021200  1
  O  O43  1  0.06978800  0.12469600  0.76888400  1
  O  O44  1  0.73111600  0.93021200  0.62469600  1
  O  O45  1  0.37530400  0.23111600  0.56978800  1
  O  O46  1  0.56978800  0.37530400  0.23111600  1
  O  O47  1  0.23111600  0.56978800  0.37530400  1
  O  O48  1  0.97082200  0.91966900  0.15766700  1
  O  O49  1  0.84233300  0.47082200  0.58033100  1
  O  O50  1  0.41966900  0.34233300  0.02917800  1
  O  O51  1  0.47082200  0.58033100  0.84233300  1
  O  O52  1  0.34233300  0.02917800  0.41966900  1
  O  O53  1  0.91966900  0.15766700  0.97082200  1
  O  O54  1  0.02917800  0.41966900  0.34233300  1
  O  O55  1  0.15766700  0.97082200  0.91966900  1
  O  O56  1  0.58033100  0.84233300  0.47082200  1
  O  O57  1  0.52917800  0.08033100  0.65766700  1
  O  O58  1  0.65766700  0.52917800  0.08033100  1
  O  O59  1  0.08033100  0.65766700  0.52917800  1
  O  O60  1  0.98423600  0.70302900  0.22870400  1
  O  O61  1  0.77129600  0.48423600  0.79697100  1
  O  O62  1  0.20302900  0.27129600  0.01576400  1
  O  O63  1  0.48423600  0.79697100  0.77129600  1
  O  O64  1  0.27129600  0.01576400  0.20302900  1
  O  O65  1  0.70302900  0.22870400  0.98423600  1
  O  O66  1  0.01576400  0.20302900  0.27129600  1
  O  O67  1  0.22870400  0.98423600  0.70302900  1
  O  O68  1  0.79697100  0.77129600  0.48423600  1
  O  O69  1  0.51576400  0.29697100  0.72870400  1
  O  O70  1  0.72870400  0.51576400  0.29697100  1
  O  O71  1  0.29697100  0.72870400  0.51576400  1
  O  O72  1  0.89963900  0.75142900  0.02147100  1
  O  O73  1  0.97852900  0.39963900  0.74857100  1
  O  O74  1  0.25142900  0.47852900  0.10036100  1
  O  O75  1  0.39963900  0.74857100  0.97852900  1
  O  O76  1  0.47852900  0.10036100  0.25142900  1
  O  O77  1  0.75142900  0.02147100  0.89963900  1
  O  O78  1  0.10036100  0.25142900  0.47852900  1
  O  O79  1  0.02147100  0.89963900  0.75142900  1
  O  O80  1  0.74857100  0.97852900  0.39963900  1
  O  O81  1  0.60036100  0.24857100  0.52147100  1
  O  O82  1  0.52147100  0.60036100  0.24857100  1
  O  O83  1  0.24857100  0.52147100  0.60036100  1
