# generated using pymatgen
data_KYb2Cl7
_symmetry_space_group_name_H-M   'P 1'
_cell_length_a   7.42842409
_cell_length_b   14.08335300
_cell_length_c   10.46710846
_cell_angle_alpha   90.00000000
_cell_angle_beta   90.21435064
_cell_angle_gamma   90.00000000
_symmetry_Int_Tables_number   1
_chemical_formula_structural   KYb2Cl7
_chemical_formula_sum   'K4 Yb8 Cl28'
_cell_volume   1095.03106451
_cell_formula_units_Z   4
loop_
 _symmetry_equiv_pos_site_id
 _symmetry_equiv_pos_as_xyz
  1  'x, y, z'
loop_
 _atom_site_type_symbol
 _atom_site_label
 _atom_site_symmetry_multiplicity
 _atom_site_fract_x
 _atom_site_fract_y
 _atom_site_fract_z
 _atom_site_occupancy
  K  K0  1  0.24895500  0.76059500  0.08410400  1
  K  K1  1  0.75104500  0.23940500  0.91589600  1
  K  K2  1  0.75104500  0.26059500  0.41589600  1
  K  K3  1  0.24895500  0.73940500  0.58410400  1
  Yb  Yb4  1  0.23678300  0.42723000  0.22757200  1
  Yb  Yb5  1  0.76321700  0.57277000  0.77242800  1
  Yb  Yb6  1  0.76321700  0.92723000  0.27242800  1
  Yb  Yb7  1  0.23678300  0.07277000  0.72757200  1
  Yb  Yb8  1  0.26064300  0.17110300  0.20578600  1
  Yb  Yb9  1  0.73935700  0.82889700  0.79421400  1
  Yb  Yb10  1  0.73935700  0.67110300  0.29421400  1
  Yb  Yb11  1  0.26064300  0.32889700  0.70578600  1
  Cl  Cl12  1  0.01633100  0.01699500  0.10668500  1
  Cl  Cl13  1  0.98366900  0.98300500  0.89331500  1
  Cl  Cl14  1  0.98366900  0.51699500  0.39331500  1
  Cl  Cl15  1  0.01633100  0.48300500  0.60668500  1
  Cl  Cl16  1  0.25197000  0.30427200  0.42704100  1
  Cl  Cl17  1  0.74803000  0.69572800  0.57295900  1
  Cl  Cl18  1  0.74803000  0.80427200  0.07295900  1
  Cl  Cl19  1  0.25197000  0.19572800  0.92704100  1
  Cl  Cl20  1  0.49992700  0.30894700  0.15856100  1
  Cl  Cl21  1  0.50007300  0.69105300  0.84143900  1
  Cl  Cl22  1  0.50007300  0.80894700  0.34143900  1
  Cl  Cl23  1  0.49992700  0.19105300  0.65856100  1
  Cl  Cl24  1  0.03357200  0.04625500  0.35514300  1
  Cl  Cl25  1  0.96642800  0.95374500  0.64485700  1
  Cl  Cl26  1  0.96642800  0.54625500  0.14485700  1
  Cl  Cl27  1  0.03357200  0.45374500  0.85514300  1
  Cl  Cl28  1  0.51286900  0.02516600  0.10022500  1
  Cl  Cl29  1  0.48713100  0.97483400  0.89977500  1
  Cl  Cl30  1  0.48713100  0.52516600  0.39977500  1
  Cl  Cl31  1  0.51286900  0.47483400  0.60022500  1
  Cl  Cl32  1  0.98968800  0.29279100  0.16460000  1
  Cl  Cl33  1  0.01031200  0.70720900  0.83540000  1
  Cl  Cl34  1  0.01031200  0.79279100  0.33540000  1
  Cl  Cl35  1  0.98968800  0.20720900  0.66460000  1
  Cl  Cl36  1  0.53401900  0.07492200  0.34215100  1
  Cl  Cl37  1  0.46598100  0.92507800  0.65784900  1
  Cl  Cl38  1  0.46598100  0.57492200  0.15784900  1
  Cl  Cl39  1  0.53401900  0.42507800  0.84215100  1
