# generated using pymatgen
data_ThTc2
_symmetry_space_group_name_H-M   'P 1'
_cell_length_a   5.27318237
_cell_length_b   5.27318237
_cell_length_c   9.77134700
_cell_angle_alpha   90.00000000
_cell_angle_beta   90.00000000
_cell_angle_gamma   120.00000466
_symmetry_Int_Tables_number   1
_chemical_formula_structural   ThTc2
_chemical_formula_sum   'Th4 Tc8'
_cell_volume   235.30471556
_cell_formula_units_Z   4
loop_
 _symmetry_equiv_pos_site_id
 _symmetry_equiv_pos_as_xyz
  1  'x, y, z'
loop_
 _atom_site_type_symbol
 _atom_site_label
 _atom_site_symmetry_multiplicity
 _atom_site_fract_x
 _atom_site_fract_y
 _atom_site_fract_z
 _atom_site_occupancy
  Th  Th0  1  0.33333300  0.66666700  0.43540700  1
  Th  Th1  1  0.66666700  0.33333300  0.56459300  1
  Th  Th2  1  0.66666700  0.33333300  0.93540700  1
  Th  Th3  1  0.33333300  0.66666700  0.06459300  1
  Tc  Tc4  1  0.00000000  0.00000000  0.50000000  1
  Tc  Tc5  1  0.00000000  0.00000000  0.00000000  1
  Tc  Tc6  1  0.83038600  0.16961400  0.25000000  1
  Tc  Tc7  1  0.83038600  0.66077200  0.25000000  1
  Tc  Tc8  1  0.33922800  0.16961400  0.25000000  1
  Tc  Tc9  1  0.16961400  0.83038600  0.75000000  1
  Tc  Tc10  1  0.16961400  0.33922800  0.75000000  1
  Tc  Tc11  1  0.66077200  0.83038600  0.75000000  1
