# generated using pymatgen
data_SrCo3(P2O7)2
_symmetry_space_group_name_H-M   'P 1'
_cell_length_a   7.80851700
_cell_length_b   7.56140900
_cell_length_c   9.61464761
_cell_angle_alpha   68.03045141
_cell_angle_beta   90.00000000
_cell_angle_gamma   90.00000000
_symmetry_Int_Tables_number   1
_chemical_formula_structural   SrCo3(P2O7)2
_chemical_formula_sum   'Sr2 Co6 P8 O28'
_cell_volume   526.45797258
_cell_formula_units_Z   2
loop_
 _symmetry_equiv_pos_site_id
 _symmetry_equiv_pos_as_xyz
  1  'x, y, z'
loop_
 _atom_site_type_symbol
 _atom_site_label
 _atom_site_symmetry_multiplicity
 _atom_site_fract_x
 _atom_site_fract_y
 _atom_site_fract_z
 _atom_site_occupancy
  Sr  Sr0  1  0.50000000  0.00000000  0.50000000  1
  Sr  Sr1  1  0.00000000  0.00000000  0.00000000  1
  Co  Co2  1  0.50000000  0.50000000  0.50000000  1
  Co  Co3  1  0.00000000  0.50000000  0.00000000  1
  Co  Co4  1  0.62489600  0.31388200  0.02758700  1
  Co  Co5  1  0.12489600  0.68611800  0.47241300  1
  Co  Co6  1  0.37510400  0.68611800  0.97241300  1
  Co  Co7  1  0.87510400  0.31388200  0.52758700  1
  P  P8  1  0.20396400  0.38778400  0.30608800  1
  P  P9  1  0.70396400  0.61221600  0.19391200  1
  P  P10  1  0.79603600  0.61221600  0.69391200  1
  P  P11  1  0.29603600  0.38778400  0.80608800  1
  P  P12  1  0.55770000  0.10391100  0.79827600  1
  P  P13  1  0.05770000  0.89608900  0.70172400  1
  P  P14  1  0.44230000  0.89608900  0.20172400  1
  P  P15  1  0.94230000  0.10391100  0.29827600  1
  O  O16  1  0.17985800  0.87656100  0.58458400  1
  O  O17  1  0.67985800  0.12343900  0.91541600  1
  O  O18  1  0.82014200  0.12343900  0.41541600  1
  O  O19  1  0.32014200  0.87656100  0.08458400  1
  O  O20  1  0.62405100  0.65709700  0.61244800  1
  O  O21  1  0.12405100  0.34290300  0.88755200  1
  O  O22  1  0.37594900  0.34290300  0.38755200  1
  O  O23  1  0.87594900  0.65709700  0.11244800  1
  O  O24  1  0.37162500  0.18244300  0.82247000  1
  O  O25  1  0.87162500  0.81755700  0.67753000  1
  O  O26  1  0.62837500  0.81755700  0.17753000  1
  O  O27  1  0.12837500  0.18244300  0.32247000  1
  O  O28  1  0.57766900  0.52663500  0.11341500  1
  O  O29  1  0.07766900  0.47336500  0.38658500  1
  O  O30  1  0.42233100  0.47336500  0.88658500  1
  O  O31  1  0.92233100  0.52663500  0.61341500  1
  O  O32  1  0.61531100  0.22848400  0.63543600  1
  O  O33  1  0.11531100  0.77151600  0.86456400  1
  O  O34  1  0.38468900  0.77151600  0.36456400  1
  O  O35  1  0.88468900  0.22848400  0.13543600  1
  O  O36  1  0.21156600  0.49782200  0.13520000  1
  O  O37  1  0.71156600  0.50217800  0.36480000  1
  O  O38  1  0.78843400  0.50217800  0.86480000  1
  O  O39  1  0.28843400  0.49782200  0.63520000  1
  O  O40  1  0.51771900  0.90195300  0.80659400  1
  O  O41  1  0.01771900  0.09804700  0.69340600  1
  O  O42  1  0.48228100  0.09804700  0.19340600  1
  O  O43  1  0.98228100  0.90195300  0.30659400  1
