# generated using pymatgen
data_Lu5(Ge5Ir2)2
_symmetry_space_group_name_H-M   'P 1'
_cell_length_a   12.97806900
_cell_length_b   12.97806900
_cell_length_c   4.29470800
_cell_angle_alpha   90.00000000
_cell_angle_beta   90.00000000
_cell_angle_gamma   90.00000000
_symmetry_Int_Tables_number   1
_chemical_formula_structural   Lu5(Ge5Ir2)2
_chemical_formula_sum   'Lu10 Ge20 Ir8'
_cell_volume   723.35884935
_cell_formula_units_Z   2
loop_
 _symmetry_equiv_pos_site_id
 _symmetry_equiv_pos_as_xyz
  1  'x, y, z'
loop_
 _atom_site_type_symbol
 _atom_site_label
 _atom_site_symmetry_multiplicity
 _atom_site_fract_x
 _atom_site_fract_y
 _atom_site_fract_z
 _atom_site_occupancy
  Lu  Lu0  1  0.50000000  0.50000000  0.00000000  1
  Lu  Lu1  1  0.00000000  0.00000000  0.00000000  1
  Lu  Lu2  1  0.67392800  0.17392800  0.50000000  1
  Lu  Lu3  1  0.32607200  0.82607200  0.50000000  1
  Lu  Lu4  1  0.17392800  0.32607200  0.50000000  1
  Lu  Lu5  1  0.82607200  0.67392800  0.50000000  1
  Lu  Lu6  1  0.88412500  0.38412500  0.50000000  1
  Lu  Lu7  1  0.11587500  0.61587500  0.50000000  1
  Lu  Lu8  1  0.38412500  0.11587500  0.50000000  1
  Lu  Lu9  1  0.61587500  0.88412500  0.50000000  1
  Ge  Ge10  1  0.56620600  0.06620600  0.00000000  1
  Ge  Ge11  1  0.43379400  0.93379400  0.00000000  1
  Ge  Ge12  1  0.06620600  0.43379400  0.00000000  1
  Ge  Ge13  1  0.93379400  0.56620600  0.00000000  1
  Ge  Ge14  1  0.66340100  0.70013900  0.00000000  1
  Ge  Ge15  1  0.33659900  0.29986100  0.00000000  1
  Ge  Ge16  1  0.16340100  0.79986100  0.00000000  1
  Ge  Ge17  1  0.83659900  0.20013900  0.00000000  1
  Ge  Ge18  1  0.29986100  0.66340100  0.00000000  1
  Ge  Ge19  1  0.70013900  0.33659900  0.00000000  1
  Ge  Ge20  1  0.20013900  0.16340100  0.00000000  1
  Ge  Ge21  1  0.79986100  0.83659900  0.00000000  1
  Ge  Ge22  1  0.65437000  0.50910100  0.50000000  1
  Ge  Ge23  1  0.34563000  0.49089900  0.50000000  1
  Ge  Ge24  1  0.15437000  0.99089900  0.50000000  1
  Ge  Ge25  1  0.84563000  0.00910100  0.50000000  1
  Ge  Ge26  1  0.49089900  0.65437000  0.50000000  1
  Ge  Ge27  1  0.50910100  0.34563000  0.50000000  1
  Ge  Ge28  1  0.00910100  0.15437000  0.50000000  1
  Ge  Ge29  1  0.99089900  0.84563000  0.50000000  1
  Ir  Ir30  1  0.74696900  0.52086800  0.00000000  1
  Ir  Ir31  1  0.25303100  0.47913200  0.00000000  1
  Ir  Ir32  1  0.24696800  0.97913200  0.00000000  1
  Ir  Ir33  1  0.75303100  0.02086800  0.00000000  1
  Ir  Ir34  1  0.47913200  0.74696900  0.00000000  1
  Ir  Ir35  1  0.52086800  0.25303100  0.00000000  1
  Ir  Ir36  1  0.02086800  0.24696800  0.00000000  1
  Ir  Ir37  1  0.97913200  0.75303100  0.00000000  1
