# generated using pymatgen
data_SrAs
_symmetry_space_group_name_H-M   'P 1'
_cell_length_a   8.36331813
_cell_length_b   8.36331813
_cell_length_c   6.22438200
_cell_angle_alpha   90.00000000
_cell_angle_beta   90.00000000
_cell_angle_gamma   120.00000104
_symmetry_Int_Tables_number   1
_chemical_formula_structural   SrAs
_chemical_formula_sum   'Sr6 As6'
_cell_volume   377.03711154
_cell_formula_units_Z   6
loop_
 _symmetry_equiv_pos_site_id
 _symmetry_equiv_pos_as_xyz
  1  'x, y, z'
loop_
 _atom_site_type_symbol
 _atom_site_label
 _atom_site_symmetry_multiplicity
 _atom_site_fract_x
 _atom_site_fract_y
 _atom_site_fract_z
 _atom_site_occupancy
  Sr  Sr0  1  0.00000000  0.64752700  0.50000000  1
  Sr  Sr1  1  0.35247300  0.35247300  0.50000000  1
  Sr  Sr2  1  0.64752700  0.00000000  0.50000000  1
  Sr  Sr3  1  0.00000000  0.31320700  0.00000000  1
  Sr  Sr4  1  0.68679300  0.68679300  0.00000000  1
  Sr  Sr5  1  0.31320700  0.00000000  0.00000000  1
  As  As6  1  0.66666700  0.33333300  0.20914500  1
  As  As7  1  0.66666700  0.33333300  0.79085500  1
  As  As8  1  0.33333300  0.66666700  0.79085500  1
  As  As9  1  0.33333300  0.66666700  0.20914500  1
  As  As10  1  0.00000000  0.00000000  0.70391600  1
  As  As11  1  0.00000000  0.00000000  0.29608400  1
