# generated using pymatgen
data_Sc2InPd2
_symmetry_space_group_name_H-M   'P 1'
_cell_length_a   7.52802400
_cell_length_b   7.52802400
_cell_length_c   6.87119900
_cell_angle_alpha   90.00000000
_cell_angle_beta   90.00000000
_cell_angle_gamma   90.00000000
_symmetry_Int_Tables_number   1
_chemical_formula_structural   Sc2InPd2
_chemical_formula_sum   'Sc8 In4 Pd8'
_cell_volume   389.39871722
_cell_formula_units_Z   4
loop_
 _symmetry_equiv_pos_site_id
 _symmetry_equiv_pos_as_xyz
  1  'x, y, z'
loop_
 _atom_site_type_symbol
 _atom_site_label
 _atom_site_symmetry_multiplicity
 _atom_site_fract_x
 _atom_site_fract_y
 _atom_site_fract_z
 _atom_site_occupancy
  Sc  Sc0  1  0.15865200  0.15865200  0.00000000  1
  Sc  Sc1  1  0.84134800  0.84134800  0.00000000  1
  Sc  Sc2  1  0.65865200  0.34134800  0.50000000  1
  Sc  Sc3  1  0.34134800  0.65865200  0.50000000  1
  Sc  Sc4  1  0.68598700  0.31401300  0.00000000  1
  Sc  Sc5  1  0.31401300  0.68598700  0.00000000  1
  Sc  Sc6  1  0.81401300  0.81401300  0.50000000  1
  Sc  Sc7  1  0.18598700  0.18598700  0.50000000  1
  In  In8  1  0.50000000  0.00000000  0.25000000  1
  In  In9  1  0.50000000  0.00000000  0.75000000  1
  In  In10  1  0.00000000  0.50000000  0.25000000  1
  In  In11  1  0.00000000  0.50000000  0.75000000  1
  Pd  Pd12  1  0.37162400  0.37162400  0.22280500  1
  Pd  Pd13  1  0.62837600  0.62837600  0.77719500  1
  Pd  Pd14  1  0.62837600  0.62837600  0.22280500  1
  Pd  Pd15  1  0.87162400  0.12837600  0.72280500  1
  Pd  Pd16  1  0.87162400  0.12837600  0.27719500  1
  Pd  Pd17  1  0.37162400  0.37162400  0.77719500  1
  Pd  Pd18  1  0.12837600  0.87162400  0.27719500  1
  Pd  Pd19  1  0.12837600  0.87162400  0.72280500  1
