# generated using pymatgen
data_Np2SeO9
_symmetry_space_group_name_H-M   'P 1'
_cell_length_a   6.93623700
_cell_length_b   7.02677300
_cell_length_c   16.16707673
_cell_angle_alpha   89.58419548
_cell_angle_beta   90.00000000
_cell_angle_gamma   90.00000000
_symmetry_Int_Tables_number   1
_chemical_formula_structural   Np2SeO9
_chemical_formula_sum   'Np8 Se4 O36'
_cell_volume   787.95226953
_cell_formula_units_Z   4
loop_
 _symmetry_equiv_pos_site_id
 _symmetry_equiv_pos_as_xyz
  1  'x, y, z'
loop_
 _atom_site_type_symbol
 _atom_site_label
 _atom_site_symmetry_multiplicity
 _atom_site_fract_x
 _atom_site_fract_y
 _atom_site_fract_z
 _atom_site_occupancy
  Np  Np0  1  0.96471900  0.25624300  0.65722500  1
  Np  Np1  1  0.46471900  0.74375700  0.84277500  1
  Np  Np2  1  0.03528100  0.74375700  0.34277500  1
  Np  Np3  1  0.53528100  0.25624300  0.15722500  1
  Np  Np4  1  0.19417500  0.74560500  0.60104600  1
  Np  Np5  1  0.69417500  0.25439500  0.89895400  1
  Np  Np6  1  0.80582500  0.25439500  0.39895400  1
  Np  Np7  1  0.30582500  0.74560500  0.10104600  1
  Se  Se8  1  0.43738700  0.24967600  0.56148300  1
  Se  Se9  1  0.93738700  0.75032400  0.93851700  1
  Se  Se10  1  0.56261300  0.75032400  0.43851700  1
  Se  Se11  1  0.06261300  0.24967600  0.06148300  1
  O  O12  1  0.46372100  0.00805100  0.85896000  1
  O  O13  1  0.96372100  0.99194900  0.64104000  1
  O  O14  1  0.53627900  0.99194900  0.14104000  1
  O  O15  1  0.03627900  0.00805100  0.35896000  1
  O  O16  1  0.31739000  0.04393700  0.56243000  1
  O  O17  1  0.81739000  0.95606300  0.93757000  1
  O  O18  1  0.68261000  0.95606300  0.43757000  1
  O  O19  1  0.18261000  0.04393700  0.06243000  1
  O  O20  1  0.16165200  0.22946200  0.73349900  1
  O  O21  1  0.66165200  0.77053800  0.76650100  1
  O  O22  1  0.83834800  0.77053800  0.26650100  1
  O  O23  1  0.33834800  0.22946200  0.23349900  1
  O  O24  1  0.80378600  0.24655600  0.79586700  1
  O  O25  1  0.30378600  0.75344400  0.70413300  1
  O  O26  1  0.19621400  0.75344400  0.20413300  1
  O  O27  1  0.69621400  0.24655600  0.29586700  1
  O  O28  1  0.87966400  0.25184000  0.12841500  1
  O  O29  1  0.37966400  0.74816000  0.37158500  1
  O  O30  1  0.12033600  0.74816000  0.87158500  1
  O  O31  1  0.62033600  0.25184000  0.62841500  1
  O  O32  1  0.91212900  0.26549900  0.50330100  1
  O  O33  1  0.41212900  0.73450100  0.99669900  1
  O  O34  1  0.08787100  0.73450100  0.49669900  1
  O  O35  1  0.58787100  0.26549900  0.00330100  1
  O  O36  1  0.99886800  0.30340200  0.96434800  1
  O  O37  1  0.49886800  0.69659800  0.53565200  1
  O  O38  1  0.00113200  0.69659800  0.03565200  1
  O  O39  1  0.50113200  0.30340200  0.46434800  1
  O  O40  1  0.26142500  0.40390800  0.58946700  1
  O  O41  1  0.76142500  0.59609200  0.91053300  1
  O  O42  1  0.73857500  0.59609200  0.41053300  1
  O  O43  1  0.23857500  0.40390800  0.08946700  1
  O  O44  1  0.94954700  0.52268000  0.65693800  1
  O  O45  1  0.44954700  0.47732000  0.84306200  1
  O  O46  1  0.05045300  0.47732000  0.34306200  1
  O  O47  1  0.55045300  0.52268000  0.15693800  1
