# generated using pymatgen
data_Ba2Gd(CuO2)4
_symmetry_space_group_name_H-M   'P 1'
_cell_length_a   13.83769943
_cell_length_b   13.83769943
_cell_length_c   3.89956500
_cell_angle_alpha   90.00000000
_cell_angle_beta   90.00000000
_cell_angle_gamma   163.73601607
_symmetry_Int_Tables_number   1
_chemical_formula_structural   Ba2Gd(CuO2)4
_chemical_formula_sum   'Ba2 Gd1 Cu4 O8'
_cell_volume   209.12222175
_cell_formula_units_Z   1
loop_
 _symmetry_equiv_pos_site_id
 _symmetry_equiv_pos_as_xyz
  1  'x, y, z'
loop_
 _atom_site_type_symbol
 _atom_site_label
 _atom_site_symmetry_multiplicity
 _atom_site_fract_x
 _atom_site_fract_y
 _atom_site_fract_z
 _atom_site_occupancy
  Ba  Ba0  1  0.63536300  0.36463700  0.50000000  1
  Ba  Ba1  1  0.36463700  0.63536300  0.50000000  1
  Gd  Gd2  1  0.50000000  0.50000000  0.50000000  1
  Cu  Cu3  1  0.93840700  0.06159300  0.00000000  1
  Cu  Cu4  1  0.06159300  0.93840700  0.00000000  1
  Cu  Cu5  1  0.78741400  0.21258600  0.00000000  1
  Cu  Cu6  1  0.21258600  0.78741400  0.00000000  1
  O  O7  1  0.85475200  0.14524800  0.00000000  1
  O  O8  1  0.14524800  0.85475200  0.00000000  1
  O  O9  1  0.55258800  0.44741200  0.00000000  1
  O  O10  1  0.44741200  0.55258800  0.00000000  1
  O  O11  1  0.71811900  0.28188100  0.00000000  1
  O  O12  1  0.28188100  0.71811900  0.00000000  1
  O  O13  1  0.94737300  0.05262700  0.50000000  1
  O  O14  1  0.05262700  0.94737300  0.50000000  1
