# generated using pymatgen
data_K16Tl22Pd
_symmetry_space_group_name_H-M   'P 1'
_cell_length_a   18.48997162
_cell_length_b   18.48997162
_cell_length_c   18.48997149
_cell_angle_alpha   32.40137678
_cell_angle_beta   32.40137678
_cell_angle_gamma   32.40137703
_symmetry_Int_Tables_number   1
_chemical_formula_structural   K16Tl22Pd
_chemical_formula_sum   'K16 Tl22 Pd1'
_cell_volume   1613.69291847
_cell_formula_units_Z   1
loop_
 _symmetry_equiv_pos_site_id
 _symmetry_equiv_pos_as_xyz
  1  'x, y, z'
loop_
 _atom_site_type_symbol
 _atom_site_label
 _atom_site_symmetry_multiplicity
 _atom_site_fract_x
 _atom_site_fract_y
 _atom_site_fract_z
 _atom_site_occupancy
  K  K0  1  0.92569100  0.15660600  0.60074900  1
  K  K1  1  0.60074900  0.92569100  0.15660600  1
  K  K2  1  0.15660600  0.60074900  0.92569100  1
  K  K3  1  0.10412800  0.64769700  0.43652900  1
  K  K4  1  0.43652900  0.10412800  0.64769700  1
  K  K5  1  0.64769700  0.43652900  0.10412800  1
  K  K6  1  0.56347100  0.35230300  0.89587200  1
  K  K7  1  0.89587200  0.56347100  0.35230300  1
  K  K8  1  0.35230300  0.89587200  0.56347100  1
  K  K9  1  0.39925100  0.84339400  0.07430900  1
  K  K10  1  0.07430900  0.39925100  0.84339400  1
  K  K11  1  0.84339400  0.07430900  0.39925100  1
  K  K12  1  0.17241000  0.17241000  0.17241000  1
  K  K13  1  0.67255000  0.67255000  0.67255000  1
  K  K14  1  0.32745000  0.32745000  0.32745000  1
  K  K15  1  0.82759000  0.82759000  0.82759000  1
  Tl  Tl16  1  0.73263000  0.26737000  0.00000000  1
  Tl  Tl17  1  0.00000000  0.73263000  0.26737000  1
  Tl  Tl18  1  0.26737000  0.00000000  0.73263000  1
  Tl  Tl19  1  0.50000000  0.71799400  0.28200600  1
  Tl  Tl20  1  0.28200600  0.50000000  0.71799400  1
  Tl  Tl21  1  0.71799400  0.28200600  0.50000000  1
  Tl  Tl22  1  0.83266100  0.52109100  0.24045100  1
  Tl  Tl23  1  0.24045100  0.83266100  0.52109100  1
  Tl  Tl24  1  0.52109100  0.24045100  0.83266100  1
  Tl  Tl25  1  0.75398600  0.02379200  0.31621000  1
  Tl  Tl26  1  0.31621000  0.75398600  0.02379200  1
  Tl  Tl27  1  0.02379200  0.31621000  0.75398600  1
  Tl  Tl28  1  0.68379000  0.97620800  0.24601400  1
  Tl  Tl29  1  0.24601400  0.68379000  0.97620800  1
  Tl  Tl30  1  0.97620800  0.24601400  0.68379000  1
  Tl  Tl31  1  0.75954900  0.47890900  0.16733900  1
  Tl  Tl32  1  0.16733900  0.75954900  0.47890900  1
  Tl  Tl33  1  0.47890900  0.16733900  0.75954900  1
  Tl  Tl34  1  0.94539000  0.94539000  0.94539000  1
  Tl  Tl35  1  0.44843100  0.44843100  0.44843100  1
  Tl  Tl36  1  0.55156900  0.55156900  0.55156900  1
  Tl  Tl37  1  0.05461000  0.05461000  0.05461000  1
  Pd  Pd38  1  0.00000000  0.00000000  0.00000000  1
