# generated using pymatgen
data_Ba2SmNbO6
_symmetry_space_group_name_H-M   'P 1'
_cell_length_a   8.64170454
_cell_length_b   8.64170454
_cell_length_c   8.64170454
_cell_angle_alpha   90.00000000
_cell_angle_beta   90.00000000
_cell_angle_gamma   90.00000000
_symmetry_Int_Tables_number   1
_chemical_formula_structural   Ba2SmNbO6
_chemical_formula_sum   'Ba8 Sm4 Nb4 O24'
_cell_volume   645.35434900
_cell_formula_units_Z   4
loop_
 _symmetry_equiv_pos_site_id
 _symmetry_equiv_pos_as_xyz
  1  'x, y, z'
loop_
 _atom_site_type_symbol
 _atom_site_label
 _atom_site_symmetry_multiplicity
 _atom_site_fract_x
 _atom_site_fract_y
 _atom_site_fract_z
 _atom_site_occupancy
  Ba  Ba0  1  0.50000000  0.50000000  0.50000000  1
  Ba  Ba1  1  0.00000000  -0.00000000  0.00000000  1
  Ba  Ba2  1  0.00000000  -0.00000000  0.50000000  1
  Ba  Ba3  1  0.00000000  0.50000000  0.00000000  1
  Ba  Ba4  1  0.50000000  -0.00000000  0.00000000  1
  Ba  Ba5  1  0.50000000  0.50000000  0.00000000  1
  Ba  Ba6  1  0.50000000  -0.00000000  0.50000000  1
  Ba  Ba7  1  0.00000000  0.50000000  0.50000000  1
  Sm  Sm8  1  0.25000000  0.25000000  0.25000000  1
  Sm  Sm9  1  0.25000000  0.75000000  0.75000000  1
  Sm  Sm10  1  0.75000000  0.25000000  0.75000000  1
  Sm  Sm11  1  0.75000000  0.75000000  0.25000000  1
  Nb  Nb12  1  0.75000000  0.75000000  0.75000000  1
  Nb  Nb13  1  0.75000000  0.25000000  0.25000000  1
  Nb  Nb14  1  0.25000000  0.75000000  0.25000000  1
  Nb  Nb15  1  0.25000000  0.25000000  0.75000000  1
  O  O16  1  0.23029399  0.27171508  0.51687116  1
  O  O17  1  0.23029399  0.72828492  0.48312884  1
  O  O18  1  0.76970601  0.27171508  0.48312884  1
  O  O19  1  0.76970601  0.72828492  0.51687116  1
  O  O20  1  0.27171508  0.51687116  0.23029399  1
  O  O21  1  0.72828492  0.48312884  0.23029399  1
  O  O22  1  0.27171508  0.48312884  0.76970601  1
  O  O23  1  0.72828492  0.51687116  0.76970601  1
  O  O24  1  0.51687116  0.23029399  0.27171508  1
  O  O25  1  0.48312884  0.23029399  0.72828492  1
  O  O26  1  0.48312884  0.76970601  0.27171508  1
  O  O27  1  0.51687116  0.76970601  0.72828492  1
  O  O28  1  0.26970601  0.22828492  0.98312884  1
  O  O29  1  0.26970601  0.77171508  0.01687116  1
  O  O30  1  0.73029399  0.22828492  0.01687116  1
  O  O31  1  0.73029399  0.77171508  0.98312884  1
  O  O32  1  0.22828492  0.98312884  0.26970601  1
  O  O33  1  0.77171508  0.01687116  0.26970601  1
  O  O34  1  0.22828492  0.01687116  0.73029399  1
  O  O35  1  0.77171508  0.98312884  0.73029399  1
  O  O36  1  0.98312884  0.26970601  0.22828492  1
  O  O37  1  0.01687116  0.26970601  0.77171508  1
  O  O38  1  0.01687116  0.73029399  0.22828492  1
  O  O39  1  0.98312884  0.73029399  0.77171508  1
