# generated using pymatgen
data_Na2TcF6
_symmetry_space_group_name_H-M   'P 1'
_cell_length_a   5.62016058
_cell_length_b   5.62016058
_cell_length_c   4.37267600
_cell_angle_alpha   90.00000000
_cell_angle_beta   90.00000000
_cell_angle_gamma   120.00000680
_symmetry_Int_Tables_number   1
_chemical_formula_structural   Na2TcF6
_chemical_formula_sum   'Na2 Tc1 F6'
_cell_volume   119.61216447
_cell_formula_units_Z   1
loop_
 _symmetry_equiv_pos_site_id
 _symmetry_equiv_pos_as_xyz
  1  'x, y, z'
loop_
 _atom_site_type_symbol
 _atom_site_label
 _atom_site_symmetry_multiplicity
 _atom_site_fract_x
 _atom_site_fract_y
 _atom_site_fract_z
 _atom_site_occupancy
  Na  Na0  1  0.33333300  0.66666700  0.68686100  1
  Na  Na1  1  0.66666700  0.33333300  0.31313900  1
  Tc  Tc2  1  0.00000000  0.00000000  0.00000000  1
  F  F3  1  0.34120000  0.17060000  0.75863700  1
  F  F4  1  0.82940000  0.65880000  0.75863700  1
  F  F5  1  0.82940000  0.17060000  0.75863700  1
  F  F6  1  0.65880000  0.82940000  0.24136300  1
  F  F7  1  0.17060000  0.34120000  0.24136300  1
  F  F8  1  0.17060000  0.82940000  0.24136300  1
