# generated using pymatgen
data_K2Zn3Se4
_symmetry_space_group_name_H-M   'P 1'
_cell_length_a   9.54606278
_cell_length_b   9.54606278
_cell_length_c   9.54606278
_cell_angle_alpha   143.16400050
_cell_angle_beta   105.72699216
_cell_angle_gamma   85.90509297
_symmetry_Int_Tables_number   1
_chemical_formula_structural   K2Zn3Se4
_chemical_formula_sum   'K4 Zn6 Se8'
_cell_volume   485.78326125
_cell_formula_units_Z   2
loop_
 _symmetry_equiv_pos_site_id
 _symmetry_equiv_pos_as_xyz
  1  'x, y, z'
loop_
 _atom_site_type_symbol
 _atom_site_label
 _atom_site_symmetry_multiplicity
 _atom_site_fract_x
 _atom_site_fract_y
 _atom_site_fract_z
 _atom_site_occupancy
  K  K0  1  0.62234200  0.73460200  0.35694500  1
  K  K1  1  0.37765800  0.26539800  0.64305500  1
  K  K2  1  0.12234200  0.76539800  0.88774000  1
  K  K3  1  0.87765800  0.23460200  0.11226000  1
  Zn  Zn4  1  0.75000000  0.25000000  0.50000000  1
  Zn  Zn5  1  0.25000000  0.75000000  0.50000000  1
  Zn  Zn6  1  0.97496600  0.75000000  0.22496600  1
  Zn  Zn7  1  0.52503400  0.75000000  0.77503400  1
  Zn  Zn8  1  0.02503400  0.25000000  0.77503400  1
  Zn  Zn9  1  0.47496600  0.25000000  0.22496600  1
  Se  Se10  1  0.01317300  0.86871600  0.59191900  1
  Se  Se11  1  0.27679700  0.42125400  0.40808100  1
  Se  Se12  1  0.22320300  0.63128400  0.14445700  1
  Se  Se13  1  0.48682700  0.07874600  0.85554300  1
  Se  Se14  1  0.98682700  0.13128400  0.40808100  1
  Se  Se15  1  0.72320300  0.57874600  0.59191900  1
  Se  Se16  1  0.77679700  0.36871600  0.85554300  1
  Se  Se17  1  0.51317300  0.92125400  0.14445700  1
