# generated using pymatgen
data_NdFeGe2O7
_symmetry_space_group_name_H-M   'P 1'
_cell_length_a   6.68978600
_cell_length_b   7.37833900
_cell_length_c   13.12440952
_cell_angle_alpha   62.20807005
_cell_angle_beta   90.00000000
_cell_angle_gamma   90.00000000
_symmetry_Int_Tables_number   1
_chemical_formula_structural   NdFeGe2O7
_chemical_formula_sum   'Nd4 Fe4 Ge8 O28'
_cell_volume   573.08685103
_cell_formula_units_Z   4
loop_
 _symmetry_equiv_pos_site_id
 _symmetry_equiv_pos_as_xyz
  1  'x, y, z'
loop_
 _atom_site_type_symbol
 _atom_site_label
 _atom_site_symmetry_multiplicity
 _atom_site_fract_x
 _atom_site_fract_y
 _atom_site_fract_z
 _atom_site_occupancy
  Nd  Nd0  1  0.35393900  0.74096200  0.52524700  1
  Nd  Nd1  1  0.64606100  0.25903800  0.47475300  1
  Nd  Nd2  1  0.85393900  0.25903800  0.97475300  1
  Nd  Nd3  1  0.14606100  0.74096200  0.02524700  1
  Fe  Fe4  1  0.39970300  0.71273300  0.26932900  1
  Fe  Fe5  1  0.60029700  0.28726700  0.73067100  1
  Fe  Fe6  1  0.89970300  0.28726700  0.23067100  1
  Fe  Fe7  1  0.10029700  0.71273300  0.76932900  1
  Ge  Ge8  1  0.65773500  0.71664700  0.04092100  1
  Ge  Ge9  1  0.34226500  0.28335300  0.95907900  1
  Ge  Ge10  1  0.15773500  0.28335300  0.45907900  1
  Ge  Ge11  1  0.84226500  0.71664700  0.54092100  1
  Ge  Ge12  1  0.91107600  0.79746600  0.27968600  1
  Ge  Ge13  1  0.08892400  0.20253400  0.72031400  1
  Ge  Ge14  1  0.41107600  0.20253400  0.22031400  1
  Ge  Ge15  1  0.58892400  0.79746600  0.77968600  1
  O  O16  1  0.37488400  0.93492500  0.30674000  1
  O  O17  1  0.62511600  0.06507500  0.69326000  1
  O  O18  1  0.87488400  0.06507500  0.19326000  1
  O  O19  1  0.12511600  0.93492500  0.80674000  1
  O  O20  1  0.82501400  0.90970100  0.01951900  1
  O  O21  1  0.17498600  0.09029900  0.98048100  1
  O  O22  1  0.32501400  0.09029900  0.48048100  1
  O  O23  1  0.67498600  0.90970100  0.51951900  1
  O  O24  1  0.60962700  0.27974200  0.27960100  1
  O  O25  1  0.39037300  0.72025800  0.72039900  1
  O  O26  1  0.10962700  0.72025800  0.22039900  1
  O  O27  1  0.89037300  0.27974200  0.77960100  1
  O  O28  1  0.99865400  0.75541200  0.42092700  1
  O  O29  1  0.00134600  0.24458800  0.57907300  1
  O  O30  1  0.49865400  0.24458800  0.07907300  1
  O  O31  1  0.50134600  0.75541200  0.92092700  1
  O  O32  1  0.45147800  0.70517000  0.12676500  1
  O  O33  1  0.54852200  0.29483000  0.87323500  1
  O  O34  1  0.95147800  0.29483000  0.37323500  1
  O  O35  1  0.04852200  0.70517000  0.62676500  1
  O  O36  1  0.83749700  0.51430100  0.07575600  1
  O  O37  1  0.16250300  0.48569900  0.92424400  1
  O  O38  1  0.33749700  0.48569900  0.42424400  1
  O  O39  1  0.66250300  0.51430100  0.57575600  1
  O  O40  1  0.68856000  0.65229600  0.31512800  1
  O  O41  1  0.31144000  0.34770400  0.68487200  1
  O  O42  1  0.18856000  0.34770400  0.18487200  1
  O  O43  1  0.81144000  0.65229600  0.81512800  1
