# generated using pymatgen
data_Ba3Ta2Se9
_symmetry_space_group_name_H-M   'P 1'
_cell_length_a   7.46231100
_cell_length_b   12.57914300
_cell_length_c   17.85808442
_cell_angle_alpha   90.00000000
_cell_angle_beta   97.56600564
_cell_angle_gamma   90.00000000
_symmetry_Int_Tables_number   1
_chemical_formula_structural   Ba3Ta2Se9
_chemical_formula_sum   'Ba12 Ta8 Se36'
_cell_volume   1661.73465154
_cell_formula_units_Z   4
loop_
 _symmetry_equiv_pos_site_id
 _symmetry_equiv_pos_as_xyz
  1  'x, y, z'
loop_
 _atom_site_type_symbol
 _atom_site_label
 _atom_site_symmetry_multiplicity
 _atom_site_fract_x
 _atom_site_fract_y
 _atom_site_fract_z
 _atom_site_occupancy
  Ba  Ba0  1  0.76251100  0.58811500  0.91655900  1
  Ba  Ba1  1  0.23748900  0.08811500  0.58344100  1
  Ba  Ba2  1  0.23748900  0.41188500  0.08344100  1
  Ba  Ba3  1  0.76251100  0.91188500  0.41655900  1
  Ba  Ba4  1  0.75443600  0.25683500  0.75300300  1
  Ba  Ba5  1  0.24556400  0.75683500  0.74699700  1
  Ba  Ba6  1  0.24556400  0.74316500  0.24699700  1
  Ba  Ba7  1  0.75443600  0.24316500  0.25300300  1
  Ba  Ba8  1  0.24331900  0.06906000  0.92082000  1
  Ba  Ba9  1  0.75668100  0.56906000  0.57918000  1
  Ba  Ba10  1  0.75668100  0.93094000  0.07918000  1
  Ba  Ba11  1  0.24331900  0.43094000  0.42082000  1
  Ta  Ta12  1  0.21789800  0.44316000  0.84985000  1
  Ta  Ta13  1  0.78210200  0.94316000  0.65015000  1
  Ta  Ta14  1  0.78210200  0.55684000  0.15015000  1
  Ta  Ta15  1  0.21789800  0.05684000  0.34985000  1
  Ta  Ta16  1  0.27740000  0.43387700  0.65445500  1
  Ta  Ta17  1  0.72260000  0.93387700  0.84554500  1
  Ta  Ta18  1  0.72260000  0.56612300  0.34554500  1
  Ta  Ta19  1  0.27740000  0.06612300  0.15445500  1
  Se  Se20  1  0.25314800  0.27308400  0.75759100  1
  Se  Se21  1  0.74685200  0.77308400  0.74240900  1
  Se  Se22  1  0.74685200  0.72691600  0.24240900  1
  Se  Se23  1  0.25314800  0.22691600  0.25759100  1
  Se  Se24  1  0.46375900  0.29527200  0.88022000  1
  Se  Se25  1  0.53624100  0.79527200  0.61978000  1
  Se  Se26  1  0.53624100  0.70472800  0.11978000  1
  Se  Se27  1  0.46375900  0.20472800  0.38022000  1
  Se  Se28  1  0.49515400  0.34376600  0.58533900  1
  Se  Se29  1  0.50484600  0.84376600  0.91466100  1
  Se  Se30  1  0.50484600  0.65623400  0.41466100  1
  Se  Se31  1  0.49515400  0.15623400  0.08533900  1
  Se  Se32  1  0.48838200  0.51699500  0.75989100  1
  Se  Se33  1  0.51161800  0.01699500  0.74010900  1
  Se  Se34  1  0.51161800  0.48300500  0.24010900  1
  Se  Se35  1  0.48838200  0.98300500  0.25989100  1
  Se  Se36  1  0.31537800  0.58182900  0.93923000  1
  Se  Se37  1  0.68462200  0.08182900  0.56077000  1
  Se  Se38  1  0.68462200  0.41817100  0.06077000  1
  Se  Se39  1  0.31537800  0.91817100  0.43923000  1
  Se  Se40  1  0.00007200  0.52506700  0.74913800  1
  Se  Se41  1  0.99992800  0.02506700  0.75086200  1
  Se  Se42  1  0.99992800  0.47493300  0.25086200  1
  Se  Se43  1  0.00007200  0.97493300  0.24913800  1
  Se  Se44  1  0.99820400  0.34946500  0.91751800  1
  Se  Se45  1  0.00179600  0.84946500  0.58248200  1
  Se  Se46  1  0.00179600  0.65053500  0.08248200  1
  Se  Se47  1  0.99820400  0.15053500  0.41751800  1
  Se  Se48  1  0.01428600  0.30934800  0.61806000  1
  Se  Se49  1  0.98571400  0.80934800  0.88194000  1
  Se  Se50  1  0.98571400  0.69065200  0.38194000  1
  Se  Se51  1  0.01428600  0.19065200  0.11806000  1
  Se  Se52  1  0.19886900  0.58473200  0.57147700  1
  Se  Se53  1  0.80113100  0.08473200  0.92852300  1
  Se  Se54  1  0.80113100  0.41526800  0.42852300  1
  Se  Se55  1  0.19886900  0.91526800  0.07147700  1
