# generated using pymatgen
data_KGd(SeO4)2
_symmetry_space_group_name_H-M   'P 1'
_cell_length_a   5.77999700
_cell_length_b   9.20517500
_cell_length_c   28.03221100
_cell_angle_alpha   90.00000000
_cell_angle_beta   90.00000000
_cell_angle_gamma   90.00000000
_symmetry_Int_Tables_number   1
_chemical_formula_structural   KGd(SeO4)2
_chemical_formula_sum   'K8 Gd8 Se16 O64'
_cell_volume   1491.47856349
_cell_formula_units_Z   8
loop_
 _symmetry_equiv_pos_site_id
 _symmetry_equiv_pos_as_xyz
  1  'x, y, z'
loop_
 _atom_site_type_symbol
 _atom_site_label
 _atom_site_symmetry_multiplicity
 _atom_site_fract_x
 _atom_site_fract_y
 _atom_site_fract_z
 _atom_site_occupancy
  K  K0  1  0.75526300  0.33962000  0.08123100  1
  K  K1  1  0.24473700  0.83962000  0.91876900  1
  K  K2  1  0.74473700  0.33962000  0.58123100  1
  K  K3  1  0.25526300  0.83962000  0.41876900  1
  K  K4  1  0.28651600  0.00106100  0.16774300  1
  K  K5  1  0.71348400  0.50106100  0.83225700  1
  K  K6  1  0.21348400  0.00106100  0.66774300  1
  K  K7  1  0.78651600  0.50106100  0.33225700  1
  Gd  Gd8  1  0.27526400  0.36802200  0.44709500  1
  Gd  Gd9  1  0.72473600  0.86802200  0.55290500  1
  Gd  Gd10  1  0.22473600  0.36802200  0.94709500  1
  Gd  Gd11  1  0.77526400  0.86802200  0.05290500  1
  Gd  Gd12  1  0.32250600  0.46359300  0.19881100  1
  Gd  Gd13  1  0.67749400  0.96359300  0.80118900  1
  Gd  Gd14  1  0.17749400  0.46359300  0.69881100  1
  Gd  Gd15  1  0.82250600  0.96359300  0.30118900  1
  Se  Se16  1  0.78991600  0.26408800  0.20698300  1
  Se  Se17  1  0.21008400  0.76408800  0.79301700  1
  Se  Se18  1  0.71008400  0.26408800  0.70698300  1
  Se  Se19  1  0.28991600  0.76408800  0.29301700  1
  Se  Se20  1  0.26521300  0.59721000  0.06676700  1
  Se  Se21  1  0.73478700  0.09721000  0.93323300  1
  Se  Se22  1  0.23478700  0.59721000  0.56676700  1
  Se  Se23  1  0.76521300  0.09721000  0.43323300  1
  Se  Se24  1  0.30964800  0.23004600  0.31735300  1
  Se  Se25  1  0.69035200  0.73004600  0.68264700  1
  Se  Se26  1  0.19035200  0.23004600  0.81735300  1
  Se  Se27  1  0.80964800  0.73004600  0.18264700  1
  Se  Se28  1  0.23626000  0.06997700  0.04442100  1
  Se  Se29  1  0.76374000  0.56997700  0.95557900  1
  Se  Se30  1  0.26374000  0.06997700  0.54442100  1
  Se  Se31  1  0.73626000  0.56997700  0.45557900  1
  O  O32  1  0.57546600  0.15855900  0.31767900  1
  O  O33  1  0.42453400  0.65855900  0.68232100  1
  O  O34  1  0.92453400  0.15855900  0.81767900  1
  O  O35  1  0.07546600  0.65855900  0.18232100  1
  O  O36  1  0.45527200  0.73013000  0.07689300  1
  O  O37  1  0.54472800  0.23013000  0.92310700  1
  O  O38  1  0.04472800  0.73013000  0.57689300  1
  O  O39  1  0.95527200  0.23013000  0.42310700  1
  O  O40  1  0.30950100  0.53499300  0.01156200  1
  O  O41  1  0.69049900  0.03499300  0.98843800  1
  O  O42  1  0.19049900  0.53499300  0.51156200  1
  O  O43  1  0.80950100  0.03499300  0.48843800  1
  O  O44  1  0.11722200  0.10206200  0.33155000  1
  O  O45  1  0.88277800  0.60206200  0.66845000  1
  O  O46  1  0.38277800  0.10206200  0.83155000  1
  O  O47  1  0.61722200  0.60206200  0.16845000  1
  O  O48  1  0.73112700  0.39783200  0.24481700  1
  O  O49  1  0.26887300  0.89783200  0.75518300  1
  O  O50  1  0.76887300  0.39783200  0.74481700  1
  O  O51  1  0.23112700  0.89783200  0.25518300  1
  O  O52  1  0.25218500  0.23032500  0.01728600  1
  O  O53  1  0.74781500  0.73032500  0.98271400  1
  O  O54  1  0.24781500  0.23032500  0.51728600  1
  O  O55  1  0.75218500  0.73032500  0.48271400  1
  O  O56  1  0.33015100  0.59844500  0.27035000  1
  O  O57  1  0.66984900  0.09844500  0.72965000  1
  O  O58  1  0.16984900  0.59844500  0.77035000  1
  O  O59  1  0.83015100  0.09844500  0.22965000  1
  O  O60  1  0.24608000  0.29402800  0.26317000  1
  O  O61  1  0.75392000  0.79402800  0.73683000  1
  O  O62  1  0.25392000  0.29402800  0.76317000  1
  O  O63  1  0.74608000  0.79402800  0.23683000  1
  O  O64  1  0.29703200  0.46276900  0.10634100  1
  O  O65  1  0.70296800  0.96276900  0.89365900  1
  O  O66  1  0.20296800  0.46276900  0.60634100  1
  O  O67  1  0.79703200  0.96276900  0.39365900  1
  O  O68  1  0.29630600  0.36373000  0.35754300  1
  O  O69  1  0.70369400  0.86373000  0.64245700  1
  O  O70  1  0.20369400  0.36373000  0.85754300  1
  O  O71  1  0.79630600  0.86373000  0.14245700  1
  O  O72  1  0.55607200  0.25942800  0.17080000  1
  O  O73  1  0.44392800  0.75942800  0.82920000  1
  O  O74  1  0.94392800  0.25942800  0.67080000  1
  O  O75  1  0.05607200  0.75942800  0.32920000  1
  O  O76  1  0.47997200  0.04714500  0.07619600  1
  O  O77  1  0.52002800  0.54714500  0.92380400  1
  O  O78  1  0.02002800  0.04714500  0.57619600  1
  O  O79  1  0.97997200  0.54714500  0.42380400  1
  O  O80  1  0.49543600  0.16209400  0.42792700  1
  O  O81  1  0.50456400  0.66209400  0.57207300  1
  O  O82  1  0.00456400  0.16209400  0.92792700  1
  O  O83  1  0.99543600  0.66209400  0.07207300  1
  O  O84  1  0.01186700  0.07180400  0.08301300  1
  O  O85  1  0.98813300  0.57180400  0.91698700  1
  O  O86  1  0.48813300  0.07180400  0.58301300  1
  O  O87  1  0.51186700  0.57180400  0.41698700  1
  O  O88  1  0.67122700  0.42683500  0.48978300  1
  O  O89  1  0.32877300  0.92683500  0.51021700  1
  O  O90  1  0.82877300  0.42683500  0.98978300  1
  O  O91  1  0.17122700  0.92683500  0.01021700  1
  O  O92  1  0.02018700  0.30490500  0.17293700  1
  O  O93  1  0.97981300  0.80490500  0.82706300  1
  O  O94  1  0.47981300  0.30490500  0.67293700  1
  O  O95  1  0.52018700  0.80490500  0.32706300  1
