# generated using pymatgen
data_TlBi2Cl7
_symmetry_space_group_name_H-M   'P 1'
_cell_length_a   7.18424500
_cell_length_b   8.85961274
_cell_length_c   11.00165272
_cell_angle_alpha   76.10534887
_cell_angle_beta   72.57801490
_cell_angle_gamma   73.26864805
_symmetry_Int_Tables_number   1
_chemical_formula_structural   TlBi2Cl7
_chemical_formula_sum   'Tl2 Bi4 Cl14'
_cell_volume   630.69619332
_cell_formula_units_Z   2
loop_
 _symmetry_equiv_pos_site_id
 _symmetry_equiv_pos_as_xyz
  1  'x, y, z'
loop_
 _atom_site_type_symbol
 _atom_site_label
 _atom_site_symmetry_multiplicity
 _atom_site_fract_x
 _atom_site_fract_y
 _atom_site_fract_z
 _atom_site_occupancy
  Tl  Tl0  1  0.08249600  0.67166100  0.13454800  1
  Tl  Tl1  1  0.91750400  0.32833900  0.86545200  1
  Bi  Bi2  1  0.30948000  0.13354300  0.15743600  1
  Bi  Bi3  1  0.69052000  0.86645700  0.84256400  1
  Bi  Bi4  1  0.44040900  0.75675900  0.52121800  1
  Bi  Bi5  1  0.55959100  0.24324100  0.47878200  1
  Cl  Cl6  1  0.73498200  0.01325400  0.01739100  1
  Cl  Cl7  1  0.26501800  0.98674600  0.98260900  1
  Cl  Cl8  1  0.92552700  0.24433400  0.20099100  1
  Cl  Cl9  1  0.07447300  0.75566600  0.79900900  1
  Cl  Cl10  1  0.20236200  0.85202700  0.35746400  1
  Cl  Cl11  1  0.79763800  0.14797300  0.64253600  1
  Cl  Cl12  1  0.33915900  0.05275600  0.64035100  1
  Cl  Cl13  1  0.66084100  0.94724400  0.35964900  1
  Cl  Cl14  1  0.29552000  0.34062600  0.31994200  1
  Cl  Cl15  1  0.70448000  0.65937400  0.68005800  1
  Cl  Cl16  1  0.69914900  0.54707500  0.38425400  1
  Cl  Cl17  1  0.30085100  0.45292500  0.61574600  1
  Cl  Cl18  1  0.34375200  0.37510800  0.97538200  1
  Cl  Cl19  1  0.65624800  0.62489200  0.02461800  1
