# generated using pymatgen
data_DyFeC2
_symmetry_space_group_name_H-M   'P 1'
_cell_length_a   3.72725466
_cell_length_b   3.72725466
_cell_length_c   3.63556800
_cell_angle_alpha   90.00000000
_cell_angle_beta   90.00000000
_cell_angle_gamma   104.96995912
_symmetry_Int_Tables_number   1
_chemical_formula_structural   DyFeC2
_chemical_formula_sum   'Dy1 Fe1 C2'
_cell_volume   48.79273171
_cell_formula_units_Z   1
loop_
 _symmetry_equiv_pos_site_id
 _symmetry_equiv_pos_as_xyz
  1  'x, y, z'
loop_
 _atom_site_type_symbol
 _atom_site_label
 _atom_site_symmetry_multiplicity
 _atom_site_fract_x
 _atom_site_fract_y
 _atom_site_fract_z
 _atom_site_occupancy
  Dy  Dy0  1  0.00467000  0.99533000  0.00000000  1
  Fe  Fe1  1  0.61323700  0.38676300  0.50000000  1
  C  C2  1  0.45332900  0.85623500  0.50000000  1
  C  C3  1  0.14376500  0.54667100  0.50000000  1
