# generated using pymatgen
data_Sm14Ag51
_symmetry_space_group_name_H-M   'P 1'
_cell_length_a   12.95303666
_cell_length_b   12.95303666
_cell_length_c   9.48313800
_cell_angle_alpha   90.00000000
_cell_angle_beta   90.00000000
_cell_angle_gamma   120.00000340
_symmetry_Int_Tables_number   1
_chemical_formula_structural   Sm14Ag51
_chemical_formula_sum   'Sm14 Ag51'
_cell_volume   1377.92594338
_cell_formula_units_Z   1
loop_
 _symmetry_equiv_pos_site_id
 _symmetry_equiv_pos_as_xyz
  1  'x, y, z'
loop_
 _atom_site_type_symbol
 _atom_site_label
 _atom_site_symmetry_multiplicity
 _atom_site_fract_x
 _atom_site_fract_y
 _atom_site_fract_z
 _atom_site_occupancy
  Sm  Sm0  1  0.33790500  0.86593600  0.50000000  1
  Sm  Sm1  1  0.13406400  0.47196900  0.50000000  1
  Sm  Sm2  1  0.52803100  0.66209500  0.50000000  1
  Sm  Sm3  1  0.99502200  0.80205900  0.50000000  1
  Sm  Sm4  1  0.19794100  0.19296200  0.50000000  1
  Sm  Sm5  1  0.80703800  0.00497800  0.50000000  1
  Sm  Sm6  1  0.93834700  0.22031200  0.00000000  1
  Sm  Sm7  1  0.77968800  0.71803500  0.00000000  1
  Sm  Sm8  1  0.28196500  0.06165300  0.00000000  1
  Sm  Sm9  1  0.38338500  0.45166500  0.00000000  1
  Sm  Sm10  1  0.54833500  0.93172000  0.00000000  1
  Sm  Sm11  1  0.06828000  0.61661500  0.00000000  1
  Sm  Sm12  1  0.66666700  0.33333300  0.30688100  1
  Sm  Sm13  1  0.66666700  0.33333300  0.69311900  1
  Ag  Ag14  1  0.28911900  0.84009000  0.15304400  1
  Ag  Ag15  1  0.15991000  0.44902900  0.15304400  1
  Ag  Ag16  1  0.55097100  0.71088100  0.15304400  1
  Ag  Ag17  1  0.04646900  0.82974600  0.15217400  1
  Ag  Ag18  1  0.17025400  0.21672300  0.15217400  1
  Ag  Ag19  1  0.78327700  0.95353100  0.15217400  1
  Ag  Ag20  1  0.04646900  0.82974600  0.84782600  1
  Ag  Ag21  1  0.17025400  0.21672300  0.84782600  1
  Ag  Ag22  1  0.78327700  0.95353100  0.84782600  1
  Ag  Ag23  1  0.28911900  0.84009000  0.84695600  1
  Ag  Ag24  1  0.15991000  0.44902900  0.84695600  1
  Ag  Ag25  1  0.55097100  0.71088100  0.84695600  1
  Ag  Ag26  1  0.84553600  0.27483300  0.50000000  1
  Ag  Ag27  1  0.72516700  0.57070300  0.50000000  1
  Ag  Ag28  1  0.42929700  0.15446400  0.50000000  1
  Ag  Ag29  1  0.48753000  0.39268400  0.50000000  1
  Ag  Ag30  1  0.60731600  0.09484600  0.50000000  1
  Ag  Ag31  1  0.90515400  0.51247000  0.50000000  1
  Ag  Ag32  1  0.33333300  0.66666700  0.00000000  1
  Ag  Ag33  1  0.00000000  0.00000000  0.00000000  1
  Ag  Ag34  1  0.99975200  0.22812700  0.33159900  1
  Ag  Ag35  1  0.77187300  0.77162500  0.33159900  1
  Ag  Ag36  1  0.22837500  0.00024800  0.33159900  1
  Ag  Ag37  1  0.33257500  0.43868900  0.33249100  1
  Ag  Ag38  1  0.56131100  0.89388700  0.33249100  1
  Ag  Ag39  1  0.10611300  0.66742500  0.33249100  1
  Ag  Ag40  1  0.33257500  0.43868900  0.66750900  1
  Ag  Ag41  1  0.56131100  0.89388700  0.66750900  1
  Ag  Ag42  1  0.10611300  0.66742500  0.66750900  1
  Ag  Ag43  1  0.99975200  0.22812700  0.66840100  1
  Ag  Ag44  1  0.77187300  0.77162500  0.66840100  1
  Ag  Ag45  1  0.22837500  0.00024800  0.66840100  1
  Ag  Ag46  1  0.74241500  0.13983100  0.23974400  1
  Ag  Ag47  1  0.86016900  0.60258400  0.23974400  1
  Ag  Ag48  1  0.39741600  0.25758500  0.23974400  1
  Ag  Ag49  1  0.59218000  0.52391600  0.23382600  1
  Ag  Ag50  1  0.47608400  0.06826400  0.23382600  1
  Ag  Ag51  1  0.93173600  0.40782000  0.23382600  1
  Ag  Ag52  1  0.59218000  0.52391600  0.76617400  1
  Ag  Ag53  1  0.47608400  0.06826400  0.76617400  1
  Ag  Ag54  1  0.93173600  0.40782000  0.76617400  1
  Ag  Ag55  1  0.74241500  0.13983100  0.76025600  1
  Ag  Ag56  1  0.86016900  0.60258400  0.76025600  1
  Ag  Ag57  1  0.39741600  0.25758500  0.76025600  1
  Ag  Ag58  1  0.33333300  0.66666700  0.30021900  1
  Ag  Ag59  1  0.00000000  0.00000000  0.29942500  1
  Ag  Ag60  1  0.00000000  0.00000000  0.70057500  1
  Ag  Ag61  1  0.33333300  0.66666700  0.69978100  1
  Ag  Ag62  1  0.64800000  0.19914500  0.00000000  1
  Ag  Ag63  1  0.80085500  0.44885400  0.00000000  1
  Ag  Ag64  1  0.55114600  0.35200000  0.00000000  1
