# generated using pymatgen
data_Sr2Sb2Se3O2
_symmetry_space_group_name_H-M   'P 1'
_cell_length_a   9.70021000
_cell_length_b   4.05857800
_cell_length_c   13.61676849
_cell_angle_alpha   90.00000000
_cell_angle_beta   124.05226627
_cell_angle_gamma   90.00000000
_symmetry_Int_Tables_number   1
_chemical_formula_structural   Sr2Sb2Se3O2
_chemical_formula_sum   'Sr4 Sb4 Se6 O4'
_cell_volume   444.15628960
_cell_formula_units_Z   2
loop_
 _symmetry_equiv_pos_site_id
 _symmetry_equiv_pos_as_xyz
  1  'x, y, z'
loop_
 _atom_site_type_symbol
 _atom_site_label
 _atom_site_symmetry_multiplicity
 _atom_site_fract_x
 _atom_site_fract_y
 _atom_site_fract_z
 _atom_site_occupancy
  Sr  Sr0  1  0.10781300  0.48575600  0.39816600  1
  Sr  Sr1  1  0.89218700  0.98575600  0.10183400  1
  Sr  Sr2  1  0.89218700  0.51424400  0.60183400  1
  Sr  Sr3  1  0.10781300  0.01424400  0.89816600  1
  Sb  Sb4  1  0.64503000  0.48793800  0.19147800  1
  Sb  Sb5  1  0.35497000  0.98793800  0.30852200  1
  Sb  Sb6  1  0.35497000  0.51206200  0.80852200  1
  Sb  Sb7  1  0.64503000  0.01206200  0.69147800  1
  Se  Se8  1  0.50000000  0.50000000  0.50000000  1
  Se  Se9  1  0.50000000  0.00000000  0.00000000  1
  Se  Se10  1  0.20933800  0.49281000  0.13244600  1
  Se  Se11  1  0.79066200  0.99281000  0.36755400  1
  Se  Se12  1  0.79066200  0.50719000  0.86755400  1
  Se  Se13  1  0.20933800  0.00719000  0.63244600  1
  O  O14  1  0.15242600  0.51159100  0.81253600  1
  O  O15  1  0.84757400  0.01159100  0.68746400  1
  O  O16  1  0.84757400  0.48840900  0.18746400  1
  O  O17  1  0.15242600  0.98840900  0.31253600  1
