# generated using pymatgen
data_La2ZrS5
_symmetry_space_group_name_H-M   'P 1'
_cell_length_a   7.43843700
_cell_length_b   8.25517000
_cell_length_c   11.53824700
_cell_angle_alpha   90.00000000
_cell_angle_beta   90.00000000
_cell_angle_gamma   90.00000000
_symmetry_Int_Tables_number   1
_chemical_formula_structural   La2ZrS5
_chemical_formula_sum   'La8 Zr4 S20'
_cell_volume   708.51254118
_cell_formula_units_Z   4
loop_
 _symmetry_equiv_pos_site_id
 _symmetry_equiv_pos_as_xyz
  1  'x, y, z'
loop_
 _atom_site_type_symbol
 _atom_site_label
 _atom_site_symmetry_multiplicity
 _atom_site_fract_x
 _atom_site_fract_y
 _atom_site_fract_z
 _atom_site_occupancy
  La  La0  1  0.55886000  0.00147200  0.32862400  1
  La  La1  1  0.94114000  0.49852800  0.82862400  1
  La  La2  1  0.44114000  0.50147200  0.67137600  1
  La  La3  1  0.05886000  0.99852800  0.17137600  1
  La  La4  1  0.44114000  0.99852800  0.67137600  1
  La  La5  1  0.05886000  0.50147200  0.17137600  1
  La  La6  1  0.55886000  0.49852800  0.32862400  1
  La  La7  1  0.94114000  0.00147200  0.82862400  1
  Zr  Zr8  1  0.57356200  0.75000000  0.01042400  1
  Zr  Zr9  1  0.92643800  0.75000000  0.51042400  1
  Zr  Zr10  1  0.42643800  0.25000000  0.98957600  1
  Zr  Zr11  1  0.07356200  0.25000000  0.48957600  1
  S  S12  1  0.84015700  0.75000000  0.29161300  1
  S  S13  1  0.65984300  0.75000000  0.79161300  1
  S  S14  1  0.15984300  0.25000000  0.70838700  1
  S  S15  1  0.34015700  0.25000000  0.20838700  1
  S  S16  1  0.67756400  0.03444300  0.07346400  1
  S  S17  1  0.82243600  0.46555700  0.57346400  1
  S  S18  1  0.32243600  0.53444300  0.92653600  1
  S  S19  1  0.17756400  0.96555700  0.42653600  1
  S  S20  1  0.32243600  0.96555700  0.92653600  1
  S  S21  1  0.17756400  0.53444300  0.42653600  1
  S  S22  1  0.67756400  0.46555700  0.07346400  1
  S  S23  1  0.82243600  0.03444300  0.57346400  1
  S  S24  1  0.35982100  0.75000000  0.19298100  1
  S  S25  1  0.14017900  0.75000000  0.69298100  1
  S  S26  1  0.64017900  0.25000000  0.80701900  1
  S  S27  1  0.85982100  0.25000000  0.30701900  1
  S  S28  1  0.94189400  0.75000000  0.00423100  1
  S  S29  1  0.55810600  0.75000000  0.50423100  1
  S  S30  1  0.05810600  0.25000000  0.99576900  1
  S  S31  1  0.44189400  0.25000000  0.49576900  1
