# generated using pymatgen
data_Eu4Zn51
_symmetry_space_group_name_H-M   'P 1'
_cell_length_a   8.60652190
_cell_length_b   8.60652190
_cell_length_c   14.80378362
_cell_angle_alpha   73.10093896
_cell_angle_beta   90.00000000
_cell_angle_gamma   120.00000000
_symmetry_Int_Tables_number   1
_chemical_formula_structural   Eu4Zn51
_chemical_formula_sum   'Eu4 Zn51'
_cell_volume   894.54574824
_cell_formula_units_Z   1
loop_
 _symmetry_equiv_pos_site_id
 _symmetry_equiv_pos_as_xyz
  1  'x, y, z'
loop_
 _atom_site_type_symbol
 _atom_site_label
 _atom_site_symmetry_multiplicity
 _atom_site_fract_x
 _atom_site_fract_y
 _atom_site_fract_z
 _atom_site_occupancy
  Eu  Eu0  1  0.87493000  0.74986000  0.37521000  1
  Eu  Eu1  1  0.37456800  0.74913600  0.87629600  1
  Eu  Eu2  1  0.62507000  0.25014000  0.12479000  1
  Eu  Eu3  1  0.12543200  0.25086400  0.62370400  1
  Zn  Zn4  1  0.33842900  0.44208700  0.10272600  1
  Zn  Zn5  1  0.84257400  0.44151200  0.59871600  1
  Zn  Zn6  1  0.16157100  0.55791300  0.39727400  1
  Zn  Zn7  1  0.65742600  0.55848800  0.90128400  1
  Zn  Zn8  1  0.98454100  0.20472800  0.22160000  1
  Zn  Zn9  1  0.47861000  0.19743100  0.72087600  1
  Zn  Zn10  1  0.51545900  0.79527300  0.27840000  1
  Zn  Zn11  1  0.02139000  0.80256900  0.77912400  1
  Zn  Zn12  1  0.71051900  0.06001600  0.34914100  1
  Zn  Zn13  1  0.20954500  0.05920900  0.84978600  1
  Zn  Zn14  1  0.78948100  0.93998400  0.15085900  1
  Zn  Zn15  1  0.29045500  0.94079100  0.65021400  1
  Zn  Zn16  1  0.66840000  0.69923000  0.02943100  1
  Zn  Zn17  1  0.16918600  0.69959500  0.52920400  1
  Zn  Zn18  1  0.83160000  0.30077000  0.47056900  1
  Zn  Zn19  1  0.33081400  0.30040500  0.97079600  1
  Zn  Zn20  1  0.04481200  0.20638300  0.39727400  1
  Zn  Zn21  1  0.54022800  0.19765400  0.90128400  1
  Zn  Zn22  1  0.45518800  0.79361700  0.10272600  1
  Zn  Zn23  1  0.95977200  0.80234600  0.59871600  1
  Zn  Zn24  1  0.92632800  0.44178700  0.27840000  1
  Zn  Zn25  1  0.41830700  0.43969700  0.77912400  1
  Zn  Zn26  1  0.57367200  0.55821300  0.22160000  1
  Zn  Zn27  1  0.08169300  0.56030300  0.72087600  1
  Zn  Zn28  1  0.90915700  0.69863800  0.15085900  1
  Zn  Zn29  1  0.40899500  0.69945000  0.65021400  1
  Zn  Zn30  1  0.59084300  0.30136200  0.34914100  1
  Zn  Zn31  1  0.09100500  0.30055000  0.84978600  1
  Zn  Zn32  1  0.22866100  0.06026100  0.47056900  1
  Zn  Zn33  1  0.72880000  0.05961400  0.97079600  1
  Zn  Zn34  1  0.27133900  0.93973900  0.02943100  1
  Zn  Zn35  1  0.77120000  0.94038600  0.52920400  1
  Zn  Zn36  1  0.22018600  0.79385900  0.22160000  1
  Zn  Zn37  1  0.71882100  0.80051400  0.72087600  1
  Zn  Zn38  1  0.27981400  0.20614100  0.27840000  1
  Zn  Zn39  1  0.78117900  0.19948600  0.77912400  1
  Zn  Zn40  1  0.10365800  0.55884500  0.10272600  1
  Zn  Zn41  1  0.59893700  0.55871000  0.59871600  1
  Zn  Zn42  1  0.39634200  0.44115500  0.39727400  1
  Zn  Zn43  1  0.90106300  0.44129000  0.90128400  1
  Zn  Zn44  1  0.03083000  0.30216900  0.02943100  1
  Zn  Zn45  1  0.53041000  0.30161000  0.52920400  1
  Zn  Zn46  1  0.46917000  0.69783100  0.47056900  1
  Zn  Zn47  1  0.96959000  0.69839000  0.97079600  1
  Zn  Zn48  1  0.34949700  0.94034000  0.34914100  1
  Zn  Zn49  1  0.84966400  0.94066900  0.84978600  1
  Zn  Zn50  1  0.15050300  0.05966000  0.15085900  1
  Zn  Zn51  1  0.65033600  0.05933100  0.65021400  1
  Zn  Zn52  1  0.75000000  0.50000000  0.75000000  1
  Zn  Zn53  1  0.00001200  0.00002300  0.99996500  1
  Zn  Zn54  1  0.49998800  0.99997700  0.50003500  1
