# generated using pymatgen
data_Tm2SbTe
_symmetry_space_group_name_H-M   'P 1'
_cell_length_a   7.47644073
_cell_length_b   7.47644073
_cell_length_c   7.47643980
_cell_angle_alpha   33.70259149
_cell_angle_beta   33.70259149
_cell_angle_gamma   33.70259059
_symmetry_Int_Tables_number   1
_chemical_formula_structural   Tm2SbTe
_chemical_formula_sum   'Tm2 Sb1 Te1'
_cell_volume   114.63912982
_cell_formula_units_Z   1
loop_
 _symmetry_equiv_pos_site_id
 _symmetry_equiv_pos_as_xyz
  1  'x, y, z'
loop_
 _atom_site_type_symbol
 _atom_site_label
 _atom_site_symmetry_multiplicity
 _atom_site_fract_x
 _atom_site_fract_y
 _atom_site_fract_z
 _atom_site_occupancy
  Tm  Tm0  1  0.25366800  0.25366800  0.25366800  1
  Tm  Tm1  1  0.74633200  0.74633200  0.74633200  1
  Sb  Sb2  1  0.00000000  0.00000000  0.00000000  1
  Te  Te3  1  0.50000000  0.50000000  0.50000000  1
