# generated using pymatgen
data_Sm2Cu(SeO3)4
_symmetry_space_group_name_H-M   'P 1'
_cell_length_a   7.03748900
_cell_length_b   8.25779500
_cell_length_c   10.81800990
_cell_angle_alpha   70.05394252
_cell_angle_beta   90.00000000
_cell_angle_gamma   90.00000000
_symmetry_Int_Tables_number   1
_chemical_formula_structural   Sm2Cu(SeO3)4
_chemical_formula_sum   'Sm4 Cu2 Se8 O24'
_cell_volume   590.96752815
_cell_formula_units_Z   2
loop_
 _symmetry_equiv_pos_site_id
 _symmetry_equiv_pos_as_xyz
  1  'x, y, z'
loop_
 _atom_site_type_symbol
 _atom_site_label
 _atom_site_symmetry_multiplicity
 _atom_site_fract_x
 _atom_site_fract_y
 _atom_site_fract_z
 _atom_site_occupancy
  Sm  Sm0  1  0.66256400  0.76078800  0.58433000  1
  Sm  Sm1  1  0.16256400  0.73921200  0.41567000  1
  Sm  Sm2  1  0.33743600  0.23921200  0.41567000  1
  Sm  Sm3  1  0.83743600  0.26078800  0.58433000  1
  Cu  Cu4  1  0.50000000  0.50000000  0.00000000  1
  Cu  Cu5  1  0.00000000  0.00000000  0.00000000  1
  Se  Se6  1  0.82321200  0.13468100  0.31658600  1
  Se  Se7  1  0.32321200  0.36531900  0.68341400  1
  Se  Se8  1  0.67215900  0.87604200  0.86513500  1
  Se  Se9  1  0.17215900  0.62395800  0.13486500  1
  Se  Se10  1  0.32784100  0.12395800  0.13486500  1
  Se  Se11  1  0.82784100  0.37604200  0.86513500  1
  Se  Se12  1  0.67678800  0.63468100  0.31658600  1
  Se  Se13  1  0.17678800  0.86531900  0.68341400  1
  O  O14  1  0.34578500  0.91059700  0.55645100  1
  O  O15  1  0.84578500  0.58940300  0.44354900  1
  O  O16  1  0.65421500  0.08940300  0.44354900  1
  O  O17  1  0.15421500  0.41059700  0.55645100  1
  O  O18  1  0.11314300  0.07406900  0.65560700  1
  O  O19  1  0.61314300  0.42593100  0.34439300  1
  O  O20  1  0.88685700  0.92593100  0.34439300  1
  O  O21  1  0.38685700  0.57406900  0.65560700  1
  O  O22  1  0.50692700  0.72085400  0.39325900  1
  O  O23  1  0.00692700  0.77914600  0.60674100  1
  O  O24  1  0.77817100  0.46881900  0.70004400  1
  O  O25  1  0.27817100  0.03118100  0.29995600  1
  O  O26  1  0.22182900  0.53118100  0.29995600  1
  O  O27  1  0.72182900  0.96881900  0.70004400  1
  O  O28  1  0.88212500  0.17666600  0.84830800  1
  O  O29  1  0.38212500  0.32333400  0.15169200  1
  O  O30  1  0.11787500  0.82333400  0.15169200  1
  O  O31  1  0.61787500  0.67666600  0.84830800  1
  O  O32  1  0.89147200  0.82287300  0.94177600  1
  O  O33  1  0.39147200  0.67712700  0.05822400  1
  O  O34  1  0.10852800  0.17712700  0.05822400  1
  O  O35  1  0.60852800  0.32287300  0.94177600  1
  O  O36  1  0.49307300  0.27914600  0.60674100  1
  O  O37  1  0.99307300  0.22085400  0.39325900  1
