# generated using pymatgen
data_NaCaPO4
_symmetry_space_group_name_H-M   'P 1'
_cell_length_a   5.47906100
_cell_length_b   9.20626000
_cell_length_c   20.65820000
_cell_angle_alpha   90.00000000
_cell_angle_beta   90.00000000
_cell_angle_gamma   90.00000000
_symmetry_Int_Tables_number   1
_chemical_formula_structural   NaCaPO4
_chemical_formula_sum   'Na12 Ca12 P12 O48'
_cell_volume   1042.03390313
_cell_formula_units_Z   12
loop_
 _symmetry_equiv_pos_site_id
 _symmetry_equiv_pos_as_xyz
  1  'x, y, z'
loop_
 _atom_site_type_symbol
 _atom_site_label
 _atom_site_symmetry_multiplicity
 _atom_site_fract_x
 _atom_site_fract_y
 _atom_site_fract_z
 _atom_site_occupancy
  Na  Na0  1  0.28356900  0.42795300  0.22376900  1
  Na  Na1  1  0.73779200  0.93616200  0.94263400  1
  Na  Na2  1  0.23779200  0.06383800  0.05736600  1
  Na  Na3  1  0.73779200  0.56383800  0.44263400  1
  Na  Na4  1  0.23779200  0.43616200  0.55736600  1
  Na  Na5  1  0.78356900  0.57204700  0.77623100  1
  Na  Na6  1  0.78356900  0.92795300  0.27623100  1
  Na  Na7  1  0.28356900  0.07204700  0.72376900  1
  Na  Na8  1  0.76794900  0.92456400  0.60819100  1
  Na  Na9  1  0.26794900  0.07543600  0.39180900  1
  Na  Na10  1  0.76794900  0.57543600  0.10819100  1
  Na  Na11  1  0.26794900  0.42456400  0.89180900  1
  Ca  Ca12  1  0.29450000  0.79620000  0.83481000  1
  Ca  Ca13  1  0.79450000  0.20380000  0.16519000  1
  Ca  Ca14  1  0.29450000  0.70380000  0.33481000  1
  Ca  Ca15  1  0.79450000  0.29620000  0.66519000  1
  Ca  Ca16  1  0.27200700  0.70522800  0.66881300  1
  Ca  Ca17  1  0.77200700  0.29477200  0.33118700  1
  Ca  Ca18  1  0.27200700  0.79477200  0.16881300  1
  Ca  Ca19  1  0.77200700  0.20522800  0.83118700  1
  Ca  Ca20  1  0.23584000  0.79885000  0.50211200  1
  Ca  Ca21  1  0.73584000  0.20115000  0.49788800  1
  Ca  Ca22  1  0.23584000  0.70115000  0.00211200  1
  Ca  Ca23  1  0.73584000  0.29885000  0.99788800  1
  P  P24  1  0.27630400  0.08913600  0.57466900  1
  P  P25  1  0.24164600  0.41219700  0.40743600  1
  P  P26  1  0.74164600  0.91219700  0.09256400  1
  P  P27  1  0.24164600  0.08780300  0.90743600  1
  P  P28  1  0.77434700  0.91626400  0.75780100  1
  P  P29  1  0.27434700  0.08373600  0.24219900  1
  P  P30  1  0.74164600  0.58780300  0.59256400  1
  P  P31  1  0.77434700  0.58373600  0.25780100  1
  P  P32  1  0.27434700  0.41626400  0.74219900  1
  P  P33  1  0.77630400  0.58913600  0.92533100  1
  P  P34  1  0.27630400  0.41086400  0.07466900  1
  P  P35  1  0.77630400  0.91086400  0.42533100  1
  O  O36  1  0.05486400  0.19414100  0.58141600  1
  O  O37  1  0.55486400  0.80585900  0.41858400  1
  O  O38  1  0.05486400  0.30585900  0.08141600  1
  O  O39  1  0.55486400  0.69414100  0.91858400  1
  O  O40  1  0.51153400  0.15944200  0.60376200  1
  O  O41  1  0.01153400  0.84055800  0.39623800  1
  O  O42  1  0.51153400  0.34055800  0.10376200  1
  O  O43  1  0.01153400  0.65944200  0.89623800  1
  O  O44  1  0.21974800  0.94378400  0.61005900  1
  O  O45  1  0.71974800  0.05621600  0.38994100  1
  O  O46  1  0.21974800  0.55621600  0.11005900  1
  O  O47  1  0.71974800  0.44378400  0.88994100  1
  O  O48  1  0.33398800  0.05754700  0.50256000  1
  O  O49  1  0.83398800  0.94245300  0.49744000  1
  O  O50  1  0.33398800  0.44245300  0.00256000  1
  O  O51  1  0.83398800  0.55754700  0.99744000  1
  O  O52  1  0.03767900  0.35222100  0.77282000  1
  O  O53  1  0.53767900  0.64777900  0.22718000  1
  O  O54  1  0.03767900  0.14777900  0.27282000  1
  O  O55  1  0.53767900  0.85222100  0.72718000  1
  O  O56  1  0.48663900  0.16780900  0.92121600  1
  O  O57  1  0.49088300  0.30844900  0.75161600  1
  O  O58  1  0.49088300  0.19155100  0.25161600  1
  O  O59  1  0.99088300  0.80844900  0.74838400  1
  O  O60  1  0.33471900  0.56466300  0.77519200  1
  O  O61  1  0.83471900  0.43533700  0.22480800  1
  O  O62  1  0.33471900  0.93533700  0.27519200  1
  O  O63  1  0.83471900  0.06466300  0.72480800  1
  O  O64  1  0.21840000  0.44164500  0.66967400  1
  O  O65  1  0.71840000  0.55835500  0.33032600  1
  O  O66  1  0.21840000  0.05835500  0.16967400  1
  O  O67  1  0.71840000  0.94164500  0.83032600  1
  O  O68  1  0.02370900  0.18799800  0.92658600  1
  O  O69  1  0.52370900  0.81200200  0.07341400  1
  O  O70  1  0.02370900  0.31200200  0.42658600  1
  O  O71  1  0.52370900  0.68799800  0.57341400  1
  O  O72  1  0.71918200  0.55186400  0.66528600  1
  O  O73  1  0.21918200  0.44813600  0.33471400  1
  O  O74  1  0.71918200  0.94813600  0.16528600  1
  O  O75  1  0.21918200  0.05186400  0.83471400  1
  O  O76  1  0.73140100  0.44398000  0.55266900  1
  O  O77  1  0.23140100  0.55602000  0.44733100  1
  O  O78  1  0.73140100  0.05602000  0.05266900  1
  O  O79  1  0.23140100  0.94398000  0.94733100  1
  O  O80  1  0.98663900  0.66780900  0.57878400  1
  O  O81  1  0.48663900  0.33219100  0.42121600  1
  O  O82  1  0.98663900  0.83219100  0.07878400  1
  O  O83  1  0.99088300  0.69155100  0.24838400  1
