# generated using pymatgen
data_Nd3Lu2(GaO4)3
_symmetry_space_group_name_H-M   'P 1'
_cell_length_a   11.26011080
_cell_length_b   11.26011080
_cell_length_c   11.26011080
_cell_angle_alpha   109.47122063
_cell_angle_beta   109.47122063
_cell_angle_gamma   109.47122063
_symmetry_Int_Tables_number   1
_chemical_formula_structural   Nd3Lu2(GaO4)3
_chemical_formula_sum   'Nd12 Lu8 Ga12 O48'
_cell_volume   1099.02127843
_cell_formula_units_Z   4
loop_
 _symmetry_equiv_pos_site_id
 _symmetry_equiv_pos_as_xyz
  1  'x, y, z'
loop_
 _atom_site_type_symbol
 _atom_site_label
 _atom_site_symmetry_multiplicity
 _atom_site_fract_x
 _atom_site_fract_y
 _atom_site_fract_z
 _atom_site_occupancy
  Nd  Nd0  1  0.25000000  0.37500000  0.12500000  1
  Nd  Nd1  1  0.75000000  0.62500000  0.87500000  1
  Nd  Nd2  1  0.75000000  0.12500000  0.37500000  1
  Nd  Nd3  1  0.12500000  0.25000000  0.37500000  1
  Nd  Nd4  1  0.37500000  0.75000000  0.12500000  1
  Nd  Nd5  1  0.25000000  0.87500000  0.62500000  1
  Nd  Nd6  1  0.87500000  0.75000000  0.62500000  1
  Nd  Nd7  1  0.62500000  0.25000000  0.87500000  1
  Nd  Nd8  1  0.37500000  0.12500000  0.25000000  1
  Nd  Nd9  1  0.62500000  0.87500000  0.75000000  1
  Nd  Nd10  1  0.12500000  0.37500000  0.75000000  1
  Nd  Nd11  1  0.87500000  0.62500000  0.25000000  1
  Lu  Lu12  1  0.00000000  0.00000000  0.00000000  1
  Lu  Lu13  1  0.50000000  0.00000000  0.50000000  1
  Lu  Lu14  1  0.00000000  0.50000000  0.50000000  1
  Lu  Lu15  1  0.50000000  0.00000000  0.00000000  1
  Lu  Lu16  1  0.50000000  0.50000000  0.00000000  1
  Lu  Lu17  1  0.50000000  0.50000000  0.50000000  1
  Lu  Lu18  1  0.00000000  0.00000000  0.50000000  1
  Lu  Lu19  1  0.00000000  0.50000000  0.00000000  1
  Ga  Ga20  1  0.25000000  0.62500000  0.37500000  1
  Ga  Ga21  1  0.75000000  0.37500000  0.62500000  1
  Ga  Ga22  1  0.75000000  0.87500000  0.12500000  1
  Ga  Ga23  1  0.37500000  0.25000000  0.62500000  1
  Ga  Ga24  1  0.62500000  0.75000000  0.37500000  1
  Ga  Ga25  1  0.25000000  0.12500000  0.87500000  1
  Ga  Ga26  1  0.12500000  0.75000000  0.87500000  1
  Ga  Ga27  1  0.87500000  0.25000000  0.12500000  1
  Ga  Ga28  1  0.62500000  0.37500000  0.25000000  1
  Ga  Ga29  1  0.37500000  0.62500000  0.75000000  1
  Ga  Ga30  1  0.87500000  0.12500000  0.75000000  1
  Ga  Ga31  1  0.12500000  0.87500000  0.25000000  1
  O  O32  1  0.47313300  0.37365500  0.28671500  1
  O  O33  1  0.52686700  0.62634500  0.71328500  1
  O  O34  1  0.58694000  0.18641800  0.21328500  1
  O  O35  1  0.91306000  0.12634500  0.59947800  1
  O  O36  1  0.28671500  0.47313300  0.37365500  1
  O  O37  1  0.31358200  0.91306000  0.28671500  1
  O  O38  1  0.41306000  0.81358200  0.78671500  1
  O  O39  1  0.08694000  0.87365500  0.40052200  1
  O  O40  1  0.71328500  0.52686700  0.62634500  1
  O  O41  1  0.68641800  0.08694000  0.71328500  1
  O  O42  1  0.02686700  0.31358200  0.90052200  1
  O  O43  1  0.21328500  0.58694000  0.18641800  1
  O  O44  1  0.12634500  0.02686700  0.21328500  1
  O  O45  1  0.97313300  0.68641800  0.09947800  1
  O  O46  1  0.78671500  0.41306000  0.81358200  1
  O  O47  1  0.87365500  0.97313300  0.78671500  1
  O  O48  1  0.59947800  0.91306000  0.12634500  1
  O  O49  1  0.18641800  0.47313300  0.59947800  1
  O  O50  1  0.40052200  0.08694000  0.87365500  1
  O  O51  1  0.81358200  0.52686700  0.40052200  1
  O  O52  1  0.90052200  0.02686700  0.31358200  1
  O  O53  1  0.37365500  0.58694000  0.90052200  1
  O  O54  1  0.09947800  0.97313300  0.68641800  1
  O  O55  1  0.62634500  0.41306000  0.09947800  1
  O  O56  1  0.37365500  0.28671500  0.47313300  1
  O  O57  1  0.58694000  0.90052200  0.37365500  1
  O  O58  1  0.62634500  0.71328500  0.52686700  1
  O  O59  1  0.41306000  0.09947800  0.62634500  1
  O  O60  1  0.12634500  0.59947800  0.91306000  1
  O  O61  1  0.02686700  0.21328500  0.12634500  1
  O  O62  1  0.87365500  0.40052200  0.08694000  1
  O  O63  1  0.97313300  0.78671500  0.87365500  1
  O  O64  1  0.31358200  0.90052200  0.02686700  1
  O  O65  1  0.91306000  0.28671500  0.31358200  1
  O  O66  1  0.68641800  0.09947800  0.97313300  1
  O  O67  1  0.08694000  0.71328500  0.68641800  1
  O  O68  1  0.18641800  0.21328500  0.58694000  1
  O  O69  1  0.47313300  0.59947800  0.18641800  1
  O  O70  1  0.81358200  0.78671500  0.41306000  1
  O  O71  1  0.52686700  0.40052200  0.81358200  1
  O  O72  1  0.28671500  0.31358200  0.91306000  1
  O  O73  1  0.71328500  0.68641800  0.08694000  1
  O  O74  1  0.21328500  0.12634500  0.02686700  1
  O  O75  1  0.78671500  0.87365500  0.97313300  1
  O  O76  1  0.90052200  0.37365500  0.58694000  1
  O  O77  1  0.09947800  0.62634500  0.41306000  1
  O  O78  1  0.59947800  0.18641800  0.47313300  1
  O  O79  1  0.40052200  0.81358200  0.52686700  1
