# generated using pymatgen
data_Cs2Cd2(MoO4)3
_symmetry_space_group_name_H-M   'P 1'
_cell_length_a   11.54103700
_cell_length_b   11.54103700
_cell_length_c   11.54103700
_cell_angle_alpha   90.00000000
_cell_angle_beta   90.00000000
_cell_angle_gamma   90.00000000
_symmetry_Int_Tables_number   1
_chemical_formula_structural   Cs2Cd2(MoO4)3
_chemical_formula_sum   'Cs8 Cd8 Mo12 O48'
_cell_volume   1537.21459808
_cell_formula_units_Z   4
loop_
 _symmetry_equiv_pos_site_id
 _symmetry_equiv_pos_as_xyz
  1  'x, y, z'
loop_
 _atom_site_type_symbol
 _atom_site_label
 _atom_site_symmetry_multiplicity
 _atom_site_fract_x
 _atom_site_fract_y
 _atom_site_fract_z
 _atom_site_occupancy
  Cs  Cs0  1  0.42914600  0.92914600  0.57085400  1
  Cs  Cs1  1  0.92914600  0.57085400  0.42914600  1
  Cs  Cs2  1  0.57085400  0.42914600  0.92914600  1
  Cs  Cs3  1  0.07085400  0.07085400  0.07085400  1
  Cs  Cs4  1  0.20315600  0.70315600  0.79684400  1
  Cs  Cs5  1  0.70315600  0.79684400  0.20315600  1
  Cs  Cs6  1  0.79684400  0.20315600  0.70315600  1
  Cs  Cs7  1  0.29684400  0.29684400  0.29684400  1
  Cd  Cd8  1  0.91463800  0.41463800  0.08536200  1
  Cd  Cd9  1  0.41463800  0.08536200  0.91463800  1
  Cd  Cd10  1  0.08536200  0.91463800  0.41463800  1
  Cd  Cd11  1  0.58536200  0.58536200  0.58536200  1
  Cd  Cd12  1  0.64410800  0.14410800  0.35589200  1
  Cd  Cd13  1  0.14410800  0.35589200  0.64410800  1
  Cd  Cd14  1  0.35589200  0.64410800  0.14410800  1
  Cd  Cd15  1  0.85589200  0.85589200  0.85589200  1
  Mo  Mo16  1  0.22876000  0.37184300  0.95687800  1
  Mo  Mo17  1  0.04312200  0.72876000  0.12815700  1
  Mo  Mo18  1  0.87184300  0.54312200  0.77124000  1
  Mo  Mo19  1  0.72876000  0.12815700  0.04312200  1
  Mo  Mo20  1  0.54312200  0.77124000  0.87184300  1
  Mo  Mo21  1  0.37184300  0.95687800  0.22876000  1
  Mo  Mo22  1  0.77124000  0.87184300  0.54312200  1
  Mo  Mo23  1  0.95687800  0.22876000  0.37184300  1
  Mo  Mo24  1  0.12815700  0.04312200  0.72876000  1
  Mo  Mo25  1  0.27124000  0.62815700  0.45687800  1
  Mo  Mo26  1  0.45687800  0.27124000  0.62815700  1
  Mo  Mo27  1  0.62815700  0.45687800  0.27124000  1
  O  O28  1  0.08086100  0.35081000  0.99847500  1
  O  O29  1  0.00152500  0.58086100  0.14919000  1
  O  O30  1  0.85081000  0.50152500  0.91913900  1
  O  O31  1  0.58086100  0.14919000  0.00152500  1
  O  O32  1  0.50152500  0.91913900  0.85081000  1
  O  O33  1  0.35081000  0.99847500  0.08086100  1
  O  O34  1  0.91913900  0.85081000  0.50152500  1
  O  O35  1  0.99847500  0.08086100  0.35081000  1
  O  O36  1  0.14919000  0.00152500  0.58086100  1
  O  O37  1  0.41913900  0.64919000  0.49847500  1
  O  O38  1  0.49847500  0.41913900  0.64919000  1
  O  O39  1  0.64919000  0.49847500  0.41913900  1
  O  O40  1  0.30228100  0.23675100  0.97910600  1
  O  O41  1  0.02089400  0.80228100  0.26324900  1
  O  O42  1  0.73675100  0.52089400  0.69771900  1
  O  O43  1  0.80228100  0.26324900  0.02089400  1
  O  O44  1  0.52089400  0.69771900  0.73675100  1
  O  O45  1  0.23675100  0.97910600  0.30228100  1
  O  O46  1  0.69771900  0.73675100  0.52089400  1
  O  O47  1  0.97910600  0.30228100  0.23675100  1
  O  O48  1  0.26324900  0.02089400  0.80228100  1
  O  O49  1  0.19771900  0.76324900  0.47910600  1
  O  O50  1  0.47910600  0.19771900  0.76324900  1
  O  O51  1  0.76324900  0.47910600  0.19771900  1
  O  O52  1  0.23944900  0.42127400  0.80869200  1
  O  O53  1  0.19130800  0.73944900  0.07872600  1
  O  O54  1  0.92127400  0.69130800  0.76055100  1
  O  O55  1  0.73944900  0.07872600  0.19130800  1
  O  O56  1  0.69130800  0.76055100  0.92127400  1
  O  O57  1  0.42127400  0.80869200  0.23944900  1
  O  O58  1  0.76055100  0.92127400  0.69130800  1
  O  O59  1  0.80869200  0.23944900  0.42127400  1
  O  O60  1  0.07872600  0.19130800  0.73944900  1
  O  O61  1  0.26055100  0.57872600  0.30869200  1
  O  O62  1  0.30869200  0.26055100  0.57872600  1
  O  O63  1  0.57872600  0.30869200  0.26055100  1
  O  O64  1  0.29828300  0.47678700  0.04833200  1
  O  O65  1  0.95166800  0.79828300  0.02321300  1
  O  O66  1  0.97678700  0.45166800  0.70171700  1
  O  O67  1  0.79828300  0.02321300  0.95166800  1
  O  O68  1  0.45166800  0.70171700  0.97678700  1
  O  O69  1  0.47678700  0.04833200  0.29828300  1
  O  O70  1  0.70171700  0.97678700  0.45166800  1
  O  O71  1  0.04833200  0.29828300  0.47678700  1
  O  O72  1  0.02321300  0.95166800  0.79828300  1
  O  O73  1  0.20171700  0.52321300  0.54833200  1
  O  O74  1  0.54833200  0.20171700  0.52321300  1
  O  O75  1  0.52321300  0.54833200  0.20171700  1
