# generated using pymatgen
data_Cs2Ca2(SO4)3
_symmetry_space_group_name_H-M   'P 1'
_cell_length_a   10.85273900
_cell_length_b   10.85273900
_cell_length_c   10.85273900
_cell_angle_alpha   90.00000000
_cell_angle_beta   90.00000000
_cell_angle_gamma   90.00000000
_symmetry_Int_Tables_number   1
_chemical_formula_structural   Cs2Ca2(SO4)3
_chemical_formula_sum   'Cs8 Ca8 S12 O48'
_cell_volume   1278.25669500
_cell_formula_units_Z   4
loop_
 _symmetry_equiv_pos_site_id
 _symmetry_equiv_pos_as_xyz
  1  'x, y, z'
loop_
 _atom_site_type_symbol
 _atom_site_label
 _atom_site_symmetry_multiplicity
 _atom_site_fract_x
 _atom_site_fract_y
 _atom_site_fract_z
 _atom_site_occupancy
  Cs  Cs0  1  0.04745400  0.04745400  0.04745400  1
  Cs  Cs1  1  0.45254600  0.95254600  0.54745400  1
  Cs  Cs2  1  0.95254600  0.54745400  0.45254600  1
  Cs  Cs3  1  0.54745400  0.45254600  0.95254600  1
  Cs  Cs4  1  0.81675500  0.81675500  0.81675500  1
  Cs  Cs5  1  0.68324500  0.18324500  0.31675500  1
  Cs  Cs6  1  0.18324500  0.31675500  0.68324500  1
  Cs  Cs7  1  0.31675500  0.68324500  0.18324500  1
  Ca  Ca8  1  0.33480700  0.33480700  0.33480700  1
  Ca  Ca9  1  0.16519300  0.66519300  0.83480700  1
  Ca  Ca10  1  0.66519300  0.83480700  0.16519300  1
  Ca  Ca11  1  0.83480700  0.16519300  0.66519300  1
  Ca  Ca12  1  0.59889300  0.59889300  0.59889300  1
  Ca  Ca13  1  0.90110700  0.40110700  0.09889300  1
  Ca  Ca14  1  0.40110700  0.09889300  0.90110700  1
  Ca  Ca15  1  0.09889300  0.90110700  0.40110700  1
  S  S16  1  0.01731800  0.21644300  0.37579400  1
  S  S17  1  0.48268200  0.78355700  0.87579400  1
  S  S18  1  0.98268200  0.71644300  0.12420600  1
  S  S19  1  0.37579400  0.01731800  0.21644300  1
  S  S20  1  0.51731800  0.28355700  0.62420600  1
  S  S21  1  0.87579400  0.48268200  0.78355700  1
  S  S22  1  0.12420600  0.98268200  0.71644300  1
  S  S23  1  0.62420600  0.51731800  0.28355700  1
  S  S24  1  0.21644300  0.37579400  0.01731800  1
  S  S25  1  0.71644300  0.12420600  0.98268200  1
  S  S26  1  0.28355700  0.62420600  0.51731800  1
  S  S27  1  0.78355700  0.87579400  0.48268200  1
  O  O28  1  0.00792700  0.08679000  0.33239300  1
  O  O29  1  0.49207300  0.91321000  0.83239300  1
  O  O30  1  0.99207300  0.58679000  0.16760700  1
  O  O31  1  0.33239300  0.00792700  0.08679000  1
  O  O32  1  0.50792700  0.41321000  0.66760700  1
  O  O33  1  0.83239300  0.49207300  0.91321000  1
  O  O34  1  0.16760700  0.99207300  0.58679000  1
  O  O35  1  0.66760700  0.50792700  0.41321000  1
  O  O36  1  0.08679000  0.33239300  0.00792700  1
  O  O37  1  0.58679000  0.16760700  0.99207300  1
  O  O38  1  0.41321000  0.66760700  0.50792700  1
  O  O39  1  0.91321000  0.83239300  0.49207300  1
  O  O40  1  0.26619500  0.50779300  0.44575700  1
  O  O41  1  0.23380500  0.49220700  0.94575700  1
  O  O42  1  0.73380500  0.00779300  0.05424300  1
  O  O43  1  0.44575700  0.26619500  0.50779300  1
  O  O44  1  0.76619500  0.99220700  0.55424300  1
  O  O45  1  0.94575700  0.23380500  0.49220700  1
  O  O46  1  0.05424300  0.73380500  0.00779300  1
  O  O47  1  0.55424300  0.76619500  0.99220700  1
  O  O48  1  0.50779300  0.44575700  0.26619500  1
  O  O49  1  0.00779300  0.05424300  0.73380500  1
  O  O50  1  0.99220700  0.55424300  0.76619500  1
  O  O51  1  0.49220700  0.94575700  0.23380500  1
  O  O52  1  0.03700500  0.79854800  0.21980200  1
  O  O53  1  0.46299500  0.20145200  0.71980200  1
  O  O54  1  0.96299500  0.29854800  0.28019800  1
  O  O55  1  0.21980200  0.03700500  0.79854800  1
  O  O56  1  0.53700500  0.70145200  0.78019800  1
  O  O57  1  0.71980200  0.46299500  0.20145200  1
  O  O58  1  0.28019800  0.96299500  0.29854800  1
  O  O59  1  0.78019800  0.53700500  0.70145200  1
  O  O60  1  0.79854800  0.21980200  0.03700500  1
  O  O61  1  0.29854800  0.28019800  0.96299500  1
  O  O62  1  0.70145200  0.78019800  0.53700500  1
  O  O63  1  0.20145200  0.71980200  0.46299500  1
  O  O64  1  0.14767200  0.24972000  0.40024500  1
  O  O65  1  0.35232800  0.75028000  0.90024500  1
  O  O66  1  0.85232800  0.74972000  0.09975500  1
  O  O67  1  0.40024500  0.14767200  0.24972000  1
  O  O68  1  0.64767200  0.25028000  0.59975500  1
  O  O69  1  0.90024500  0.35232800  0.75028000  1
  O  O70  1  0.09975500  0.85232800  0.74972000  1
  O  O71  1  0.59975500  0.64767200  0.25028000  1
  O  O72  1  0.24972000  0.40024500  0.14767200  1
  O  O73  1  0.74972000  0.09975500  0.85232800  1
  O  O74  1  0.25028000  0.59975500  0.64767200  1
  O  O75  1  0.75028000  0.90024500  0.35232800  1
