# generated using pymatgen
data_K4MnO4
_symmetry_space_group_name_H-M   'P 1'
_cell_length_a   7.13341549
_cell_length_b   9.53053952
_cell_length_c   10.72559027
_cell_angle_alpha   72.21809992
_cell_angle_beta   91.97821188
_cell_angle_gamma   84.00537507
_symmetry_Int_Tables_number   1
_chemical_formula_structural   K4MnO4
_chemical_formula_sum   'K16 Mn4 O16'
_cell_volume   688.84935771
_cell_formula_units_Z   4
loop_
 _symmetry_equiv_pos_site_id
 _symmetry_equiv_pos_as_xyz
  1  'x, y, z'
loop_
 _atom_site_type_symbol
 _atom_site_label
 _atom_site_symmetry_multiplicity
 _atom_site_fract_x
 _atom_site_fract_y
 _atom_site_fract_z
 _atom_site_occupancy
  K  K0  1  0.63039300  0.37643800  0.40717300  1
  K  K1  1  0.13040700  0.37646700  0.90715500  1
  K  K2  1  0.36960700  0.62353500  0.59284300  1
  K  K3  1  0.86960500  0.62356000  0.09282600  1
  K  K4  1  0.91334700  0.15762300  0.67348100  1
  K  K5  1  0.41335000  0.15764600  0.17349800  1
  K  K6  1  0.08660700  0.84236700  0.32647700  1
  K  K7  1  0.58665200  0.84236200  0.82652700  1
  K  K8  1  0.25901400  0.02985100  0.51174400  1
  K  K9  1  0.75900400  0.02986000  0.01174100  1
  K  K10  1  0.74099900  0.97013500  0.48826300  1
  K  K11  1  0.24099300  0.97015200  0.98825100  1
  K  K12  1  0.11993100  0.43560400  0.39503300  1
  K  K13  1  0.61999500  0.43556300  0.89501500  1
  K  K14  1  0.88000300  0.56443100  0.60498700  1
  K  K15  1  0.38006700  0.56439700  0.10496900  1
  Mn  Mn16  1  0.44441400  0.24886800  0.71173600  1
  Mn  Mn17  1  0.05559600  0.75113300  0.78826300  1
  Mn  Mn18  1  0.94439800  0.24882500  0.21173900  1
  Mn  Mn19  1  0.55559800  0.75117700  0.28826500  1
  O  O20  1  0.12933900  0.37038100  0.16847300  1
  O  O21  1  0.62938300  0.37044500  0.66842000  1
  O  O22  1  0.87062200  0.62956200  0.83158000  1
  O  O23  1  0.37065000  0.62962200  0.33152900  1
  O  O24  1  0.79679800  0.65826000  0.33659800  1
  O  O25  1  0.29685800  0.65820800  0.83659900  1
  O  O26  1  0.20315000  0.34178500  0.66339900  1
  O  O27  1  0.70320600  0.34173800  0.16341100  1
  O  O28  1  0.93724700  0.19276000  0.39078100  1
  O  O29  1  0.43724800  0.19281800  0.89081800  1
  O  O30  1  0.06275700  0.80718400  0.60918600  1
  O  O31  1  0.56275500  0.80724100  0.10921600  1
  O  O32  1  0.03454400  0.11145900  0.13361500  1
  O  O33  1  0.53457300  0.11145600  0.63359500  1
  O  O34  1  0.96543900  0.88854300  0.86640900  1
  O  O35  1  0.46545100  0.88854700  0.36638700  1
