# generated using pymatgen
data_KLiWO4
_symmetry_space_group_name_H-M   'P 1'
_cell_length_a   9.23030200
_cell_length_b   9.66796700
_cell_length_c   19.40067284
_cell_angle_alpha   60.31413094
_cell_angle_beta   90.00000000
_cell_angle_gamma   90.00000000
_symmetry_Int_Tables_number   1
_chemical_formula_structural   KLiWO4
_chemical_formula_sum   'K12 Li12 W12 O48'
_cell_volume   1504.05778279
_cell_formula_units_Z   12
loop_
 _symmetry_equiv_pos_site_id
 _symmetry_equiv_pos_as_xyz
  1  'x, y, z'
loop_
 _atom_site_type_symbol
 _atom_site_label
 _atom_site_symmetry_multiplicity
 _atom_site_fract_x
 _atom_site_fract_y
 _atom_site_fract_z
 _atom_site_occupancy
  K  K0  1  0.47056100  0.84745000  0.91252000  1
  K  K1  1  0.52943900  0.15255000  0.08748000  1
  K  K2  1  0.97056100  0.15255000  0.58748000  1
  K  K3  1  0.02943900  0.84745000  0.41252000  1
  K  K4  1  0.00807900  0.50112100  0.75193600  1
  K  K5  1  0.99192100  0.49887900  0.24806400  1
  K  K6  1  0.50807900  0.49887900  0.74806400  1
  K  K7  1  0.49192100  0.50112100  0.25193600  1
  K  K8  1  0.03663900  0.80450200  0.92989000  1
  K  K9  1  0.96336100  0.19549800  0.07011000  1
  K  K10  1  0.53663900  0.19549800  0.57011000  1
  K  K11  1  0.46336100  0.80450200  0.42989000  1
  Li  Li12  1  0.66956000  0.84061200  0.59086400  1
  Li  Li13  1  0.33044000  0.15938800  0.40913600  1
  Li  Li14  1  0.16956000  0.15938800  0.90913600  1
  Li  Li15  1  0.83044000  0.84061200  0.09086400  1
  Li  Li16  1  0.17016100  0.51922200  0.57998500  1
  Li  Li17  1  0.82983900  0.48077800  0.42001500  1
  Li  Li18  1  0.67016100  0.48077800  0.92001500  1
  Li  Li19  1  0.32983900  0.51922200  0.07998500  1
  Li  Li20  1  0.16800600  0.82242400  0.76064200  1
  Li  Li21  1  0.83199400  0.17757600  0.23935800  1
  Li  Li22  1  0.66800600  0.17757600  0.73935800  1
  Li  Li23  1  0.33199400  0.82242400  0.26064200  1
  W  W24  1  0.28717700  0.47582400  0.91827700  1
  W  W25  1  0.71282300  0.52417600  0.08172300  1
  W  W26  1  0.78717700  0.52417600  0.58172300  1
  W  W27  1  0.21282300  0.47582400  0.41827700  1
  W  W28  1  0.28512700  0.84102200  0.59257200  1
  W  W29  1  0.71487300  0.15897800  0.40742800  1
  W  W30  1  0.78512700  0.15897800  0.90742800  1
  W  W31  1  0.21487300  0.84102200  0.09257200  1
  W  W32  1  0.78294100  0.81345600  0.76333600  1
  W  W33  1  0.21705900  0.18654400  0.23666400  1
  W  W34  1  0.28294100  0.18654400  0.73666400  1
  W  W35  1  0.71705900  0.81345600  0.26333600  1
  O  O36  1  0.26715400  0.61466100  0.81295900  1
  O  O37  1  0.73284600  0.38533900  0.18704100  1
  O  O38  1  0.76715400  0.38533900  0.68704100  1
  O  O39  1  0.23284600  0.61466100  0.31295900  1
  O  O40  1  0.25425400  0.57907600  0.97398100  1
  O  O41  1  0.74574600  0.42092400  0.02601900  1
  O  O42  1  0.75425400  0.42092400  0.52601900  1
  O  O43  1  0.24574600  0.57907600  0.47398100  1
  O  O44  1  0.15766400  0.89670800  0.64626900  1
  O  O45  1  0.84233600  0.10329200  0.35373100  1
  O  O46  1  0.65766400  0.10329200  0.85373100  1
  O  O47  1  0.34233600  0.89670800  0.14626900  1
  O  O48  1  0.25221400  0.95085700  0.98647000  1
  O  O49  1  0.74778600  0.04914300  0.01353000  1
  O  O50  1  0.75221400  0.04914300  0.51353000  1
  O  O51  1  0.24778600  0.95085700  0.48647000  1
  O  O52  1  0.16124200  0.31074300  0.94967500  1
  O  O53  1  0.83875800  0.68925700  0.05032500  1
  O  O54  1  0.66124200  0.68925700  0.55032500  1
  O  O55  1  0.33875800  0.31074300  0.44967500  1
  O  O56  1  0.24956500  0.97312400  0.78964000  1
  O  O57  1  0.75043500  0.02687600  0.21036000  1
  O  O58  1  0.74956500  0.02687600  0.71036000  1
  O  O59  1  0.25043500  0.97312400  0.28964000  1
  O  O60  1  0.76544500  0.73707000  0.69489500  1
  O  O61  1  0.23455500  0.26293000  0.30510500  1
  O  O62  1  0.26544500  0.26293000  0.80510500  1
  O  O63  1  0.73455500  0.73707000  0.19489500  1
  O  O64  1  0.15810000  0.28810700  0.65393400  1
  O  O65  1  0.84190000  0.71189300  0.34606600  1
  O  O66  1  0.65810000  0.71189300  0.84606600  1
  O  O67  1  0.34190000  0.28810700  0.15393400  1
  O  O68  1  0.46842200  0.88339900  0.61015100  1
  O  O69  1  0.53157800  0.11660100  0.38984900  1
  O  O70  1  0.96842200  0.11660100  0.88984900  1
  O  O71  1  0.03157800  0.88339900  0.11015100  1
  O  O72  1  0.96730800  0.77444300  0.80129400  1
  O  O73  1  0.03269200  0.22555700  0.19870600  1
  O  O74  1  0.46730800  0.22555700  0.69870600  1
  O  O75  1  0.53269200  0.77444300  0.30129400  1
  O  O76  1  0.27502000  0.62896400  0.62665300  1
  O  O77  1  0.72498000  0.37103600  0.37334700  1
  O  O78  1  0.77502000  0.37103600  0.87334700  1
  O  O79  1  0.22498000  0.62896400  0.12665300  1
  O  O80  1  0.97093500  0.60047800  0.56394100  1
  O  O81  1  0.02906500  0.39952200  0.43605900  1
  O  O82  1  0.47093500  0.39952200  0.93605900  1
  O  O83  1  0.52906500  0.60047800  0.06394100  1
