# generated using pymatgen
data_NdIn2Cl5
_symmetry_space_group_name_H-M   'P 1'
_cell_length_a   8.22342300
_cell_length_b   8.82276400
_cell_length_c   13.10598500
_cell_angle_alpha   90.00000000
_cell_angle_beta   90.00000000
_cell_angle_gamma   90.00000000
_symmetry_Int_Tables_number   1
_chemical_formula_structural   NdIn2Cl5
_chemical_formula_sum   'Nd4 In8 Cl20'
_cell_volume   950.88272888
_cell_formula_units_Z   4
loop_
 _symmetry_equiv_pos_site_id
 _symmetry_equiv_pos_as_xyz
  1  'x, y, z'
loop_
 _atom_site_type_symbol
 _atom_site_label
 _atom_site_symmetry_multiplicity
 _atom_site_fract_x
 _atom_site_fract_y
 _atom_site_fract_z
 _atom_site_occupancy
  Nd  Nd0  1  0.92517900  0.75000000  0.50466800  1
  Nd  Nd1  1  0.07482100  0.25000000  0.49533200  1
  Nd  Nd2  1  0.42517900  0.25000000  0.99533200  1
  Nd  Nd3  1  0.57482100  0.75000000  0.00466800  1
  In  In4  1  0.95176000  0.00542100  0.82727800  1
  In  In5  1  0.04824000  0.99457900  0.17272200  1
  In  In6  1  0.45176000  0.99457900  0.67272200  1
  In  In7  1  0.04824000  0.50542100  0.17272200  1
  In  In8  1  0.54824000  0.00542100  0.32727800  1
  In  In9  1  0.95176000  0.49457900  0.82727800  1
  In  In10  1  0.54824000  0.49457900  0.32727800  1
  In  In11  1  0.45176000  0.50542100  0.67272200  1
  Cl  Cl12  1  0.11914100  0.75000000  0.67874300  1
  Cl  Cl13  1  0.88085900  0.25000000  0.32125700  1
  Cl  Cl14  1  0.61914100  0.25000000  0.82125700  1
  Cl  Cl15  1  0.38085900  0.75000000  0.17874300  1
  Cl  Cl16  1  0.83880300  0.04231100  0.57517700  1
  Cl  Cl17  1  0.16119700  0.95768900  0.42482300  1
  Cl  Cl18  1  0.33880300  0.95768900  0.92482300  1
  Cl  Cl19  1  0.16119700  0.54231100  0.42482300  1
  Cl  Cl20  1  0.66119700  0.04231100  0.07517700  1
  Cl  Cl21  1  0.83880300  0.45768900  0.57517700  1
  Cl  Cl22  1  0.66119700  0.45768900  0.07517700  1
  Cl  Cl23  1  0.33880300  0.54231100  0.92482300  1
  Cl  Cl24  1  0.58329100  0.75000000  0.50793200  1
  Cl  Cl25  1  0.41670900  0.25000000  0.49206800  1
  Cl  Cl26  1  0.08329100  0.25000000  0.99206800  1
  Cl  Cl27  1  0.91670900  0.75000000  0.00793200  1
  Cl  Cl28  1  0.66064000  0.75000000  0.79791900  1
  Cl  Cl29  1  0.33936000  0.25000000  0.20208100  1
  Cl  Cl30  1  0.16064000  0.25000000  0.70208100  1
  Cl  Cl31  1  0.83936000  0.75000000  0.29791900  1
