# generated using pymatgen
data_KBaY(BO3)2
_symmetry_space_group_name_H-M   'P 1'
_cell_length_a   5.47392150
_cell_length_b   5.47404026
_cell_length_c   6.83194508
_cell_angle_alpha   66.38300630
_cell_angle_beta   66.38225073
_cell_angle_gamma   59.99928835
_symmetry_Int_Tables_number   1
_chemical_formula_structural   KBaY(BO3)2
_chemical_formula_sum   'K1 Ba1 Y1 B2 O6'
_cell_volume   157.17716258
_cell_formula_units_Z   1
loop_
 _symmetry_equiv_pos_site_id
 _symmetry_equiv_pos_as_xyz
  1  'x, y, z'
loop_
 _atom_site_type_symbol
 _atom_site_label
 _atom_site_symmetry_multiplicity
 _atom_site_fract_x
 _atom_site_fract_y
 _atom_site_fract_z
 _atom_site_occupancy
  K  K0  1  0.78024700  0.78030600  0.65914100  1
  Ba  Ba1  1  0.20771300  0.20772700  0.37683400  1
  Y  Y2  1  0.00208300  0.00206500  0.99378700  1
  B  B3  1  0.41327600  0.41328600  0.76015200  1
  B  B4  1  0.58985100  0.58982500  0.23049900  1
  O  O5  1  0.70702100  0.26596300  0.76105300  1
  O  O6  1  0.26594700  0.26597900  0.76104500  1
  O  O7  1  0.26594700  0.70702800  0.76104500  1
  O  O8  1  0.29607800  0.73589200  0.23213700  1
  O  O9  1  0.73591800  0.73587900  0.23215400  1
  O  O10  1  0.73591800  0.29605000  0.23215400  1
