# generated using pymatgen
data_Ce3(GaRh)2
_symmetry_space_group_name_H-M   'P 1'
_cell_length_a   5.58098500
_cell_length_b   8.16855100
_cell_length_c   13.37045000
_cell_angle_alpha   90.00000000
_cell_angle_beta   90.00000000
_cell_angle_gamma   90.00000000
_symmetry_Int_Tables_number   1
_chemical_formula_structural   Ce3(GaRh)2
_chemical_formula_sum   'Ce12 Ga8 Rh8'
_cell_volume   609.53957011
_cell_formula_units_Z   4
loop_
 _symmetry_equiv_pos_site_id
 _symmetry_equiv_pos_as_xyz
  1  'x, y, z'
loop_
 _atom_site_type_symbol
 _atom_site_label
 _atom_site_symmetry_multiplicity
 _atom_site_fract_x
 _atom_site_fract_y
 _atom_site_fract_z
 _atom_site_occupancy
  Ce  Ce0  1  0.63744600  0.25869200  0.25000000  1
  Ce  Ce1  1  0.36255400  0.74130800  0.75000000  1
  Ce  Ce2  1  0.36255400  0.75869200  0.25000000  1
  Ce  Ce3  1  0.63744600  0.24130800  0.75000000  1
  Ce  Ce4  1  0.16348700  0.39843900  0.09658600  1
  Ce  Ce5  1  0.83651300  0.60156100  0.90341400  1
  Ce  Ce6  1  0.83651300  0.60156100  0.59658600  1
  Ce  Ce7  1  0.83651300  0.89843900  0.40341400  1
  Ce  Ce8  1  0.16348700  0.39843900  0.40341400  1
  Ce  Ce9  1  0.16348700  0.10156100  0.59658600  1
  Ce  Ce10  1  0.16348700  0.10156100  0.90341400  1
  Ce  Ce11  1  0.83651300  0.89843900  0.09658600  1
  Ga  Ga12  1  0.13227400  0.10744300  0.25000000  1
  Ga  Ga13  1  0.86772600  0.89255700  0.75000000  1
  Ga  Ga14  1  0.86772600  0.60744300  0.25000000  1
  Ga  Ga15  1  0.13227400  0.39255700  0.75000000  1
  Ga  Ga16  1  0.66606200  0.25000000  0.00000000  1
  Ga  Ga17  1  0.33393800  0.75000000  0.00000000  1
  Ga  Ga18  1  0.33393800  0.75000000  0.50000000  1
  Ga  Ga19  1  0.66606200  0.25000000  0.50000000  1
  Rh  Rh20  1  0.37844200  0.03458900  0.09349700  1
  Rh  Rh21  1  0.62155800  0.96541100  0.90650300  1
  Rh  Rh22  1  0.62155800  0.96541100  0.59349700  1
  Rh  Rh23  1  0.62155800  0.53458900  0.40650300  1
  Rh  Rh24  1  0.37844200  0.03458900  0.40650300  1
  Rh  Rh25  1  0.37844200  0.46541100  0.59349700  1
  Rh  Rh26  1  0.37844200  0.46541100  0.90650300  1
  Rh  Rh27  1  0.62155800  0.53458900  0.09349700  1
