# generated using pymatgen
data_Na2Lu3Te4(IO4)3
_symmetry_space_group_name_H-M   'P 1'
_cell_length_a   5.56683600
_cell_length_b   9.31794500
_cell_length_c   16.75197252
_cell_angle_alpha   89.78721949
_cell_angle_beta   90.00000000
_cell_angle_gamma   90.00000000
_symmetry_Int_Tables_number   1
_chemical_formula_structural   Na2Lu3Te4(IO4)3
_chemical_formula_sum   'Na4 Lu6 Te8 I6 O24'
_cell_volume   868.94347583
_cell_formula_units_Z   2
loop_
 _symmetry_equiv_pos_site_id
 _symmetry_equiv_pos_as_xyz
  1  'x, y, z'
loop_
 _atom_site_type_symbol
 _atom_site_label
 _atom_site_symmetry_multiplicity
 _atom_site_fract_x
 _atom_site_fract_y
 _atom_site_fract_z
 _atom_site_occupancy
  Na  Na0  1  0.26029500  0.70243200  0.08640000  1
  Na  Na1  1  0.26029500  0.29756800  0.41360000  1
  Na  Na2  1  0.73970500  0.29756800  0.91360000  1
  Na  Na3  1  0.73970500  0.70243200  0.58640000  1
  Lu  Lu4  1  0.24725600  0.00000000  0.25000000  1
  Lu  Lu5  1  0.75274400  0.00000000  0.75000000  1
  Lu  Lu6  1  0.25359400  0.99878100  0.91481500  1
  Lu  Lu7  1  0.25359400  0.00121900  0.58518500  1
  Lu  Lu8  1  0.74640600  0.00121900  0.08518500  1
  Lu  Lu9  1  0.74640600  0.99878100  0.41481500  1
  Te  Te10  1  0.20658200  0.75122700  0.73316700  1
  Te  Te11  1  0.20658200  0.24877300  0.76683300  1
  Te  Te12  1  0.79341800  0.24877300  0.26683300  1
  Te  Te13  1  0.79341800  0.75122700  0.23316700  1
  Te  Te14  1  0.28699500  0.75541700  0.43426600  1
  Te  Te15  1  0.28699500  0.24458300  0.06573400  1
  Te  Te16  1  0.71300500  0.24458300  0.56573400  1
  Te  Te17  1  0.71300500  0.75541700  0.93426600  1
  I  I18  1  0.25895500  0.50000000  0.25000000  1
  I  I19  1  0.74104500  0.50000000  0.75000000  1
  I  I20  1  0.24468600  0.50576900  0.91647700  1
  I  I21  1  0.24468600  0.49423100  0.58352300  1
  I  I22  1  0.75531400  0.49423100  0.08352300  1
  I  I23  1  0.75531400  0.50576900  0.41647700  1
  O  O24  1  0.45744000  0.86751000  0.68800800  1
  O  O25  1  0.45744000  0.13249000  0.81199200  1
  O  O26  1  0.54256000  0.13249000  0.31199200  1
  O  O27  1  0.54256000  0.86751000  0.18800800  1
  O  O28  1  0.07611300  0.87353500  0.81475800  1
  O  O29  1  0.07611300  0.12646500  0.68524200  1
  O  O30  1  0.92388700  0.12646500  0.18524200  1
  O  O31  1  0.92388700  0.87353500  0.31475800  1
  O  O32  1  0.00925500  0.84358900  0.15910200  1
  O  O33  1  0.00925500  0.15641100  0.34089800  1
  O  O34  1  0.99074500  0.15641100  0.84089800  1
  O  O35  1  0.99074500  0.84358900  0.65910200  1
  O  O36  1  0.04168900  0.87367800  0.47931200  1
  O  O37  1  0.04168900  0.12632200  0.02068800  1
  O  O38  1  0.95831100  0.12632200  0.52068800  1
  O  O39  1  0.95831100  0.87367800  0.97931200  1
  O  O40  1  0.41671500  0.88190000  0.35463400  1
  O  O41  1  0.41671500  0.11810000  0.14536600  1
  O  O42  1  0.58328500  0.11810000  0.64536600  1
  O  O43  1  0.58328500  0.88190000  0.85463400  1
  O  O44  1  0.49297700  0.84806300  0.00706100  1
  O  O45  1  0.49297700  0.15193700  0.49293900  1
  O  O46  1  0.50702300  0.15193700  0.99293900  1
  O  O47  1  0.50702300  0.84806300  0.50706100  1
