# generated using pymatgen
data_DyRe2SiC
_symmetry_space_group_name_H-M   'P 1'
_cell_length_a   5.79754195
_cell_length_b   5.79754195
_cell_length_c   7.30260300
_cell_angle_alpha   90.00000000
_cell_angle_beta   90.00000000
_cell_angle_gamma   140.20947435
_symmetry_Int_Tables_number   1
_chemical_formula_structural   DyRe2SiC
_chemical_formula_sum   'Dy2 Re4 Si2 C2'
_cell_volume   157.08462884
_cell_formula_units_Z   2
loop_
 _symmetry_equiv_pos_site_id
 _symmetry_equiv_pos_as_xyz
  1  'x, y, z'
loop_
 _atom_site_type_symbol
 _atom_site_label
 _atom_site_symmetry_multiplicity
 _atom_site_fract_x
 _atom_site_fract_y
 _atom_site_fract_z
 _atom_site_occupancy
  Dy  Dy0  1  0.54369100  0.45630900  0.25000000  1
  Dy  Dy1  1  0.45630900  0.54369100  0.75000000  1
  Re  Re2  1  0.82619600  0.17380400  0.06082900  1
  Re  Re3  1  0.17380400  0.82619600  0.93917100  1
  Re  Re4  1  0.17380400  0.82619600  0.56082900  1
  Re  Re5  1  0.82619600  0.17380400  0.43917100  1
  Si  Si6  1  0.26538900  0.73461100  0.25000000  1
  Si  Si7  1  0.73461100  0.26538900  0.75000000  1
  C  C8  1  0.00000000  0.00000000  0.00000000  1
  C  C9  1  0.00000000  0.00000000  0.50000000  1
