# generated using pymatgen
data_P2H19C6I7N
_symmetry_space_group_name_H-M   'P 1'
_cell_length_a   8.78114100
_cell_length_b   17.23750479
_cell_length_c   18.28439888
_cell_angle_alpha   87.54447575
_cell_angle_beta   79.73035720
_cell_angle_gamma   78.34638090
_symmetry_Int_Tables_number   1
_chemical_formula_structural   P2H19C6I7N
_chemical_formula_sum   'P8 H76 C24 I28 N4'
_cell_volume   2667.07612402
_cell_formula_units_Z   4
loop_
 _symmetry_equiv_pos_site_id
 _symmetry_equiv_pos_as_xyz
  1  'x, y, z'
loop_
 _atom_site_type_symbol
 _atom_site_label
 _atom_site_symmetry_multiplicity
 _atom_site_fract_x
 _atom_site_fract_y
 _atom_site_fract_z
 _atom_site_occupancy
  P  P0  1  0.80053300  0.32107600  0.65784000  1
  P  P1  1  0.19946700  0.67892400  0.34216000  1
  P  P2  1  0.07127000  0.17848300  0.65939300  1
  P  P3  1  0.92873000  0.82151700  0.34060700  1
  P  P4  1  0.42540800  0.81079300  0.86632800  1
  P  P5  1  0.57459200  0.18920700  0.13367200  1
  P  P6  1  0.27557100  0.66813100  0.85074800  1
  P  P7  1  0.72442900  0.33186900  0.14925200  1
  H  H8  1  0.89910900  0.24901700  0.75526700  1
  H  H9  1  0.10089100  0.75098300  0.24473300  1
  H  H10  1  0.31267300  0.72908000  0.95410800  1
  H  H11  1  0.68732700  0.27092000  0.04589200  1
  H  H12  1  0.80907400  0.41360800  0.74959300  1
  H  H13  1  0.19092600  0.58639200  0.25040700  1
  H  H14  1  0.63927900  0.44092300  0.70466800  1
  H  H15  1  0.36072100  0.55907700  0.29533200  1
  H  H16  1  0.64323100  0.36355000  0.77385200  1
  H  H17  1  0.35676900  0.63645000  0.22614800  1
  H  H18  1  0.58615600  0.25333200  0.67273600  1
  H  H19  1  0.41384400  0.74666800  0.32726400  1
  H  H20  1  0.56447600  0.33557400  0.60867000  1
  H  H21  1  0.43552400  0.66442600  0.39133000  1
  H  H22  1  0.69552300  0.24480500  0.57866100  1
  H  H23  1  0.30447700  0.75519500  0.42133900  1
  H  H24  1  0.95790000  0.32238600  0.53555000  1
  H  H25  1  0.04210000  0.67761400  0.46445000  1
  H  H26  1  0.82969800  0.41467800  0.56101300  1
  H  H27  1  0.17030200  0.58532200  0.43898700  1
  H  H28  1  0.00706500  0.38678800  0.59955700  1
  H  H29  1  0.99293500  0.61321200  0.40044300  1
  H  H30  1  0.98567000  0.08354700  0.74788600  1
  H  H31  1  0.01433000  0.91645300  0.25211400  1
  H  H32  1  0.19087400  0.05644800  0.70634900  1
  H  H33  1  0.80912600  0.94355200  0.29365100  1
  H  H34  1  0.13022300  0.13115600  0.77717400  1
  H  H35  1  0.86977700  0.86884400  0.22282600  1
  H  H36  1  0.02188100  0.18026000  0.53330000  1
  H  H37  1  0.97811900  0.81974000  0.46670000  1
  H  H38  1  0.12730200  0.08773800  0.56101500  1
  H  H39  1  0.87269800  0.91226200  0.43898500  1
  H  H40  1  0.91884700  0.11407600  0.59338700  1
  H  H41  1  0.08115300  0.88592400  0.40661300  1
  H  H42  1  0.26963500  0.24725400  0.68105900  1
  H  H43  1  0.73036500  0.75274600  0.31894100  1
  H  H44  1  0.34655600  0.16397900  0.61990000  1
  H  H45  1  0.65344400  0.83602100  0.38010000  1
  H  H46  1  0.24505900  0.25454400  0.58478100  1
  H  H47  1  0.75494100  0.74545600  0.41521900  1
  H  H48  1  0.64070900  0.74198500  0.77500400  1
  H  H49  1  0.35929100  0.25801500  0.22499600  1
  H  H50  1  0.67373100  0.83363200  0.80577600  1
  H  H51  1  0.32626900  0.16636800  0.19422400  1
  H  H52  1  0.69228800  0.74731400  0.86508500  1
  H  H53  1  0.30771200  0.25268600  0.13491500  1
  H  H54  1  0.48789100  0.82940000  0.98427500  1
  H  H55  1  0.51210900  0.17060000  0.01572500  1
  H  H56  1  0.46511500  0.91906900  0.93029000  1
  H  H57  1  0.53488500  0.08093100  0.06971000  1
  H  H58  1  0.29254700  0.88247600  0.97540400  1
  H  H59  1  0.70745300  0.11752400  0.02459600  1
  H  H60  1  0.19760000  0.89407200  0.82845900  1
  H  H61  1  0.80240000  0.10592800  0.17154100  1
  H  H62  1  0.38176200  0.91967200  0.78488000  1
  H  H63  1  0.61823800  0.08032800  0.21512000  1
  H  H64  1  0.32062300  0.83752200  0.75138700  1
  H  H65  1  0.67937700  0.16247800  0.24861300  1
  H  H66  1  0.17252500  0.60707300  0.96204500  1
  H  H67  1  0.82747500  0.39292700  0.03795500  1
  H  H68  1  0.22254400  0.54128700  0.88398100  1
  H  H69  1  0.77745600  0.45871300  0.11601900  1
  H  H70  1  0.37649300  0.56306100  0.92861600  1
  H  H71  1  0.62350700  0.43693900  0.07138400  1
  H  H72  1  0.53157900  0.61975400  0.77866800  1
  H  H73  1  0.46842100  0.38024600  0.22133200  1
  H  H74  1  0.37401500  0.58658500  0.74637500  1
  H  H75  1  0.62598500  0.41341500  0.25362500  1
  H  H76  1  0.40429200  0.68441600  0.72409300  1
  H  H77  1  0.59570800  0.31558400  0.27590700  1
  H  H78  1  0.08461900  0.76323900  0.79545400  1
  H  H79  1  0.91538100  0.23676100  0.20454600  1
  H  H80  1  0.05235500  0.66383000  0.79594800  1
  H  H81  1  0.94764500  0.33617000  0.20405200  1
  H  H82  1  0.99953300  0.72031100  0.88032900  1
  H  H83  1  0.00046700  0.27968900  0.11967100  1
  C  C84  1  0.71514900  0.39184900  0.72910800  1
  C  C85  1  0.28485100  0.60815100  0.27089200  1
  C  C86  1  0.64732800  0.28439000  0.62633100  1
  C  C87  1  0.35267200  0.71561000  0.37366900  1
  C  C88  1  0.91121200  0.36457000  0.58130800  1
  C  C89  1  0.08878800  0.63543000  0.41869200  1
  C  C90  1  0.09625700  0.10512200  0.73008400  1
  C  C91  1  0.90374300  0.89487800  0.26991600  1
  C  C92  1  0.02834000  0.13721400  0.57921300  1
  C  C93  1  0.97166000  0.86278600  0.42078700  1
  C  C94  1  0.24979700  0.21549400  0.63374900  1
  C  C95  1  0.75020300  0.78450600  0.36625100  1
  C  C96  1  0.62733600  0.77976000  0.82348900  1
  C  C97  1  0.37266400  0.22024000  0.17651100  1
  C  C98  1  0.41608500  0.86601100  0.94724300  1
  C  C99  1  0.58391500  0.13398900  0.05275700  1
  C  C100  1  0.31970900  0.87047100  0.80168400  1
  C  C101  1  0.68029100  0.12952900  0.19831600  1
  C  C102  1  0.26115800  0.58664200  0.91253100  1
  C  C103  1  0.73884200  0.41335800  0.08746900  1
  C  C104  1  0.41104000  0.63782300  0.76700100  1
  C  C105  1  0.58896000  0.36217700  0.23299900  1
  C  C106  1  0.08489100  0.70853100  0.82827400  1
  C  C107  1  0.91510900  0.29146900  0.17172600  1
  I  I108  1  0.73099300  0.69587400  0.59320600  1
  I  I109  1  0.26900700  0.30412600  0.40679400  1
  I  I110  1  0.96965800  0.57425600  0.65751300  1
  I  I111  1  0.03034200  0.42574400  0.34248700  1
  I  I112  1  0.18268600  0.45009400  0.72266400  1
  I  I113  1  0.81731400  0.54990600  0.27733600  1
  I  I114  1  0.11631200  0.74365500  0.09325300  1
  I  I115  1  0.88368800  0.25634500  0.90674700  1
  I  I116  1  0.94035000  0.86714600  0.99805900  1
  I  I117  1  0.05965000  0.13285400  0.00194100  1
  I  I118  1  0.79795600  0.97436000  0.89303600  1
  I  I119  1  0.20204400  0.02564000  0.10696400  1
  I  I120  1  0.76763700  0.55144900  0.90377100  1
  I  I121  1  0.23236300  0.44855100  0.09622900  1
  I  I122  1  0.67380700  0.65658700  0.03434500  1
  I  I123  1  0.32619300  0.34341300  0.96565500  1
  I  I124  1  0.57622400  0.76377300  0.16391600  1
  I  I125  1  0.42377600  0.23622700  0.83608400  1
  I  I126  1  0.20955800  0.79957700  0.59919500  1
  I  I127  1  0.79044200  0.20042300  0.40080500  1
  I  I128  1  0.91209900  0.91910100  0.65220900  1
  I  I129  1  0.08790100  0.08089900  0.34779100  1
  I  I130  1  0.64183700  0.04217500  0.70829800  1
  I  I131  1  0.35816300  0.95782500  0.29170200  1
  I  I132  1  0.58327800  0.05958000  0.46896300  1
  I  I133  1  0.41672200  0.94042000  0.53103700  1
  I  I134  1  0.56600200  0.55855200  0.52920400  1
  I  I135  1  0.43399800  0.44144800  0.47079600  1
  N  N136  1  0.91963700  0.24902600  0.69726500  1
  N  N137  1  0.08036300  0.75097400  0.30273500  1
  N  N138  1  0.34241700  0.73307000  0.89648700  1
  N  N139  1  0.65758300  0.26693000  0.10351300  1
