# generated using pymatgen
data_Rb15W7N19
_symmetry_space_group_name_H-M   'P 1'
_cell_length_a   7.24223400
_cell_length_b   12.94788612
_cell_length_c   20.01301650
_cell_angle_alpha   90.16341791
_cell_angle_beta   94.45480484
_cell_angle_gamma   99.38785411
_symmetry_Int_Tables_number   1
_chemical_formula_structural   Rb15W7N19
_chemical_formula_sum   'Rb30 W14 N38'
_cell_volume   1845.69509185
_cell_formula_units_Z   2
loop_
 _symmetry_equiv_pos_site_id
 _symmetry_equiv_pos_as_xyz
  1  'x, y, z'
loop_
 _atom_site_type_symbol
 _atom_site_label
 _atom_site_symmetry_multiplicity
 _atom_site_fract_x
 _atom_site_fract_y
 _atom_site_fract_z
 _atom_site_occupancy
  Rb  Rb0  1  0.51722800  0.62241400  0.43469700  1
  Rb  Rb1  1  0.48277200  0.37758600  0.56530300  1
  Rb  Rb2  1  0.62738400  0.12714800  0.65610200  1
  Rb  Rb3  1  0.37261600  0.87285200  0.34389800  1
  Rb  Rb4  1  0.71192300  0.01884300  0.19226900  1
  Rb  Rb5  1  0.28807700  0.98115700  0.80773100  1
  Rb  Rb6  1  0.94217900  0.04073400  0.37868900  1
  Rb  Rb7  1  0.05782100  0.95926600  0.62131100  1
  Rb  Rb8  1  0.74286000  0.74611600  0.27510900  1
  Rb  Rb9  1  0.25714000  0.25388400  0.72489100  1
  Rb  Rb10  1  0.85426700  0.16760600  0.83074700  1
  Rb  Rb11  1  0.14573300  0.83239400  0.16925300  1
  Rb  Rb12  1  0.88095300  0.89756500  0.89860000  1
  Rb  Rb13  1  0.11904700  0.10243500  0.10140000  1
  Rb  Rb14  1  0.71574400  0.08046500  0.00018300  1
  Rb  Rb15  1  0.28425600  0.91953500  0.99981700  1
  Rb  Rb16  1  0.62399600  0.89947800  0.52430700  1
  Rb  Rb17  1  0.37600400  0.10052200  0.47569300  1
  Rb  Rb18  1  0.56057700  0.44048000  0.27988700  1
  Rb  Rb19  1  0.43942300  0.55952000  0.72011300  1
  Rb  Rb20  1  0.97571200  0.34324800  0.01347000  1
  Rb  Rb21  1  0.02428800  0.65675200  0.98653000  1
  Rb  Rb22  1  0.95570000  0.67393800  0.78571100  1
  Rb  Rb23  1  0.04430000  0.32606200  0.21428900  1
  Rb  Rb24  1  0.73488500  0.25930200  0.39648900  1
  Rb  Rb25  1  0.26511500  0.74069800  0.60351100  1
  Rb  Rb26  1  0.62316200  0.38821000  0.84373100  1
  Rb  Rb27  1  0.37683800  0.61179000  0.15626900  1
  Rb  Rb28  1  0.00000000  0.50000000  0.50000000  1
  Rb  Rb29  1  0.50000000  0.50000000  0.00000000  1
  W  W30  1  0.56479900  0.27454800  0.11940100  1
  W  W31  1  0.43520100  0.72545200  0.88059900  1
  W  W32  1  0.88904600  0.41644300  0.68406500  1
  W  W33  1  0.11095400  0.58355700  0.31593500  1
  W  W34  1  0.75611900  0.66112900  0.60421400  1
  W  W35  1  0.24388100  0.33887100  0.39578600  1
  W  W36  1  0.97919500  0.77505300  0.44583500  1
  W  W37  1  0.02080500  0.22494700  0.55416500  1
  W  W38  1  0.84837400  0.54496600  0.14335200  1
  W  W39  1  0.15162600  0.45503400  0.85664800  1
  W  W40  1  0.65250600  0.86348900  0.72870200  1
  W  W41  1  0.34749400  0.13651100  0.27129800  1
  W  W42  1  0.68369600  0.78600100  0.05803100  1
  W  W43  1  0.31630400  0.21399900  0.94196900  1
  N  N44  1  0.76477300  0.20928200  0.11623400  1
  N  N45  1  0.23522700  0.79071800  0.88376600  1
  N  N46  1  0.96784100  0.32884700  0.61958500  1
  N  N47  1  0.03215900  0.67115300  0.38041500  1
  N  N48  1  0.54534600  0.08625300  0.31355400  1
  N  N49  1  0.45465400  0.91374700  0.68644600  1
  N  N50  1  0.57776700  0.78332800  0.80910700  1
  N  N51  1  0.42223300  0.21667200  0.19089300  1
  N  N52  1  0.65152800  0.42320400  0.13593700  1
  N  N53  1  0.34847200  0.57679600  0.86406300  1
  N  N54  1  0.48195000  0.39461800  0.42335500  1
  N  N55  1  0.51805000  0.60538200  0.57664500  1
  N  N56  1  0.81417900  0.12499300  0.53253500  1
  N  N57  1  0.18582100  0.87500700  0.46746500  1
  N  N58  1  0.88675600  0.71060300  0.52847100  1
  N  N59  1  0.11324400  0.28939700  0.47152900  1
  N  N60  1  0.89260800  0.88597900  0.05636900  1
  N  N61  1  0.10739200  0.11402100  0.94363100  1
  N  N62  1  0.78937400  0.83415000  0.40546700  1
  N  N63  1  0.21062600  0.16585000  0.59453300  1
  N  N64  1  0.75173500  0.77144100  0.66577700  1
  N  N65  1  0.24826500  0.22855900  0.33422300  1
  N  N66  1  0.96106800  0.48165300  0.90218800  1
  N  N67  1  0.03893200  0.51834700  0.09781200  1
  N  N68  1  0.58245800  0.75053200  0.96492200  1
  N  N69  1  0.41754200  0.24946800  0.03507800  1
  N  N70  1  0.75390700  0.66105700  0.10384000  1
  N  N71  1  0.24609300  0.33894300  0.89616000  1
  N  N72  1  0.83806000  0.97366400  0.75310600  1
  N  N73  1  0.16194000  0.02633600  0.24689400  1
  N  N74  1  0.93599600  0.57193500  0.23597000  1
  N  N75  1  0.06400400  0.42806500  0.76403000  1
  N  N76  1  0.87725300  0.55227900  0.64784900  1
  N  N77  1  0.12274700  0.44772100  0.35215100  1
  N  N78  1  0.65999100  0.35842300  0.70707000  1
  N  N79  1  0.34000900  0.64157700  0.29293000  1
  N  N80  1  0.50881000  0.83507200  0.10554200  1
  N  N81  1  0.49119000  0.16492800  0.89445800  1
