# generated using pymatgen
data_Cs2U4Nb4O23
_symmetry_space_group_name_H-M   'P 1'
_cell_length_a   7.75599295
_cell_length_b   8.90166916
_cell_length_c   8.90166916
_cell_angle_alpha   105.14590433
_cell_angle_beta   90.05016903
_cell_angle_gamma   90.05016903
_symmetry_Int_Tables_number   1
_chemical_formula_structural   Cs2U4Nb4O23
_chemical_formula_sum   'Cs2 U4 Nb4 O23'
_cell_volume   593.23366294
_cell_formula_units_Z   1
loop_
 _symmetry_equiv_pos_site_id
 _symmetry_equiv_pos_as_xyz
  1  'x, y, z'
loop_
 _atom_site_type_symbol
 _atom_site_label
 _atom_site_symmetry_multiplicity
 _atom_site_fract_x
 _atom_site_fract_y
 _atom_site_fract_z
 _atom_site_occupancy
  Cs  Cs0  1  0.50022800  0.00178300  0.00178300  1
  Cs  Cs1  1  0.00016300  0.00113300  0.00113300  1
  U  U2  1  0.23959200  0.02928600  0.50817200  1
  U  U3  1  0.76336300  0.49342800  0.95972100  1
  U  U4  1  0.76336300  0.95972100  0.49342800  1
  U  U5  1  0.23959200  0.50817200  0.02928600  1
  Nb  Nb6  1  0.50230000  0.35936400  0.62692700  1
  Nb  Nb7  1  0.00171400  0.38689400  0.60459000  1
  Nb  Nb8  1  0.50230000  0.62692700  0.35936400  1
  Nb  Nb9  1  0.00171400  0.60459000  0.38689400  1
  O  O10  1  0.53565100  0.14304400  0.55849100  1
  O  O11  1  0.46418700  0.45480600  0.84040300  1
  O  O12  1  0.97062600  0.15014800  0.54897100  1
  O  O13  1  0.03300000  0.44807300  0.84220800  1
  O  O14  1  0.46418700  0.84040300  0.45480600  1
  O  O15  1  0.53565100  0.55849100  0.14304400  1
  O  O16  1  0.03300000  0.84220800  0.44807300  1
  O  O17  1  0.97062600  0.54897100  0.15014800  1
  O  O18  1  0.24847000  0.04062200  0.30611400  1
  O  O19  1  0.75966700  0.69556400  0.94925300  1
  O  O20  1  0.75966700  0.94925300  0.69556400  1
  O  O21  1  0.24847000  0.30611400  0.04062200  1
  O  O22  1  0.24413800  0.02027300  0.71156700  1
  O  O23  1  0.75119700  0.29140000  0.97277700  1
  O  O24  1  0.75119700  0.97277700  0.29140000  1
  O  O25  1  0.24413800  0.71156700  0.02027300  1
  O  O26  1  0.25061300  0.31428900  0.58598600  1
  O  O27  1  0.75371700  0.40726100  0.67835600  1
  O  O28  1  0.75371700  0.67835600  0.40726100  1
  O  O29  1  0.25061300  0.58598600  0.31428900  1
  O  O30  1  0.51234600  0.46864200  0.46864200  1
  O  O31  1  0.06802300  0.60123300  0.60123300  1
  O  O32  1  0.93676900  0.39022100  0.39022100  1
