# generated using pymatgen
data_EuAs3
_symmetry_space_group_name_H-M   'P 1'
_cell_length_a   6.06291960
_cell_length_b   6.06291960
_cell_length_c   5.76006616
_cell_angle_alpha   73.12345684
_cell_angle_beta   73.12345684
_cell_angle_gamma   78.09532045
_symmetry_Int_Tables_number   1
_chemical_formula_structural   EuAs3
_chemical_formula_sum   'Eu2 As6'
_cell_volume   192.16067506
_cell_formula_units_Z   2
loop_
 _symmetry_equiv_pos_site_id
 _symmetry_equiv_pos_as_xyz
  1  'x, y, z'
loop_
 _atom_site_type_symbol
 _atom_site_label
 _atom_site_symmetry_multiplicity
 _atom_site_fract_x
 _atom_site_fract_y
 _atom_site_fract_z
 _atom_site_occupancy
  Eu  Eu0  1  0.16549400  0.16549400  0.67034900  1
  Eu  Eu1  1  0.83450600  0.83450600  0.32965100  1
  As  As2  1  0.91410600  0.36273200  0.20135900  1
  As  As3  1  0.36273200  0.91410600  0.20135900  1
  As  As4  1  0.08589400  0.63726800  0.79864100  1
  As  As5  1  0.63726800  0.08589400  0.79864100  1
  As  As6  1  0.48913100  0.48913100  0.22673400  1
  As  As7  1  0.51086900  0.51086900  0.77326600  1
