# generated using pymatgen
data_V2Cd(PO5)2
_symmetry_space_group_name_H-M   'P 1'
_cell_length_a   5.24631762
_cell_length_b   8.10607500
_cell_length_c   17.48949554
_cell_angle_alpha   90.00000000
_cell_angle_beta   92.97839220
_cell_angle_gamma   90.00000000
_symmetry_Int_Tables_number   1
_chemical_formula_structural   V2Cd(PO5)2
_chemical_formula_sum   'V8 Cd4 P8 O40'
_cell_volume   742.77185567
_cell_formula_units_Z   4
loop_
 _symmetry_equiv_pos_site_id
 _symmetry_equiv_pos_as_xyz
  1  'x, y, z'
loop_
 _atom_site_type_symbol
 _atom_site_label
 _atom_site_symmetry_multiplicity
 _atom_site_fract_x
 _atom_site_fract_y
 _atom_site_fract_z
 _atom_site_occupancy
  V  V0  1  0.45978700  0.46605300  0.85298000  1
  V  V1  1  0.54021200  0.96605300  0.64701900  1
  V  V2  1  0.16081900  0.87279200  0.06930900  1
  V  V3  1  0.45978900  0.03394600  0.35298100  1
  V  V4  1  0.16081800  0.62720700  0.56930800  1
  V  V5  1  0.83918200  0.12720800  0.93069100  1
  V  V6  1  0.83918200  0.37279200  0.43069100  1
  V  V7  1  0.54021200  0.53394600  0.14701900  1
  Cd  Cd8  1  0.09089900  0.27626300  0.68176800  1
  Cd  Cd9  1  0.90910100  0.77626200  0.81823100  1
  Cd  Cd10  1  0.90910100  0.72373800  0.31823200  1
  Cd  Cd11  1  0.09089900  0.22373700  0.18176800  1
  P  P12  1  0.33281300  0.06700100  0.81445800  1
  P  P13  1  0.66718700  0.56700100  0.68554200  1
  P  P14  1  0.66718600  0.93300000  0.18554200  1
  P  P15  1  0.33281300  0.43300000  0.31445800  1
  P  P16  1  0.35876000  0.23367500  0.51509200  1
  P  P17  1  0.64124000  0.73367500  0.98490800  1
  P  P18  1  0.64123900  0.76632500  0.48490900  1
  P  P19  1  0.35876200  0.26632500  0.01509100  1
  O  O20  1  0.32325000  0.39206500  0.95025100  1
  O  O21  1  0.67675000  0.89206500  0.54974900  1
  O  O22  1  0.67675200  0.60793500  0.04974900  1
  O  O23  1  0.32324900  0.10793500  0.45025100  1
  O  O24  1  0.67131000  0.64706100  0.90549700  1
  O  O25  1  0.32869000  0.14706100  0.59450300  1
  O  O26  1  0.32868900  0.35293900  0.09450300  1
  O  O27  1  0.67131000  0.85293900  0.40549700  1
  O  O28  1  0.69519900  0.48363600  0.76462200  1
  O  O29  1  0.30480100  0.98363600  0.73537800  1
  O  O30  1  0.30480000  0.51636500  0.23537900  1
  O  O31  1  0.69519900  0.01636400  0.26462200  1
  O  O32  1  0.31939100  0.25723800  0.79963400  1
  O  O33  1  0.68060900  0.75723800  0.70036600  1
  O  O34  1  0.41902600  0.51336500  0.64140900  1
  O  O35  1  0.31939000  0.24276200  0.29963300  1
  O  O36  1  0.22892400  0.59343500  0.81935200  1
  O  O37  1  0.77107600  0.09343500  0.68064700  1
  O  O38  1  0.77107600  0.40656600  0.18064700  1
  O  O39  1  0.22892400  0.90656600  0.31935300  1
  O  O40  1  0.21198400  0.69049100  0.11038900  1
  O  O41  1  0.78801500  0.19049100  0.38961100  1
  O  O42  1  0.78801500  0.30950900  0.88961200  1
  O  O43  1  0.21198500  0.80950900  0.61038900  1
  O  O44  1  0.86394800  0.86409600  0.98926900  1
  O  O45  1  0.13605100  0.36409600  0.51073100  1
  O  O46  1  0.13605100  0.13590300  0.01073100  1
  O  O47  1  0.86394800  0.63590300  0.48926900  1
  O  O48  1  0.90852900  0.98509600  0.14229600  1
  O  O49  1  0.09147200  0.48509600  0.35770400  1
  O  O50  1  0.09147100  0.01490300  0.85770400  1
  O  O51  1  0.90852900  0.51490300  0.64229500  1
  O  O52  1  0.38370600  0.82267900  0.98523000  1
  O  O53  1  0.61629500  0.32267800  0.51477000  1
  O  O54  1  0.61629500  0.17732200  0.01477000  1
  O  O55  1  0.38370600  0.67732200  0.48523100  1
  O  O56  1  0.41902500  0.98663400  0.14140900  1
  O  O57  1  0.58097400  0.48663400  0.35859100  1
  O  O58  1  0.58097400  0.01336600  0.85859100  1
  O  O59  1  0.68061100  0.74276200  0.20036700  1
