# generated using pymatgen
data_NaNbN2
_symmetry_space_group_name_H-M   'P 1'
_cell_length_a   5.65186500
_cell_length_b   11.33701300
_cell_length_c   15.95974900
_cell_angle_alpha   90.00000000
_cell_angle_beta   90.00000000
_cell_angle_gamma   90.00000000
_symmetry_Int_Tables_number   1
_chemical_formula_structural   NaNbN2
_chemical_formula_sum   'Na16 Nb16 N32'
_cell_volume   1022.62517810
_cell_formula_units_Z   16
loop_
 _symmetry_equiv_pos_site_id
 _symmetry_equiv_pos_as_xyz
  1  'x, y, z'
loop_
 _atom_site_type_symbol
 _atom_site_label
 _atom_site_symmetry_multiplicity
 _atom_site_fract_x
 _atom_site_fract_y
 _atom_site_fract_z
 _atom_site_occupancy
  Na  Na0  1  0.28559000  0.99747900  0.44108600  1
  Na  Na1  1  0.78559000  0.50252100  0.55891400  1
  Na  Na2  1  0.71441000  0.49747900  0.05891400  1
  Na  Na3  1  0.21441000  0.00252100  0.94108600  1
  Na  Na4  1  0.71441000  0.00252100  0.55891400  1
  Na  Na5  1  0.21441000  0.49747900  0.44108600  1
  Na  Na6  1  0.28559000  0.50252100  0.94108600  1
  Na  Na7  1  0.78559000  0.99747900  0.05891400  1
  Na  Na8  1  0.25039200  0.28014900  0.31060200  1
  Na  Na9  1  0.75039200  0.21985100  0.68939800  1
  Na  Na10  1  0.74960800  0.78014900  0.18939800  1
  Na  Na11  1  0.24960800  0.71985100  0.81060200  1
  Na  Na12  1  0.74960800  0.71985100  0.68939800  1
  Na  Na13  1  0.24960800  0.78014900  0.31060200  1
  Na  Na14  1  0.25039200  0.21985100  0.81060200  1
  Na  Na15  1  0.75039200  0.28014900  0.18939800  1
  Nb  Nb16  1  0.79182000  0.02011700  0.30997000  1
  Nb  Nb17  1  0.29182000  0.47988300  0.69003000  1
  Nb  Nb18  1  0.20818000  0.52011700  0.19003000  1
  Nb  Nb19  1  0.70818000  0.97988300  0.80997000  1
  Nb  Nb20  1  0.20818000  0.97988300  0.69003000  1
  Nb  Nb21  1  0.70818000  0.52011700  0.30997000  1
  Nb  Nb22  1  0.79182000  0.47988300  0.80997000  1
  Nb  Nb23  1  0.29182000  0.02011700  0.19003000  1
  Nb  Nb24  1  0.74200800  0.27235500  0.43410300  1
  Nb  Nb25  1  0.24200800  0.22764500  0.56589700  1
  Nb  Nb26  1  0.25799200  0.77235500  0.06589700  1
  Nb  Nb27  1  0.75799200  0.72764500  0.93410300  1
  Nb  Nb28  1  0.25799200  0.72764500  0.56589700  1
  Nb  Nb29  1  0.75799200  0.77235500  0.43410300  1
  Nb  Nb30  1  0.74200800  0.22764500  0.93410300  1
  Nb  Nb31  1  0.24200800  0.27235500  0.06589700  1
  N  N32  1  0.00818800  0.32291100  0.50601300  1
  N  N33  1  0.50818800  0.17708900  0.49398700  1
  N  N34  1  0.99181200  0.82291100  0.99398700  1
  N  N35  1  0.49181200  0.67708900  0.00601300  1
  N  N36  1  0.99181200  0.67708900  0.49398700  1
  N  N37  1  0.49181200  0.82291100  0.50601300  1
  N  N38  1  0.00818800  0.17708900  0.00601300  1
  N  N39  1  0.50818800  0.32291100  0.99398700  1
  N  N40  1  0.58379200  0.41596000  0.39796800  1
  N  N41  1  0.08379200  0.08404000  0.60203200  1
  N  N42  1  0.41620800  0.91596000  0.10203200  1
  N  N43  1  0.91620800  0.58404000  0.89796800  1
  N  N44  1  0.41620800  0.58404000  0.60203200  1
  N  N45  1  0.91620800  0.91596000  0.39796800  1
  N  N46  1  0.58379200  0.08404000  0.89796800  1
  N  N47  1  0.08379200  0.41596000  0.10203200  1
  N  N48  1  0.85391700  0.18672900  0.33478500  1
  N  N49  1  0.35391700  0.31327100  0.66521500  1
  N  N50  1  0.14608300  0.68672900  0.16521500  1
  N  N51  1  0.64608300  0.81327100  0.83478500  1
  N  N52  1  0.14608300  0.81327100  0.66521500  1
  N  N53  1  0.64608300  0.68672900  0.33478500  1
  N  N54  1  0.85391700  0.31327100  0.83478500  1
  N  N55  1  0.35391700  0.18672900  0.16521500  1
  N  N56  1  0.54526900  0.48334800  0.20548300  1
  N  N57  1  0.04526900  0.01665200  0.79451700  1
  N  N58  1  0.45473100  0.98334800  0.29451700  1
  N  N59  1  0.95473100  0.51665200  0.70548300  1
  N  N60  1  0.45473100  0.51665200  0.79451700  1
  N  N61  1  0.95473100  0.98334800  0.20548300  1
  N  N62  1  0.54526900  0.01665200  0.70548300  1
  N  N63  1  0.04526900  0.48334800  0.29451700  1
