# generated using pymatgen
data_LaCrGe3
_symmetry_space_group_name_H-M   'P 1'
_cell_length_a   6.21702338
_cell_length_b   6.21702338
_cell_length_c   5.77627500
_cell_angle_alpha   90.00000000
_cell_angle_beta   90.00000000
_cell_angle_gamma   119.99999337
_symmetry_Int_Tables_number   1
_chemical_formula_structural   LaCrGe3
_chemical_formula_sum   'La2 Cr2 Ge6'
_cell_volume   193.34970893
_cell_formula_units_Z   2
loop_
 _symmetry_equiv_pos_site_id
 _symmetry_equiv_pos_as_xyz
  1  'x, y, z'
loop_
 _atom_site_type_symbol
 _atom_site_label
 _atom_site_symmetry_multiplicity
 _atom_site_fract_x
 _atom_site_fract_y
 _atom_site_fract_z
 _atom_site_occupancy
  La  La0  1  0.33333300  0.66666700  0.75000000  1
  La  La1  1  0.66666700  0.33333300  0.25000000  1
  Cr  Cr2  1  0.00000000  0.00000000  0.50000000  1
  Cr  Cr3  1  0.00000000  0.00000000  0.00000000  1
  Ge  Ge4  1  0.19134900  0.80865100  0.25000000  1
  Ge  Ge5  1  0.19134900  0.38269700  0.25000000  1
  Ge  Ge6  1  0.61730300  0.80865100  0.25000000  1
  Ge  Ge7  1  0.80865100  0.19134900  0.75000000  1
  Ge  Ge8  1  0.80865100  0.61730300  0.75000000  1
  Ge  Ge9  1  0.38269700  0.19134900  0.75000000  1
