# generated using pymatgen
data_Cs2Pt3Se4
_symmetry_space_group_name_H-M   'P 1'
_cell_length_a   9.28010930
_cell_length_b   8.01937709
_cell_length_c   6.69495580
_cell_angle_alpha   77.62491019
_cell_angle_beta   57.57230830
_cell_angle_gamma   44.80278151
_symmetry_Int_Tables_number   1
_chemical_formula_structural   Cs2Pt3Se4
_chemical_formula_sum   'Cs2 Pt3 Se4'
_cell_volume   284.54976234
_cell_formula_units_Z   1
loop_
 _symmetry_equiv_pos_site_id
 _symmetry_equiv_pos_as_xyz
  1  'x, y, z'
loop_
 _atom_site_type_symbol
 _atom_site_label
 _atom_site_symmetry_multiplicity
 _atom_site_fract_x
 _atom_site_fract_y
 _atom_site_fract_z
 _atom_site_occupancy
  Cs  Cs0  1  0.64496600  0.64496600  0.35503400  1
  Cs  Cs1  1  0.35503400  0.35503400  0.64496600  1
  Pt  Pt2  1  0.50000000  0.50000000  0.00000000  1
  Pt  Pt3  1  0.00000000  0.00000000  0.00000000  1
  Pt  Pt4  1  0.00000000  0.00000000  0.50000000  1
  Se  Se5  1  0.05997500  0.72421400  0.27578600  1
  Se  Se6  1  0.72421400  0.05997500  0.94002500  1
  Se  Se7  1  0.94002500  0.27578600  0.72421400  1
  Se  Se8  1  0.27578600  0.94002500  0.05997500  1
