# generated using pymatgen
data_CeOsRu
_symmetry_space_group_name_H-M   'P 1'
_cell_length_a   5.39063587
_cell_length_b   5.39063587
_cell_length_c   5.39063587
_cell_angle_alpha   122.19245682
_cell_angle_beta   118.08595436
_cell_angle_gamma   89.79599867
_symmetry_Int_Tables_number   1
_chemical_formula_structural   CeOsRu
_chemical_formula_sum   'Ce2 Os2 Ru2'
_cell_volume   110.35352873
_cell_formula_units_Z   2
loop_
 _symmetry_equiv_pos_site_id
 _symmetry_equiv_pos_as_xyz
  1  'x, y, z'
loop_
 _atom_site_type_symbol
 _atom_site_label
 _atom_site_symmetry_multiplicity
 _atom_site_fract_x
 _atom_site_fract_y
 _atom_site_fract_z
 _atom_site_occupancy
  Ce  Ce0  1  0.12546000  0.87546000  0.25000000  1
  Ce  Ce1  1  0.87454000  0.12454000  0.75000000  1
  Os  Os2  1  0.50000000  0.50000000  0.50000000  1
  Os  Os3  1  0.50000000  0.00000000  0.00000000  1
  Ru  Ru4  1  0.50000000  0.50000000  0.00000000  1
  Ru  Ru5  1  0.00000000  0.50000000  0.50000000  1
