# generated using pymatgen
data_Ce2(CN2)3
_symmetry_space_group_name_H-M   'P 1'
_cell_length_a   7.79291360
_cell_length_b   7.79291360
_cell_length_c   5.35770484
_cell_angle_alpha   83.39676920
_cell_angle_beta   83.39676920
_cell_angle_gamma   29.94088505
_symmetry_Int_Tables_number   1
_chemical_formula_structural   Ce2(CN2)3
_chemical_formula_sum   'Ce2 C3 N6'
_cell_volume   161.23998010
_cell_formula_units_Z   1
loop_
 _symmetry_equiv_pos_site_id
 _symmetry_equiv_pos_as_xyz
  1  'x, y, z'
loop_
 _atom_site_type_symbol
 _atom_site_label
 _atom_site_symmetry_multiplicity
 _atom_site_fract_x
 _atom_site_fract_y
 _atom_site_fract_z
 _atom_site_occupancy
  Ce  Ce0  1  0.86520600  0.86520600  0.57241600  1
  Ce  Ce1  1  0.13479400  0.13479400  0.42758400  1
  C  C2  1  0.32746300  0.32746300  0.09373100  1
  C  C3  1  0.67253700  0.67253700  0.90626900  1
  C  C4  1  0.00000000  0.00000000  0.00000000  1
  N  N5  1  0.68929700  0.68929700  0.67218900  1
  N  N6  1  0.31070300  0.31070300  0.32781100  1
  N  N7  1  0.65816900  0.65816900  0.13569700  1
  N  N8  1  0.34183100  0.34183100  0.86430300  1
  N  N9  1  0.98890500  0.98890500  0.23214300  1
  N  N10  1  0.01109500  0.01109500  0.76785700  1
