# generated using pymatgen
data_SmGaPd2
_symmetry_space_group_name_H-M   'P 1'
_cell_length_a   5.69005400
_cell_length_b   7.18623100
_cell_length_c   7.53474200
_cell_angle_alpha   90.00000000
_cell_angle_beta   90.00000000
_cell_angle_gamma   90.00000000
_symmetry_Int_Tables_number   1
_chemical_formula_structural   SmGaPd2
_chemical_formula_sum   'Sm4 Ga4 Pd8'
_cell_volume   308.09592020
_cell_formula_units_Z   4
loop_
 _symmetry_equiv_pos_site_id
 _symmetry_equiv_pos_as_xyz
  1  'x, y, z'
loop_
 _atom_site_type_symbol
 _atom_site_label
 _atom_site_symmetry_multiplicity
 _atom_site_fract_x
 _atom_site_fract_y
 _atom_site_fract_z
 _atom_site_occupancy
  Sm  Sm0  1  0.35047000  0.75000000  0.03291700  1
  Sm  Sm1  1  0.14953000  0.75000000  0.53291700  1
  Sm  Sm2  1  0.64953000  0.25000000  0.96708300  1
  Sm  Sm3  1  0.85047000  0.25000000  0.46708300  1
  Ga  Ga4  1  0.64978900  0.75000000  0.38196300  1
  Ga  Ga5  1  0.85021100  0.75000000  0.88196300  1
  Ga  Ga6  1  0.35021100  0.25000000  0.61803700  1
  Ga  Ga7  1  0.14978900  0.25000000  0.11803700  1
  Pd  Pd8  1  0.91218900  0.55185500  0.17867600  1
  Pd  Pd9  1  0.58781100  0.94814500  0.67867600  1
  Pd  Pd10  1  0.08781100  0.05185500  0.82132400  1
  Pd  Pd11  1  0.41218900  0.44814500  0.32132400  1
  Pd  Pd12  1  0.08781100  0.44814500  0.82132400  1
  Pd  Pd13  1  0.41218900  0.05185500  0.32132400  1
  Pd  Pd14  1  0.91218900  0.94814500  0.17867600  1
  Pd  Pd15  1  0.58781100  0.55185500  0.67867600  1
