# generated using pymatgen
data_Sr2YbBiO6
_symmetry_space_group_name_H-M   'P 1'
_cell_length_a   5.95325044
_cell_length_b   6.13182500
_cell_length_c   8.48194543
_cell_angle_alpha   90.00000000
_cell_angle_beta   89.28146003
_cell_angle_gamma   90.00000000
_symmetry_Int_Tables_number   1
_chemical_formula_structural   Sr2YbBiO6
_chemical_formula_sum   'Sr4 Yb2 Bi2 O12'
_cell_volume   309.60304671
_cell_formula_units_Z   2
loop_
 _symmetry_equiv_pos_site_id
 _symmetry_equiv_pos_as_xyz
  1  'x, y, z'
loop_
 _atom_site_type_symbol
 _atom_site_label
 _atom_site_symmetry_multiplicity
 _atom_site_fract_x
 _atom_site_fract_y
 _atom_site_fract_z
 _atom_site_occupancy
  Sr  Sr0  1  0.01545200  0.44884300  0.25479900  1
  Sr  Sr1  1  0.98454800  0.55115700  0.74520100  1
  Sr  Sr2  1  0.48454800  0.94884300  0.24520100  1
  Sr  Sr3  1  0.51545200  0.05115700  0.75479900  1
  Yb  Yb4  1  0.00000000  0.00000000  0.50000000  1
  Yb  Yb5  1  0.50000000  0.50000000  0.00000000  1
  Bi  Bi6  1  0.00000000  0.00000000  0.00000000  1
  Bi  Bi7  1  0.50000000  0.50000000  0.50000000  1
  O  O8  1  0.89944000  0.04096700  0.24131700  1
  O  O9  1  0.10056000  0.95903300  0.75868300  1
  O  O10  1  0.60056000  0.54096700  0.25868300  1
  O  O11  1  0.39944000  0.45903300  0.74131700  1
  O  O12  1  0.19496800  0.71884900  0.05856000  1
  O  O13  1  0.80503200  0.28115100  0.94144000  1
  O  O14  1  0.30503200  0.21884900  0.44144000  1
  O  O15  1  0.69496800  0.78115100  0.55856000  1
  O  O16  1  0.28722700  0.19652700  0.04607600  1
  O  O17  1  0.71277300  0.80347300  0.95392400  1
  O  O18  1  0.21277300  0.69652700  0.45392400  1
  O  O19  1  0.78722700  0.30347300  0.54607600  1
