# generated using pymatgen
data_Sm3Ni
_symmetry_space_group_name_H-M   'P 1'
_cell_length_a   6.40233000
_cell_length_b   6.91946800
_cell_length_c   9.77127300
_cell_angle_alpha   90.00000000
_cell_angle_beta   90.00000000
_cell_angle_gamma   90.00000000
_symmetry_Int_Tables_number   1
_chemical_formula_structural   Sm3Ni
_chemical_formula_sum   'Sm12 Ni4'
_cell_volume   432.87440538
_cell_formula_units_Z   4
loop_
 _symmetry_equiv_pos_site_id
 _symmetry_equiv_pos_as_xyz
  1  'x, y, z'
loop_
 _atom_site_type_symbol
 _atom_site_label
 _atom_site_symmetry_multiplicity
 _atom_site_fract_x
 _atom_site_fract_y
 _atom_site_fract_z
 _atom_site_occupancy
  Sm  Sm0  1  0.32182800  0.17858000  0.56464400  1
  Sm  Sm1  1  0.17817200  0.67858000  0.93535600  1
  Sm  Sm2  1  0.67817200  0.82142000  0.06464400  1
  Sm  Sm3  1  0.82182800  0.32142000  0.43535600  1
  Sm  Sm4  1  0.67817200  0.82142000  0.43535600  1
  Sm  Sm5  1  0.82182800  0.32142000  0.06464400  1
  Sm  Sm6  1  0.32182800  0.17858000  0.93535600  1
  Sm  Sm7  1  0.17817200  0.67858000  0.56464400  1
  Sm  Sm8  1  0.86245800  0.03437900  0.75000000  1
  Sm  Sm9  1  0.63754200  0.53437900  0.75000000  1
  Sm  Sm10  1  0.13754200  0.96562100  0.25000000  1
  Sm  Sm11  1  0.36245800  0.46562100  0.25000000  1
  Ni  Ni12  1  0.06357700  0.39126900  0.75000000  1
  Ni  Ni13  1  0.43642300  0.89126900  0.75000000  1
  Ni  Ni14  1  0.93642300  0.60873100  0.25000000  1
  Ni  Ni15  1  0.56357700  0.10873100  0.25000000  1
