# generated using pymatgen
data_Ba2LaIrO6
_symmetry_space_group_name_H-M   'P 1'
_cell_length_a   6.09971303
_cell_length_b   6.09971303
_cell_length_c   6.14650335
_cell_angle_alpha   59.98667552
_cell_angle_beta   59.98667552
_cell_angle_gamma   59.91937366
_symmetry_Int_Tables_number   1
_chemical_formula_structural   Ba2LaIrO6
_chemical_formula_sum   'Ba2 La1 Ir1 O6'
_cell_volume   161.57687797
_cell_formula_units_Z   1
loop_
 _symmetry_equiv_pos_site_id
 _symmetry_equiv_pos_as_xyz
  1  'x, y, z'
loop_
 _atom_site_type_symbol
 _atom_site_label
 _atom_site_symmetry_multiplicity
 _atom_site_fract_x
 _atom_site_fract_y
 _atom_site_fract_z
 _atom_site_occupancy
  Ba  Ba0  1  0.25184600  0.25184600  0.74584500  1
  Ba  Ba1  1  0.74815400  0.74815400  0.25415500  1
  La  La2  1  0.50000000  0.50000000  0.00000000  1
  Ir  Ir3  1  0.00000000  0.00000000  0.50000000  1
  O  O4  1  0.77151100  0.77151100  0.77108900  1
  O  O5  1  0.22848900  0.22848900  0.22891100  1
  O  O6  1  0.79181900  0.25293800  0.70545900  1
  O  O7  1  0.74706200  0.20818100  0.29454100  1
  O  O8  1  0.20818100  0.74706200  0.29454100  1
  O  O9  1  0.25293800  0.79181900  0.70545900  1
