# generated using pymatgen
data_Mn2Sb3I3O5
_symmetry_space_group_name_H-M   'P 1'
_cell_length_a   6.50970489
_cell_length_b   10.32437723
_cell_length_c   10.57014078
_cell_angle_alpha   98.67150408
_cell_angle_beta   107.46109470
_cell_angle_gamma   91.49584977
_symmetry_Int_Tables_number   1
_chemical_formula_structural   Mn2Sb3I3O5
_chemical_formula_sum   'Mn4 Sb6 I6 O10'
_cell_volume   668.00365260
_cell_formula_units_Z   2
loop_
 _symmetry_equiv_pos_site_id
 _symmetry_equiv_pos_as_xyz
  1  'x, y, z'
loop_
 _atom_site_type_symbol
 _atom_site_label
 _atom_site_symmetry_multiplicity
 _atom_site_fract_x
 _atom_site_fract_y
 _atom_site_fract_z
 _atom_site_occupancy
  Mn  Mn0  1  0.72944600  0.42189600  0.00155100  1
  Mn  Mn1  1  0.25561200  0.30159100  0.73765200  1
  Mn  Mn2  1  0.27128900  0.57824900  0.99843800  1
  Mn  Mn3  1  0.74424200  0.69885200  0.26279200  1
  Sb  Sb4  1  0.22314000  0.84063800  0.22553000  1
  Sb  Sb5  1  0.77663800  0.15924000  0.77435200  1
  Sb  Sb6  1  0.23438100  0.27853000  0.07502300  1
  Sb  Sb7  1  0.76572600  0.72131700  0.92493000  1
  Sb  Sb8  1  0.28565900  0.56140700  0.32910100  1
  Sb  Sb9  1  0.71389400  0.43839600  0.67073100  1
  I  I10  1  0.73944800  0.41310500  0.29660100  1
  I  I11  1  0.26052500  0.58707500  0.70346800  1
  I  I12  1  0.76017400  0.96254400  0.18362500  1
  I  I13  1  0.24001000  0.03758200  0.81640700  1
  I  I14  1  0.68097500  0.78476600  0.53285800  1
  I  I15  1  0.31921200  0.21535900  0.46717000  1
  O  O16  1  0.13288800  0.45675400  0.13949800  1
  O  O17  1  0.86689200  0.54304600  0.86041500  1
  O  O18  1  0.34604800  0.37775400  0.95722000  1
  O  O19  1  0.65403500  0.62231200  0.04285600  1
  O  O20  1  0.40646700  0.67493600  0.21708700  1
  O  O21  1  0.59341600  0.32495500  0.78295200  1
  O  O22  1  0.08736700  0.75099000  0.03268200  1
  O  O23  1  0.91277700  0.24880600  0.96720200  1
  O  O24  1  0.07836500  0.71059400  0.30541000  1
  O  O25  1  0.92137200  0.28930700  0.69445000  1
