# generated using pymatgen
data_Cs2YCl5
_symmetry_space_group_name_H-M   'P 1'
_cell_length_a   7.60544600
_cell_length_b   9.82209300
_cell_length_c   15.56816800
_cell_angle_alpha   90.00000000
_cell_angle_beta   90.00000000
_cell_angle_gamma   90.00000000
_symmetry_Int_Tables_number   1
_chemical_formula_structural   Cs2YCl5
_chemical_formula_sum   'Cs8 Y4 Cl20'
_cell_volume   1162.96391263
_cell_formula_units_Z   4
loop_
 _symmetry_equiv_pos_site_id
 _symmetry_equiv_pos_as_xyz
  1  'x, y, z'
loop_
 _atom_site_type_symbol
 _atom_site_label
 _atom_site_symmetry_multiplicity
 _atom_site_fract_x
 _atom_site_fract_y
 _atom_site_fract_z
 _atom_site_occupancy
  Cs  Cs0  1  0.25000000  0.66433400  0.91704100  1
  Cs  Cs1  1  0.75000000  0.33566600  0.08295900  1
  Cs  Cs2  1  0.75000000  0.83566600  0.41704100  1
  Cs  Cs3  1  0.25000000  0.16433400  0.58295900  1
  Cs  Cs4  1  0.25000000  0.97579500  0.21226800  1
  Cs  Cs5  1  0.75000000  0.02420500  0.78773200  1
  Cs  Cs6  1  0.75000000  0.52420500  0.71226800  1
  Cs  Cs7  1  0.25000000  0.47579500  0.28773200  1
  Y  Y8  1  0.25000000  0.67631800  0.56454200  1
  Y  Y9  1  0.75000000  0.32368200  0.43545800  1
  Y  Y10  1  0.75000000  0.82368200  0.06454200  1
  Y  Y11  1  0.25000000  0.17631800  0.93545800  1
  Cl  Cl12  1  0.25000000  0.52106400  0.69969400  1
  Cl  Cl13  1  0.75000000  0.47893600  0.30030600  1
  Cl  Cl14  1  0.75000000  0.97893600  0.19969400  1
  Cl  Cl15  1  0.25000000  0.02106400  0.80030600  1
  Cl  Cl16  1  0.50123200  0.83112300  0.61748400  1
  Cl  Cl17  1  0.49876800  0.16887700  0.38251600  1
  Cl  Cl18  1  0.49876800  0.66887700  0.11748400  1
  Cl  Cl19  1  0.00123200  0.16887700  0.38251600  1
  Cl  Cl20  1  0.50123200  0.33112300  0.88251600  1
  Cl  Cl21  1  0.99876800  0.83112300  0.61748400  1
  Cl  Cl22  1  0.99876800  0.33112300  0.88251600  1
  Cl  Cl23  1  0.00123200  0.66887700  0.11748400  1
  Cl  Cl24  1  0.25000000  0.78552700  0.40863000  1
  Cl  Cl25  1  0.75000000  0.21447300  0.59137000  1
  Cl  Cl26  1  0.75000000  0.71447300  0.90863000  1
  Cl  Cl27  1  0.25000000  0.28552700  0.09137000  1
  Cl  Cl28  1  0.00000000  0.50000000  0.50000000  1
  Cl  Cl29  1  0.00000000  0.00000000  0.00000000  1
  Cl  Cl30  1  0.50000000  0.50000000  0.50000000  1
  Cl  Cl31  1  0.50000000  0.00000000  0.00000000  1
