# generated using pymatgen
data_ZnIn2(SeO3)4
_symmetry_space_group_name_H-M   'P 1'
_cell_length_a   4.89608900
_cell_length_b   8.61469100
_cell_length_c   15.71374934
_cell_angle_alpha   69.02400649
_cell_angle_beta   90.00000000
_cell_angle_gamma   90.00000000
_symmetry_Int_Tables_number   1
_chemical_formula_structural   ZnIn2(SeO3)4
_chemical_formula_sum   'Zn2 In4 Se8 O24'
_cell_volume   618.85709384
_cell_formula_units_Z   2
loop_
 _symmetry_equiv_pos_site_id
 _symmetry_equiv_pos_as_xyz
  1  'x, y, z'
loop_
 _atom_site_type_symbol
 _atom_site_label
 _atom_site_symmetry_multiplicity
 _atom_site_fract_x
 _atom_site_fract_y
 _atom_site_fract_z
 _atom_site_occupancy
  Zn  Zn0  1  0.00000000  0.00000000  0.00000000  1
  Zn  Zn1  1  0.50000000  0.00000000  0.50000000  1
  In  In2  1  0.53696100  0.15511100  0.78726200  1
  In  In3  1  0.96303900  0.15511100  0.28726200  1
  In  In4  1  0.46303900  0.84488900  0.21273800  1
  In  In5  1  0.03696100  0.84488900  0.71273800  1
  Se  Se6  1  0.57185800  0.77495200  0.88969700  1
  Se  Se7  1  0.92814200  0.77495200  0.38969700  1
  Se  Se8  1  0.42814200  0.22504800  0.11030300  1
  Se  Se9  1  0.07185800  0.22504800  0.61030300  1
  Se  Se10  1  0.00752900  0.34775200  0.87169600  1
  Se  Se11  1  0.49247100  0.34775200  0.37169600  1
  Se  Se12  1  0.99247100  0.65224800  0.12830400  1
  Se  Se13  1  0.50752900  0.65224800  0.62830400  1
  O  O14  1  0.77087100  0.36371200  0.78705400  1
  O  O15  1  0.72912900  0.36371200  0.28705400  1
  O  O16  1  0.22912900  0.63628800  0.21294600  1
  O  O17  1  0.27087100  0.63628800  0.71294600  1
  O  O18  1  0.82772300  0.70598300  0.83744000  1
  O  O19  1  0.67227700  0.70598300  0.33744000  1
  O  O20  1  0.17227700  0.29401700  0.16256000  1
  O  O21  1  0.32772300  0.29401700  0.66256000  1
  O  O22  1  0.20700500  0.17311400  0.87602800  1
  O  O23  1  0.29299500  0.17311400  0.37602800  1
  O  O24  1  0.79299500  0.82688600  0.12397200  1
  O  O25  1  0.70700500  0.82688600  0.62397200  1
  O  O26  1  0.70830400  0.95039700  0.90536100  1
  O  O27  1  0.79169600  0.95039700  0.40536100  1
  O  O28  1  0.29169600  0.04960300  0.09463900  1
  O  O29  1  0.20830400  0.04960300  0.59463900  1
  O  O30  1  0.36887900  0.90186300  0.79829800  1
  O  O31  1  0.13112100  0.90186300  0.29829800  1
  O  O32  1  0.63112100  0.09813700  0.20170200  1
  O  O33  1  0.86887900  0.09813700  0.70170200  1
  O  O34  1  0.83963400  0.23667300  0.97085000  1
  O  O35  1  0.66036600  0.23667300  0.47085000  1
  O  O36  1  0.16036600  0.76332700  0.02915000  1
  O  O37  1  0.33963400  0.76332700  0.52915000  1
