# generated using pymatgen
data_Pr5Ge3O13
_symmetry_space_group_name_H-M   'P 1'
_cell_length_a   9.92988194
_cell_length_b   9.92988194
_cell_length_c   7.28446200
_cell_angle_alpha   90.00000000
_cell_angle_beta   90.00000000
_cell_angle_gamma   119.99999960
_symmetry_Int_Tables_number   1
_chemical_formula_structural   Pr5Ge3O13
_chemical_formula_sum   'Pr10 Ge6 O26'
_cell_volume   622.03709670
_cell_formula_units_Z   2
loop_
 _symmetry_equiv_pos_site_id
 _symmetry_equiv_pos_as_xyz
  1  'x, y, z'
loop_
 _atom_site_type_symbol
 _atom_site_label
 _atom_site_symmetry_multiplicity
 _atom_site_fract_x
 _atom_site_fract_y
 _atom_site_fract_z
 _atom_site_occupancy
  Pr  Pr0  1  0.33333300  0.66666700  0.00065100  1
  Pr  Pr1  1  0.66666700  0.33333300  0.99934900  1
  Pr  Pr2  1  0.66666700  0.33333300  0.50065100  1
  Pr  Pr3  1  0.33333300  0.66666700  0.49934900  1
  Pr  Pr4  1  0.23832300  0.23195900  0.25000000  1
  Pr  Pr5  1  0.76167700  0.76804100  0.75000000  1
  Pr  Pr6  1  0.76804100  0.00636500  0.25000000  1
  Pr  Pr7  1  0.23195900  0.99363500  0.75000000  1
  Pr  Pr8  1  0.99363500  0.76167700  0.25000000  1
  Pr  Pr9  1  0.00636500  0.23832300  0.75000000  1
  Ge  Ge10  1  0.02558700  0.39851600  0.25000000  1
  Ge  Ge11  1  0.97441300  0.60148400  0.75000000  1
  Ge  Ge12  1  0.60148400  0.62707100  0.25000000  1
  Ge  Ge13  1  0.39851600  0.37292900  0.75000000  1
  Ge  Ge14  1  0.37292900  0.97441300  0.25000000  1
  Ge  Ge15  1  0.62707100  0.02558700  0.75000000  1
  O  O16  1  0.49044900  0.17983400  0.25000000  1
  O  O17  1  0.50955100  0.82016600  0.75000000  1
  O  O18  1  0.82016600  0.31061500  0.25000000  1
  O  O19  1  0.17983400  0.68938500  0.75000000  1
  O  O20  1  0.68938500  0.50955100  0.25000000  1
  O  O21  1  0.31061500  0.49044900  0.75000000  1
  O  O22  1  0.09941400  0.34718800  0.05450500  1
  O  O23  1  0.90058600  0.65281200  0.94549500  1
  O  O24  1  0.65281200  0.75222600  0.05450500  1
  O  O25  1  0.90058600  0.65281200  0.55450500  1
  O  O26  1  0.34718800  0.24777400  0.94549500  1
  O  O27  1  0.09941400  0.34718800  0.44549500  1
  O  O28  1  0.24777400  0.90058600  0.05450500  1
  O  O29  1  0.34718800  0.24777400  0.55450500  1
  O  O30  1  0.75222600  0.09941400  0.94549500  1
  O  O31  1  0.65281200  0.75222600  0.44549500  1
  O  O32  1  0.75222600  0.09941400  0.55450500  1
  O  O33  1  0.24777400  0.90058600  0.44549500  1
  O  O34  1  0.00000000  0.00000000  0.25000000  1
  O  O35  1  0.00000000  0.00000000  0.75000000  1
  O  O36  1  0.12944100  0.60681000  0.25000000  1
  O  O37  1  0.87055900  0.39319000  0.75000000  1
  O  O38  1  0.39319000  0.52263200  0.25000000  1
  O  O39  1  0.60681000  0.47736800  0.75000000  1
  O  O40  1  0.47736800  0.87055900  0.25000000  1
  O  O41  1  0.52263200  0.12944100  0.75000000  1
