# generated using pymatgen
data_NaCo2H3(SO5)2
_symmetry_space_group_name_H-M   'P 1'
_cell_length_a   5.42282258
_cell_length_b   5.42696004
_cell_length_c   7.46048888
_cell_angle_alpha   69.35038159
_cell_angle_beta   69.39276634
_cell_angle_gamma   72.45948052
_symmetry_Int_Tables_number   1
_chemical_formula_structural   NaCo2H3(SO5)2
_chemical_formula_sum   'Na1 Co2 H3 S2 O10'
_cell_volume   188.32716112
_cell_formula_units_Z   1
loop_
 _symmetry_equiv_pos_site_id
 _symmetry_equiv_pos_as_xyz
  1  'x, y, z'
loop_
 _atom_site_type_symbol
 _atom_site_label
 _atom_site_symmetry_multiplicity
 _atom_site_fract_x
 _atom_site_fract_y
 _atom_site_fract_z
 _atom_site_occupancy
  Na  Na0  1  0.49981100  0.49981500  0.50058500  1
  Co  Co1  1  0.49856900  0.99443200  0.99925500  1
  Co  Co2  1  0.99430900  0.49861600  0.99930600  1
  H  H3  1  0.30016400  0.30015700  0.23343800  1
  H  H4  1  0.68832500  0.68836700  0.77390900  1
  H  H5  1  0.48449900  0.48448600  0.01078600  1
  S  S6  1  0.90381400  0.90399500  0.29556400  1
  S  S7  1  0.09358200  0.09336900  0.70579700  1
  O  O8  1  0.77781300  0.77775700  0.50389100  1
  O  O9  1  0.21971600  0.21978700  0.49709200  1
  O  O10  1  0.34098200  0.34151100  0.08680900  1
  O  O11  1  0.65004000  0.64947000  0.91943600  1
  O  O12  1  0.80790500  0.80794300  0.16642900  1
  O  O13  1  0.19111900  0.19099500  0.83349900  1
  O  O14  1  0.20414600  0.82018600  0.24837500  1
  O  O15  1  0.82000800  0.20405900  0.24857100  1
  O  O16  1  0.79354500  0.17745300  0.75372400  1
  O  O17  1  0.17765100  0.79360200  0.75353500  1
