# generated using pymatgen
data_Ba4TiAs4
_symmetry_space_group_name_H-M   'P 1'
_cell_length_a   13.60651100
_cell_length_b   13.60651100
_cell_length_c   13.60651100
_cell_angle_alpha   90.00000000
_cell_angle_beta   90.00000000
_cell_angle_gamma   90.00000000
_symmetry_Int_Tables_number   1
_chemical_formula_structural   Ba4TiAs4
_chemical_formula_sum   'Ba32 Ti8 As32'
_cell_volume   2519.07055360
_cell_formula_units_Z   8
loop_
 _symmetry_equiv_pos_site_id
 _symmetry_equiv_pos_as_xyz
  1  'x, y, z'
loop_
 _atom_site_type_symbol
 _atom_site_label
 _atom_site_symmetry_multiplicity
 _atom_site_fract_x
 _atom_site_fract_y
 _atom_site_fract_z
 _atom_site_occupancy
  Ba  Ba0  1  0.14835700  0.14835700  0.14835700  1
  Ba  Ba1  1  0.35164300  0.64835700  0.35164300  1
  Ba  Ba2  1  0.64835700  0.35164300  0.35164300  1
  Ba  Ba3  1  0.35164300  0.35164300  0.64835700  1
  Ba  Ba4  1  0.14835700  0.85164300  0.85164300  1
  Ba  Ba5  1  0.85164300  0.85164300  0.14835700  1
  Ba  Ba6  1  0.85164300  0.14835700  0.85164300  1
  Ba  Ba7  1  0.64835700  0.64835700  0.64835700  1
  Ba  Ba8  1  0.90728900  0.86357200  0.64823500  1
  Ba  Ba9  1  0.90728900  0.13642800  0.35176500  1
  Ba  Ba10  1  0.86357200  0.64823500  0.90728900  1
  Ba  Ba11  1  0.13642800  0.64823500  0.09271100  1
  Ba  Ba12  1  0.64823500  0.90728900  0.86357200  1
  Ba  Ba13  1  0.35176500  0.09271100  0.86357200  1
  Ba  Ba14  1  0.59271100  0.85176500  0.36357200  1
  Ba  Ba15  1  0.59271100  0.14823500  0.63642800  1
  Ba  Ba16  1  0.40728900  0.85176500  0.63642800  1
  Ba  Ba17  1  0.14823500  0.63642800  0.59271100  1
  Ba  Ba18  1  0.63642800  0.40728900  0.85176500  1
  Ba  Ba19  1  0.63642800  0.59271100  0.14823500  1
  Ba  Ba20  1  0.85176500  0.36357200  0.59271100  1
  Ba  Ba21  1  0.36357200  0.59271100  0.85176500  1
  Ba  Ba22  1  0.85176500  0.63642800  0.40728900  1
  Ba  Ba23  1  0.14823500  0.36357200  0.40728900  1
  Ba  Ba24  1  0.36357200  0.40728900  0.14823500  1
  Ba  Ba25  1  0.35176500  0.90728900  0.13642800  1
  Ba  Ba26  1  0.64823500  0.09271100  0.13642800  1
  Ba  Ba27  1  0.86357200  0.35176500  0.09271100  1
  Ba  Ba28  1  0.13642800  0.35176500  0.90728900  1
  Ba  Ba29  1  0.09271100  0.13642800  0.64823500  1
  Ba  Ba30  1  0.09271100  0.86357200  0.35176500  1
  Ba  Ba31  1  0.40728900  0.14823500  0.36357200  1
  Ti  Ti32  1  0.00000000  0.00000000  0.00000000  1
  Ti  Ti33  1  0.75000000  0.00000000  0.50000000  1
  Ti  Ti34  1  0.50000000  0.75000000  0.00000000  1
  Ti  Ti35  1  0.50000000  0.25000000  0.00000000  1
  Ti  Ti36  1  0.00000000  0.50000000  0.25000000  1
  Ti  Ti37  1  0.00000000  0.50000000  0.75000000  1
  Ti  Ti38  1  0.25000000  0.00000000  0.50000000  1
  Ti  Ti39  1  0.50000000  0.50000000  0.50000000  1
  As  As40  1  0.60478000  0.85135600  0.11151900  1
  As  As41  1  0.64864400  0.10478000  0.38848100  1
  As  As42  1  0.89522000  0.61151900  0.64864400  1
  As  As43  1  0.10478000  0.61151900  0.35135600  1
  As  As44  1  0.61151900  0.64864400  0.89522000  1
  As  As45  1  0.38848100  0.35135600  0.89522000  1
  As  As46  1  0.85135600  0.88848100  0.39522000  1
  As  As47  1  0.85135600  0.11151900  0.60478000  1
  As  As48  1  0.14864400  0.88848100  0.60478000  1
  As  As49  1  0.39419300  0.39419300  0.39419300  1
  As  As50  1  0.60478000  0.14864400  0.88848100  1
  As  As51  1  0.64864400  0.89522000  0.61151900  1
  As  As52  1  0.88848100  0.39522000  0.85135600  1
  As  As53  1  0.39522000  0.85135600  0.88848100  1
  As  As54  1  0.88848100  0.60478000  0.14864400  1
  As  As55  1  0.11151900  0.39522000  0.14864400  1
  As  As56  1  0.39522000  0.14864400  0.11151900  1
  As  As57  1  0.38848100  0.64864400  0.10478000  1
  As  As58  1  0.61151900  0.35135600  0.10478000  1
  As  As59  1  0.89522000  0.38848100  0.35135600  1
  As  As60  1  0.10478000  0.38848100  0.64864400  1
  As  As61  1  0.35135600  0.10478000  0.61151900  1
  As  As62  1  0.35135600  0.89522000  0.38848100  1
  As  As63  1  0.14864400  0.11151900  0.39522000  1
  As  As64  1  0.10580700  0.89419300  0.10580700  1
  As  As65  1  0.10580700  0.10580700  0.89419300  1
  As  As66  1  0.89419300  0.10580700  0.10580700  1
  As  As67  1  0.60580700  0.60580700  0.39419300  1
  As  As68  1  0.39419300  0.60580700  0.60580700  1
  As  As69  1  0.60580700  0.39419300  0.60580700  1
  As  As70  1  0.89419300  0.89419300  0.89419300  1
  As  As71  1  0.11151900  0.60478000  0.85135600  1
