# generated using pymatgen
data_YbTl(WO4)2
_symmetry_space_group_name_H-M   'P 1'
_cell_length_a   7.70647449
_cell_length_b   7.70647449
_cell_length_c   7.50401211
_cell_angle_alpha   61.37882049
_cell_angle_beta   61.37882049
_cell_angle_gamma   86.22741587
_symmetry_Int_Tables_number   1
_chemical_formula_structural   YbTl(WO4)2
_chemical_formula_sum   'Yb2 Tl2 W4 O16'
_cell_volume   335.56625925
_cell_formula_units_Z   2
loop_
 _symmetry_equiv_pos_site_id
 _symmetry_equiv_pos_as_xyz
  1  'x, y, z'
loop_
 _atom_site_type_symbol
 _atom_site_label
 _atom_site_symmetry_multiplicity
 _atom_site_fract_x
 _atom_site_fract_y
 _atom_site_fract_z
 _atom_site_occupancy
  Yb  Yb0  1  0.22499300  0.77500700  0.25000000  1
  Yb  Yb1  1  0.77500700  0.22499300  0.75000000  1
  Tl  Tl2  1  0.75949900  0.24050100  0.25000000  1
  Tl  Tl3  1  0.24050100  0.75949900  0.75000000  1
  W  W4  1  0.29475600  0.30611100  0.68948100  1
  W  W5  1  0.70524400  0.69388900  0.31051900  1
  W  W6  1  0.69388900  0.70524400  0.81051900  1
  W  W7  1  0.30611100  0.29475600  0.18948100  1
  O  O8  1  0.37739400  0.24832000  0.42495500  1
  O  O9  1  0.62260600  0.75168000  0.57504500  1
  O  O10  1  0.75168000  0.62260600  0.07504500  1
  O  O11  1  0.24832000  0.37739400  0.92495500  1
  O  O12  1  0.63494800  0.93598900  0.81337400  1
  O  O13  1  0.36505200  0.06401100  0.18662600  1
  O  O14  1  0.06401100  0.36505200  0.68662600  1
  O  O15  1  0.93598900  0.63494800  0.31337400  1
  O  O16  1  0.40268600  0.63237200  0.44910700  1
  O  O17  1  0.59731400  0.36762800  0.55089300  1
  O  O18  1  0.36762800  0.59731400  0.05089300  1
  O  O19  1  0.63237200  0.40268600  0.94910700  1
  O  O20  1  0.23329200  0.03447800  0.89755900  1
  O  O21  1  0.76670800  0.96552200  0.10244100  1
  O  O22  1  0.96552200  0.76670800  0.60244100  1
  O  O23  1  0.03447800  0.23329200  0.39755900  1
