# generated using pymatgen
data_PrCu4Pd
_symmetry_space_group_name_H-M   'P 1'
_cell_length_a   5.18113206
_cell_length_b   5.18113206
_cell_length_c   4.23166300
_cell_angle_alpha   90.00000000
_cell_angle_beta   90.00000000
_cell_angle_gamma   120.00000075
_symmetry_Int_Tables_number   1
_chemical_formula_structural   PrCu4Pd
_chemical_formula_sum   'Pr1 Cu4 Pd1'
_cell_volume   98.37642276
_cell_formula_units_Z   1
loop_
 _symmetry_equiv_pos_site_id
 _symmetry_equiv_pos_as_xyz
  1  'x, y, z'
loop_
 _atom_site_type_symbol
 _atom_site_label
 _atom_site_symmetry_multiplicity
 _atom_site_fract_x
 _atom_site_fract_y
 _atom_site_fract_z
 _atom_site_occupancy
  Pr  Pr0  1  0.66666700  0.33333300  0.00000000  1
  Cu  Cu1  1  0.33333300  0.66666700  0.00000000  1
  Cu  Cu2  1  0.65864700  0.82932300  0.50000000  1
  Cu  Cu3  1  0.17067700  0.82932300  0.50000000  1
  Cu  Cu4  1  0.17067700  0.34135300  0.50000000  1
  Pd  Pd5  1  0.00000000  0.00000000  0.00000000  1
