# generated using pymatgen
data_KEuPO4
_symmetry_space_group_name_H-M   'P 1'
_cell_length_a   5.62252900
_cell_length_b   7.42693300
_cell_length_c   9.77675600
_cell_angle_alpha   90.00000000
_cell_angle_beta   90.00000000
_cell_angle_gamma   90.00000000
_symmetry_Int_Tables_number   1
_chemical_formula_structural   KEuPO4
_chemical_formula_sum   'K4 Eu4 P4 O16'
_cell_volume   408.25920615
_cell_formula_units_Z   4
loop_
 _symmetry_equiv_pos_site_id
 _symmetry_equiv_pos_as_xyz
  1  'x, y, z'
loop_
 _atom_site_type_symbol
 _atom_site_label
 _atom_site_symmetry_multiplicity
 _atom_site_fract_x
 _atom_site_fract_y
 _atom_site_fract_z
 _atom_site_occupancy
  K  K0  1  0.25000000  0.15754800  0.41839900  1
  K  K1  1  0.25000000  0.65754800  0.08160100  1
  K  K2  1  0.75000000  0.84245200  0.58160100  1
  K  K3  1  0.75000000  0.34245200  0.91839900  1
  Eu  Eu4  1  0.25000000  0.00286800  0.80510100  1
  Eu  Eu5  1  0.75000000  0.99713200  0.19489900  1
  Eu  Eu6  1  0.25000000  0.50286800  0.69489900  1
  Eu  Eu7  1  0.75000000  0.49713200  0.30510100  1
  P  P8  1  0.25000000  0.72490100  0.41510900  1
  P  P9  1  0.75000000  0.27509900  0.58489100  1
  P  P10  1  0.75000000  0.77509900  0.91510900  1
  P  P11  1  0.25000000  0.22490100  0.08489100  1
  O  O12  1  0.25000000  0.30809700  0.93763000  1
  O  O13  1  0.75000000  0.69190300  0.06237000  1
  O  O14  1  0.25000000  0.80809700  0.56237000  1
  O  O15  1  0.75000000  0.19190300  0.43763000  1
  O  O16  1  0.25000000  0.01630600  0.07289700  1
  O  O17  1  0.75000000  0.98369400  0.92710300  1
  O  O18  1  0.25000000  0.51630600  0.42710300  1
  O  O19  1  0.75000000  0.48369400  0.57289700  1
  O  O20  1  0.47779400  0.78624500  0.33660500  1
  O  O21  1  0.97779400  0.21375500  0.66339500  1
  O  O22  1  0.02220600  0.28624500  0.16339500  1
  O  O23  1  0.52220600  0.71375500  0.83660500  1
  O  O24  1  0.47779400  0.28624500  0.16339500  1
  O  O25  1  0.97779400  0.71375500  0.83660500  1
  O  O26  1  0.02220600  0.78624500  0.33660500  1
  O  O27  1  0.52220600  0.21375500  0.66339500  1
