# generated using pymatgen
data_Sc2Se3
_symmetry_space_group_name_H-M   'P 1'
_cell_length_a   12.78963514
_cell_length_b   12.20825834
_cell_length_c   6.69240100
_cell_angle_alpha   79.32991600
_cell_angle_beta   69.72474812
_cell_angle_gamma   30.94533587
_symmetry_Int_Tables_number   1
_chemical_formula_structural   Sc2Se3
_chemical_formula_sum   'Sc8 Se12'
_cell_volume   490.25011845
_cell_formula_units_Z   4
loop_
 _symmetry_equiv_pos_site_id
 _symmetry_equiv_pos_as_xyz
  1  'x, y, z'
loop_
 _atom_site_type_symbol
 _atom_site_label
 _atom_site_symmetry_multiplicity
 _atom_site_fract_x
 _atom_site_fract_y
 _atom_site_fract_z
 _atom_site_occupancy
  Sc  Sc0  1  0.33316400  0.33316400  0.16683600  1
  Sc  Sc1  1  0.16683600  0.16683600  0.33316400  1
  Sc  Sc2  1  0.91683600  0.91683600  0.08316400  1
  Sc  Sc3  1  0.08316400  0.08316400  0.91683600  1
  Sc  Sc4  1  0.99791600  0.99791600  0.50208400  1
  Sc  Sc5  1  0.50208400  0.50208400  0.99791600  1
  Sc  Sc6  1  0.25208400  0.25208400  0.74791600  1
  Sc  Sc7  1  0.74791600  0.74791600  0.25208400  1
  Se  Se8  1  0.00532200  0.49467800  0.49467800  1
  Se  Se9  1  0.49467800  0.00532200  0.00532200  1
  Se  Se10  1  0.24467800  0.75532200  0.75532200  1
  Se  Se11  1  0.75532200  0.24467800  0.24467800  1
  Se  Se12  1  0.66400700  0.17323600  0.83982100  1
  Se  Se13  1  0.83982100  0.32293600  0.66400700  1
  Se  Se14  1  0.32293600  0.83982100  0.17323600  1
  Se  Se15  1  0.17323600  0.66400700  0.32293600  1
  Se  Se16  1  0.58599300  0.07676400  0.41017900  1
  Se  Se17  1  0.41017900  0.92706400  0.58599300  1
  Se  Se18  1  0.92706400  0.41017900  0.07676400  1
  Se  Se19  1  0.07676400  0.58599300  0.92706400  1
