# generated using pymatgen
data_KH3(SeO3)2
_symmetry_space_group_name_H-M   'P 1'
_cell_length_a   16.51111800
_cell_length_b   6.40526400
_cell_length_c   6.45160178
_cell_angle_alpha   88.07874523
_cell_angle_beta   90.00000000
_cell_angle_gamma   90.00000000
_symmetry_Int_Tables_number   1
_chemical_formula_structural   KH3(SeO3)2
_chemical_formula_sum   'K4 H12 Se8 O24'
_cell_volume   681.92538964
_cell_formula_units_Z   4
loop_
 _symmetry_equiv_pos_site_id
 _symmetry_equiv_pos_as_xyz
  1  'x, y, z'
loop_
 _atom_site_type_symbol
 _atom_site_label
 _atom_site_symmetry_multiplicity
 _atom_site_fract_x
 _atom_site_fract_y
 _atom_site_fract_z
 _atom_site_occupancy
  K  K0  1  0.00120300  0.31198700  0.75477600  1
  K  K1  1  0.99879700  0.68801300  0.24522400  1
  K  K2  1  0.50120300  0.18801300  0.24522400  1
  K  K3  1  0.49879700  0.81198700  0.75477600  1
  H  H4  1  0.32512600  0.06902700  0.53219800  1
  H  H5  1  0.67487400  0.93097300  0.46780200  1
  H  H6  1  0.82512600  0.43097300  0.46780200  1
  H  H7  1  0.17487400  0.56902700  0.53219800  1
  H  H8  1  0.16914200  0.44009800  0.02768400  1
  H  H9  1  0.83085800  0.55990200  0.97231600  1
  H  H10  1  0.66914200  0.05990200  0.97231600  1
  H  H11  1  0.33085800  0.94009800  0.02768400  1
  H  H12  1  0.01112100  0.12104900  0.24277800  1
  H  H13  1  0.98887900  0.87895100  0.75722200  1
  H  H14  1  0.51112100  0.37895100  0.75722200  1
  H  H15  1  0.48887900  0.62104900  0.24277800  1
  Se  Se16  1  0.34960600  0.31316900  0.78485500  1
  Se  Se17  1  0.65039400  0.68683100  0.21514500  1
  Se  Se18  1  0.84960600  0.18683100  0.21514500  1
  Se  Se19  1  0.15039400  0.81316900  0.78485500  1
  Se  Se20  1  0.15058700  0.19473100  0.30224000  1
  Se  Se21  1  0.84941300  0.80526900  0.69776000  1
  Se  Se22  1  0.65058700  0.30526900  0.69776000  1
  Se  Se23  1  0.34941300  0.69473100  0.30224000  1
  O  O24  1  0.38912700  0.10759800  0.92600800  1
  O  O25  1  0.61087300  0.89240200  0.07399200  1
  O  O26  1  0.88912700  0.39240200  0.07399200  1
  O  O27  1  0.11087300  0.60759800  0.92600800  1
  O  O28  1  0.43137600  0.39851500  0.64065500  1
  O  O29  1  0.56862400  0.60148500  0.35934500  1
  O  O30  1  0.93137600  0.10148500  0.35934500  1
  O  O31  1  0.06862400  0.89851500  0.64065500  1
  O  O32  1  0.29008000  0.18301600  0.59064200  1
  O  O33  1  0.70992000  0.81698400  0.40935800  1
  O  O34  1  0.79008000  0.31698400  0.40935800  1
  O  O35  1  0.20992000  0.68301600  0.59064200  1
  O  O36  1  0.11095200  0.39393700  0.43237200  1
  O  O37  1  0.88904800  0.60606300  0.56762800  1
  O  O38  1  0.61095200  0.10606300  0.56762800  1
  O  O39  1  0.38904800  0.89393700  0.43237200  1
  O  O40  1  0.06418400  0.11163300  0.15472500  1
  O  O41  1  0.93581600  0.88836700  0.84527500  1
  O  O42  1  0.56418400  0.38836700  0.84527500  1
  O  O43  1  0.43581600  0.61163300  0.15472500  1
  O  O44  1  0.20280200  0.31678800  0.09151800  1
  O  O45  1  0.79719800  0.68321200  0.90848200  1
  O  O46  1  0.70280200  0.18321200  0.90848200  1
  O  O47  1  0.29719800  0.81678800  0.09151800  1
