# generated using pymatgen
data_Pr2S3
_symmetry_space_group_name_H-M   'P 1'
_cell_length_a   4.09491700
_cell_length_b   7.56249200
_cell_length_c   15.78808100
_cell_angle_alpha   90.00000000
_cell_angle_beta   90.00000000
_cell_angle_gamma   90.00000000
_symmetry_Int_Tables_number   1
_chemical_formula_structural   Pr2S3
_chemical_formula_sum   'Pr8 S12'
_cell_volume   488.92177251
_cell_formula_units_Z   4
loop_
 _symmetry_equiv_pos_site_id
 _symmetry_equiv_pos_as_xyz
  1  'x, y, z'
loop_
 _atom_site_type_symbol
 _atom_site_label
 _atom_site_symmetry_multiplicity
 _atom_site_fract_x
 _atom_site_fract_y
 _atom_site_fract_z
 _atom_site_occupancy
  Pr  Pr0  1  0.25000000  0.26447400  0.04408300  1
  Pr  Pr1  1  0.75000000  0.73552600  0.95591700  1
  Pr  Pr2  1  0.25000000  0.76447400  0.45591700  1
  Pr  Pr3  1  0.75000000  0.23552600  0.54408300  1
  Pr  Pr4  1  0.25000000  0.14486500  0.79552000  1
  Pr  Pr5  1  0.75000000  0.85513500  0.20448000  1
  Pr  Pr6  1  0.25000000  0.64486500  0.70448000  1
  Pr  Pr7  1  0.75000000  0.35513500  0.29552000  1
  S  S8  1  0.25000000  0.14532000  0.21896100  1
  S  S9  1  0.75000000  0.85468000  0.78103900  1
  S  S10  1  0.25000000  0.64532000  0.28103900  1
  S  S11  1  0.75000000  0.35468000  0.71896100  1
  S  S12  1  0.25000000  0.37372700  0.43251600  1
  S  S13  1  0.75000000  0.62627300  0.56748400  1
  S  S14  1  0.25000000  0.87372700  0.06748400  1
  S  S15  1  0.75000000  0.12627300  0.93251600  1
  S  S16  1  0.75000000  0.49023500  0.10937300  1
  S  S17  1  0.25000000  0.50976500  0.89062700  1
  S  S18  1  0.75000000  0.99023500  0.39062700  1
  S  S19  1  0.25000000  0.00976500  0.60937300  1
