# generated using pymatgen
data_Pr2MgSi2
_symmetry_space_group_name_H-M   'P 1'
_cell_length_a   7.44303600
_cell_length_b   7.44303600
_cell_length_c   4.39411500
_cell_angle_alpha   90.00000000
_cell_angle_beta   90.00000000
_cell_angle_gamma   90.00000000
_symmetry_Int_Tables_number   1
_chemical_formula_structural   Pr2MgSi2
_chemical_formula_sum   'Pr4 Mg2 Si4'
_cell_volume   243.42863170
_cell_formula_units_Z   2
loop_
 _symmetry_equiv_pos_site_id
 _symmetry_equiv_pos_as_xyz
  1  'x, y, z'
loop_
 _atom_site_type_symbol
 _atom_site_label
 _atom_site_symmetry_multiplicity
 _atom_site_fract_x
 _atom_site_fract_y
 _atom_site_fract_z
 _atom_site_occupancy
  Pr  Pr0  1  0.68091200  0.18091200  0.50000000  1
  Pr  Pr1  1  0.31908800  0.81908800  0.50000000  1
  Pr  Pr2  1  0.18091200  0.31908800  0.50000000  1
  Pr  Pr3  1  0.81908800  0.68091200  0.50000000  1
  Mg  Mg4  1  0.00000000  0.00000000  0.00000000  1
  Mg  Mg5  1  0.50000000  0.50000000  0.00000000  1
  Si  Si6  1  0.11456700  0.61456700  0.00000000  1
  Si  Si7  1  0.88543300  0.38543300  0.00000000  1
  Si  Si8  1  0.61456700  0.88543300  0.00000000  1
  Si  Si9  1  0.38543300  0.11456700  0.00000000  1
