# generated using pymatgen
data_SrCN2
_symmetry_space_group_name_H-M   'P 1'
_cell_length_a   5.56465241
_cell_length_b   5.56465241
_cell_length_c   5.56465245
_cell_angle_alpha   42.20943918
_cell_angle_beta   42.20943918
_cell_angle_gamma   42.20944495
_symmetry_Int_Tables_number   1
_chemical_formula_structural   SrCN2
_chemical_formula_sum   'Sr1 C1 N2'
_cell_volume   70.38403825
_cell_formula_units_Z   1
loop_
 _symmetry_equiv_pos_site_id
 _symmetry_equiv_pos_as_xyz
  1  'x, y, z'
loop_
 _atom_site_type_symbol
 _atom_site_label
 _atom_site_symmetry_multiplicity
 _atom_site_fract_x
 _atom_site_fract_y
 _atom_site_fract_z
 _atom_site_occupancy
  Sr  Sr0  1  0.50000000  0.50000000  0.50000000  1
  C  C1  1  0.00000000  0.00000000  0.00000000  1
  N  N2  1  0.91837400  0.91837400  0.91837400  1
  N  N3  1  0.08162600  0.08162600  0.08162600  1
