# generated using pymatgen
data_Ba2Tl2O5
_symmetry_space_group_name_H-M   'P 1'
_cell_length_a   6.18044700
_cell_length_b   6.44775400
_cell_length_c   17.36868900
_cell_angle_alpha   90.00000000
_cell_angle_beta   90.00000000
_cell_angle_gamma   90.00000000
_symmetry_Int_Tables_number   1
_chemical_formula_structural   Ba2Tl2O5
_chemical_formula_sum   'Ba8 Tl8 O20'
_cell_volume   692.14228906
_cell_formula_units_Z   4
loop_
 _symmetry_equiv_pos_site_id
 _symmetry_equiv_pos_as_xyz
  1  'x, y, z'
loop_
 _atom_site_type_symbol
 _atom_site_label
 _atom_site_symmetry_multiplicity
 _atom_site_fract_x
 _atom_site_fract_y
 _atom_site_fract_z
 _atom_site_occupancy
  Ba  Ba0  1  0.49102700  0.98114100  0.11120300  1
  Ba  Ba1  1  0.99102700  0.51885900  0.38879700  1
  Ba  Ba2  1  0.00897300  0.48114100  0.88879700  1
  Ba  Ba3  1  0.50897300  0.01885900  0.61120300  1
  Ba  Ba4  1  0.50897300  0.01885900  0.88879700  1
  Ba  Ba5  1  0.00897300  0.48114100  0.61120300  1
  Ba  Ba6  1  0.99102700  0.51885900  0.11120300  1
  Ba  Ba7  1  0.49102700  0.98114100  0.38879700  1
  Tl  Tl8  1  0.00000000  0.00000000  0.00000000  1
  Tl  Tl9  1  0.50000000  0.50000000  0.50000000  1
  Tl  Tl10  1  0.50000000  0.50000000  0.00000000  1
  Tl  Tl11  1  0.00000000  0.00000000  0.50000000  1
  Tl  Tl12  1  0.97467100  0.05571900  0.25000000  1
  Tl  Tl13  1  0.47467100  0.44428100  0.25000000  1
  Tl  Tl14  1  0.52532900  0.55571900  0.75000000  1
  Tl  Tl15  1  0.02532900  0.94428100  0.75000000  1
  O  O16  1  0.38606000  0.87941100  0.75000000  1
  O  O17  1  0.88606000  0.62058900  0.75000000  1
  O  O18  1  0.11394000  0.37941100  0.25000000  1
  O  O19  1  0.61394000  0.12058900  0.25000000  1
  O  O20  1  0.04671700  0.92649600  0.36074200  1
  O  O21  1  0.54671700  0.57350400  0.13925800  1
  O  O22  1  0.45328300  0.42649600  0.63925800  1
  O  O23  1  0.95328300  0.07350400  0.86074200  1
  O  O24  1  0.95328300  0.07350400  0.63925800  1
  O  O25  1  0.45328300  0.42649600  0.86074200  1
  O  O26  1  0.54671700  0.57350400  0.36074200  1
  O  O27  1  0.04671700  0.92649600  0.13925800  1
  O  O28  1  0.24597000  0.77721200  0.51478500  1
  O  O29  1  0.74597000  0.72278800  0.98521500  1
  O  O30  1  0.25403000  0.27721200  0.48521500  1
  O  O31  1  0.75403000  0.22278800  0.01478500  1
  O  O32  1  0.24597000  0.77721200  0.98521500  1
  O  O33  1  0.74597000  0.72278800  0.51478500  1
  O  O34  1  0.25403000  0.27721200  0.01478500  1
  O  O35  1  0.75403000  0.22278800  0.48521500  1
