# generated using pymatgen
data_Sr2Tl2O5
_symmetry_space_group_name_H-M   'P 1'
_cell_length_a   3.56303000
_cell_length_b   6.10099604
_cell_length_c   14.10225100
_cell_angle_alpha   90.00000000
_cell_angle_beta   90.00000000
_cell_angle_gamma   73.02203170
_symmetry_Int_Tables_number   1
_chemical_formula_structural   Sr2Tl2O5
_chemical_formula_sum   'Sr4 Tl4 O10'
_cell_volume   293.19462156
_cell_formula_units_Z   2
loop_
 _symmetry_equiv_pos_site_id
 _symmetry_equiv_pos_as_xyz
  1  'x, y, z'
loop_
 _atom_site_type_symbol
 _atom_site_label
 _atom_site_symmetry_multiplicity
 _atom_site_fract_x
 _atom_site_fract_y
 _atom_site_fract_z
 _atom_site_occupancy
  Sr  Sr0  1  0.96694100  0.06611800  0.26443500  1
  Sr  Sr1  1  0.03305900  0.93388200  0.76443500  1
  Sr  Sr2  1  0.21336900  0.57326100  0.11059900  1
  Sr  Sr3  1  0.78663100  0.42673900  0.61059900  1
  Tl  Tl4  1  0.48912100  0.02175800  0.99920700  1
  Tl  Tl5  1  0.51087900  0.97824200  0.49920700  1
  Tl  Tl6  1  0.76421200  0.47157500  0.89098000  1
  Tl  Tl7  1  0.23578800  0.52842500  0.39098000  1
  O  O8  1  0.87929600  0.24140900  0.44353600  1
  O  O9  1  0.16006000  0.67988000  0.53284800  1
  O  O10  1  0.83994000  0.32012000  0.03284800  1
  O  O11  1  0.12070400  0.75859100  0.94353600  1
  O  O12  1  0.31807700  0.36384500  0.25795700  1
  O  O13  1  0.68192300  0.63615500  0.75795700  1
  O  O14  1  0.59333600  0.81332800  0.36066500  1
  O  O15  1  0.43965000  0.12070000  0.63977200  1
  O  O16  1  0.56035000  0.87930000  0.13977200  1
  O  O17  1  0.40666400  0.18667200  0.86066500  1
