# generated using pymatgen
data_RbNO3
_symmetry_space_group_name_H-M   'P 1'
_cell_length_a   4.75126996
_cell_length_b   4.75126952
_cell_length_c   4.75126975
_cell_angle_alpha   72.80689611
_cell_angle_beta   72.80690648
_cell_angle_gamma   72.80690225
_symmetry_Int_Tables_number   1
_chemical_formula_structural   RbNO3
_chemical_formula_sum   'Rb1 N1 O3'
_cell_volume   95.30445599
_cell_formula_units_Z   1
loop_
 _symmetry_equiv_pos_site_id
 _symmetry_equiv_pos_as_xyz
  1  'x, y, z'
loop_
 _atom_site_type_symbol
 _atom_site_label
 _atom_site_symmetry_multiplicity
 _atom_site_fract_x
 _atom_site_fract_y
 _atom_site_fract_z
 _atom_site_occupancy
  Rb  Rb0  1  0.49491400  0.49491400  0.49491400  1
  N  N1  1  0.03374300  0.03374300  0.03374300  1
  O  O2  1  0.29444200  0.90490000  0.90490000  1
  O  O3  1  0.90490000  0.29444200  0.90490000  1
  O  O4  1  0.90490000  0.90490000  0.29444200  1
