# generated using pymatgen
data_Rb2FeF4
_symmetry_space_group_name_H-M   'P 1'
_cell_length_a   7.51828096
_cell_length_b   7.51828096
_cell_length_c   7.51828096
_cell_angle_alpha   146.65943200
_cell_angle_beta   146.65943200
_cell_angle_gamma   47.86831476
_symmetry_Int_Tables_number   1
_chemical_formula_structural   Rb2FeF4
_chemical_formula_sum   'Rb2 Fe1 F4'
_cell_volume   127.85534914
_cell_formula_units_Z   1
loop_
 _symmetry_equiv_pos_site_id
 _symmetry_equiv_pos_as_xyz
  1  'x, y, z'
loop_
 _atom_site_type_symbol
 _atom_site_label
 _atom_site_symmetry_multiplicity
 _atom_site_fract_x
 _atom_site_fract_y
 _atom_site_fract_z
 _atom_site_occupancy
  Rb  Rb0  1  0.35548100  0.35548100  0.00000000  1
  Rb  Rb1  1  0.64451900  0.64451900  0.00000000  1
  Fe  Fe2  1  0.00000000  0.00000000  0.00000000  1
  F  F3  1  0.14969000  0.14969000  0.00000000  1
  F  F4  1  0.85031000  0.85031000  0.00000000  1
  F  F5  1  0.50000000  0.00000000  0.50000000  1
  F  F6  1  0.00000000  0.50000000  0.50000000  1
