# generated using pymatgen
data_K2Na2Sm4Nb2O13
_symmetry_space_group_name_H-M   'P 1'
_cell_length_a   12.55468380
_cell_length_b   12.55468380
_cell_length_c   11.33285103
_cell_angle_alpha   64.30789023
_cell_angle_beta   64.30789023
_cell_angle_gamma   26.35744857
_symmetry_Int_Tables_number   1
_chemical_formula_structural   K2Na2Sm4Nb2O13
_chemical_formula_sum   'K4 Na4 Sm8 Nb4 O26'
_cell_volume   710.10335853
_cell_formula_units_Z   2
loop_
 _symmetry_equiv_pos_site_id
 _symmetry_equiv_pos_as_xyz
  1  'x, y, z'
loop_
 _atom_site_type_symbol
 _atom_site_label
 _atom_site_symmetry_multiplicity
 _atom_site_fract_x
 _atom_site_fract_y
 _atom_site_fract_z
 _atom_site_occupancy
  K  K0  1  0.80094500  0.69774600  0.36665100  1
  K  K1  1  0.30225400  0.19905500  0.13334900  1
  K  K2  1  0.19905500  0.30225400  0.63334900  1
  K  K3  1  0.69774600  0.80094500  0.86665100  1
  Na  Na4  1  0.87834300  0.80369700  0.02320800  1
  Na  Na5  1  0.19630300  0.12165700  0.47679200  1
  Na  Na6  1  0.12165700  0.19630300  0.97679200  1
  Na  Na7  1  0.80369700  0.87834300  0.52320800  1
  Sm  Sm8  1  0.60886200  0.51677500  0.54984400  1
  Sm  Sm9  1  0.48322500  0.39113800  0.95015600  1
  Sm  Sm10  1  0.39113800  0.48322500  0.45015600  1
  Sm  Sm11  1  0.51677500  0.60886200  0.04984400  1
  Sm  Sm12  1  0.97456400  0.90043200  0.17194700  1
  Sm  Sm13  1  0.09956800  0.02543600  0.32805300  1
  Sm  Sm14  1  0.02543600  0.09956800  0.82805300  1
  Sm  Sm15  1  0.90043200  0.97456400  0.67194700  1
  Nb  Nb16  1  0.68456000  0.61733200  0.21697400  1
  Nb  Nb17  1  0.38266800  0.31544000  0.28302600  1
  Nb  Nb18  1  0.31544000  0.38266800  0.78302600  1
  Nb  Nb19  1  0.61733200  0.68456000  0.71697400  1
  O  O20  1  0.90622100  0.35718900  0.35997500  1
  O  O21  1  0.64281100  0.09377900  0.14002500  1
  O  O22  1  0.09377900  0.64281100  0.64002500  1
  O  O23  1  0.35718900  0.90622100  0.85997500  1
  O  O24  1  0.86041000  0.40820900  0.62289600  1
  O  O25  1  0.59179100  0.13959000  0.87710400  1
  O  O26  1  0.13959000  0.59179100  0.37710400  1
  O  O27  1  0.40820900  0.86041000  0.12289600  1
  O  O28  1  0.17822500  0.56174000  0.13781200  1
  O  O29  1  0.43826000  0.82177500  0.36218800  1
  O  O30  1  0.82177500  0.43826000  0.86218800  1
  O  O31  1  0.56174000  0.17822500  0.63781200  1
  O  O32  1  0.79910900  0.67213200  0.12343500  1
  O  O33  1  0.32786800  0.20089100  0.37656500  1
  O  O34  1  0.20089100  0.32786800  0.87656500  1
  O  O35  1  0.67213200  0.79910900  0.62343500  1
  O  O36  1  0.24175900  0.75824100  0.25000000  1
  O  O37  1  0.75824100  0.24175900  0.75000000  1
  O  O38  1  0.36980400  0.83209700  0.65915900  1
  O  O39  1  0.16790300  0.63019600  0.84084100  1
  O  O40  1  0.63019600  0.16790300  0.34084100  1
  O  O41  1  0.83209700  0.36980400  0.15915900  1
  O  O42  1  0.75058100  0.24754100  0.47712600  1
  O  O43  1  0.75245900  0.24941900  0.02287400  1
  O  O44  1  0.24941900  0.75245900  0.52287400  1
  O  O45  1  0.24754100  0.75058100  0.97712600  1
