# generated using pymatgen
data_K2SrVB5O12
_symmetry_space_group_name_H-M   'P 1'
_cell_length_a   8.57450300
_cell_length_b   6.72399300
_cell_length_c   10.09677071
_cell_angle_alpha   80.19018292
_cell_angle_beta   90.00000000
_cell_angle_gamma   90.00000000
_symmetry_Int_Tables_number   1
_chemical_formula_structural   K2SrVB5O12
_chemical_formula_sum   'K4 Sr2 V2 B10 O24'
_cell_volume   573.61682635
_cell_formula_units_Z   2
loop_
 _symmetry_equiv_pos_site_id
 _symmetry_equiv_pos_as_xyz
  1  'x, y, z'
loop_
 _atom_site_type_symbol
 _atom_site_label
 _atom_site_symmetry_multiplicity
 _atom_site_fract_x
 _atom_site_fract_y
 _atom_site_fract_z
 _atom_site_occupancy
  K  K0  1  0.65693800  0.60123600  0.59650500  1
  K  K1  1  0.15693800  0.39876400  0.40349500  1
  K  K2  1  0.57159700  0.33287900  0.25896900  1
  K  K3  1  0.07159700  0.66712100  0.74103100  1
  Sr  Sr4  1  0.18964800  0.92814000  0.02811000  1
  Sr  Sr5  1  0.68964800  0.07186000  0.97189000  1
  V  V6  1  0.40071100  0.84088300  0.30757400  1
  V  V7  1  0.90071100  0.15911700  0.69242600  1
  B  B8  1  0.43413600  0.84008500  0.80055700  1
  B  B9  1  0.93413600  0.15991500  0.19944300  1
  B  B10  1  0.64152800  0.62178200  0.92976400  1
  B  B11  1  0.14152800  0.37821800  0.07023600  1
  B  B12  1  0.37846800  0.48029400  0.90604400  1
  B  B13  1  0.87846800  0.51970600  0.09395600  1
  B  B14  1  0.88296200  0.78039300  0.25625100  1
  B  B15  1  0.38296200  0.21960700  0.74374900  1
  B  B16  1  0.39641500  0.02307600  0.56392200  1
  B  B17  1  0.89641500  0.97692400  0.43607800  1
  O  O18  1  0.48295000  0.95569200  0.15708600  1
  O  O19  1  0.98295000  0.04430800  0.84291400  1
  O  O20  1  0.40136100  0.04455600  0.83761900  1
  O  O21  1  0.90136100  0.95544400  0.16238100  1
  O  O22  1  0.87656500  0.79159600  0.39345800  1
  O  O23  1  0.37656500  0.20840400  0.60654200  1
  O  O24  1  0.39797700  0.02819900  0.42748800  1
  O  O25  1  0.89797700  0.97180100  0.57251200  1
  O  O26  1  0.21723400  0.76985300  0.26984100  1
  O  O27  1  0.71723400  0.23014700  0.73015900  1
  O  O28  1  0.41007100  0.84787300  0.65448400  1
  O  O29  1  0.91007100  0.15212700  0.34551600  1
  O  O30  1  0.33293600  0.69481800  0.88313100  1
  O  O31  1  0.83293600  0.30518200  0.11686900  1
  O  O32  1  0.49736800  0.63046900  0.37573700  1
  O  O33  1  0.99736800  0.36953100  0.62426300  1
  O  O34  1  0.59981900  0.79031200  0.83605500  1
  O  O35  1  0.09981900  0.20968800  0.16394500  1
  O  O36  1  0.54508400  0.45604300  0.95718700  1
  O  O37  1  0.04508400  0.54395700  0.04281300  1
  O  O38  1  0.86616300  0.59503900  0.22263800  1
  O  O39  1  0.36616300  0.40496100  0.77736200  1
  O  O40  1  0.78149000  0.64093600  0.99067900  1
  O  O41  1  0.28149000  0.35906400  0.00932100  1
