# generated using pymatgen
data_Ba2LuBiO6
_symmetry_space_group_name_H-M   'P 1'
_cell_length_a   6.09049933
_cell_length_b   6.09049933
_cell_length_c   6.09049864
_cell_angle_alpha   60.03920328
_cell_angle_beta   60.03920328
_cell_angle_gamma   60.03920386
_symmetry_Int_Tables_number   1
_chemical_formula_structural   Ba2LuBiO6
_chemical_formula_sum   'Ba2 Lu1 Bi1 O6'
_cell_volume   159.89298268
_cell_formula_units_Z   1
loop_
 _symmetry_equiv_pos_site_id
 _symmetry_equiv_pos_as_xyz
  1  'x, y, z'
loop_
 _atom_site_type_symbol
 _atom_site_label
 _atom_site_symmetry_multiplicity
 _atom_site_fract_x
 _atom_site_fract_y
 _atom_site_fract_z
 _atom_site_occupancy
  Ba  Ba0  1  0.74923600  0.74923600  0.74923600  1
  Ba  Ba1  1  0.25076400  0.25076400  0.25076400  1
  Lu  Lu2  1  0.00000000  0.00000000  0.00000000  1
  Bi  Bi3  1  0.50000000  0.50000000  0.50000000  1
  O  O4  1  0.23553700  0.74641000  0.26985600  1
  O  O5  1  0.74641000  0.26985600  0.23553700  1
  O  O6  1  0.26985600  0.23553700  0.74641000  1
  O  O7  1  0.76446300  0.25359000  0.73014400  1
  O  O8  1  0.25359000  0.73014400  0.76446300  1
  O  O9  1  0.73014400  0.76446300  0.25359000  1
