# generated using pymatgen
data_ZnCoF6
_symmetry_space_group_name_H-M   'P 1'
_cell_length_a   5.43062893
_cell_length_b   5.43062893
_cell_length_c   5.43062926
_cell_angle_alpha   58.30649934
_cell_angle_beta   58.30649934
_cell_angle_gamma   58.30650211
_symmetry_Int_Tables_number   1
_chemical_formula_structural   ZnCoF6
_chemical_formula_sum   'Zn1 Co1 F6'
_cell_volume   108.85723444
_cell_formula_units_Z   1
loop_
 _symmetry_equiv_pos_site_id
 _symmetry_equiv_pos_as_xyz
  1  'x, y, z'
loop_
 _atom_site_type_symbol
 _atom_site_label
 _atom_site_symmetry_multiplicity
 _atom_site_fract_x
 _atom_site_fract_y
 _atom_site_fract_z
 _atom_site_occupancy
  Zn  Zn0  1  0.50000000  0.50000000  0.50000000  1
  Co  Co1  1  0.00000000  0.00000000  0.00000000  1
  F  F2  1  0.67219500  0.85081800  0.23768500  1
  F  F3  1  0.85081800  0.23768500  0.67219500  1
  F  F4  1  0.76231500  0.32780500  0.14918200  1
  F  F5  1  0.14918200  0.76231500  0.32780500  1
  F  F6  1  0.32780500  0.14918200  0.76231500  1
  F  F7  1  0.23768500  0.67219500  0.85081800  1
