# generated using pymatgen
data_Sr2Mn2SeO4
_symmetry_space_group_name_H-M   'P 1'
_cell_length_a   6.35441600
_cell_length_b   9.66541600
_cell_length_c   10.44861800
_cell_angle_alpha   90.00000000
_cell_angle_beta   90.00000000
_cell_angle_gamma   90.00000000
_symmetry_Int_Tables_number   1
_chemical_formula_structural   Sr2Mn2SeO4
_chemical_formula_sum   'Sr8 Mn8 Se4 O16'
_cell_volume   641.73399433
_cell_formula_units_Z   4
loop_
 _symmetry_equiv_pos_site_id
 _symmetry_equiv_pos_as_xyz
  1  'x, y, z'
loop_
 _atom_site_type_symbol
 _atom_site_label
 _atom_site_symmetry_multiplicity
 _atom_site_fract_x
 _atom_site_fract_y
 _atom_site_fract_z
 _atom_site_occupancy
  Sr  Sr0  1  0.23483400  0.87150300  0.45158800  1
  Sr  Sr1  1  0.26516600  0.37150300  0.04841200  1
  Sr  Sr2  1  0.76516600  0.12849700  0.95158800  1
  Sr  Sr3  1  0.73483400  0.62849700  0.54841200  1
  Sr  Sr4  1  0.76516600  0.12849700  0.54841200  1
  Sr  Sr5  1  0.73483400  0.62849700  0.95158800  1
  Sr  Sr6  1  0.23483400  0.87150300  0.04841200  1
  Sr  Sr7  1  0.26516600  0.37150300  0.45158800  1
  Mn  Mn8  1  0.72500400  0.87994100  0.25000000  1
  Mn  Mn9  1  0.77499600  0.37994100  0.25000000  1
  Mn  Mn10  1  0.27499600  0.12005900  0.75000000  1
  Mn  Mn11  1  0.22500400  0.62005900  0.75000000  1
  Mn  Mn12  1  0.53200300  0.62059700  0.25000000  1
  Mn  Mn13  1  0.96799700  0.12059700  0.25000000  1
  Mn  Mn14  1  0.46799700  0.37940300  0.75000000  1
  Mn  Mn15  1  0.03200300  0.87940300  0.75000000  1
  Se  Se16  1  0.40925300  0.11483600  0.25000000  1
  Se  Se17  1  0.09074700  0.61483600  0.25000000  1
  Se  Se18  1  0.59074700  0.88516400  0.75000000  1
  Se  Se19  1  0.90925300  0.38516400  0.75000000  1
  O  O20  1  0.60203600  0.47560300  0.37307400  1
  O  O21  1  0.89796400  0.97560300  0.12692600  1
  O  O22  1  0.39796400  0.52439700  0.87307400  1
  O  O23  1  0.10203600  0.02439700  0.62692600  1
  O  O24  1  0.39796400  0.52439700  0.62692600  1
  O  O25  1  0.10203600  0.02439700  0.87307400  1
  O  O26  1  0.60203600  0.47560300  0.12692600  1
  O  O27  1  0.89796400  0.97560300  0.37307400  1
  O  O28  1  0.57463500  0.76880600  0.37529600  1
  O  O29  1  0.92536500  0.26880600  0.12470400  1
  O  O30  1  0.42536500  0.23119400  0.87529600  1
  O  O31  1  0.07463500  0.73119400  0.62470400  1
  O  O32  1  0.42536500  0.23119400  0.62470400  1
  O  O33  1  0.07463500  0.73119400  0.87529600  1
  O  O34  1  0.57463500  0.76880600  0.12470400  1
  O  O35  1  0.92536500  0.26880600  0.37529600  1
