# generated using pymatgen
data_CsSm(MoO4)2
_symmetry_space_group_name_H-M   'P 1'
_cell_length_a   5.14131900
_cell_length_b   8.42623500
_cell_length_c   9.88702531
_cell_angle_alpha   88.24849869
_cell_angle_beta   90.00000000
_cell_angle_gamma   90.00000000
_symmetry_Int_Tables_number   1
_chemical_formula_structural   CsSm(MoO4)2
_chemical_formula_sum   'Cs2 Sm2 Mo4 O16'
_cell_volume   428.12521823
_cell_formula_units_Z   2
loop_
 _symmetry_equiv_pos_site_id
 _symmetry_equiv_pos_as_xyz
  1  'x, y, z'
loop_
 _atom_site_type_symbol
 _atom_site_label
 _atom_site_symmetry_multiplicity
 _atom_site_fract_x
 _atom_site_fract_y
 _atom_site_fract_z
 _atom_site_occupancy
  Cs  Cs0  1  0.46787100  0.75000000  0.50000000  1
  Cs  Cs1  1  0.53212900  0.25000000  0.50000000  1
  Sm  Sm2  1  0.50323500  0.75000000  0.00000000  1
  Sm  Sm3  1  0.49676500  0.25000000  0.00000000  1
  Mo  Mo4  1  0.97694900  0.49208500  0.19237300  1
  Mo  Mo5  1  0.02305100  0.50791500  0.80762700  1
  Mo  Mo6  1  0.97694900  0.00791500  0.80762700  1
  Mo  Mo7  1  0.02305100  0.99208500  0.19237300  1
  O  O8  1  0.88850700  0.98377500  0.35574500  1
  O  O9  1  0.11149300  0.01622500  0.64425500  1
  O  O10  1  0.88850700  0.51622500  0.64425500  1
  O  O11  1  0.11149300  0.48377500  0.35574500  1
  O  O12  1  0.76390200  0.32242000  0.18114800  1
  O  O13  1  0.23609800  0.67758000  0.81885200  1
  O  O14  1  0.76390200  0.17758000  0.81885200  1
  O  O15  1  0.23609800  0.82242000  0.18114800  1
  O  O16  1  0.75145900  0.99675900  0.06798300  1
  O  O17  1  0.24854100  0.00324100  0.93201700  1
  O  O18  1  0.75145900  0.50324100  0.93201700  1
  O  O19  1  0.24854100  0.49675900  0.06798300  1
  O  O20  1  0.76383800  0.66279000  0.18348600  1
  O  O21  1  0.23616200  0.33721000  0.81651400  1
  O  O22  1  0.76383800  0.83721000  0.81651400  1
  O  O23  1  0.23616200  0.16279000  0.18348600  1
