# generated using pymatgen
data_TaAsO5
_symmetry_space_group_name_H-M   'P 1'
_cell_length_a   5.57463000
_cell_length_b   11.82154200
_cell_length_c   6.95441300
_cell_angle_alpha   90.00000000
_cell_angle_beta   90.00000000
_cell_angle_gamma   90.00000000
_symmetry_Int_Tables_number   1
_chemical_formula_structural   TaAsO5
_chemical_formula_sum   'Ta4 As4 O20'
_cell_volume   458.30084251
_cell_formula_units_Z   4
loop_
 _symmetry_equiv_pos_site_id
 _symmetry_equiv_pos_as_xyz
  1  'x, y, z'
loop_
 _atom_site_type_symbol
 _atom_site_label
 _atom_site_symmetry_multiplicity
 _atom_site_fract_x
 _atom_site_fract_y
 _atom_site_fract_z
 _atom_site_occupancy
  Ta  Ta0  1  0.75000000  0.94029600  0.84019900  1
  Ta  Ta1  1  0.25000000  0.05970400  0.15980100  1
  Ta  Ta2  1  0.25000000  0.55970400  0.34019900  1
  Ta  Ta3  1  0.75000000  0.44029600  0.65980100  1
  As  As4  1  0.75000000  0.15371700  0.47064300  1
  As  As5  1  0.25000000  0.84628300  0.52935700  1
  As  As6  1  0.25000000  0.34628300  0.97064300  1
  As  As7  1  0.75000000  0.65371700  0.02935700  1
  O  O8  1  0.75000000  0.79530100  0.98294000  1
  O  O9  1  0.25000000  0.20469900  0.01706000  1
  O  O10  1  0.25000000  0.70469900  0.48294000  1
  O  O11  1  0.75000000  0.29530100  0.51706000  1
  O  O12  1  0.50272900  0.87505800  0.65531700  1
  O  O13  1  0.49727100  0.12494200  0.34468300  1
  O  O14  1  0.49727100  0.62494200  0.15531700  1
  O  O15  1  0.00272900  0.12494200  0.34468300  1
  O  O16  1  0.50272900  0.37505800  0.84468300  1
  O  O17  1  0.99727100  0.87505800  0.65531700  1
  O  O18  1  0.99727100  0.37505800  0.84468300  1
  O  O19  1  0.00272900  0.62494200  0.15531700  1
  O  O20  1  0.75000000  0.58334300  0.81539700  1
  O  O21  1  0.25000000  0.41665700  0.18460300  1
  O  O22  1  0.25000000  0.91665700  0.31539700  1
  O  O23  1  0.75000000  0.08334300  0.68460300  1
  O  O24  1  0.00000000  0.00000000  0.00000000  1
  O  O25  1  0.00000000  0.50000000  0.50000000  1
  O  O26  1  0.50000000  0.00000000  0.00000000  1
  O  O27  1  0.50000000  0.50000000  0.50000000  1
