# generated using pymatgen
data_TmMoBrO4
_symmetry_space_group_name_H-M   'P 1'
_cell_length_a   6.93463800
_cell_length_b   7.23145890
_cell_length_c   10.85649611
_cell_angle_alpha   103.51926857
_cell_angle_beta   107.72106499
_cell_angle_gamma   94.67890173
_symmetry_Int_Tables_number   1
_chemical_formula_structural   TmMoBrO4
_chemical_formula_sum   'Tm4 Mo4 Br4 O16'
_cell_volume   497.32079766
_cell_formula_units_Z   4
loop_
 _symmetry_equiv_pos_site_id
 _symmetry_equiv_pos_as_xyz
  1  'x, y, z'
loop_
 _atom_site_type_symbol
 _atom_site_label
 _atom_site_symmetry_multiplicity
 _atom_site_fract_x
 _atom_site_fract_y
 _atom_site_fract_z
 _atom_site_occupancy
  Tm  Tm0  1  0.65806300  0.10702100  0.73041300  1
  Tm  Tm1  1  0.34193700  0.89297900  0.26958700  1
  Tm  Tm2  1  0.38271500  0.66222700  0.76792500  1
  Tm  Tm3  1  0.61728500  0.33777300  0.23207500  1
  Mo  Mo4  1  0.72941700  0.81443800  0.13433000  1
  Mo  Mo5  1  0.27058300  0.18556200  0.86567000  1
  Mo  Mo6  1  0.77289900  0.58831700  0.62690200  1
  Mo  Mo7  1  0.22710100  0.41168300  0.37309800  1
  Br  Br8  1  0.26314200  0.00196200  0.52016600  1
  Br  Br9  1  0.73685800  0.99803800  0.47983400  1
  Br  Br10  1  0.19033400  0.71943700  0.98284200  1
  Br  Br11  1  0.80966600  0.28056300  0.01715800  1
  O  O12  1  0.66000600  0.73145200  0.95710600  1
  O  O13  1  0.33999400  0.26854800  0.04289400  1
  O  O14  1  0.00110600  0.88012500  0.20632000  1
  O  O15  1  0.99889400  0.11987500  0.79368000  1
  O  O16  1  0.63814500  0.63278900  0.20074400  1
  O  O17  1  0.36185500  0.36721100  0.79925600  1
  O  O18  1  0.40437500  0.98555100  0.81598100  1
  O  O19  1  0.59562500  0.01444900  0.18401900  1
  O  O20  1  0.04234300  0.65255100  0.66983500  1
  O  O21  1  0.95765700  0.34744900  0.33016500  1
  O  O22  1  0.72540700  0.39959100  0.69930600  1
  O  O23  1  0.27459300  0.60040900  0.30069400  1
  O  O24  1  0.66836300  0.50368800  0.44765300  1
  O  O25  1  0.33163700  0.49631200  0.55234700  1
  O  O26  1  0.65530900  0.78698900  0.70342500  1
  O  O27  1  0.34469100  0.21301100  0.29657500  1
