# generated using pymatgen
data_Ge3Sb2O9
_symmetry_space_group_name_H-M   'P 1'
_cell_length_a   7.19718471
_cell_length_b   7.19718471
_cell_length_c   10.05123800
_cell_angle_alpha   90.00000000
_cell_angle_beta   90.00000000
_cell_angle_gamma   120.00000653
_symmetry_Int_Tables_number   1
_chemical_formula_structural   Ge3Sb2O9
_chemical_formula_sum   'Ge6 Sb4 O18'
_cell_volume   450.89503912
_cell_formula_units_Z   2
loop_
 _symmetry_equiv_pos_site_id
 _symmetry_equiv_pos_as_xyz
  1  'x, y, z'
loop_
 _atom_site_type_symbol
 _atom_site_label
 _atom_site_symmetry_multiplicity
 _atom_site_fract_x
 _atom_site_fract_y
 _atom_site_fract_z
 _atom_site_occupancy
  Ge  Ge0  1  0.20872000  0.92188900  0.25000000  1
  Ge  Ge1  1  0.28683000  0.20872000  0.75000000  1
  Ge  Ge2  1  0.92188900  0.71317000  0.75000000  1
  Ge  Ge3  1  0.07811100  0.28683000  0.25000000  1
  Ge  Ge4  1  0.79128000  0.07811100  0.75000000  1
  Ge  Ge5  1  0.71317000  0.79128000  0.25000000  1
  Sb  Sb6  1  0.66666700  0.33333300  0.49664600  1
  Sb  Sb7  1  0.33333300  0.66666700  0.99664600  1
  Sb  Sb8  1  0.33333300  0.66666700  0.50335400  1
  Sb  Sb9  1  0.66666700  0.33333300  0.00335400  1
  O  O10  1  0.66507500  0.09574600  0.89552400  1
  O  O11  1  0.56932800  0.66507500  0.39552400  1
  O  O12  1  0.09574600  0.43067200  0.39552400  1
  O  O13  1  0.90425400  0.56932800  0.89552400  1
  O  O14  1  0.43067200  0.33492500  0.89552400  1
  O  O15  1  0.33492500  0.90425400  0.39552400  1
  O  O16  1  0.33492500  0.90425400  0.10447600  1
  O  O17  1  0.43067200  0.33492500  0.60447600  1
  O  O18  1  0.90425400  0.56932800  0.60447600  1
  O  O19  1  0.09574600  0.43067200  0.10447600  1
  O  O20  1  0.56932800  0.66507500  0.10447600  1
  O  O21  1  0.66507500  0.09574600  0.60447600  1
  O  O22  1  0.73655200  0.80755900  0.75000000  1
  O  O23  1  0.92899300  0.73655200  0.25000000  1
  O  O24  1  0.80755900  0.07100700  0.25000000  1
  O  O25  1  0.19244100  0.92899300  0.75000000  1
  O  O26  1  0.07100700  0.26344800  0.75000000  1
  O  O27  1  0.26344800  0.19244100  0.25000000  1
