# generated using pymatgen
data_ZnB4O7
_symmetry_space_group_name_H-M   'P 1'
_cell_length_a   8.29708000
_cell_length_b   8.81794900
_cell_length_c   13.89058500
_cell_angle_alpha   90.00000000
_cell_angle_beta   90.00000000
_cell_angle_gamma   90.00000000
_symmetry_Int_Tables_number   1
_chemical_formula_structural   ZnB4O7
_chemical_formula_sum   'Zn8 B32 O56'
_cell_volume   1016.28004142
_cell_formula_units_Z   8
loop_
 _symmetry_equiv_pos_site_id
 _symmetry_equiv_pos_as_xyz
  1  'x, y, z'
loop_
 _atom_site_type_symbol
 _atom_site_label
 _atom_site_symmetry_multiplicity
 _atom_site_fract_x
 _atom_site_fract_y
 _atom_site_fract_z
 _atom_site_occupancy
  Zn  Zn0  1  0.60913700  0.12643500  0.38021300  1
  Zn  Zn1  1  0.10913700  0.37356500  0.61978700  1
  Zn  Zn2  1  0.39086300  0.62643500  0.11978700  1
  Zn  Zn3  1  0.89086300  0.87356500  0.88021300  1
  Zn  Zn4  1  0.39086300  0.87356500  0.61978700  1
  Zn  Zn5  1  0.89086300  0.62643500  0.38021300  1
  Zn  Zn6  1  0.60913700  0.37356500  0.88021300  1
  Zn  Zn7  1  0.10913700  0.12643500  0.11978700  1
  B  B8  1  0.15964900  0.14461200  0.46222200  1
  B  B9  1  0.65964900  0.35538800  0.53777800  1
  B  B10  1  0.84035100  0.64461200  0.03777800  1
  B  B11  1  0.34035100  0.85538800  0.96222200  1
  B  B12  1  0.84035100  0.85538800  0.53777800  1
  B  B13  1  0.34035100  0.64461200  0.46222200  1
  B  B14  1  0.15964900  0.35538800  0.96222200  1
  B  B15  1  0.65964900  0.14461200  0.03777800  1
  B  B16  1  0.96891900  0.09025800  0.33049600  1
  B  B17  1  0.46891900  0.40974200  0.66950400  1
  B  B18  1  0.03108100  0.59025800  0.16950400  1
  B  B19  1  0.53108100  0.90974200  0.83049600  1
  B  B20  1  0.03108100  0.90974200  0.66950400  1
  B  B21  1  0.53108100  0.59025800  0.33049600  1
  B  B22  1  0.96891900  0.40974200  0.83049600  1
  B  B23  1  0.46891900  0.09025800  0.16950400  1
  B  B24  1  0.02657200  0.35676800  0.27011300  1
  B  B25  1  0.52657200  0.14323200  0.72988700  1
  B  B26  1  0.97342800  0.85676800  0.22988700  1
  B  B27  1  0.47342800  0.64323200  0.77011300  1
  B  B28  1  0.97342800  0.64323200  0.72988700  1
  B  B29  1  0.47342800  0.85676800  0.27011300  1
  B  B30  1  0.02657200  0.14323200  0.77011300  1
  B  B31  1  0.52657200  0.35676800  0.22988700  1
  B  B32  1  0.91042700  0.30277700  0.43626800  1
  B  B33  1  0.41042700  0.19722300  0.56373200  1
  B  B34  1  0.08957300  0.80277700  0.06373200  1
  B  B35  1  0.58957300  0.69722300  0.93626800  1
  B  B36  1  0.08957300  0.69722300  0.56373200  1
  B  B37  1  0.58957300  0.80277700  0.43626800  1
  B  B38  1  0.91042700  0.19722300  0.93626800  1
  B  B39  1  0.41042700  0.30277700  0.06373200  1
  O  O40  1  0.11530700  0.06215700  0.38464300  1
  O  O41  1  0.61530700  0.43784300  0.61535700  1
  O  O42  1  0.88469300  0.56215700  0.11535700  1
  O  O43  1  0.38469300  0.93784300  0.88464300  1
  O  O44  1  0.88469300  0.93784300  0.61535700  1
  O  O45  1  0.38469300  0.56215700  0.38464300  1
  O  O46  1  0.11530700  0.43784300  0.88464300  1
  O  O47  1  0.61530700  0.06215700  0.11535700  1
  O  O48  1  0.84587600  0.16765300  0.38955500  1
  O  O49  1  0.34587600  0.33234700  0.61044500  1
  O  O50  1  0.15412400  0.66765300  0.11044500  1
  O  O51  1  0.65412400  0.83234700  0.88955500  1
  O  O52  1  0.15412400  0.83234700  0.61044500  1
  O  O53  1  0.65412400  0.66765300  0.38955500  1
  O  O54  1  0.84587600  0.33234700  0.88955500  1
  O  O55  1  0.34587600  0.16765300  0.11044500  1
  O  O56  1  0.01726600  0.20287900  0.24833300  1
  O  O57  1  0.51726600  0.29712100  0.75166700  1
  O  O58  1  0.98273400  0.70287900  0.25166700  1
  O  O59  1  0.48273400  0.79712100  0.74833300  1
  O  O60  1  0.98273400  0.79712100  0.75166700  1
  O  O61  1  0.48273400  0.70287900  0.24833300  1
  O  O62  1  0.01726600  0.29712100  0.74833300  1
  O  O63  1  0.51726600  0.20287900  0.25166700  1
  O  O64  1  0.59597700  0.45180400  0.29385400  1
  O  O65  1  0.09597700  0.04819600  0.70614600  1
  O  O66  1  0.40402300  0.95180400  0.20614600  1
  O  O67  1  0.90402300  0.54819600  0.79385400  1
  O  O68  1  0.40402300  0.54819600  0.70614600  1
  O  O69  1  0.90402300  0.95180400  0.29385400  1
  O  O70  1  0.59597700  0.04819600  0.79385400  1
  O  O71  1  0.09597700  0.45180400  0.20614600  1
  O  O72  1  0.96786400  0.41063400  0.35790600  1
  O  O73  1  0.46786400  0.08936600  0.64209400  1
  O  O74  1  0.03213600  0.91063400  0.14209400  1
  O  O75  1  0.53213600  0.58936600  0.85790600  1
  O  O76  1  0.03213600  0.58936600  0.64209400  1
  O  O77  1  0.53213600  0.91063400  0.35790600  1
  O  O78  1  0.96786400  0.08936600  0.85790600  1
  O  O79  1  0.46786400  0.41063400  0.14209400  1
  O  O80  1  0.80411300  0.38656300  0.49545400  1
  O  O81  1  0.30411300  0.11343700  0.50454600  1
  O  O82  1  0.19588700  0.88656300  0.00454600  1
  O  O83  1  0.69588700  0.61343700  0.99545400  1
  O  O84  1  0.19588700  0.61343700  0.50454600  1
  O  O85  1  0.69588700  0.88656300  0.49545400  1
  O  O86  1  0.80411300  0.11343700  0.99545400  1
  O  O87  1  0.30411300  0.38656300  0.00454600  1
  O  O88  1  0.05753700  0.26051800  0.49680900  1
  O  O89  1  0.55753700  0.23948200  0.50319100  1
  O  O90  1  0.94246300  0.76051800  0.00319100  1
  O  O91  1  0.44246300  0.73948200  0.99680900  1
  O  O92  1  0.94246300  0.73948200  0.50319100  1
  O  O93  1  0.44246300  0.76051800  0.49680900  1
  O  O94  1  0.05753700  0.23948200  0.99680900  1
  O  O95  1  0.55753700  0.26051800  0.00319100  1
