# generated using pymatgen
data_Tb5S7
_symmetry_space_group_name_H-M   'P 1'
_cell_length_a   6.72896587
_cell_length_b   6.72896587
_cell_length_c   11.65590387
_cell_angle_alpha   75.92069249
_cell_angle_beta   75.92069249
_cell_angle_gamma   33.04501676
_symmetry_Int_Tables_number   1
_chemical_formula_structural   Tb5S7
_chemical_formula_sum   'Tb5 S7'
_cell_volume   278.37159424
_cell_formula_units_Z   1
loop_
 _symmetry_equiv_pos_site_id
 _symmetry_equiv_pos_as_xyz
  1  'x, y, z'
loop_
 _atom_site_type_symbol
 _atom_site_label
 _atom_site_symmetry_multiplicity
 _atom_site_fract_x
 _atom_site_fract_y
 _atom_site_fract_z
 _atom_site_occupancy
  Tb  Tb0  1  0.00000000  0.00000000  0.00000000  1
  Tb  Tb1  1  0.11240200  0.11240200  0.57852900  1
  Tb  Tb2  1  0.88759800  0.88759800  0.42147100  1
  Tb  Tb3  1  0.30121200  0.30121200  0.81158600  1
  Tb  Tb4  1  0.69878800  0.69878800  0.18841400  1
  S  S5  1  0.50000000  0.50000000  0.50000000  1
  S  S6  1  0.65984400  0.65984400  0.94875500  1
  S  S7  1  0.34015600  0.34015600  0.05124500  1
  S  S8  1  0.95903200  0.95903200  0.78501600  1
  S  S9  1  0.04096800  0.04096800  0.21498400  1
  S  S10  1  0.25893700  0.25893700  0.35181400  1
  S  S11  1  0.74106300  0.74106300  0.64818600  1
