# generated using pymatgen
data_SrCrHO2
_symmetry_space_group_name_H-M   'P 1'
_cell_length_a   5.39329906
_cell_length_b   5.39329906
_cell_length_c   5.39330709
_cell_angle_alpha   63.45372175
_cell_angle_beta   116.54627825
_cell_angle_gamma   83.90607222
_symmetry_Int_Tables_number   1
_chemical_formula_structural   SrCrHO2
_chemical_formula_sum   'Sr2 Cr2 H2 O4'
_cell_volume   116.01039744
_cell_formula_units_Z   2
loop_
 _symmetry_equiv_pos_site_id
 _symmetry_equiv_pos_as_xyz
  1  'x, y, z'
loop_
 _atom_site_type_symbol
 _atom_site_label
 _atom_site_symmetry_multiplicity
 _atom_site_fract_x
 _atom_site_fract_y
 _atom_site_fract_z
 _atom_site_occupancy
  Sr  Sr0  1  0.74999800  0.75000000  0.50000000  1
  Sr  Sr1  1  0.24999800  0.25000100  0.49999900  1
  Cr  Cr2  1  0.50001300  0.49999300  0.00001600  1
  Cr  Cr3  1  0.99999800  0.00000200  0.99998500  1
  H  H4  1  0.24999300  0.75000500  0.00000000  1
  H  H5  1  0.75000300  0.24999600  0.99999900  1
  O  O6  1  0.24999800  0.75000000  0.49999600  1
  O  O7  1  0.75000000  0.25000000  0.50000300  1
  O  O8  1  0.24999800  0.25000200  0.00000000  1
  O  O9  1  0.75000000  0.75000100  0.00000200  1
