# generated using pymatgen
data_K2As2Pt
_symmetry_space_group_name_H-M   'P 1'
_cell_length_a   7.81648365
_cell_length_b   7.81648365
_cell_length_c   6.32690700
_cell_angle_alpha   90.00000000
_cell_angle_beta   90.00000000
_cell_angle_gamma   130.50941111
_symmetry_Int_Tables_number   1
_chemical_formula_structural   K2As2Pt
_chemical_formula_sum   'K4 As4 Pt2'
_cell_volume   293.89952033
_cell_formula_units_Z   2
loop_
 _symmetry_equiv_pos_site_id
 _symmetry_equiv_pos_as_xyz
  1  'x, y, z'
loop_
 _atom_site_type_symbol
 _atom_site_label
 _atom_site_symmetry_multiplicity
 _atom_site_fract_x
 _atom_site_fract_y
 _atom_site_fract_z
 _atom_site_occupancy
  K  K0  1  0.58080600  0.41919400  0.75000000  1
  K  K1  1  0.41919400  0.58080600  0.25000000  1
  K  K2  1  0.20397600  0.79602400  0.75000000  1
  K  K3  1  0.79602400  0.20397600  0.25000000  1
  As  As4  1  0.70209500  0.92047800  0.75000000  1
  As  As5  1  0.92047800  0.70209500  0.25000000  1
  As  As6  1  0.29790500  0.07952200  0.25000000  1
  As  As7  1  0.07952200  0.29790500  0.75000000  1
  Pt  Pt8  1  0.00000000  0.00000000  0.00000000  1
  Pt  Pt9  1  0.00000000  0.00000000  0.50000000  1
