# generated using pymatgen
data_NaTmGeO4
_symmetry_space_group_name_H-M   'P 1'
_cell_length_a   5.30137200
_cell_length_b   6.42753800
_cell_length_c   11.39271700
_cell_angle_alpha   90.00000000
_cell_angle_beta   90.00000000
_cell_angle_gamma   90.00000000
_symmetry_Int_Tables_number   1
_chemical_formula_structural   NaTmGeO4
_chemical_formula_sum   'Na4 Tm4 Ge4 O16'
_cell_volume   388.20421125
_cell_formula_units_Z   4
loop_
 _symmetry_equiv_pos_site_id
 _symmetry_equiv_pos_as_xyz
  1  'x, y, z'
loop_
 _atom_site_type_symbol
 _atom_site_label
 _atom_site_symmetry_multiplicity
 _atom_site_fract_x
 _atom_site_fract_y
 _atom_site_fract_z
 _atom_site_occupancy
  Na  Na0  1  0.50000000  0.00000000  0.00000000  1
  Na  Na1  1  0.00000000  0.00000000  0.50000000  1
  Na  Na2  1  0.50000000  0.50000000  0.00000000  1
  Na  Na3  1  0.00000000  0.50000000  0.50000000  1
  Tm  Tm4  1  0.99382800  0.75000000  0.77687100  1
  Tm  Tm5  1  0.49382800  0.25000000  0.72312900  1
  Tm  Tm6  1  0.00617200  0.25000000  0.22312900  1
  Tm  Tm7  1  0.50617200  0.75000000  0.27687100  1
  Ge  Ge8  1  0.94869100  0.75000000  0.09862700  1
  Ge  Ge9  1  0.44869100  0.25000000  0.40137300  1
  Ge  Ge10  1  0.05130900  0.25000000  0.90137300  1
  Ge  Ge11  1  0.55130900  0.75000000  0.59862700  1
  O  O12  1  0.83125300  0.75000000  0.95380100  1
  O  O13  1  0.33125300  0.25000000  0.54619900  1
  O  O14  1  0.16874700  0.25000000  0.04619900  1
  O  O15  1  0.66874700  0.75000000  0.45380100  1
  O  O16  1  0.20737500  0.04074800  0.82359900  1
  O  O17  1  0.70737500  0.95925200  0.67640100  1
  O  O18  1  0.79262500  0.54074800  0.17640100  1
  O  O19  1  0.29262500  0.45925200  0.32359900  1
  O  O20  1  0.79262500  0.95925200  0.17640100  1
  O  O21  1  0.29262500  0.04074800  0.32359900  1
  O  O22  1  0.20737500  0.45925200  0.82359900  1
  O  O23  1  0.70737500  0.54074800  0.67640100  1
  O  O24  1  0.22341600  0.75000000  0.61236500  1
  O  O25  1  0.72341600  0.25000000  0.88763500  1
  O  O26  1  0.77658400  0.25000000  0.38763500  1
  O  O27  1  0.27658400  0.75000000  0.11236500  1
