# generated using pymatgen
data_Cs4(BSe)9
_symmetry_space_group_name_H-M   'P 1'
_cell_length_a   11.03133300
_cell_length_b   11.15319543
_cell_length_c   11.49253128
_cell_angle_alpha   92.83265979
_cell_angle_beta   102.96372568
_cell_angle_gamma   110.39391540
_symmetry_Int_Tables_number   1
_chemical_formula_structural   Cs4(BSe)9
_chemical_formula_sum   'Cs8 B18 Se18'
_cell_volume   1278.90661408
_cell_formula_units_Z   2
loop_
 _symmetry_equiv_pos_site_id
 _symmetry_equiv_pos_as_xyz
  1  'x, y, z'
loop_
 _atom_site_type_symbol
 _atom_site_label
 _atom_site_symmetry_multiplicity
 _atom_site_fract_x
 _atom_site_fract_y
 _atom_site_fract_z
 _atom_site_occupancy
  Cs  Cs0  1  0.64560000  0.00596100  0.37330500  1
  Cs  Cs1  1  0.35440000  0.99403900  0.62669500  1
  Cs  Cs2  1  0.61186800  0.36790900  0.13070200  1
  Cs  Cs3  1  0.38813200  0.63209100  0.86929800  1
  Cs  Cs4  1  0.75339500  0.62788700  0.47301000  1
  Cs  Cs5  1  0.24660500  0.37211300  0.52699000  1
  Cs  Cs6  1  0.82623800  0.38234700  0.74820100  1
  Cs  Cs7  1  0.17376200  0.61765300  0.25179900  1
  B  B8  1  0.12256000  0.13448700  0.08209100  1
  B  B9  1  0.87744000  0.86551300  0.91790900  1
  B  B10  1  0.11439000  0.97877400  0.11574000  1
  B  B11  1  0.88561000  0.02122600  0.88426000  1
  B  B12  1  0.15466200  0.03150800  0.98060700  1
  B  B13  1  0.84533800  0.96849200  0.01939300  1
  B  B14  1  0.05917800  0.12526200  0.92350600  1
  B  B15  1  0.94082200  0.87473800  0.07649400  1
  B  B16  1  0.95687800  0.12973700  0.02357600  1
  B  B17  1  0.04312200  0.87026300  0.97642400  1
  B  B18  1  0.99079100  0.03841000  0.14032200  1
  B  B19  1  0.00920900  0.96159000  0.85967800  1
  B  B20  1  0.34972300  0.17698400  0.29885000  1
  B  B21  1  0.65027700  0.82301600  0.70115000  1
  B  B22  1  0.32201200  0.22999700  0.85901400  1
  B  B23  1  0.67798800  0.77000300  0.14098600  1
  B  B24  1  0.92780900  0.24951900  0.25162600  1
  B  B25  1  0.07219100  0.75048100  0.74837400  1
  Se  Se26  1  0.27488300  0.28233400  0.19291900  1
  Se  Se27  1  0.72511700  0.71766600  0.80708100  1
  Se  Se28  1  0.26190300  0.98519400  0.25927200  1
  Se  Se29  1  0.73809700  0.01480600  0.74072800  1
  Se  Se30  1  0.33527300  0.08459300  0.94562800  1
  Se  Se31  1  0.66472700  0.91540700  0.05437200  1
  Se  Se32  1  0.15406000  0.26625200  0.83629200  1
  Se  Se33  1  0.84594000  0.73374800  0.16370800  1
  Se  Se34  1  0.91180300  0.27951500  0.07951900  1
  Se  Se35  1  0.08819700  0.72048500  0.92048100  1
  Se  Se36  1  0.97486700  0.10087200  0.30127500  1
  Se  Se37  1  0.02513300  0.89912800  0.69872500  1
  Se  Se38  1  0.50280200  0.25603500  0.43404800  1
  Se  Se39  1  0.49719800  0.74396500  0.56595200  1
  Se  Se40  1  0.46723600  0.33488800  0.79854500  1
  Se  Se41  1  0.53276400  0.66511200  0.20145500  1
  Se  Se42  1  0.90369600  0.36326300  0.36729100  1
  Se  Se43  1  0.09630400  0.63673700  0.63270900  1
