# generated using pymatgen
data_Tb2Al
_symmetry_space_group_name_H-M   'P 1'
_cell_length_a   5.13364700
_cell_length_b   6.57326700
_cell_length_c   9.44116000
_cell_angle_alpha   90.00000000
_cell_angle_beta   90.00000000
_cell_angle_gamma   90.00000000
_symmetry_Int_Tables_number   1
_chemical_formula_structural   Tb2Al
_chemical_formula_sum   'Tb8 Al4'
_cell_volume   318.59036200
_cell_formula_units_Z   4
loop_
 _symmetry_equiv_pos_site_id
 _symmetry_equiv_pos_as_xyz
  1  'x, y, z'
loop_
 _atom_site_type_symbol
 _atom_site_label
 _atom_site_symmetry_multiplicity
 _atom_site_fract_x
 _atom_site_fract_y
 _atom_site_fract_z
 _atom_site_occupancy
  Tb  Tb0  1  0.25000000  0.80731300  0.92802600  1
  Tb  Tb1  1  0.25000000  0.30731300  0.57197400  1
  Tb  Tb2  1  0.75000000  0.19268700  0.07197400  1
  Tb  Tb3  1  0.75000000  0.69268700  0.42802600  1
  Tb  Tb4  1  0.25000000  0.97253400  0.29073100  1
  Tb  Tb5  1  0.25000000  0.47253400  0.20926900  1
  Tb  Tb6  1  0.75000000  0.02746600  0.70926900  1
  Tb  Tb7  1  0.75000000  0.52746600  0.79073100  1
  Al  Al8  1  0.25000000  0.28736300  0.89646700  1
  Al  Al9  1  0.25000000  0.78736300  0.60353300  1
  Al  Al10  1  0.75000000  0.71263700  0.10353300  1
  Al  Al11  1  0.75000000  0.21263700  0.39646700  1
