# generated using pymatgen
data_SrIn3Au
_symmetry_space_group_name_H-M   'P 1'
_cell_length_a   7.26003660
_cell_length_b   7.26003660
_cell_length_c   7.26003660
_cell_angle_alpha   143.21271770
_cell_angle_beta   143.21271770
_cell_angle_gamma   53.00619793
_symmetry_Int_Tables_number   1
_chemical_formula_structural   SrIn3Au
_chemical_formula_sum   'Sr1 In3 Au1'
_cell_volume   136.38763285
_cell_formula_units_Z   1
loop_
 _symmetry_equiv_pos_site_id
 _symmetry_equiv_pos_as_xyz
  1  'x, y, z'
loop_
 _atom_site_type_symbol
 _atom_site_label
 _atom_site_symmetry_multiplicity
 _atom_site_fract_x
 _atom_site_fract_y
 _atom_site_fract_z
 _atom_site_occupancy
  Sr  Sr0  1  0.99868600  0.99868600  0.00000000  1
  In  In1  1  0.23123100  0.73123100  0.50000000  1
  In  In2  1  0.73123100  0.23123100  0.50000000  1
  In  In3  1  0.38539600  0.38539600  0.00000000  1
  Au  Au4  1  0.59522600  0.59522600  0.00000000  1
