# generated using pymatgen
data_Ca5Sb3
_symmetry_space_group_name_H-M   'P 1'
_cell_length_a   8.31598300
_cell_length_b   9.58859700
_cell_length_c   12.64362000
_cell_angle_alpha   90.00000000
_cell_angle_beta   90.00000000
_cell_angle_gamma   90.00000000
_symmetry_Int_Tables_number   1
_chemical_formula_structural   Ca5Sb3
_chemical_formula_sum   'Ca20 Sb12'
_cell_volume   1008.18467969
_cell_formula_units_Z   4
loop_
 _symmetry_equiv_pos_site_id
 _symmetry_equiv_pos_as_xyz
  1  'x, y, z'
loop_
 _atom_site_type_symbol
 _atom_site_label
 _atom_site_symmetry_multiplicity
 _atom_site_fract_x
 _atom_site_fract_y
 _atom_site_fract_z
 _atom_site_occupancy
  Ca  Ca0  1  0.30840200  0.95829800  0.07809500  1
  Ca  Ca1  1  0.80840200  0.04170200  0.42190500  1
  Ca  Ca2  1  0.69159800  0.45829800  0.92190500  1
  Ca  Ca3  1  0.19159800  0.54170200  0.57809500  1
  Ca  Ca4  1  0.69159800  0.04170200  0.92190500  1
  Ca  Ca5  1  0.19159800  0.95829800  0.57809500  1
  Ca  Ca6  1  0.30840200  0.54170200  0.07809500  1
  Ca  Ca7  1  0.80840200  0.45829800  0.42190500  1
  Ca  Ca8  1  0.68089300  0.75000000  0.22763500  1
  Ca  Ca9  1  0.18089300  0.25000000  0.27236500  1
  Ca  Ca10  1  0.31910700  0.25000000  0.77236500  1
  Ca  Ca11  1  0.81910700  0.75000000  0.72763500  1
  Ca  Ca12  1  0.15367300  0.75000000  0.29290300  1
  Ca  Ca13  1  0.65367300  0.25000000  0.20709700  1
  Ca  Ca14  1  0.84632700  0.25000000  0.70709700  1
  Ca  Ca15  1  0.34632700  0.75000000  0.79290300  1
  Ca  Ca16  1  0.53558200  0.75000000  0.50467500  1
  Ca  Ca17  1  0.03558200  0.25000000  0.99532500  1
  Ca  Ca18  1  0.46441800  0.25000000  0.49532500  1
  Ca  Ca19  1  0.96441800  0.75000000  0.00467500  1
  Sb  Sb20  1  0.93834900  0.01167300  0.17100500  1
  Sb  Sb21  1  0.43834900  0.98832700  0.32899500  1
  Sb  Sb22  1  0.06165100  0.51167300  0.82899500  1
  Sb  Sb23  1  0.56165100  0.48832700  0.67100500  1
  Sb  Sb24  1  0.06165100  0.98832700  0.82899500  1
  Sb  Sb25  1  0.56165100  0.01167300  0.67100500  1
  Sb  Sb26  1  0.93834900  0.48832700  0.17100500  1
  Sb  Sb27  1  0.43834900  0.51167300  0.32899500  1
  Sb  Sb28  1  0.57684500  0.75000000  0.98462300  1
  Sb  Sb29  1  0.07684500  0.25000000  0.51537700  1
  Sb  Sb30  1  0.42315500  0.25000000  0.01537700  1
  Sb  Sb31  1  0.92315500  0.75000000  0.48462300  1
