# generated using pymatgen
data_ScAlGe
_symmetry_space_group_name_H-M   'P 1'
_cell_length_a   5.31901056
_cell_length_b   5.31901056
_cell_length_c   5.54742100
_cell_angle_alpha   90.00000000
_cell_angle_beta   90.00000000
_cell_angle_gamma   136.08912813
_symmetry_Int_Tables_number   1
_chemical_formula_structural   ScAlGe
_chemical_formula_sum   'Sc2 Al2 Ge2'
_cell_volume   108.84874652
_cell_formula_units_Z   2
loop_
 _symmetry_equiv_pos_site_id
 _symmetry_equiv_pos_as_xyz
  1  'x, y, z'
loop_
 _atom_site_type_symbol
 _atom_site_label
 _atom_site_symmetry_multiplicity
 _atom_site_fract_x
 _atom_site_fract_y
 _atom_site_fract_z
 _atom_site_occupancy
  Sc  Sc0  1  0.69111300  0.30888700  0.25000000  1
  Sc  Sc1  1  0.30888700  0.69111300  0.75000000  1
  Al  Al2  1  0.00000000  0.00000000  0.50000000  1
  Al  Al3  1  0.00000000  0.00000000  0.00000000  1
  Ge  Ge4  1  0.38789700  0.61210300  0.25000000  1
  Ge  Ge5  1  0.61210300  0.38789700  0.75000000  1
