# generated using pymatgen
data_K5B(SO4)4
_symmetry_space_group_name_H-M   'P 1'
_cell_length_a   10.10268100
_cell_length_b   10.10268100
_cell_length_c   16.52966300
_cell_angle_alpha   90.00000000
_cell_angle_beta   90.00000000
_cell_angle_gamma   90.00000000
_symmetry_Int_Tables_number   1
_chemical_formula_structural   K5B(SO4)4
_chemical_formula_sum   'K20 B4 S16 O64'
_cell_volume   1687.08622518
_cell_formula_units_Z   4
loop_
 _symmetry_equiv_pos_site_id
 _symmetry_equiv_pos_as_xyz
  1  'x, y, z'
loop_
 _atom_site_type_symbol
 _atom_site_label
 _atom_site_symmetry_multiplicity
 _atom_site_fract_x
 _atom_site_fract_y
 _atom_site_fract_z
 _atom_site_occupancy
  K  K0  1  0.04659500  0.24742600  0.00427100  1
  K  K1  1  0.95340500  0.75257400  0.50427100  1
  K  K2  1  0.24742600  0.95340500  0.75427100  1
  K  K3  1  0.75257400  0.04659500  0.25427100  1
  K  K4  1  0.67477300  0.14672100  0.83299200  1
  K  K5  1  0.32522700  0.85327900  0.33299200  1
  K  K6  1  0.14672100  0.32522700  0.58299200  1
  K  K7  1  0.85327900  0.67477300  0.08299200  1
  K  K8  1  0.34604000  0.41557300  0.79973600  1
  K  K9  1  0.65396000  0.58442700  0.29973600  1
  K  K10  1  0.41557300  0.65396000  0.54973600  1
  K  K11  1  0.58442700  0.34604000  0.04973600  1
  K  K12  1  0.90489500  0.82698200  0.85419800  1
  K  K13  1  0.09510500  0.17301800  0.35419800  1
  K  K14  1  0.82698200  0.09510500  0.60419800  1
  K  K15  1  0.17301800  0.90489500  0.10419800  1
  K  K16  1  0.50461400  0.75643800  0.89868300  1
  K  K17  1  0.49538600  0.24356200  0.39868300  1
  K  K18  1  0.75643800  0.49538600  0.64868300  1
  K  K19  1  0.24356200  0.50461400  0.14868300  1
  B  B20  1  0.99338800  0.48527800  0.83052200  1
  B  B21  1  0.00661200  0.51472200  0.33052200  1
  B  B22  1  0.48527800  0.00661200  0.58052200  1
  B  B23  1  0.51472200  0.99338800  0.08052200  1
  S  S24  1  0.01403100  0.22362700  0.79025200  1
  S  S25  1  0.98596900  0.77637300  0.29025200  1
  S  S26  1  0.22362700  0.98596900  0.54025200  1
  S  S27  1  0.77637300  0.01403100  0.04025200  1
  S  S28  1  0.73019400  0.51101500  0.86552900  1
  S  S29  1  0.26980600  0.48898500  0.36552900  1
  S  S30  1  0.51101500  0.26980600  0.61552900  1
  S  S31  1  0.48898500  0.73019400  0.11552900  1
  S  S32  1  0.15706200  0.59968500  0.94699300  1
  S  S33  1  0.84293800  0.40031500  0.44699300  1
  S  S34  1  0.59968500  0.84293800  0.69699300  1
  S  S35  1  0.40031500  0.15706200  0.19699300  1
  S  S36  1  0.38076000  0.09984600  0.94584600  1
  S  S37  1  0.61924000  0.90015400  0.44584600  1
  S  S38  1  0.09984600  0.61924000  0.69584600  1
  S  S39  1  0.90015400  0.38076000  0.19584600  1
  O  O40  1  0.01094600  0.34395400  0.85350500  1
  O  O41  1  0.98905400  0.65604600  0.35350500  1
  O  O42  1  0.34395400  0.98905400  0.60350500  1
  O  O43  1  0.65604600  0.01094600  0.10350500  1
  O  O44  1  0.91517200  0.25126900  0.72722200  1
  O  O45  1  0.08482800  0.74873100  0.22722200  1
  O  O46  1  0.25126900  0.08482800  0.47722200  1
  O  O47  1  0.74873100  0.91517200  0.97722200  1
  O  O48  1  0.97866400  0.10881500  0.84070300  1
  O  O49  1  0.02133600  0.89118500  0.34070300  1
  O  O50  1  0.10881500  0.02133600  0.59070300  1
  O  O51  1  0.89118500  0.97866400  0.09070300  1
  O  O52  1  0.14951800  0.21689000  0.75845500  1
  O  O53  1  0.85048200  0.78311000  0.25845500  1
  O  O54  1  0.21689000  0.85048200  0.50845500  1
  O  O55  1  0.78311000  0.14951800  0.00845500  1
  O  O56  1  0.85550400  0.51714600  0.80580400  1
  O  O57  1  0.14449600  0.48285400  0.30580400  1
  O  O58  1  0.51714600  0.14449600  0.55580400  1
  O  O59  1  0.48285400  0.85550400  0.05580400  1
  O  O60  1  0.61812300  0.52167900  0.80922500  1
  O  O61  1  0.38187700  0.47832100  0.30922500  1
  O  O62  1  0.52167900  0.38187700  0.55922500  1
  O  O63  1  0.47832100  0.61812300  0.05922500  1
  O  O64  1  0.73436600  0.38481900  0.90923500  1
  O  O65  1  0.26563400  0.61518100  0.40923500  1
  O  O66  1  0.38481900  0.26563400  0.65923500  1
  O  O67  1  0.61518100  0.73436600  0.15923500  1
  O  O68  1  0.74098700  0.62571300  0.92009500  1
  O  O69  1  0.25901300  0.37428700  0.42009500  1
  O  O70  1  0.62571300  0.25901300  0.67009500  1
  O  O71  1  0.37428700  0.74098700  0.17009500  1
  O  O72  1  0.02050400  0.57004000  0.90145300  1
  O  O73  1  0.97949600  0.42996000  0.40145300  1
  O  O74  1  0.57004000  0.97949600  0.65145300  1
  O  O75  1  0.42996000  0.02050400  0.15145300  1
  O  O76  1  0.24672900  0.66181100  0.88844400  1
  O  O77  1  0.75327100  0.33818900  0.38844400  1
  O  O78  1  0.66181100  0.75327100  0.63844400  1
  O  O79  1  0.33818900  0.24672900  0.13844400  1
  O  O80  1  0.11211000  0.69051000  0.01108300  1
  O  O81  1  0.88789000  0.30949000  0.51108300  1
  O  O82  1  0.69051000  0.88789000  0.76108300  1
  O  O83  1  0.30949000  0.11211000  0.26108300  1
  O  O84  1  0.20712600  0.47303200  0.97760300  1
  O  O85  1  0.79287400  0.52696800  0.47760300  1
  O  O86  1  0.47303200  0.79287400  0.72760300  1
  O  O87  1  0.52696800  0.20712600  0.22760300  1
  O  O88  1  0.25260500  0.06534900  0.98167600  1
  O  O89  1  0.74739500  0.93465100  0.48167600  1
  O  O90  1  0.06534900  0.74739500  0.73167600  1
  O  O91  1  0.93465100  0.25260500  0.23167600  1
  O  O92  1  0.49299900  0.08482900  0.01254600  1
  O  O93  1  0.50700100  0.91517100  0.51254600  1
  O  O94  1  0.08482900  0.50700100  0.76254600  1
  O  O95  1  0.91517100  0.49299900  0.26254600  1
  O  O96  1  0.39527200  0.23935700  0.92304400  1
  O  O97  1  0.60472800  0.76064300  0.42304400  1
  O  O98  1  0.23935700  0.60472800  0.67304400  1
  O  O99  1  0.76064300  0.39527200  0.17304400  1
  O  O100  1  0.41866300  0.00981500  0.87963600  1
  O  O101  1  0.58133700  0.99018500  0.37963600  1
  O  O102  1  0.00981500  0.58133700  0.62963600  1
  O  O103  1  0.99018500  0.41866300  0.12963600  1
