# generated using pymatgen
data_KLa(MoO4)2
_symmetry_space_group_name_H-M   'P 1'
_cell_length_a   7.72357735
_cell_length_b   7.72357735
_cell_length_c   8.03622943
_cell_angle_alpha   61.45894243
_cell_angle_beta   61.45894243
_cell_angle_gamma   88.40441647
_symmetry_Int_Tables_number   1
_chemical_formula_structural   KLa(MoO4)2
_chemical_formula_sum   'K2 La2 Mo4 O16'
_cell_volume   357.25811643
_cell_formula_units_Z   2
loop_
 _symmetry_equiv_pos_site_id
 _symmetry_equiv_pos_as_xyz
  1  'x, y, z'
loop_
 _atom_site_type_symbol
 _atom_site_label
 _atom_site_symmetry_multiplicity
 _atom_site_fract_x
 _atom_site_fract_y
 _atom_site_fract_z
 _atom_site_occupancy
  K  K0  1  0.20046600  0.79953400  0.75000000  1
  K  K1  1  0.79953400  0.20046600  0.25000000  1
  La  La2  1  0.77057400  0.22942600  0.75000000  1
  La  La3  1  0.22942600  0.77057400  0.25000000  1
  Mo  Mo4  1  0.69064500  0.69565200  0.76094200  1
  Mo  Mo5  1  0.30935500  0.30434800  0.23905800  1
  Mo  Mo6  1  0.30434800  0.30935500  0.73905800  1
  Mo  Mo7  1  0.69565200  0.69064500  0.26094200  1
  O  O8  1  0.61441800  0.76626900  0.56537400  1
  O  O9  1  0.38558200  0.23373100  0.43462600  1
  O  O10  1  0.23373100  0.38558200  0.93462600  1
  O  O11  1  0.76626900  0.61441800  0.06537400  1
  O  O12  1  0.38361200  0.07573500  0.86653600  1
  O  O13  1  0.61638800  0.92426500  0.13346400  1
  O  O14  1  0.92426500  0.61638800  0.63346400  1
  O  O15  1  0.07573500  0.38361200  0.36653600  1
  O  O16  1  0.58062900  0.36995300  0.97598600  1
  O  O17  1  0.41937100  0.63004700  0.02401400  1
  O  O18  1  0.63004700  0.41937100  0.52401400  1
  O  O19  1  0.36995300  0.58062900  0.47598600  1
  O  O20  1  0.79314300  0.94389800  0.69121500  1
  O  O21  1  0.20685700  0.05610200  0.30878500  1
  O  O22  1  0.05610200  0.20685700  0.80878500  1
  O  O23  1  0.94389800  0.79314300  0.19121500  1
