# generated using pymatgen
data_FeBO3
_symmetry_space_group_name_H-M   'P 1'
_cell_length_a   4.67427287
_cell_length_b   4.67427081
_cell_length_c   5.59185044
_cell_angle_alpha   114.70551514
_cell_angle_beta   65.29446398
_cell_angle_gamma   119.99815478
_symmetry_Int_Tables_number   1
_chemical_formula_structural   FeBO3
_chemical_formula_sum   'Fe2 B2 O6'
_cell_volume   92.67076616
_cell_formula_units_Z   2
loop_
 _symmetry_equiv_pos_site_id
 _symmetry_equiv_pos_as_xyz
  1  'x, y, z'
loop_
 _atom_site_type_symbol
 _atom_site_label
 _atom_site_symmetry_multiplicity
 _atom_site_fract_x
 _atom_site_fract_y
 _atom_site_fract_z
 _atom_site_occupancy
  Fe  Fe0  1  0.00000100  0.00000000  0.00000000  1
  Fe  Fe1  1  0.49999900  0.50000000  0.50000000  1
  B  B2  1  0.25000200  0.75000300  0.25000100  1
  B  B3  1  0.74999800  0.24999700  0.74999800  1
  O  O4  1  0.54669000  0.74998900  0.24999900  1
  O  O5  1  0.24998900  0.04669100  0.25000600  1
  O  O6  1  0.04668800  0.54668600  0.74999700  1
  O  O7  1  0.45331000  0.25001100  0.75000200  1
  O  O8  1  0.75001200  0.95330900  0.74999400  1
  O  O9  1  0.95331200  0.45331400  0.25000200  1
