# generated using pymatgen
data_Eu2TiO4
_symmetry_space_group_name_H-M   'P 1'
_cell_length_a   6.80598365
_cell_length_b   6.80598365
_cell_length_c   6.80598365
_cell_angle_alpha   146.54460677
_cell_angle_beta   146.54460677
_cell_angle_gamma   48.03854274
_symmetry_Int_Tables_number   1
_chemical_formula_structural   Eu2TiO4
_chemical_formula_sum   'Eu2 Ti1 O4'
_cell_volume   95.42238708
_cell_formula_units_Z   1
loop_
 _symmetry_equiv_pos_site_id
 _symmetry_equiv_pos_as_xyz
  1  'x, y, z'
loop_
 _atom_site_type_symbol
 _atom_site_label
 _atom_site_symmetry_multiplicity
 _atom_site_fract_x
 _atom_site_fract_y
 _atom_site_fract_z
 _atom_site_occupancy
  Eu  Eu0  1  0.35541700  0.35541700  0.00000000  1
  Eu  Eu1  1  0.64458300  0.64458300  0.00000000  1
  Ti  Ti2  1  0.00000000  0.00000000  0.00000000  1
  O  O3  1  0.16350900  0.16350900  0.00000000  1
  O  O4  1  0.83649100  0.83649100  0.00000000  1
  O  O5  1  0.50000000  0.00000000  0.50000000  1
  O  O6  1  0.00000000  0.50000000  0.50000000  1
