# generated using pymatgen
data_Ba3Ge5
_symmetry_space_group_name_H-M   'P 1'
_cell_length_a   6.77279546
_cell_length_b   6.77279546
_cell_length_c   10.47586700
_cell_angle_alpha   90.00000000
_cell_angle_beta   90.00000000
_cell_angle_gamma   100.33647437
_symmetry_Int_Tables_number   1
_chemical_formula_structural   Ba3Ge5
_chemical_formula_sum   'Ba6 Ge10'
_cell_volume   472.73735156
_cell_formula_units_Z   2
loop_
 _symmetry_equiv_pos_site_id
 _symmetry_equiv_pos_as_xyz
  1  'x, y, z'
loop_
 _atom_site_type_symbol
 _atom_site_label
 _atom_site_symmetry_multiplicity
 _atom_site_fract_x
 _atom_site_fract_y
 _atom_site_fract_z
 _atom_site_occupancy
  Ba  Ba0  1  0.65238600  0.65238600  0.25000000  1
  Ba  Ba1  1  0.34761400  0.34761400  0.75000000  1
  Ba  Ba2  1  0.21010600  0.78989400  0.50000000  1
  Ba  Ba3  1  0.21010600  0.78989400  0.00000000  1
  Ba  Ba4  1  0.78989400  0.21010600  0.50000000  1
  Ba  Ba5  1  0.78989400  0.21010600  0.00000000  1
  Ge  Ge6  1  0.46298600  0.10443600  0.25000000  1
  Ge  Ge7  1  0.89556400  0.53701400  0.75000000  1
  Ge  Ge8  1  0.53701400  0.89556400  0.75000000  1
  Ge  Ge9  1  0.10443600  0.46298600  0.25000000  1
  Ge  Ge10  1  0.06767400  0.06767400  0.25000000  1
  Ge  Ge11  1  0.93232600  0.93232600  0.75000000  1
  Ge  Ge12  1  0.29793100  0.29793100  0.42893900  1
  Ge  Ge13  1  0.70206900  0.70206900  0.57106100  1
  Ge  Ge14  1  0.29793100  0.29793100  0.07106100  1
  Ge  Ge15  1  0.70206900  0.70206900  0.92893900  1
