# generated using pymatgen
data_RbSc5Te8
_symmetry_space_group_name_H-M   'P 1'
_cell_length_a   10.98042947
_cell_length_b   10.98042947
_cell_length_c   10.35527420
_cell_angle_alpha   75.80728786
_cell_angle_beta   75.80728786
_cell_angle_gamma   21.93493236
_symmetry_Int_Tables_number   1
_chemical_formula_structural   RbSc5Te8
_chemical_formula_sum   'Rb1 Sc5 Te8'
_cell_volume   451.61466602
_cell_formula_units_Z   1
loop_
 _symmetry_equiv_pos_site_id
 _symmetry_equiv_pos_as_xyz
  1  'x, y, z'
loop_
 _atom_site_type_symbol
 _atom_site_label
 _atom_site_symmetry_multiplicity
 _atom_site_fract_x
 _atom_site_fract_y
 _atom_site_fract_z
 _atom_site_occupancy
  Rb  Rb0  1  0.00000000  0.00000000  0.00000000  1
  Sc  Sc1  1  0.20554900  0.20554900  0.15594200  1
  Sc  Sc2  1  0.50000000  0.50000000  0.50000000  1
  Sc  Sc3  1  0.84419600  0.84419600  0.47829900  1
  Sc  Sc4  1  0.15580400  0.15580400  0.52170100  1
  Sc  Sc5  1  0.79445100  0.79445100  0.84405800  1
  Te  Te6  1  0.92493200  0.92493200  0.66535400  1
  Te  Te7  1  0.07506800  0.07506800  0.33464600  1
  Te  Te8  1  0.58451600  0.58451600  0.68395600  1
  Te  Te9  1  0.41548400  0.41548400  0.31604400  1
  Te  Te10  1  0.66471800  0.66471800  0.00331200  1
  Te  Te11  1  0.33528200  0.33528200  0.99668800  1
  Te  Te12  1  0.73822300  0.73822300  0.34167500  1
  Te  Te13  1  0.26177700  0.26177700  0.65832500  1
