# generated using pymatgen
data_RbLa2C6N6ClO6
_symmetry_space_group_name_H-M   'P 1'
_cell_length_a   6.84012610
_cell_length_b   6.84012610
_cell_length_c   14.72758700
_cell_angle_alpha   90.00000000
_cell_angle_beta   90.00000000
_cell_angle_gamma   120.00000100
_symmetry_Int_Tables_number   1
_chemical_formula_structural   RbLa2C6N6ClO6
_chemical_formula_sum   'Rb2 La4 C12 N12 Cl2 O12'
_cell_volume   596.74727010
_cell_formula_units_Z   2
loop_
 _symmetry_equiv_pos_site_id
 _symmetry_equiv_pos_as_xyz
  1  'x, y, z'
loop_
 _atom_site_type_symbol
 _atom_site_label
 _atom_site_symmetry_multiplicity
 _atom_site_fract_x
 _atom_site_fract_y
 _atom_site_fract_z
 _atom_site_occupancy
  Rb  Rb0  1  0.66666700  0.33333300  0.25000000  1
  Rb  Rb1  1  0.33333300  0.66666700  0.75000000  1
  La  La2  1  0.33333300  0.66666700  0.05215600  1
  La  La3  1  0.66666700  0.33333300  0.55215600  1
  La  La4  1  0.66666700  0.33333300  0.94784400  1
  La  La5  1  0.33333300  0.66666700  0.44784400  1
  C  C6  1  0.95539100  0.16742400  0.09698900  1
  C  C7  1  0.83257600  0.78796700  0.09698900  1
  C  C8  1  0.21203300  0.04460900  0.09698900  1
  C  C9  1  0.04460900  0.83257600  0.59698900  1
  C  C10  1  0.16742400  0.21203300  0.59698900  1
  C  C11  1  0.78796700  0.95539100  0.59698900  1
  C  C12  1  0.04460900  0.83257600  0.90301100  1
  C  C13  1  0.16742400  0.21203300  0.90301100  1
  C  C14  1  0.78796700  0.95539100  0.90301100  1
  C  C15  1  0.95539100  0.16742400  0.40301100  1
  C  C16  1  0.83257600  0.78796700  0.40301100  1
  C  C17  1  0.21203300  0.04460900  0.40301100  1
  N  N18  1  0.17530600  0.22077900  0.10057100  1
  N  N19  1  0.77922100  0.95452700  0.10057100  1
  N  N20  1  0.04547300  0.82469400  0.10057100  1
  N  N21  1  0.82469400  0.77922100  0.60057100  1
  N  N22  1  0.22077900  0.04547300  0.60057100  1
  N  N23  1  0.95452700  0.17530600  0.60057100  1
  N  N24  1  0.82469400  0.77922100  0.89942900  1
  N  N25  1  0.22077900  0.04547300  0.89942900  1
  N  N26  1  0.95452700  0.17530600  0.89942900  1
  N  N27  1  0.17530600  0.22077900  0.39942900  1
  N  N28  1  0.77922100  0.95452700  0.39942900  1
  N  N29  1  0.04547300  0.82469400  0.39942900  1
  Cl  Cl30  1  0.33333300  0.66666700  0.25000000  1
  Cl  Cl31  1  0.66666700  0.33333300  0.75000000  1
  O  O32  1  0.92202200  0.33661900  0.08309400  1
  O  O33  1  0.66338100  0.58540400  0.08309400  1
  O  O34  1  0.41459600  0.07797800  0.08309400  1
  O  O35  1  0.07797800  0.66338100  0.58309400  1
  O  O36  1  0.33661900  0.41459600  0.58309400  1
  O  O37  1  0.58540400  0.92202200  0.58309400  1
  O  O38  1  0.07797800  0.66338100  0.91690600  1
  O  O39  1  0.33661900  0.41459600  0.91690600  1
  O  O40  1  0.58540400  0.92202200  0.91690600  1
  O  O41  1  0.92202200  0.33661900  0.41690600  1
  O  O42  1  0.66338100  0.58540400  0.41690600  1
  O  O43  1  0.41459600  0.07797800  0.41690600  1
