# generated using pymatgen
data_Rb2TaF7
_symmetry_space_group_name_H-M   'P 1'
_cell_length_a   5.91075700
_cell_length_b   6.08291300
_cell_length_c   10.70501000
_cell_angle_alpha   90.00000000
_cell_angle_beta   90.00000000
_cell_angle_gamma   90.00000000
_symmetry_Int_Tables_number   1
_chemical_formula_structural   Rb2TaF7
_chemical_formula_sum   'Rb4 Ta2 F14'
_cell_volume   384.89457302
_cell_formula_units_Z   2
loop_
 _symmetry_equiv_pos_site_id
 _symmetry_equiv_pos_as_xyz
  1  'x, y, z'
loop_
 _atom_site_type_symbol
 _atom_site_label
 _atom_site_symmetry_multiplicity
 _atom_site_fract_x
 _atom_site_fract_y
 _atom_site_fract_z
 _atom_site_occupancy
  Rb  Rb0  1  0.00000000  0.50000000  0.36353500  1
  Rb  Rb1  1  0.50000000  0.00000000  0.63646500  1
  Rb  Rb2  1  0.50000000  0.50000000  0.00001600  1
  Rb  Rb3  1  0.00000000  0.00000000  0.99998400  1
  Ta  Ta4  1  0.00000000  0.50000000  0.75612300  1
  Ta  Ta5  1  0.50000000  0.00000000  0.24387700  1
  F  F6  1  0.21605800  0.26299200  0.79603100  1
  F  F7  1  0.28394200  0.23700800  0.20396900  1
  F  F8  1  0.71605800  0.76299200  0.20396900  1
  F  F9  1  0.78394200  0.73700800  0.79603100  1
  F  F10  1  0.21605800  0.73700800  0.79603100  1
  F  F11  1  0.71605800  0.23700800  0.20396900  1
  F  F12  1  0.28394200  0.76299200  0.20396900  1
  F  F13  1  0.78394200  0.26299200  0.79603100  1
  F  F14  1  0.00000000  0.50000000  0.94587800  1
  F  F15  1  0.50000000  0.00000000  0.05412200  1
  F  F16  1  0.20403800  0.50000000  0.61007400  1
  F  F17  1  0.79596200  0.50000000  0.61007400  1
  F  F18  1  0.29596200  0.00000000  0.38992600  1
  F  F19  1  0.70403800  0.00000000  0.38992600  1
