# generated using pymatgen
data_Al2Pb3F12
_symmetry_space_group_name_H-M   'P 1'
_cell_length_a   9.81227000
_cell_length_b   9.56430100
_cell_length_c   14.00874897
_cell_angle_alpha   47.95647167
_cell_angle_beta   90.00000000
_cell_angle_gamma   90.00000000
_symmetry_Int_Tables_number   1
_chemical_formula_structural   Al2Pb3F12
_chemical_formula_sum   'Al8 Pb12 F48'
_cell_volume   976.33358999
_cell_formula_units_Z   4
loop_
 _symmetry_equiv_pos_site_id
 _symmetry_equiv_pos_as_xyz
  1  'x, y, z'
loop_
 _atom_site_type_symbol
 _atom_site_label
 _atom_site_symmetry_multiplicity
 _atom_site_fract_x
 _atom_site_fract_y
 _atom_site_fract_z
 _atom_site_occupancy
  Al  Al0  1  0.36298700  0.26791100  0.42306000  1
  Al  Al1  1  0.86298700  0.73208900  0.07694000  1
  Al  Al2  1  0.63701300  0.73208900  0.57694000  1
  Al  Al3  1  0.13701300  0.26791100  0.92306000  1
  Al  Al4  1  0.65030300  0.05192600  0.62982800  1
  Al  Al5  1  0.15030300  0.94807400  0.87017200  1
  Al  Al6  1  0.34969700  0.94807400  0.37017200  1
  Al  Al7  1  0.84969700  0.05192600  0.12982800  1
  Pb  Pb8  1  0.00198600  0.71961700  0.48785800  1
  Pb  Pb9  1  0.50198600  0.28038300  0.01214200  1
  Pb  Pb10  1  0.99801400  0.28038300  0.51214200  1
  Pb  Pb11  1  0.49801400  0.71961700  0.98785800  1
  Pb  Pb12  1  0.21359500  0.76216700  0.20882000  1
  Pb  Pb13  1  0.71359500  0.23783300  0.29118000  1
  Pb  Pb14  1  0.78640500  0.23783300  0.79118000  1
  Pb  Pb15  1  0.28640500  0.76216700  0.70882000  1
  Pb  Pb16  1  0.10478000  0.34199700  0.17641000  1
  Pb  Pb17  1  0.60478000  0.65800300  0.32359000  1
  Pb  Pb18  1  0.89522000  0.65800300  0.82359000  1
  Pb  Pb19  1  0.39522000  0.34199700  0.67641000  1
  F  F20  1  0.96038000  0.22758700  0.34434600  1
  F  F21  1  0.46038000  0.77241300  0.15565400  1
  F  F22  1  0.03962000  0.77241300  0.65565400  1
  F  F23  1  0.53962000  0.22758700  0.84434600  1
  F  F24  1  0.37451700  0.55843700  0.93192800  1
  F  F25  1  0.87451700  0.44156300  0.56807200  1
  F  F26  1  0.62548300  0.44156300  0.06807200  1
  F  F27  1  0.12548300  0.55843700  0.43192800  1
  F  F28  1  0.76666800  0.83744700  0.45419100  1
  F  F29  1  0.26666800  0.16255300  0.04580900  1
  F  F30  1  0.23333200  0.16255300  0.54580900  1
  F  F31  1  0.73333200  0.83744700  0.95419100  1
  F  F32  1  0.58582000  0.56898000  0.55717600  1
  F  F33  1  0.08582000  0.43102000  0.94282400  1
  F  F34  1  0.41418000  0.43102000  0.44282400  1
  F  F35  1  0.91418000  0.56898000  0.05717600  1
  F  F36  1  0.50759400  0.64369800  0.69505600  1
  F  F37  1  0.26176300  0.43408800  0.79965700  1
  F  F38  1  0.73823700  0.56591200  0.20034300  1
  F  F39  1  0.23823700  0.43408800  0.29965700  1
  F  F40  1  0.08657100  0.15974000  0.71821800  1
  F  F41  1  0.58657100  0.84026000  0.78178200  1
  F  F42  1  0.91342900  0.84026000  0.28178200  1
  F  F43  1  0.41342900  0.15974000  0.21821800  1
  F  F44  1  0.10250600  0.80832300  0.83156300  1
  F  F45  1  0.60250600  0.19167700  0.66843700  1
  F  F46  1  0.89749400  0.19167700  0.16843700  1
  F  F47  1  0.39749400  0.80832300  0.33156300  1
  F  F48  1  0.71498600  0.25690200  0.47265300  1
  F  F49  1  0.21498600  0.74309800  0.02734700  1
  F  F50  1  0.28501400  0.74309800  0.52734700  1
  F  F51  1  0.78501400  0.25690200  0.97265300  1
  F  F52  1  0.82390200  0.00727100  0.69318400  1
  F  F53  1  0.32390200  0.99272900  0.80681600  1
  F  F54  1  0.17609800  0.99272900  0.30681600  1
  F  F55  1  0.67609800  0.00727100  0.19318400  1
  F  F56  1  0.69392200  0.90594800  0.58939500  1
  F  F57  1  0.19392200  0.09405200  0.91060500  1
  F  F58  1  0.30607800  0.09405200  0.41060500  1
  F  F59  1  0.80607800  0.90594800  0.08939500  1
  F  F60  1  0.51946600  0.91323800  0.44391900  1
  F  F61  1  0.01946600  0.08676200  0.05608100  1
  F  F62  1  0.48053400  0.08676200  0.55608100  1
  F  F63  1  0.98053400  0.91323800  0.94391900  1
  F  F64  1  0.99240600  0.64369800  0.19505600  1
  F  F65  1  0.49240600  0.35630200  0.30494400  1
  F  F66  1  0.00759400  0.35630200  0.80494400  1
  F  F67  1  0.76176300  0.56591200  0.70034300  1
