# generated using pymatgen
data_RbDy(MoO4)2
_symmetry_space_group_name_H-M   'P 1'
_cell_length_a   5.14203400
_cell_length_b   8.17782500
_cell_length_c   18.85072300
_cell_angle_alpha   90.00000000
_cell_angle_beta   90.00000000
_cell_angle_gamma   90.00000000
_symmetry_Int_Tables_number   1
_chemical_formula_structural   RbDy(MoO4)2
_chemical_formula_sum   'Rb4 Dy4 Mo8 O32'
_cell_volume   792.68523422
_cell_formula_units_Z   4
loop_
 _symmetry_equiv_pos_site_id
 _symmetry_equiv_pos_as_xyz
  1  'x, y, z'
loop_
 _atom_site_type_symbol
 _atom_site_label
 _atom_site_symmetry_multiplicity
 _atom_site_fract_x
 _atom_site_fract_y
 _atom_site_fract_z
 _atom_site_occupancy
  Rb  Rb0  1  0.00000000  0.75000000  0.76971600  1
  Rb  Rb1  1  0.00000000  0.25000000  0.23028400  1
  Rb  Rb2  1  0.50000000  0.25000000  0.73028400  1
  Rb  Rb3  1  0.50000000  0.75000000  0.26971600  1
  Dy  Dy4  1  0.00000000  0.75000000  0.00630200  1
  Dy  Dy5  1  0.00000000  0.25000000  0.99369800  1
  Dy  Dy6  1  0.50000000  0.25000000  0.49369800  1
  Dy  Dy7  1  0.50000000  0.75000000  0.50630200  1
  Mo  Mo8  1  0.02257200  0.51566600  0.40057400  1
  Mo  Mo9  1  0.97742800  0.48433400  0.59942600  1
  Mo  Mo10  1  0.47742800  0.01566600  0.09942600  1
  Mo  Mo11  1  0.97742800  0.98433400  0.40057400  1
  Mo  Mo12  1  0.52257200  0.98433400  0.90057400  1
  Mo  Mo13  1  0.02257200  0.01566600  0.59942600  1
  Mo  Mo14  1  0.52257200  0.48433400  0.09942600  1
  Mo  Mo15  1  0.47742800  0.51566600  0.90057400  1
  O  O16  1  0.09834000  0.97442700  0.31389200  1
  O  O17  1  0.90166000  0.02557300  0.68610800  1
  O  O18  1  0.40166000  0.47442700  0.18610800  1
  O  O19  1  0.90166000  0.52557300  0.31389200  1
  O  O20  1  0.59834000  0.52557300  0.81389200  1
  O  O21  1  0.09834000  0.47442700  0.68610800  1
  O  O22  1  0.59834000  0.02557300  0.18610800  1
  O  O23  1  0.40166000  0.97442700  0.81389200  1
  O  O24  1  0.26781500  0.83898800  0.09743700  1
  O  O25  1  0.73218500  0.16101200  0.90256300  1
  O  O26  1  0.23218500  0.33898800  0.40256300  1
  O  O27  1  0.73218500  0.66101200  0.09743700  1
  O  O28  1  0.76781500  0.66101200  0.59743700  1
  O  O29  1  0.26781500  0.33898800  0.90256300  1
  O  O30  1  0.76781500  0.16101200  0.40256300  1
  O  O31  1  0.23218500  0.83898800  0.59743700  1
  O  O32  1  0.24667700  0.50457300  0.03543600  1
  O  O33  1  0.75332300  0.49542700  0.96456400  1
  O  O34  1  0.25332300  0.00457300  0.46456400  1
  O  O35  1  0.75332300  0.99542700  0.03543600  1
  O  O36  1  0.74667700  0.99542700  0.53543600  1
  O  O37  1  0.24667700  0.00457300  0.96456400  1
  O  O38  1  0.74667700  0.49542700  0.46456400  1
  O  O39  1  0.25332300  0.50457300  0.53543600  1
  O  O40  1  0.24221000  0.68919200  0.41033800  1
  O  O41  1  0.75779000  0.31080800  0.58966200  1
  O  O42  1  0.25779000  0.18919200  0.08966200  1
  O  O43  1  0.75779000  0.81080800  0.41033800  1
  O  O44  1  0.74221000  0.81080800  0.91033800  1
  O  O45  1  0.24221000  0.18919200  0.58966200  1
  O  O46  1  0.74221000  0.31080800  0.08966200  1
  O  O47  1  0.25779000  0.68919200  0.91033800  1
