# generated using pymatgen
data_Lu5Bi3
_symmetry_space_group_name_H-M   'P 1'
_cell_length_a   8.08942700
_cell_length_b   9.40635800
_cell_length_c   11.77456200
_cell_angle_alpha   90.00000000
_cell_angle_beta   90.00000000
_cell_angle_gamma   90.00000000
_symmetry_Int_Tables_number   1
_chemical_formula_structural   Lu5Bi3
_chemical_formula_sum   'Lu20 Bi12'
_cell_volume   895.95051777
_cell_formula_units_Z   4
loop_
 _symmetry_equiv_pos_site_id
 _symmetry_equiv_pos_as_xyz
  1  'x, y, z'
loop_
 _atom_site_type_symbol
 _atom_site_label
 _atom_site_symmetry_multiplicity
 _atom_site_fract_x
 _atom_site_fract_y
 _atom_site_fract_z
 _atom_site_occupancy
  Lu  Lu0  1  0.02482200  0.25000000  0.50963300  1
  Lu  Lu1  1  0.97517800  0.75000000  0.49036700  1
  Lu  Lu2  1  0.47517800  0.75000000  0.00963300  1
  Lu  Lu3  1  0.52482200  0.25000000  0.99036700  1
  Lu  Lu4  1  0.35468900  0.25000000  0.28287500  1
  Lu  Lu5  1  0.64531100  0.75000000  0.71712500  1
  Lu  Lu6  1  0.14531100  0.75000000  0.78287500  1
  Lu  Lu7  1  0.85468900  0.25000000  0.21712500  1
  Lu  Lu8  1  0.18863000  0.25000000  0.78097000  1
  Lu  Lu9  1  0.81137000  0.75000000  0.21903000  1
  Lu  Lu10  1  0.31137000  0.75000000  0.28097000  1
  Lu  Lu11  1  0.68863000  0.25000000  0.71903000  1
  Lu  Lu12  1  0.19419900  0.06467700  0.05978500  1
  Lu  Lu13  1  0.80580100  0.93532300  0.94021500  1
  Lu  Lu14  1  0.30580100  0.93532300  0.55978500  1
  Lu  Lu15  1  0.80580100  0.56467700  0.94021500  1
  Lu  Lu16  1  0.69419900  0.06467700  0.44021500  1
  Lu  Lu17  1  0.19419900  0.43532300  0.05978500  1
  Lu  Lu18  1  0.69419900  0.43532300  0.44021500  1
  Lu  Lu19  1  0.30580100  0.56467700  0.55978500  1
  Bi  Bi20  1  0.40782500  0.25000000  0.54299100  1
  Bi  Bi21  1  0.59217500  0.75000000  0.45700900  1
  Bi  Bi22  1  0.09217500  0.75000000  0.04299100  1
  Bi  Bi23  1  0.90782500  0.25000000  0.95700900  1
  Bi  Bi24  1  0.06669000  0.00312600  0.32559500  1
  Bi  Bi25  1  0.93331000  0.99687400  0.67440500  1
  Bi  Bi26  1  0.43331000  0.99687400  0.82559500  1
  Bi  Bi27  1  0.93331000  0.50312600  0.67440500  1
  Bi  Bi28  1  0.56669000  0.00312600  0.17440500  1
  Bi  Bi29  1  0.06669000  0.49687400  0.32559500  1
  Bi  Bi30  1  0.56669000  0.49687400  0.17440500  1
  Bi  Bi31  1  0.43331000  0.50312600  0.82559500  1
