# generated using pymatgen
data_Tb2Te3
_symmetry_space_group_name_H-M   'P 1'
_cell_length_a   14.64892176
_cell_length_b   13.97832040
_cell_length_c   7.57594702
_cell_angle_alpha   79.60992695
_cell_angle_beta   69.81363423
_cell_angle_gamma   30.57643882
_symmetry_Int_Tables_number   1
_chemical_formula_structural   Tb2Te3
_chemical_formula_sum   'Tb8 Te12'
_cell_volume   718.17464923
_cell_formula_units_Z   4
loop_
 _symmetry_equiv_pos_site_id
 _symmetry_equiv_pos_as_xyz
  1  'x, y, z'
loop_
 _atom_site_type_symbol
 _atom_site_label
 _atom_site_symmetry_multiplicity
 _atom_site_fract_x
 _atom_site_fract_y
 _atom_site_fract_z
 _atom_site_occupancy
  Tb  Tb0  1  0.33263200  0.33263200  0.16736800  1
  Tb  Tb1  1  0.16736800  0.16736800  0.33263200  1
  Tb  Tb2  1  0.91736800  0.91736800  0.08263200  1
  Tb  Tb3  1  0.08263200  0.08263200  0.91736800  1
  Tb  Tb4  1  0.99985300  0.99985300  0.50014700  1
  Tb  Tb5  1  0.50014700  0.50014700  0.99985300  1
  Tb  Tb6  1  0.25014700  0.25014700  0.74985300  1
  Tb  Tb7  1  0.74985300  0.74985300  0.25014700  1
  Te  Te8  1  0.99916100  0.50083900  0.50083900  1
  Te  Te9  1  0.50083900  0.99916100  0.99916100  1
  Te  Te10  1  0.25083900  0.74916100  0.74916100  1
  Te  Te11  1  0.74916100  0.25083900  0.25083900  1
  Te  Te12  1  0.66579700  0.16878400  0.83417500  1
  Te  Te13  1  0.83417500  0.33124400  0.66579700  1
  Te  Te14  1  0.33124400  0.83417500  0.16878400  1
  Te  Te15  1  0.16878400  0.66579700  0.33124400  1
  Te  Te16  1  0.58420300  0.08121600  0.41582500  1
  Te  Te17  1  0.41582500  0.91875600  0.58420300  1
  Te  Te18  1  0.91875600  0.41582500  0.08121600  1
  Te  Te19  1  0.08121600  0.58420300  0.91875600  1
