# generated using pymatgen
data_Ba6Gd2Fe4O15
_symmetry_space_group_name_H-M   'P 1'
_cell_length_a   6.08349200
_cell_length_b   8.24313652
_cell_length_c   18.35600765
_cell_angle_alpha   91.20127275
_cell_angle_beta   90.00000000
_cell_angle_gamma   90.00000000
_symmetry_Int_Tables_number   1
_chemical_formula_structural   Ba6Gd2Fe4O15
_chemical_formula_sum   'Ba12 Gd4 Fe8 O30'
_cell_volume   920.29741776
_cell_formula_units_Z   2
loop_
 _symmetry_equiv_pos_site_id
 _symmetry_equiv_pos_as_xyz
  1  'x, y, z'
loop_
 _atom_site_type_symbol
 _atom_site_label
 _atom_site_symmetry_multiplicity
 _atom_site_fract_x
 _atom_site_fract_y
 _atom_site_fract_z
 _atom_site_occupancy
  Ba  Ba0  1  0.75467700  0.49725100  0.42521400  1
  Ba  Ba1  1  0.24532300  0.50274900  0.57478600  1
  Ba  Ba2  1  0.75467700  0.50274900  0.07478600  1
  Ba  Ba3  1  0.24532300  0.49725100  0.92521400  1
  Ba  Ba4  1  0.74508900  0.97325300  0.41410400  1
  Ba  Ba5  1  0.25491100  0.02674700  0.58589600  1
  Ba  Ba6  1  0.74508900  0.02674700  0.08589600  1
  Ba  Ba7  1  0.25491100  0.97325300  0.91410400  1
  Ba  Ba8  1  0.72420300  0.00000000  0.75000000  1
  Ba  Ba9  1  0.27579700  0.00000000  0.25000000  1
  Ba  Ba10  1  0.66148200  0.50000000  0.75000000  1
  Ba  Ba11  1  0.33851800  0.50000000  0.25000000  1
  Gd  Gd12  1  0.74625200  0.75212200  0.58821800  1
  Gd  Gd13  1  0.25374800  0.24787800  0.41178200  1
  Gd  Gd14  1  0.74625200  0.24787800  0.91178200  1
  Gd  Gd15  1  0.25374800  0.75212200  0.08821800  1
  Fe  Fe16  1  0.74963300  0.75275600  0.93556500  1
  Fe  Fe17  1  0.25036700  0.24724400  0.06443500  1
  Fe  Fe18  1  0.74963300  0.24724400  0.56443500  1
  Fe  Fe19  1  0.25036700  0.75275600  0.43556500  1
  Fe  Fe20  1  0.77660600  0.77030800  0.23543300  1
  Fe  Fe21  1  0.22339400  0.22969200  0.76456700  1
  Fe  Fe22  1  0.77660600  0.22969200  0.26456700  1
  Fe  Fe23  1  0.22339400  0.77030800  0.73543300  1
  O  O24  1  0.20280900  0.00000000  0.75000000  1
  O  O25  1  0.79719100  0.00000000  0.25000000  1
  O  O26  1  0.50592700  0.76436300  0.49343200  1
  O  O27  1  0.49407300  0.23563700  0.50656800  1
  O  O28  1  0.50592700  0.23563700  0.00656800  1
  O  O29  1  0.49407300  0.76436300  0.99343200  1
  O  O30  1  0.76087900  0.96224100  0.89703300  1
  O  O31  1  0.23912100  0.03775900  0.10296700  1
  O  O32  1  0.76087900  0.03775900  0.60296700  1
  O  O33  1  0.23912100  0.96224100  0.39703300  1
  O  O34  1  0.00610900  0.76593500  0.49854900  1
  O  O35  1  0.99389100  0.23406500  0.50145100  1
  O  O36  1  0.00610900  0.23406500  0.00145100  1
  O  O37  1  0.99389100  0.76593500  0.99854900  1
  O  O38  1  0.33696500  0.69335800  0.82154600  1
  O  O39  1  0.66303500  0.30664200  0.17845400  1
  O  O40  1  0.33696500  0.30664200  0.67845400  1
  O  O41  1  0.66303500  0.69335800  0.32154600  1
  O  O42  1  0.44391600  0.74411200  0.66192900  1
  O  O43  1  0.55608400  0.25588800  0.33807100  1
  O  O44  1  0.44391600  0.25588800  0.83807100  1
  O  O45  1  0.55608400  0.74411200  0.16192900  1
  O  O46  1  0.94123400  0.72336300  0.69524300  1
  O  O47  1  0.05876600  0.27663700  0.30475700  1
  O  O48  1  0.94123400  0.27663700  0.80475700  1
  O  O49  1  0.05876600  0.72336300  0.19524300  1
  O  O50  1  0.75793200  0.52740400  0.91877000  1
  O  O51  1  0.24206800  0.47259600  0.08123000  1
  O  O52  1  0.75793200  0.47259600  0.58123000  1
  O  O53  1  0.24206800  0.52740400  0.41877000  1
