# generated using pymatgen
data_Ca2Mg5Si8(HO12)2
_symmetry_space_group_name_H-M   'P 1'
_cell_length_a   10.42214455
_cell_length_b   10.42214455
_cell_length_c   5.35041726
_cell_angle_alpha   83.10901963
_cell_angle_beta   83.10901963
_cell_angle_gamma   122.47166146
_symmetry_Int_Tables_number   1
_chemical_formula_structural   Ca2Mg5Si8(HO12)2
_chemical_formula_sum   'Ca2 Mg5 Si8 H2 O24'
_cell_volume   474.82167510
_cell_formula_units_Z   1
loop_
 _symmetry_equiv_pos_site_id
 _symmetry_equiv_pos_as_xyz
  1  'x, y, z'
loop_
 _atom_site_type_symbol
 _atom_site_label
 _atom_site_symmetry_multiplicity
 _atom_site_fract_x
 _atom_site_fract_y
 _atom_site_fract_z
 _atom_site_occupancy
  Ca  Ca0  1  0.72217500  0.27782500  0.50000000  1
  Ca  Ca1  1  0.27782500  0.72217500  0.50000000  1
  Mg  Mg2  1  0.91194200  0.08805800  0.50000000  1
  Mg  Mg3  1  0.08805800  0.91194200  0.50000000  1
  Mg  Mg4  1  0.82260900  0.17739100  0.00000000  1
  Mg  Mg5  1  0.17739100  0.82260900  0.00000000  1
  Mg  Mg6  1  0.00000000  0.00000000  0.00000000  1
  Si  Si7  1  0.19289600  0.36126000  0.70584200  1
  Si  Si8  1  0.36126000  0.19289600  0.70584200  1
  Si  Si9  1  0.80710400  0.63874000  0.29415800  1
  Si  Si10  1  0.63874000  0.80710400  0.29415800  1
  Si  Si11  1  0.11638300  0.45812400  0.19765600  1
  Si  Si12  1  0.45812400  0.11638300  0.19765600  1
  Si  Si13  1  0.88361700  0.54187600  0.80234400  1
  Si  Si14  1  0.54187600  0.88361700  0.80234400  1
  H  H15  1  0.20556300  0.20556300  0.22998100  1
  H  H16  1  0.79443700  0.79443700  0.77001900  1
  O  O17  1  0.02328200  0.19703900  0.78343100  1
  O  O18  1  0.19703900  0.02328200  0.78343100  1
  O  O19  1  0.97671800  0.80296100  0.21656900  1
  O  O20  1  0.80296100  0.97671800  0.21656900  1
  O  O21  1  0.94677000  0.29109000  0.27677400  1
  O  O22  1  0.29109000  0.94677000  0.27677400  1
  O  O23  1  0.05323000  0.70891000  0.72322600  1
  O  O24  1  0.70891000  0.05323000  0.72322600  1
  O  O25  1  0.10574600  0.10574600  0.28576400  1
  O  O26  1  0.89425400  0.89425400  0.71423600  1
  O  O27  1  0.12098400  0.61412000  0.20584900  1
  O  O28  1  0.61412000  0.12098400  0.20584900  1
  O  O29  1  0.87901600  0.38588000  0.79415100  1
  O  O30  1  0.38588000  0.87901600  0.79415100  1
  O  O31  1  0.21019500  0.47598700  0.90524800  1
  O  O32  1  0.47598700  0.21019500  0.90524800  1
  O  O33  1  0.78980500  0.52401300  0.09475200  1
  O  O34  1  0.52401300  0.78980500  0.09475200  1
  O  O35  1  0.22221600  0.45984300  0.41571900  1
  O  O36  1  0.45984300  0.22221600  0.41571900  1
  O  O37  1  0.77778400  0.54015700  0.58428100  1
  O  O38  1  0.54015700  0.77778400  0.58428100  1
  O  O39  1  0.33251000  0.33251000  0.70893300  1
  O  O40  1  0.66749000  0.66749000  0.29106700  1
