# generated using pymatgen
data_Sm2SiO5
_symmetry_space_group_name_H-M   'P 1'
_cell_length_a   7.18540000
_cell_length_b   6.85176000
_cell_length_c   9.26863548
_cell_angle_alpha   72.23805067
_cell_angle_beta   90.00000000
_cell_angle_gamma   90.00000000
_symmetry_Int_Tables_number   1
_chemical_formula_structural   Sm2SiO5
_chemical_formula_sum   'Sm8 Si4 O20'
_cell_volume   434.56761878
_cell_formula_units_Z   4
loop_
 _symmetry_equiv_pos_site_id
 _symmetry_equiv_pos_as_xyz
  1  'x, y, z'
loop_
 _atom_site_type_symbol
 _atom_site_label
 _atom_site_symmetry_multiplicity
 _atom_site_fract_x
 _atom_site_fract_y
 _atom_site_fract_z
 _atom_site_occupancy
  Sm  Sm0  1  0.35294600  0.41600500  0.38588700  1
  Sm  Sm1  1  0.64705400  0.58399500  0.61411300  1
  Sm  Sm2  1  0.85294600  0.08399500  0.61411300  1
  Sm  Sm3  1  0.14705400  0.91600500  0.38588700  1
  Sm  Sm4  1  0.37576200  0.26584100  0.02524500  1
  Sm  Sm5  1  0.62423800  0.73415900  0.97475500  1
  Sm  Sm6  1  0.87576200  0.23415900  0.97475500  1
  Sm  Sm7  1  0.12423800  0.76584100  0.02524500  1
  Si  Si8  1  0.91352900  0.46034200  0.29917800  1
  Si  Si9  1  0.08647100  0.53965800  0.70082200  1
  Si  Si10  1  0.41352900  0.03965800  0.70082200  1
  Si  Si11  1  0.58647100  0.96034200  0.29917800  1
  O  O12  1  0.43114200  0.14260900  0.29544000  1
  O  O13  1  0.56885800  0.85739100  0.70456000  1
  O  O14  1  0.93114200  0.35739100  0.70456000  1
  O  O15  1  0.06885800  0.64260900  0.29544000  1
  O  O16  1  0.23382400  0.04970200  0.59509900  1
  O  O17  1  0.76617600  0.95029800  0.40490100  1
  O  O18  1  0.73382400  0.45029800  0.40490100  1
  O  O19  1  0.26617600  0.54970200  0.59509900  1
  O  O20  1  0.12177400  0.04986100  0.11586300  1
  O  O21  1  0.87822600  0.95013900  0.88413700  1
  O  O22  1  0.62177400  0.45013900  0.88413700  1
  O  O23  1  0.37822600  0.54986100  0.11586300  1
  O  O24  1  0.13585000  0.49303000  0.88342800  1
  O  O25  1  0.86415000  0.50697000  0.11657200  1
  O  O26  1  0.63585000  0.00697000  0.11657200  1
  O  O27  1  0.36415000  0.99303000  0.88342800  1
  O  O28  1  0.04090900  0.25363200  0.36779900  1
  O  O29  1  0.95909100  0.74636800  0.63220100  1
  O  O30  1  0.54090900  0.24636800  0.63220100  1
  O  O31  1  0.45909100  0.75363200  0.36779900  1
