# generated using pymatgen
data_CeGe2Pt
_symmetry_space_group_name_H-M   'P 1'
_cell_length_a   4.43395500
_cell_length_b   8.79163200
_cell_length_c   9.67347224
_cell_angle_alpha   117.02760058
_cell_angle_beta   103.24886444
_cell_angle_gamma   90.00000000
_symmetry_Int_Tables_number   1
_chemical_formula_structural   CeGe2Pt
_chemical_formula_sum   'Ce4 Ge8 Pt4'
_cell_volume   324.59816559
_cell_formula_units_Z   4
loop_
 _symmetry_equiv_pos_site_id
 _symmetry_equiv_pos_as_xyz
  1  'x, y, z'
loop_
 _atom_site_type_symbol
 _atom_site_label
 _atom_site_symmetry_multiplicity
 _atom_site_fract_x
 _atom_site_fract_y
 _atom_site_fract_z
 _atom_site_occupancy
  Ce  Ce0  1  0.00000000  0.25484800  0.00000000  1
  Ce  Ce1  1  0.00000000  0.74515200  0.00000000  1
  Ce  Ce2  1  0.79619300  0.29619300  0.59238600  1
  Ce  Ce3  1  0.20380700  0.70380700  0.40761400  1
  Ge  Ge4  1  0.42682500  0.92682500  0.85364900  1
  Ge  Ge5  1  0.57317500  0.07317500  0.14635100  1
  Ge  Ge6  1  0.42620200  0.42620200  0.85240500  1
  Ge  Ge7  1  0.57379800  0.57379800  0.14759500  1
  Ge  Ge8  1  0.19725100  0.04671500  0.39450200  1
  Ge  Ge9  1  0.80274900  0.95328500  0.60549800  1
  Ge  Ge10  1  0.19725100  0.34778700  0.39450200  1
  Ge  Ge11  1  0.80274900  0.65221300  0.60549800  1
  Pt  Pt12  1  0.35111600  0.10006800  0.70223300  1
  Pt  Pt13  1  0.64888400  0.89993200  0.29776700  1
  Pt  Pt14  1  0.35111600  0.60216500  0.70223300  1
  Pt  Pt15  1  0.64888400  0.39783500  0.29776700  1
