# generated using pymatgen
data_KV3Ge2O9
_symmetry_space_group_name_H-M   'P 1'
_cell_length_a   5.98675722
_cell_length_b   5.98641273
_cell_length_c   13.81076829
_cell_angle_alpha   90.08216018
_cell_angle_beta   89.84748930
_cell_angle_gamma   119.99942371
_symmetry_Int_Tables_number   1
_chemical_formula_structural   KV3Ge2O9
_chemical_formula_sum   'K2 V6 Ge4 O18'
_cell_volume   428.65486119
_cell_formula_units_Z   2
loop_
 _symmetry_equiv_pos_site_id
 _symmetry_equiv_pos_as_xyz
  1  'x, y, z'
loop_
 _atom_site_type_symbol
 _atom_site_label
 _atom_site_symmetry_multiplicity
 _atom_site_fract_x
 _atom_site_fract_y
 _atom_site_fract_z
 _atom_site_occupancy
  K  K0  1  0.33332000  0.66658000  0.75001000  1
  K  K1  1  0.66668500  0.33341100  0.24998500  1
  V  V2  1  0.50000200  0.49999900  0.50000200  1
  V  V3  1  0.50000100  0.00000300  0.00000100  1
  V  V4  1  0.50000200  0.50000000  0.00000100  1
  V  V5  1  0.00000000  0.50000200  0.50000100  1
  V  V6  1  0.50000200  0.00000000  0.50000000  1
  V  V7  1  0.99999400  0.49999700  0.99999900  1
  Ge  Ge8  1  0.99979900  0.99981900  0.62254300  1
  Ge  Ge9  1  0.00020000  0.00018500  0.37745800  1
  Ge  Ge10  1  0.99984800  0.00019000  0.12238000  1
  Ge  Ge11  1  0.00015200  0.99981000  0.87761800  1
  O  O12  1  0.99982800  0.99953300  0.74996200  1
  O  O13  1  0.00016700  0.00046800  0.25003500  1
  O  O14  1  0.66713900  0.33248900  0.56805600  1
  O  O15  1  0.33286400  0.66751000  0.43194600  1
  O  O16  1  0.33469400  0.66755700  0.06807400  1
  O  O17  1  0.66530200  0.33244000  0.93192400  1
  O  O18  1  0.16544100  0.83436900  0.58570400  1
  O  O19  1  0.66989100  0.83352300  0.58614300  1
  O  O20  1  0.16619300  0.33006800  0.58615600  1
  O  O21  1  0.83456400  0.16563800  0.41429900  1
  O  O22  1  0.33010900  0.16647700  0.41385900  1
  O  O23  1  0.83380700  0.66993200  0.41384600  1
  O  O24  1  0.83614300  0.16629100  0.08611700  1
  O  O25  1  0.33107700  0.16575600  0.08571800  1
  O  O26  1  0.83619300  0.66989000  0.08607900  1
  O  O27  1  0.16385200  0.83370700  0.91388100  1
  O  O28  1  0.66891900  0.83424300  0.91428000  1
  O  O29  1  0.16380800  0.33011400  0.91392100  1
