# generated using pymatgen
data_GdSnPd
_symmetry_space_group_name_H-M   'P 1'
_cell_length_a   4.63520400
_cell_length_b   7.29971200
_cell_length_c   8.06604200
_cell_angle_alpha   90.00000000
_cell_angle_beta   90.00000000
_cell_angle_gamma   90.00000000
_symmetry_Int_Tables_number   1
_chemical_formula_structural   GdSnPd
_chemical_formula_sum   'Gd4 Sn4 Pd4'
_cell_volume   272.91980837
_cell_formula_units_Z   4
loop_
 _symmetry_equiv_pos_site_id
 _symmetry_equiv_pos_as_xyz
  1  'x, y, z'
loop_
 _atom_site_type_symbol
 _atom_site_label
 _atom_site_symmetry_multiplicity
 _atom_site_fract_x
 _atom_site_fract_y
 _atom_site_fract_z
 _atom_site_occupancy
  Gd  Gd0  1  0.25000000  0.01018700  0.29940000  1
  Gd  Gd1  1  0.25000000  0.51018700  0.20060000  1
  Gd  Gd2  1  0.75000000  0.98981300  0.70060000  1
  Gd  Gd3  1  0.75000000  0.48981300  0.79940000  1
  Sn  Sn4  1  0.25000000  0.18399500  0.91753100  1
  Sn  Sn5  1  0.25000000  0.68399500  0.58246900  1
  Sn  Sn6  1  0.75000000  0.81600500  0.08246900  1
  Sn  Sn7  1  0.75000000  0.31600500  0.41753100  1
  Pd  Pd8  1  0.25000000  0.28702500  0.59158900  1
  Pd  Pd9  1  0.25000000  0.78702500  0.90841100  1
  Pd  Pd10  1  0.75000000  0.71297500  0.40841100  1
  Pd  Pd11  1  0.75000000  0.21297500  0.09158900  1
