# generated using pymatgen
data_Re2MoSe4
_symmetry_space_group_name_H-M   'P 1'
_cell_length_a   6.73369800
_cell_length_b   6.73349722
_cell_length_c   6.73587233
_cell_angle_alpha   93.39700643
_cell_angle_beta   93.61647554
_cell_angle_gamma   93.56037432
_symmetry_Int_Tables_number   1
_chemical_formula_structural   Re2MoSe4
_chemical_formula_sum   'Re4 Mo2 Se8'
_cell_volume   303.60455739
_cell_formula_units_Z   2
loop_
 _symmetry_equiv_pos_site_id
 _symmetry_equiv_pos_as_xyz
  1  'x, y, z'
loop_
 _atom_site_type_symbol
 _atom_site_label
 _atom_site_symmetry_multiplicity
 _atom_site_fract_x
 _atom_site_fract_y
 _atom_site_fract_z
 _atom_site_occupancy
  Re  Re0  1  0.54607200  0.41408800  0.23700100  1
  Re  Re1  1  0.76370000  0.45441000  0.58618700  1
  Re  Re2  1  0.58455700  0.76391500  0.45324300  1
  Re  Re3  1  0.45336000  0.58634100  0.76459600  1
  Mo  Mo4  1  0.23442800  0.54476000  0.41346800  1
  Mo  Mo5  1  0.41304500  0.23519700  0.54736700  1
  Se  Se6  1  0.37148700  0.73245200  0.12517800  1
  Se  Se7  1  0.12544500  0.37066600  0.73622300  1
  Se  Se8  1  0.73666300  0.12785500  0.36852500  1
  Se  Se9  1  0.63046400  0.27000800  0.87554100  1
  Se  Se10  1  0.86973700  0.62989900  0.26796700  1
  Se  Se11  1  0.26999400  0.87206000  0.62983100  1
  Se  Se12  1  0.21511000  0.21203400  0.20952100  1
  Se  Se13  1  0.78593800  0.78631500  0.78535400  1
