# generated using pymatgen
data_NaGa6Sb7(TeCl3)8
_symmetry_space_group_name_H-M   'P 1'
_cell_length_a   12.56873900
_cell_length_b   13.13746404
_cell_length_c   18.84484047
_cell_angle_alpha   87.77997198
_cell_angle_beta   89.94739506
_cell_angle_gamma   74.17173316
_symmetry_Int_Tables_number   1
_chemical_formula_structural   NaGa6Sb7(TeCl3)8
_chemical_formula_sum   'Na2 Ga12 Sb14 Te16 Cl48'
_cell_volume   2991.30394391
_cell_formula_units_Z   2
loop_
 _symmetry_equiv_pos_site_id
 _symmetry_equiv_pos_as_xyz
  1  'x, y, z'
loop_
 _atom_site_type_symbol
 _atom_site_label
 _atom_site_symmetry_multiplicity
 _atom_site_fract_x
 _atom_site_fract_y
 _atom_site_fract_z
 _atom_site_occupancy
  Na  Na0  1  0.83240300  0.25272200  0.21134900  1
  Na  Na1  1  0.16759700  0.74727800  0.78865100  1
  Ga  Ga2  1  0.77934500  0.99282100  0.35237300  1
  Ga  Ga3  1  0.22065500  0.00717900  0.64762700  1
  Ga  Ga4  1  0.67368600  0.13013500  0.09729800  1
  Ga  Ga5  1  0.32631400  0.86986500  0.90270200  1
  Ga  Ga6  1  0.71260500  0.54080700  0.13641600  1
  Ga  Ga7  1  0.28739500  0.45919300  0.86358400  1
  Ga  Ga8  1  0.84214900  0.39734200  0.41459300  1
  Ga  Ga9  1  0.15785100  0.60265800  0.58540700  1
  Ga  Ga10  1  0.29912500  0.30820100  0.38970400  1
  Ga  Ga11  1  0.70087500  0.69179900  0.61029600  1
  Ga  Ga12  1  0.79745900  0.82061100  0.90178800  1
  Ga  Ga13  1  0.20254100  0.17938900  0.09821200  1
  Sb  Sb14  1  0.25846300  0.74037300  0.25740900  1
  Sb  Sb15  1  0.74153700  0.25962700  0.74259100  1
  Sb  Sb16  1  0.23961900  0.68127600  0.04990900  1
  Sb  Sb17  1  0.76038100  0.31872400  0.95009100  1
  Sb  Sb18  1  0.28835900  0.80639800  0.46581200  1
  Sb  Sb19  1  0.71164100  0.19360200  0.53418800  1
  Sb  Sb20  1  0.95250300  0.80933700  0.16034900  1
  Sb  Sb21  1  0.04749700  0.19066300  0.83965100  1
  Sb  Sb22  1  0.56630300  0.70104900  0.34841900  1
  Sb  Sb23  1  0.43369700  0.29895100  0.65158100  1
  Sb  Sb24  1  0.35821000  0.00080300  0.29954100  1
  Sb  Sb25  1  0.64179000  0.99919700  0.70045900  1
  Sb  Sb26  1  0.13347300  0.49791000  0.20484500  1
  Sb  Sb27  1  0.86652700  0.50209000  0.79515500  1
  Te  Te28  1  0.03299800  0.62233200  0.07794500  1
  Te  Te29  1  0.96700200  0.37766800  0.92205500  1
  Te  Te30  1  0.38268000  0.61811000  0.38819200  1
  Te  Te31  1  0.61732000  0.38189000  0.61180800  1
  Te  Te32  1  0.16682900  0.93437000  0.34608600  1
  Te  Te33  1  0.83317100  0.06563000  0.65391400  1
  Te  Te34  1  0.15205400  0.87245300  0.12495300  1
  Te  Te35  1  0.84794600  0.12754700  0.87504700  1
  Te  Te36  1  0.03963100  0.68360200  0.28700500  1
  Te  Te37  1  0.96036900  0.31639800  0.71299500  1
  Te  Te38  1  0.34078100  0.53948400  0.16884600  1
  Te  Te39  1  0.65921900  0.46051600  0.83115400  1
  Te  Te40  1  0.47616200  0.89332200  0.42534700  1
  Te  Te41  1  0.52383800  0.10667800  0.57465300  1
  Te  Te42  1  0.46411100  0.81490300  0.22000800  1
  Te  Te43  1  0.53588900  0.18509700  0.77999200  1
  Cl  Cl44  1  0.75681700  0.83622900  0.32798200  1
  Cl  Cl45  1  0.24318300  0.16377100  0.67201800  1
  Cl  Cl46  1  0.61840500  0.10828700  0.36235900  1
  Cl  Cl47  1  0.38159500  0.89171300  0.63764100  1
  Cl  Cl48  1  0.87840800  0.98391600  0.44959400  1
  Cl  Cl49  1  0.12159200  0.01608400  0.55040600  1
  Cl  Cl50  1  0.87992500  0.03363100  0.26408100  1
  Cl  Cl51  1  0.12007500  0.96636900  0.73591900  1
  Cl  Cl52  1  0.65958700  0.97962200  0.14234300  1
  Cl  Cl53  1  0.34041300  0.02037800  0.85765700  1
  Cl  Cl54  1  0.59118700  0.17543700  0.99303100  1
  Cl  Cl55  1  0.40881300  0.82456300  0.00696900  1
  Cl  Cl56  1  0.61838900  0.26070700  0.17067400  1
  Cl  Cl57  1  0.38161100  0.73929300  0.82932600  1
  Cl  Cl58  1  0.85204600  0.12526600  0.08203800  1
  Cl  Cl59  1  0.14795400  0.87473400  0.91796200  1
  Cl  Cl60  1  0.87032500  0.41628000  0.12187900  1
  Cl  Cl61  1  0.12967500  0.58372000  0.87812100  1
  Cl  Cl62  1  0.59927300  0.54243100  0.04868000  1
  Cl  Cl63  1  0.40072700  0.45756900  0.95132000  1
  Cl  Cl64  1  0.74796000  0.69472400  0.14746900  1
  Cl  Cl65  1  0.25204000  0.30527600  0.85253100  1
  Cl  Cl66  1  0.63994200  0.50521700  0.23821000  1
  Cl  Cl67  1  0.36005800  0.49478300  0.76179000  1
  Cl  Cl68  1  0.90795400  0.29837000  0.51239700  1
  Cl  Cl69  1  0.09204600  0.70163000  0.48760300  1
  Cl  Cl70  1  0.93236400  0.31253100  0.32439500  1
  Cl  Cl71  1  0.06763600  0.68746900  0.67560500  1
  Cl  Cl72  1  0.66676800  0.39700600  0.41001500  1
  Cl  Cl73  1  0.33323200  0.60299400  0.58998500  1
  Cl  Cl74  1  0.85480100  0.55905400  0.41389100  1
  Cl  Cl75  1  0.14519900  0.44094600  0.58610900  1
  Cl  Cl76  1  0.36285900  0.29094000  0.28119000  1
  Cl  Cl77  1  0.63714100  0.70906000  0.71881000  1
  Cl  Cl78  1  0.26025200  0.16153400  0.42813600  1
  Cl  Cl79  1  0.73974800  0.83846600  0.57186400  1
  Cl  Cl80  1  0.15309000  0.44583700  0.38640200  1
  Cl  Cl81  1  0.84691000  0.55416300  0.61359800  1
  Cl  Cl82  1  0.42223700  0.33728900  0.46514600  1
  Cl  Cl83  1  0.57776300  0.66271100  0.53485400  1
  Cl  Cl84  1  0.89045600  0.82702200  0.80311500  1
  Cl  Cl85  1  0.10954400  0.17297800  0.19688500  1
  Cl  Cl86  1  0.79445800  0.65579900  0.92985300  1
  Cl  Cl87  1  0.20554200  0.34420100  0.07014700  1
  Cl  Cl88  1  0.62967500  0.92279000  0.88360900  1
  Cl  Cl89  1  0.37032500  0.07721000  0.11639100  1
  Cl  Cl90  1  0.88077400  0.87528100  0.98999800  1
  Cl  Cl91  1  0.11922600  0.12471900  0.01000200  1
