# generated using pymatgen
data_SmCu2
_symmetry_space_group_name_H-M   'P 1'
_cell_length_a   5.55031091
_cell_length_b   5.55031091
_cell_length_c   5.55031091
_cell_angle_alpha   133.69291248
_cell_angle_beta   100.96539641
_cell_angle_gamma   96.83386903
_symmetry_Int_Tables_number   1
_chemical_formula_structural   SmCu2
_chemical_formula_sum   'Sm2 Cu4'
_cell_volume   113.57071701
_cell_formula_units_Z   2
loop_
 _symmetry_equiv_pos_site_id
 _symmetry_equiv_pos_as_xyz
  1  'x, y, z'
loop_
 _atom_site_type_symbol
 _atom_site_label
 _atom_site_symmetry_multiplicity
 _atom_site_fract_x
 _atom_site_fract_y
 _atom_site_fract_z
 _atom_site_occupancy
  Sm  Sm0  1  0.21205700  0.46205700  0.75000000  1
  Sm  Sm1  1  0.78794300  0.53794300  0.25000000  1
  Cu  Cu2  1  0.38480200  0.83463700  0.55016500  1
  Cu  Cu3  1  0.61519800  0.16536300  0.44983500  1
  Cu  Cu4  1  0.21552800  0.16536300  0.05016500  1
  Cu  Cu5  1  0.78447200  0.83463700  0.94983500  1
