# generated using pymatgen
data_HfAlMo
_symmetry_space_group_name_H-M   'P 1'
_cell_length_a   5.31451643
_cell_length_b   5.31451643
_cell_length_c   8.75583500
_cell_angle_alpha   90.00000000
_cell_angle_beta   90.00000000
_cell_angle_gamma   120.42726302
_symmetry_Int_Tables_number   1
_chemical_formula_structural   HfAlMo
_chemical_formula_sum   'Hf4 Al4 Mo4'
_cell_volume   213.24053122
_cell_formula_units_Z   4
loop_
 _symmetry_equiv_pos_site_id
 _symmetry_equiv_pos_as_xyz
  1  'x, y, z'
loop_
 _atom_site_type_symbol
 _atom_site_label
 _atom_site_symmetry_multiplicity
 _atom_site_fract_x
 _atom_site_fract_y
 _atom_site_fract_z
 _atom_site_occupancy
  Hf  Hf0  1  0.33463800  0.66536200  0.18652700  1
  Hf  Hf1  1  0.67074900  0.32925100  0.31514800  1
  Hf  Hf2  1  0.67074900  0.32925100  0.68485200  1
  Hf  Hf3  1  0.33463800  0.66536200  0.81347300  1
  Al  Al4  1  0.99628800  0.00371200  0.24909300  1
  Al  Al5  1  0.99628800  0.00371200  0.75090700  1
  Al  Al6  1  0.82907100  0.65887300  0.00000000  1
  Al  Al7  1  0.34112700  0.17092900  0.00000000  1
  Mo  Mo8  1  0.83071400  0.16928600  0.00000000  1
  Mo  Mo9  1  0.17027000  0.34413900  0.50000000  1
  Mo  Mo10  1  0.65586100  0.82973000  0.50000000  1
  Mo  Mo11  1  0.16969800  0.83030200  0.50000000  1
