# generated using pymatgen
data_AgPbF6
_symmetry_space_group_name_H-M   'P 1'
_cell_length_a   5.61776511
_cell_length_b   5.57073096
_cell_length_c   5.92410746
_cell_angle_alpha   89.40011240
_cell_angle_beta   63.16066192
_cell_angle_gamma   62.08536352
_symmetry_Int_Tables_number   1
_chemical_formula_structural   AgPbF6
_chemical_formula_sum   'Ag1 Pb1 F6'
_cell_volume   141.35138460
_cell_formula_units_Z   1
loop_
 _symmetry_equiv_pos_site_id
 _symmetry_equiv_pos_as_xyz
  1  'x, y, z'
loop_
 _atom_site_type_symbol
 _atom_site_label
 _atom_site_symmetry_multiplicity
 _atom_site_fract_x
 _atom_site_fract_y
 _atom_site_fract_z
 _atom_site_occupancy
  Ag  Ag0  1  0.00000000  0.00000000  0.00000000  1
  Pb  Pb1  1  0.00000000  0.50000000  0.50000000  1
  F  F2  1  0.88882100  0.86338400  0.74441500  1
  F  F3  1  0.11117900  0.13661600  0.25558500  1
  F  F4  1  0.86964900  0.75365500  0.25224900  1
  F  F5  1  0.13035100  0.24634500  0.74775100  1
  F  F6  1  0.54081300  0.60534100  0.72627200  1
  F  F7  1  0.45918700  0.39465900  0.27372800  1
