# generated using pymatgen
data_ErPS
_symmetry_space_group_name_H-M   'P 1'
_cell_length_a   5.27429600
_cell_length_b   5.32038800
_cell_length_c   16.60012500
_cell_angle_alpha   90.00000000
_cell_angle_beta   90.00000000
_cell_angle_gamma   90.00000000
_symmetry_Int_Tables_number   1
_chemical_formula_structural   ErPS
_chemical_formula_sum   'Er8 P8 S8'
_cell_volume   465.82110670
_cell_formula_units_Z   8
loop_
 _symmetry_equiv_pos_site_id
 _symmetry_equiv_pos_as_xyz
  1  'x, y, z'
loop_
 _atom_site_type_symbol
 _atom_site_label
 _atom_site_symmetry_multiplicity
 _atom_site_fract_x
 _atom_site_fract_y
 _atom_site_fract_z
 _atom_site_occupancy
  Er  Er0  1  0.25000000  0.48400200  0.36253000  1
  Er  Er1  1  0.25000000  0.98400200  0.13747000  1
  Er  Er2  1  0.75000000  0.51599800  0.63747000  1
  Er  Er3  1  0.75000000  0.01599800  0.86253000  1
  Er  Er4  1  0.25000000  0.01514700  0.64630100  1
  Er  Er5  1  0.25000000  0.51514700  0.85369900  1
  Er  Er6  1  0.75000000  0.98485300  0.35369900  1
  Er  Er7  1  0.75000000  0.48485300  0.14630100  1
  P  P8  1  0.03403200  0.29256900  0.99725500  1
  P  P9  1  0.46596800  0.79256900  0.50274500  1
  P  P10  1  0.53403200  0.70743100  0.00274500  1
  P  P11  1  0.96596800  0.20743100  0.49725500  1
  P  P12  1  0.96596800  0.70743100  0.00274500  1
  P  P13  1  0.53403200  0.20743100  0.49725500  1
  P  P14  1  0.46596800  0.29256900  0.99725500  1
  P  P15  1  0.03403200  0.79256900  0.50274500  1
  S  S16  1  0.25000000  0.48471100  0.18926200  1
  S  S17  1  0.25000000  0.98471100  0.31073800  1
  S  S18  1  0.75000000  0.51528900  0.81073800  1
  S  S19  1  0.75000000  0.01528900  0.68926200  1
  S  S20  1  0.25000000  0.01158800  0.81627900  1
  S  S21  1  0.25000000  0.51158800  0.68372100  1
  S  S22  1  0.75000000  0.98841200  0.18372100  1
  S  S23  1  0.75000000  0.48841200  0.31627900  1
