# generated using pymatgen
data_NaAs3(PbO3)4
_symmetry_space_group_name_H-M   'P 1'
_cell_length_a   10.22697375
_cell_length_b   10.22697375
_cell_length_c   7.44354900
_cell_angle_alpha   90.00000000
_cell_angle_beta   90.00000000
_cell_angle_gamma   119.99999839
_symmetry_Int_Tables_number   1
_chemical_formula_structural   NaAs3(PbO3)4
_chemical_formula_sum   'Na2 As6 Pb8 O24'
_cell_volume   674.22518776
_cell_formula_units_Z   2
loop_
 _symmetry_equiv_pos_site_id
 _symmetry_equiv_pos_as_xyz
  1  'x, y, z'
loop_
 _atom_site_type_symbol
 _atom_site_label
 _atom_site_symmetry_multiplicity
 _atom_site_fract_x
 _atom_site_fract_y
 _atom_site_fract_z
 _atom_site_occupancy
  Na  Na0  1  0.66666700  0.33333300  0.50771700  1
  Na  Na1  1  0.33333300  0.66666700  0.00771700  1
  As  As2  1  0.98342600  0.37726900  0.25219900  1
  As  As3  1  0.39384300  0.01657400  0.25219900  1
  As  As4  1  0.62273100  0.60615700  0.25219900  1
  As  As5  1  0.01657400  0.62273100  0.75219900  1
  As  As6  1  0.60615700  0.98342600  0.75219900  1
  As  As7  1  0.37726900  0.39384300  0.75219900  1
  Pb  Pb8  1  0.74232100  0.74404000  0.74867900  1
  Pb  Pb9  1  0.00171800  0.25767900  0.74867900  1
  Pb  Pb10  1  0.25596000  0.99828200  0.74867900  1
  Pb  Pb11  1  0.25767900  0.25596000  0.24867900  1
  Pb  Pb12  1  0.99828200  0.74232100  0.24867900  1
  Pb  Pb13  1  0.74404000  0.00171800  0.24867900  1
  Pb  Pb14  1  0.33333300  0.66666700  0.48614300  1
  Pb  Pb15  1  0.66666700  0.33333300  0.98614300  1
  O  O16  1  0.66013000  0.91538100  0.93214800  1
  O  O17  1  0.25525100  0.33987000  0.93214800  1
  O  O18  1  0.08461900  0.74474900  0.93214800  1
  O  O19  1  0.33987000  0.08461900  0.43214800  1
  O  O20  1  0.74474900  0.66013000  0.43214800  1
  O  O21  1  0.91538100  0.25525100  0.43214800  1
  O  O22  1  0.34669700  0.08730900  0.06807000  1
  O  O23  1  0.74061300  0.65330300  0.06807000  1
  O  O24  1  0.91269100  0.25938700  0.06807000  1
  O  O25  1  0.65330300  0.91269100  0.56807000  1
  O  O26  1  0.25938700  0.34669700  0.56807000  1
  O  O27  1  0.08730900  0.74061300  0.56807000  1
  O  O28  1  0.89683600  0.48658500  0.25243300  1
  O  O29  1  0.58974900  0.10316400  0.25243300  1
  O  O30  1  0.51341500  0.41025100  0.25243300  1
  O  O31  1  0.10316400  0.51341500  0.75243300  1
  O  O32  1  0.41025100  0.89683600  0.75243300  1
  O  O33  1  0.48658500  0.58974900  0.75243300  1
  O  O34  1  0.30815100  0.82260800  0.24851800  1
  O  O35  1  0.51445700  0.69184900  0.24851800  1
  O  O36  1  0.17739200  0.48554300  0.24851800  1
  O  O37  1  0.69184900  0.17739200  0.74851800  1
  O  O38  1  0.48554300  0.30815100  0.74851800  1
  O  O39  1  0.82260800  0.51445700  0.74851800  1
