# generated using pymatgen
data_SrF3
_symmetry_space_group_name_H-M   'P 1'
_cell_length_a   4.12054500
_cell_length_b   4.45722500
_cell_length_c   6.57303818
_cell_angle_alpha   80.57471018
_cell_angle_beta   90.00000000
_cell_angle_gamma   90.00000000
_symmetry_Int_Tables_number   1
_chemical_formula_structural   SrF3
_chemical_formula_sum   'Sr2 F6'
_cell_volume   119.09196267
_cell_formula_units_Z   2
loop_
 _symmetry_equiv_pos_site_id
 _symmetry_equiv_pos_as_xyz
  1  'x, y, z'
loop_
 _atom_site_type_symbol
 _atom_site_label
 _atom_site_symmetry_multiplicity
 _atom_site_fract_x
 _atom_site_fract_y
 _atom_site_fract_z
 _atom_site_occupancy
  Sr  Sr0  1  0.75000000  0.79272500  0.29153600  1
  Sr  Sr1  1  0.25000000  0.20727500  0.70846400  1
  F  F2  1  0.75000000  0.24895300  0.46960400  1
  F  F3  1  0.25000000  0.75104700  0.53039600  1
  F  F4  1  0.75000000  0.89355300  0.88930800  1
  F  F5  1  0.25000000  0.10644700  0.11069200  1
  F  F6  1  0.75000000  0.46724500  0.83476300  1
  F  F7  1  0.25000000  0.53275500  0.16523700  1
