# generated using pymatgen
data_Rb(IrO2)6
_symmetry_space_group_name_H-M   'P 1'
_cell_length_a   8.68391789
_cell_length_b   8.68391789
_cell_length_c   8.68391789
_cell_angle_alpha   107.70573448
_cell_angle_beta   107.70573448
_cell_angle_gamma   113.06300908
_symmetry_Int_Tables_number   1
_chemical_formula_structural   Rb(IrO2)6
_chemical_formula_sum   'Rb2 Ir12 O24'
_cell_volume   502.61416392
_cell_formula_units_Z   2
loop_
 _symmetry_equiv_pos_site_id
 _symmetry_equiv_pos_as_xyz
  1  'x, y, z'
loop_
 _atom_site_type_symbol
 _atom_site_label
 _atom_site_symmetry_multiplicity
 _atom_site_fract_x
 _atom_site_fract_y
 _atom_site_fract_z
 _atom_site_occupancy
  Rb  Rb0  1  0.77653100  0.77653100  0.00000000  1
  Rb  Rb1  1  0.22346900  0.22346900  0.00000000  1
  Ir  Ir2  1  0.31513500  0.83081200  0.81318700  1
  Ir  Ir3  1  0.64852300  0.16441700  0.81294000  1
  Ir  Ir4  1  0.98237400  0.49805100  0.81318700  1
  Ir  Ir5  1  0.01762600  0.50194900  0.18681300  1
  Ir  Ir6  1  0.35147700  0.83558300  0.18706000  1
  Ir  Ir7  1  0.68486500  0.16918800  0.18681300  1
  Ir  Ir8  1  0.83558300  0.64852300  0.48410700  1
  Ir  Ir9  1  0.16918800  0.98237400  0.48432300  1
  Ir  Ir10  1  0.50194900  0.31513500  0.48432300  1
  Ir  Ir11  1  0.49805100  0.68486500  0.51567700  1
  Ir  Ir12  1  0.83081200  0.01762600  0.51567700  1
  Ir  Ir13  1  0.16441700  0.35147700  0.51589300  1
  O  O14  1  0.78847900  0.49099600  0.61317900  1
  O  O15  1  0.12218300  0.82470000  0.61317900  1
  O  O16  1  0.45524400  0.15620500  0.61144900  1
  O  O17  1  0.87781700  0.17530000  0.38682100  1
  O  O18  1  0.21152100  0.50900400  0.38682100  1
  O  O19  1  0.54475600  0.84379500  0.38855100  1
  O  O20  1  0.50900400  0.12218300  0.29748400  1
  O  O21  1  0.84379500  0.45524400  0.29903800  1
  O  O22  1  0.17530000  0.78847900  0.29748400  1
  O  O23  1  0.15620500  0.54475600  0.70096200  1
  O  O24  1  0.49099600  0.87781700  0.70251600  1
  O  O25  1  0.82470000  0.21152100  0.70251600  1
  O  O26  1  0.51048700  0.87397200  0.05163500  1
  O  O27  1  0.84454700  0.20616800  0.05071400  1
  O  O28  1  0.17766400  0.54114900  0.05163500  1
  O  O29  1  0.15545300  0.79383200  0.94928600  1
  O  O30  1  0.48951300  0.12602800  0.94836500  1
  O  O31  1  0.82233600  0.45885100  0.94836500  1
  O  O32  1  0.12602800  0.17766400  0.63651500  1
  O  O33  1  0.45885100  0.51048700  0.63651500  1
  O  O34  1  0.79383200  0.84454700  0.63837900  1
  O  O35  1  0.54114900  0.48951300  0.36348500  1
  O  O36  1  0.87397200  0.82233600  0.36348500  1
  O  O37  1  0.20616800  0.15545300  0.36162100  1
