# generated using pymatgen
data_Tb5(Ge5Rh2)2
_symmetry_space_group_name_H-M   'P 1'
_cell_length_a   13.09832900
_cell_length_b   13.09832900
_cell_length_c   4.32536500
_cell_angle_alpha   90.00000000
_cell_angle_beta   90.00000000
_cell_angle_gamma   90.00000000
_symmetry_Int_Tables_number   1
_chemical_formula_structural   Tb5(Ge5Rh2)2
_chemical_formula_sum   'Tb10 Ge20 Rh8'
_cell_volume   742.08653438
_cell_formula_units_Z   2
loop_
 _symmetry_equiv_pos_site_id
 _symmetry_equiv_pos_as_xyz
  1  'x, y, z'
loop_
 _atom_site_type_symbol
 _atom_site_label
 _atom_site_symmetry_multiplicity
 _atom_site_fract_x
 _atom_site_fract_y
 _atom_site_fract_z
 _atom_site_occupancy
  Tb  Tb0  1  0.50000000  0.50000000  0.00000000  1
  Tb  Tb1  1  0.00000000  0.00000000  0.00000000  1
  Tb  Tb2  1  0.67577200  0.17577200  0.50000000  1
  Tb  Tb3  1  0.32422800  0.82422800  0.50000000  1
  Tb  Tb4  1  0.17577200  0.32422800  0.50000000  1
  Tb  Tb5  1  0.82422800  0.67577200  0.50000000  1
  Tb  Tb6  1  0.88648900  0.38648900  0.50000000  1
  Tb  Tb7  1  0.11351100  0.61351100  0.50000000  1
  Tb  Tb8  1  0.38648900  0.11351100  0.50000000  1
  Tb  Tb9  1  0.61351100  0.88648900  0.50000000  1
  Ge  Ge10  1  0.56631400  0.06631400  0.00000000  1
  Ge  Ge11  1  0.43368600  0.93368600  0.00000000  1
  Ge  Ge12  1  0.06631400  0.43368600  0.00000000  1
  Ge  Ge13  1  0.93368600  0.56631400  0.00000000  1
  Ge  Ge14  1  0.66094000  0.70012000  0.00000000  1
  Ge  Ge15  1  0.33906000  0.29988000  0.00000000  1
  Ge  Ge16  1  0.16094000  0.79988000  0.00000000  1
  Ge  Ge17  1  0.83906000  0.20012000  0.00000000  1
  Ge  Ge18  1  0.29988000  0.66094000  0.00000000  1
  Ge  Ge19  1  0.70012000  0.33906000  0.00000000  1
  Ge  Ge20  1  0.20012000  0.16094000  0.00000000  1
  Ge  Ge21  1  0.79988000  0.83906000  0.00000000  1
  Ge  Ge22  1  0.65980400  0.50289200  0.50000000  1
  Ge  Ge23  1  0.34019600  0.49710800  0.50000000  1
  Ge  Ge24  1  0.15980400  0.99710800  0.50000000  1
  Ge  Ge25  1  0.84019600  0.00289200  0.50000000  1
  Ge  Ge26  1  0.49710800  0.65980400  0.50000000  1
  Ge  Ge27  1  0.50289200  0.34019600  0.50000000  1
  Ge  Ge28  1  0.00289200  0.15980400  0.50000000  1
  Ge  Ge29  1  0.99710800  0.84019600  0.50000000  1
  Rh  Rh30  1  0.74566800  0.52205100  0.00000000  1
  Rh  Rh31  1  0.25433200  0.47794900  0.00000000  1
  Rh  Rh32  1  0.24566800  0.97794900  0.00000000  1
  Rh  Rh33  1  0.75433200  0.02205100  0.00000000  1
  Rh  Rh34  1  0.47794900  0.74566800  0.00000000  1
  Rh  Rh35  1  0.52205100  0.25433200  0.00000000  1
  Rh  Rh36  1  0.02205100  0.24566800  0.00000000  1
  Rh  Rh37  1  0.97794900  0.75433200  0.00000000  1
