# generated using pymatgen
data_LaTb2RuO7
_symmetry_space_group_name_H-M   'P 1'
_cell_length_a   6.49804798
_cell_length_b   6.49804798
_cell_length_c   7.55765400
_cell_angle_alpha   90.00000000
_cell_angle_beta   90.00000000
_cell_angle_gamma   110.24762694
_symmetry_Int_Tables_number   1
_chemical_formula_structural   LaTb2RuO7
_chemical_formula_sum   'La2 Tb4 Ru2 O14'
_cell_volume   299.39937319
_cell_formula_units_Z   2
loop_
 _symmetry_equiv_pos_site_id
 _symmetry_equiv_pos_as_xyz
  1  'x, y, z'
loop_
 _atom_site_type_symbol
 _atom_site_label
 _atom_site_symmetry_multiplicity
 _atom_site_fract_x
 _atom_site_fract_y
 _atom_site_fract_z
 _atom_site_occupancy
  La  La0  1  0.00000000  0.00000000  0.50000000  1
  La  La1  1  0.00000000  0.00000000  0.00000000  1
  Tb  Tb2  1  0.52129900  0.07382100  0.25000000  1
  Tb  Tb3  1  0.92617900  0.47870100  0.75000000  1
  Tb  Tb4  1  0.47870100  0.92617900  0.75000000  1
  Tb  Tb5  1  0.07382100  0.52129900  0.25000000  1
  Ru  Ru6  1  0.50000000  0.50000000  0.50000000  1
  Ru  Ru7  1  0.50000000  0.50000000  0.00000000  1
  O  O8  1  0.44379800  0.18406000  0.53642900  1
  O  O9  1  0.81594000  0.55620200  0.46357100  1
  O  O10  1  0.44379800  0.18406000  0.96357100  1
  O  O11  1  0.81594000  0.55620200  0.03642900  1
  O  O12  1  0.55620200  0.81594000  0.46357100  1
  O  O13  1  0.18406000  0.44379800  0.53642900  1
  O  O14  1  0.55620200  0.81594000  0.03642900  1
  O  O15  1  0.18406000  0.44379800  0.96357100  1
  O  O16  1  0.16365500  0.88553400  0.25000000  1
  O  O17  1  0.11446600  0.83634500  0.75000000  1
  O  O18  1  0.83634500  0.11446600  0.75000000  1
  O  O19  1  0.88553400  0.16365500  0.25000000  1
  O  O20  1  0.41564000  0.41564000  0.25000000  1
  O  O21  1  0.58436000  0.58436000  0.75000000  1
