# generated using pymatgen
data_LiZrS2
_symmetry_space_group_name_H-M   'P 1'
_cell_length_a   6.90213646
_cell_length_b   6.90213646
_cell_length_c   6.90213653
_cell_angle_alpha   30.20413015
_cell_angle_beta   30.20413015
_cell_angle_gamma   30.20413278
_symmetry_Int_Tables_number   1
_chemical_formula_structural   LiZrS2
_chemical_formula_sum   'Li1 Zr1 S2'
_cell_volume   73.73731305
_cell_formula_units_Z   1
loop_
 _symmetry_equiv_pos_site_id
 _symmetry_equiv_pos_as_xyz
  1  'x, y, z'
loop_
 _atom_site_type_symbol
 _atom_site_label
 _atom_site_symmetry_multiplicity
 _atom_site_fract_x
 _atom_site_fract_y
 _atom_site_fract_z
 _atom_site_occupancy
  Li  Li0  1  0.16988300  0.16988300  0.16988300  1
  Zr  Zr1  1  0.99717100  0.99717100  0.99717100  1
  S  S2  1  0.41056800  0.41056800  0.41056800  1
  S  S3  1  0.58237900  0.58237900  0.58237900  1
