# generated using pymatgen
data_Ce3(SiRh)4
_symmetry_space_group_name_H-M   'P 1'
_cell_length_a   4.00605200
_cell_length_b   4.16835700
_cell_length_c   12.64948032
_cell_angle_alpha   80.51647486
_cell_angle_beta   80.88895083
_cell_angle_gamma   90.00000000
_symmetry_Int_Tables_number   1
_chemical_formula_structural   Ce3(SiRh)4
_chemical_formula_sum   'Ce3 Si4 Rh4'
_cell_volume   205.64001087
_cell_formula_units_Z   1
loop_
 _symmetry_equiv_pos_site_id
 _symmetry_equiv_pos_as_xyz
  1  'x, y, z'
loop_
 _atom_site_type_symbol
 _atom_site_label
 _atom_site_symmetry_multiplicity
 _atom_site_fract_x
 _atom_site_fract_y
 _atom_site_fract_z
 _atom_site_occupancy
  Ce  Ce0  1  0.00000000  0.00000000  0.00000000  1
  Ce  Ce1  1  0.85512400  0.35512400  0.28975300  1
  Ce  Ce2  1  0.14487600  0.64487600  0.71024700  1
  Si  Si3  1  0.69750300  0.19750300  0.60499500  1
  Si  Si4  1  0.30249700  0.80249700  0.39500500  1
  Si  Si5  1  0.45217200  0.45217200  0.09565600  1
  Si  Si6  1  0.54782800  0.54782800  0.90434400  1
  Rh  Rh7  1  0.59913600  0.09913600  0.80172800  1
  Rh  Rh8  1  0.40086400  0.90086400  0.19827200  1
  Rh  Rh9  1  0.25004900  0.25004900  0.49990200  1
  Rh  Rh10  1  0.74995100  0.74995100  0.50009800  1
