# generated using pymatgen
data_HoPtF7
_symmetry_space_group_name_H-M   'P 1'
_cell_length_a   5.53290300
_cell_length_b   8.85554900
_cell_length_c   11.96289468
_cell_angle_alpha   62.49458427
_cell_angle_beta   90.00000000
_cell_angle_gamma   90.00000000
_symmetry_Int_Tables_number   1
_chemical_formula_structural   HoPtF7
_chemical_formula_sum   'Ho4 Pt4 F28'
_cell_volume   519.89109424
_cell_formula_units_Z   4
loop_
 _symmetry_equiv_pos_site_id
 _symmetry_equiv_pos_as_xyz
  1  'x, y, z'
loop_
 _atom_site_type_symbol
 _atom_site_label
 _atom_site_symmetry_multiplicity
 _atom_site_fract_x
 _atom_site_fract_y
 _atom_site_fract_z
 _atom_site_occupancy
  Ho  Ho0  1  0.76100000  0.81422600  0.76433400  1
  Ho  Ho1  1  0.26100000  0.18577400  0.73566600  1
  Ho  Ho2  1  0.23900000  0.18577400  0.23566600  1
  Ho  Ho3  1  0.73900000  0.81422600  0.26433400  1
  Pt  Pt4  1  0.75902500  0.27232800  0.95687600  1
  Pt  Pt5  1  0.25902500  0.72767200  0.54312400  1
  Pt  Pt6  1  0.24097500  0.72767200  0.04312400  1
  Pt  Pt7  1  0.74097500  0.27232800  0.45687600  1
  F  F8  1  0.43672200  0.70302200  0.91536700  1
  F  F9  1  0.93672200  0.29697800  0.58463300  1
  F  F10  1  0.56327800  0.29697800  0.08463300  1
  F  F11  1  0.06327800  0.70302200  0.41536700  1
  F  F12  1  0.43930500  0.27764000  0.54304300  1
  F  F13  1  0.93930500  0.72236000  0.95695700  1
  F  F14  1  0.56069500  0.72236000  0.45695700  1
  F  F15  1  0.06069500  0.27764000  0.04304300  1
  F  F16  1  0.77496500  0.52215900  0.85820300  1
  F  F17  1  0.27496500  0.47784100  0.64179700  1
  F  F18  1  0.22503500  0.47784100  0.14179700  1
  F  F19  1  0.72503500  0.52215900  0.35820300  1
  F  F20  1  0.75413700  0.02265300  0.05058300  1
  F  F21  1  0.25413700  0.97734700  0.44941700  1
  F  F22  1  0.24586300  0.97734700  0.94941700  1
  F  F23  1  0.74586300  0.02265300  0.55058300  1
  F  F24  1  0.96545900  0.72512000  0.63665800  1
  F  F25  1  0.46545900  0.27488000  0.86334200  1
  F  F26  1  0.03454100  0.27488000  0.36334200  1
  F  F27  1  0.53454100  0.72512000  0.13665800  1
  F  F28  1  0.05103000  0.74610900  0.17577800  1
  F  F29  1  0.55103000  0.25389100  0.32422200  1
  F  F30  1  0.94897000  0.25389100  0.82422200  1
  F  F31  1  0.44897000  0.74610900  0.67577800  1
  F  F32  1  0.41594200  0.97018400  0.23272900  1
  F  F33  1  0.91594200  0.02981600  0.26727100  1
  F  F34  1  0.58405800  0.02981600  0.76727100  1
  F  F35  1  0.08405800  0.97018400  0.73272900  1
