# generated using pymatgen
data_EuHfF7
_symmetry_space_group_name_H-M   'P 1'
_cell_length_a   5.79297400
_cell_length_b   6.19497009
_cell_length_c   8.40406472
_cell_angle_alpha   101.60883056
_cell_angle_beta   90.00000000
_cell_angle_gamma   90.00000000
_symmetry_Int_Tables_number   1
_chemical_formula_structural   EuHfF7
_chemical_formula_sum   'Eu2 Hf2 F14'
_cell_volume   295.42975897
_cell_formula_units_Z   2
loop_
 _symmetry_equiv_pos_site_id
 _symmetry_equiv_pos_as_xyz
  1  'x, y, z'
loop_
 _atom_site_type_symbol
 _atom_site_label
 _atom_site_symmetry_multiplicity
 _atom_site_fract_x
 _atom_site_fract_y
 _atom_site_fract_z
 _atom_site_occupancy
  Eu  Eu0  1  0.69916500  0.65695000  0.68638000  1
  Eu  Eu1  1  0.19916500  0.34305000  0.31362000  1
  Hf  Hf2  1  0.70882500  0.81232300  0.22367900  1
  Hf  Hf3  1  0.20882500  0.18767700  0.77632100  1
  F  F4  1  0.88464000  0.44993300  0.47558500  1
  F  F5  1  0.38464000  0.55006700  0.52441500  1
  F  F6  1  0.42084400  0.92843900  0.76721300  1
  F  F7  1  0.92084400  0.07156100  0.23278700  1
  F  F8  1  0.94827800  0.96954000  0.76138300  1
  F  F9  1  0.44827800  0.03046000  0.23861700  1
  F  F10  1  0.00099700  0.44910100  0.78590500  1
  F  F11  1  0.50099700  0.55089900  0.21409500  1
  F  F12  1  0.70519700  0.75816600  0.98096400  1
  F  F13  1  0.20519700  0.24183400  0.01903600  1
  F  F14  1  0.71272400  0.85671900  0.46750900  1
  F  F15  1  0.21272400  0.14328100  0.53249100  1
  F  F16  1  0.49569100  0.37508900  0.78245400  1
  F  F17  1  0.99569100  0.62491100  0.21754600  1
