# generated using pymatgen
data_CaThV2O8
_symmetry_space_group_name_H-M   'P 1'
_cell_length_a   6.13533665
_cell_length_b   6.13533665
_cell_length_c   6.13533665
_cell_angle_alpha   106.27778352
_cell_angle_beta   106.27778352
_cell_angle_gamma   116.06630378
_symmetry_Int_Tables_number   1
_chemical_formula_structural   CaThV2O8
_chemical_formula_sum   'Ca1 Th1 V2 O8'
_cell_volume   175.99782589
_cell_formula_units_Z   1
loop_
 _symmetry_equiv_pos_site_id
 _symmetry_equiv_pos_as_xyz
  1  'x, y, z'
loop_
 _atom_site_type_symbol
 _atom_site_label
 _atom_site_symmetry_multiplicity
 _atom_site_fract_x
 _atom_site_fract_y
 _atom_site_fract_z
 _atom_site_occupancy
  Ca  Ca0  1  0.00000000  0.00000000  0.00000000  1
  Th  Th1  1  0.25000000  0.75000000  0.50000000  1
  V  V2  1  0.75000000  0.25000000  0.50000000  1
  V  V3  1  0.50000000  0.50000000  0.00000000  1
  O  O4  1  0.92554700  0.60440300  0.67885600  1
  O  O5  1  0.48177600  0.66711800  0.81465800  1
  O  O6  1  0.85246000  0.66711800  0.18534200  1
  O  O7  1  0.92554700  0.24669100  0.32114400  1
  O  O8  1  0.33288200  0.14754000  0.81465800  1
  O  O9  1  0.75330900  0.07445300  0.67885600  1
  O  O10  1  0.39559700  0.07445300  0.32114400  1
  O  O11  1  0.33288200  0.51822400  0.18534200  1
