# generated using pymatgen
data_Cu3P8(Se2Br)3
_symmetry_space_group_name_H-M   'P 1'
_cell_length_a   6.59349700
_cell_length_b   11.62688100
_cell_length_c   27.46489000
_cell_angle_alpha   90.00000000
_cell_angle_beta   90.00000000
_cell_angle_gamma   90.00000000
_symmetry_Int_Tables_number   1
_chemical_formula_structural   Cu3P8(Se2Br)3
_chemical_formula_sum   'Cu12 P32 Se24 Br12'
_cell_volume   2105.50804133
_cell_formula_units_Z   4
loop_
 _symmetry_equiv_pos_site_id
 _symmetry_equiv_pos_as_xyz
  1  'x, y, z'
loop_
 _atom_site_type_symbol
 _atom_site_label
 _atom_site_symmetry_multiplicity
 _atom_site_fract_x
 _atom_site_fract_y
 _atom_site_fract_z
 _atom_site_occupancy
  Cu  Cu0  1  0.70182300  0.36217200  0.75000000  1
  Cu  Cu1  1  0.20182300  0.13782800  0.75000000  1
  Cu  Cu2  1  0.29817700  0.63782800  0.25000000  1
  Cu  Cu3  1  0.79817700  0.86217200  0.25000000  1
  Cu  Cu4  1  0.23914700  0.36114700  0.50371000  1
  Cu  Cu5  1  0.73914700  0.13885300  0.99629000  1
  Cu  Cu6  1  0.76085300  0.63885300  0.00371000  1
  Cu  Cu7  1  0.26085300  0.86114700  0.49629000  1
  Cu  Cu8  1  0.76085300  0.63885300  0.49629000  1
  Cu  Cu9  1  0.26085300  0.86114700  0.00371000  1
  Cu  Cu10  1  0.23914700  0.36114700  0.99629000  1
  Cu  Cu11  1  0.73914700  0.13885300  0.50371000  1
  P  P12  1  0.59858200  0.45287200  0.68181900  1
  P  P13  1  0.09858200  0.04712800  0.81818100  1
  P  P14  1  0.40141800  0.54712800  0.18181900  1
  P  P15  1  0.90141800  0.95287200  0.31818100  1
  P  P16  1  0.40141800  0.54712800  0.31818100  1
  P  P17  1  0.90141800  0.95287200  0.18181900  1
  P  P18  1  0.59858200  0.45287200  0.81818100  1
  P  P19  1  0.09858200  0.04712800  0.68181900  1
  P  P20  1  0.63932600  0.57461300  0.56822100  1
  P  P21  1  0.13932600  0.92538700  0.93177900  1
  P  P22  1  0.36067400  0.42538700  0.06822100  1
  P  P23  1  0.86067400  0.07461300  0.43177900  1
  P  P24  1  0.36067400  0.42538700  0.43177900  1
  P  P25  1  0.86067400  0.07461300  0.06822100  1
  P  P26  1  0.63932600  0.57461300  0.93177900  1
  P  P27  1  0.13932600  0.92538700  0.56822100  1
  P  P28  1  0.34590800  0.63621900  0.60213900  1
  P  P29  1  0.84590800  0.86378100  0.89786100  1
  P  P30  1  0.65409200  0.36378100  0.10213900  1
  P  P31  1  0.15409200  0.13621900  0.39786100  1
  P  P32  1  0.65409200  0.36378100  0.39786100  1
  P  P33  1  0.15409200  0.13621900  0.10213900  1
  P  P34  1  0.34590800  0.63621900  0.89786100  1
  P  P35  1  0.84590800  0.86378100  0.60213900  1
  P  P36  1  0.37178500  0.45604900  0.56956300  1
  P  P37  1  0.87178500  0.04395100  0.93043700  1
  P  P38  1  0.62821500  0.54395100  0.06956300  1
  P  P39  1  0.12821500  0.95604900  0.43043700  1
  P  P40  1  0.62821500  0.54395100  0.43043700  1
  P  P41  1  0.12821500  0.95604900  0.06956300  1
  P  P42  1  0.37178500  0.45604900  0.93043700  1
  P  P43  1  0.87178500  0.04395100  0.56956300  1
  Se  Se44  1  0.42404700  0.33332600  0.63173200  1
  Se  Se45  1  0.92404700  0.16667400  0.86826800  1
  Se  Se46  1  0.57595300  0.66667400  0.13173200  1
  Se  Se47  1  0.07595300  0.83332600  0.36826800  1
  Se  Se48  1  0.57595300  0.66667400  0.36826800  1
  Se  Se49  1  0.07595300  0.83332600  0.13173200  1
  Se  Se50  1  0.42404700  0.33332600  0.86826800  1
  Se  Se51  1  0.92404700  0.16667400  0.63173200  1
  Se  Se52  1  0.84328000  0.52091700  0.63049200  1
  Se  Se53  1  0.34328000  0.97908300  0.86950800  1
  Se  Se54  1  0.15672000  0.47908300  0.13049200  1
  Se  Se55  1  0.65672000  0.02091700  0.36950800  1
  Se  Se56  1  0.15672000  0.47908300  0.36950800  1
  Se  Se57  1  0.65672000  0.02091700  0.13049200  1
  Se  Se58  1  0.84328000  0.52091700  0.86950800  1
  Se  Se59  1  0.34328000  0.97908300  0.63049200  1
  Se  Se60  1  0.38902300  0.61076500  0.68303700  1
  Se  Se61  1  0.88902300  0.88923500  0.81696300  1
  Se  Se62  1  0.61097700  0.38923500  0.18303700  1
  Se  Se63  1  0.11097700  0.11076500  0.31696300  1
  Se  Se64  1  0.61097700  0.38923500  0.31696300  1
  Se  Se65  1  0.11097700  0.11076500  0.18303700  1
  Se  Se66  1  0.38902300  0.61076500  0.81696300  1
  Se  Se67  1  0.88902300  0.88923500  0.68303700  1
  Br  Br68  1  0.07402900  0.34034200  0.75000000  1
  Br  Br69  1  0.57402900  0.15965800  0.75000000  1
  Br  Br70  1  0.92597100  0.65965800  0.25000000  1
  Br  Br71  1  0.42597100  0.84034200  0.25000000  1
  Br  Br72  1  0.86977300  0.33969200  0.51203900  1
  Br  Br73  1  0.36977300  0.16030800  0.98796100  1
  Br  Br74  1  0.13022700  0.66030800  0.01203900  1
  Br  Br75  1  0.63022700  0.83969200  0.48796100  1
  Br  Br76  1  0.13022700  0.66030800  0.48796100  1
  Br  Br77  1  0.63022700  0.83969200  0.01203900  1
  Br  Br78  1  0.86977300  0.33969200  0.98796100  1
  Br  Br79  1  0.36977300  0.16030800  0.51203900  1
