# generated using pymatgen
data_Gd5Ge4
_symmetry_space_group_name_H-M   'P 1'
_cell_length_a   7.73726400
_cell_length_b   7.83896600
_cell_length_c   14.93313600
_cell_angle_alpha   90.00000000
_cell_angle_beta   90.00000000
_cell_angle_gamma   90.00000000
_symmetry_Int_Tables_number   1
_chemical_formula_structural   Gd5Ge4
_chemical_formula_sum   'Gd20 Ge16'
_cell_volume   905.72679612
_cell_formula_units_Z   4
loop_
 _symmetry_equiv_pos_site_id
 _symmetry_equiv_pos_as_xyz
  1  'x, y, z'
loop_
 _atom_site_type_symbol
 _atom_site_label
 _atom_site_symmetry_multiplicity
 _atom_site_fract_x
 _atom_site_fract_y
 _atom_site_fract_z
 _atom_site_occupancy
  Gd  Gd0  1  0.47590100  0.32179700  0.90019400  1
  Gd  Gd1  1  0.97590100  0.17820300  0.59980600  1
  Gd  Gd2  1  0.52409900  0.67820300  0.40019400  1
  Gd  Gd3  1  0.02409900  0.82179700  0.09980600  1
  Gd  Gd4  1  0.52409900  0.67820300  0.09980600  1
  Gd  Gd5  1  0.02409900  0.82179700  0.40019400  1
  Gd  Gd6  1  0.47590100  0.32179700  0.59980600  1
  Gd  Gd7  1  0.97590100  0.17820300  0.90019400  1
  Gd  Gd8  1  0.12263700  0.66188700  0.88326500  1
  Gd  Gd9  1  0.62263700  0.83811300  0.61673500  1
  Gd  Gd10  1  0.87736300  0.33811300  0.38326500  1
  Gd  Gd11  1  0.37736300  0.16188700  0.11673500  1
  Gd  Gd12  1  0.87736300  0.33811300  0.11673500  1
  Gd  Gd13  1  0.37736300  0.16188700  0.38326500  1
  Gd  Gd14  1  0.12263700  0.66188700  0.61673500  1
  Gd  Gd15  1  0.62263700  0.83811300  0.88326500  1
  Gd  Gd16  1  0.70927300  0.00061600  0.25000000  1
  Gd  Gd17  1  0.20927300  0.49938400  0.25000000  1
  Gd  Gd18  1  0.29072700  0.99938400  0.75000000  1
  Gd  Gd19  1  0.79072700  0.50061600  0.75000000  1
  Ge  Ge20  1  0.28214400  0.96710300  0.95589200  1
  Ge  Ge21  1  0.78214400  0.53289700  0.54410800  1
  Ge  Ge22  1  0.71785600  0.03289700  0.45589200  1
  Ge  Ge23  1  0.21785600  0.46710300  0.04410800  1
  Ge  Ge24  1  0.71785600  0.03289700  0.04410800  1
  Ge  Ge25  1  0.21785600  0.46710300  0.45589200  1
  Ge  Ge26  1  0.28214400  0.96710300  0.54410800  1
  Ge  Ge27  1  0.78214400  0.53289700  0.95589200  1
  Ge  Ge28  1  0.58228600  0.38741600  0.25000000  1
  Ge  Ge29  1  0.08228600  0.11258400  0.25000000  1
  Ge  Ge30  1  0.41771400  0.61258400  0.75000000  1
  Ge  Ge31  1  0.91771400  0.88741600  0.75000000  1
  Ge  Ge32  1  0.82543800  0.63353200  0.25000000  1
  Ge  Ge33  1  0.32543800  0.86646800  0.25000000  1
  Ge  Ge34  1  0.17456200  0.36646800  0.75000000  1
  Ge  Ge35  1  0.67456200  0.13353200  0.75000000  1
