# generated using pymatgen
data_KSO3F
_symmetry_space_group_name_H-M   'P 1'
_cell_length_a   6.04081100
_cell_length_b   7.55605600
_cell_length_c   8.82252200
_cell_angle_alpha   90.00000000
_cell_angle_beta   90.00000000
_cell_angle_gamma   90.00000000
_symmetry_Int_Tables_number   1
_chemical_formula_structural   KSO3F
_chemical_formula_sum   'K4 S4 O12 F4'
_cell_volume   402.70142465
_cell_formula_units_Z   4
loop_
 _symmetry_equiv_pos_site_id
 _symmetry_equiv_pos_as_xyz
  1  'x, y, z'
loop_
 _atom_site_type_symbol
 _atom_site_label
 _atom_site_symmetry_multiplicity
 _atom_site_fract_x
 _atom_site_fract_y
 _atom_site_fract_z
 _atom_site_occupancy
  K  K0  1  0.25000000  0.34161900  0.67748000  1
  K  K1  1  0.25000000  0.15838100  0.17748000  1
  K  K2  1  0.75000000  0.65838100  0.32252000  1
  K  K3  1  0.75000000  0.84161900  0.82252000  1
  S  S4  1  0.25000000  0.80047300  0.55569800  1
  S  S5  1  0.25000000  0.69952700  0.05569800  1
  S  S6  1  0.75000000  0.19952700  0.44430200  1
  S  S7  1  0.75000000  0.30047300  0.94430200  1
  O  O8  1  0.04719800  0.70216800  0.58380400  1
  O  O9  1  0.45280200  0.79783200  0.08380400  1
  O  O10  1  0.54719800  0.29783200  0.41619600  1
  O  O11  1  0.95280200  0.20216800  0.91619600  1
  O  O12  1  0.95280200  0.29783200  0.41619600  1
  O  O13  1  0.54719800  0.20216800  0.91619600  1
  O  O14  1  0.45280200  0.70216800  0.58380400  1
  O  O15  1  0.04719800  0.79783200  0.08380400  1
  O  O16  1  0.25000000  0.91202300  0.42286200  1
  O  O17  1  0.25000000  0.58797700  0.92286200  1
  O  O18  1  0.75000000  0.08797700  0.57713800  1
  O  O19  1  0.75000000  0.41202300  0.07713800  1
  F  F20  1  0.25000000  0.94580300  0.69689500  1
  F  F21  1  0.25000000  0.55419700  0.19689500  1
  F  F22  1  0.75000000  0.05419700  0.30310500  1
  F  F23  1  0.75000000  0.44580300  0.80310500  1
