# generated using pymatgen
data_Ca(GaP)2
_symmetry_space_group_name_H-M   'P 1'
_cell_length_a   3.87261031
_cell_length_b   3.87261031
_cell_length_c   16.53119600
_cell_angle_alpha   90.00000000
_cell_angle_beta   90.00000000
_cell_angle_gamma   120.00000534
_symmetry_Int_Tables_number   1
_chemical_formula_structural   Ca(GaP)2
_chemical_formula_sum   'Ca2 Ga4 P4'
_cell_volume   214.70515838
_cell_formula_units_Z   2
loop_
 _symmetry_equiv_pos_site_id
 _symmetry_equiv_pos_as_xyz
  1  'x, y, z'
loop_
 _atom_site_type_symbol
 _atom_site_label
 _atom_site_symmetry_multiplicity
 _atom_site_fract_x
 _atom_site_fract_y
 _atom_site_fract_z
 _atom_site_occupancy
  Ca  Ca0  1  0.00000000  0.00000000  0.50000000  1
  Ca  Ca1  1  0.00000000  0.00000000  0.00000000  1
  Ga  Ga2  1  0.33333300  0.66666700  0.32474200  1
  Ga  Ga3  1  0.66666700  0.33333300  0.67525800  1
  Ga  Ga4  1  0.66666700  0.33333300  0.82474200  1
  Ga  Ga5  1  0.33333300  0.66666700  0.17525800  1
  P  P6  1  0.33333300  0.66666700  0.88521000  1
  P  P7  1  0.66666700  0.33333300  0.11479000  1
  P  P8  1  0.66666700  0.33333300  0.38521000  1
  P  P9  1  0.33333300  0.66666700  0.61479000  1
