# generated using pymatgen
data_K3Ta2Cu3S8
_symmetry_space_group_name_H-M   'P 1'
_cell_length_a   12.21341096
_cell_length_b   12.21341096
_cell_length_c   14.46685512
_cell_angle_alpha   60.49383753
_cell_angle_beta   60.49383753
_cell_angle_gamma   26.38648883
_symmetry_Int_Tables_number   1
_chemical_formula_structural   K3Ta2Cu3S8
_chemical_formula_sum   'K6 Ta4 Cu6 S16'
_cell_volume   827.29446835
_cell_formula_units_Z   2
loop_
 _symmetry_equiv_pos_site_id
 _symmetry_equiv_pos_as_xyz
  1  'x, y, z'
loop_
 _atom_site_type_symbol
 _atom_site_label
 _atom_site_symmetry_multiplicity
 _atom_site_fract_x
 _atom_site_fract_y
 _atom_site_fract_z
 _atom_site_occupancy
  K  K0  1  0.72890200  0.65279300  0.40577100  1
  K  K1  1  0.34720700  0.27109800  0.09422900  1
  K  K2  1  0.27109800  0.34720700  0.59422900  1
  K  K3  1  0.65279300  0.72890200  0.90577100  1
  K  K4  1  0.00000000  0.00000000  0.00000000  1
  K  K5  1  0.00000000  0.00000000  0.50000000  1
  Ta  Ta6  1  0.15584200  0.59179100  0.28026800  1
  Ta  Ta7  1  0.40820900  0.84415800  0.21973200  1
  Ta  Ta8  1  0.84415800  0.40820900  0.71973200  1
  Ta  Ta9  1  0.59179100  0.15584200  0.78026800  1
  Cu  Cu10  1  0.27832700  0.72167300  0.25000000  1
  Cu  Cu11  1  0.72167300  0.27832700  0.75000000  1
  Cu  Cu12  1  0.90545100  0.34144100  0.21842400  1
  Cu  Cu13  1  0.65855900  0.09454900  0.28157600  1
  Cu  Cu14  1  0.09454900  0.65855900  0.78157600  1
  Cu  Cu15  1  0.34144100  0.90545100  0.71842400  1
  S  S16  1  0.95792500  0.86051700  0.37329800  1
  S  S17  1  0.13948300  0.04207500  0.12670200  1
  S  S18  1  0.04207500  0.13948300  0.62670200  1
  S  S19  1  0.86051700  0.95792500  0.87329800  1
  S  S20  1  0.47862500  0.44240100  0.16092100  1
  S  S21  1  0.55759900  0.52137500  0.33907900  1
  S  S22  1  0.52137500  0.55759900  0.83907900  1
  S  S23  1  0.44240100  0.47862500  0.66092100  1
  S  S24  1  0.87301600  0.81275600  0.18784200  1
  S  S25  1  0.18724400  0.12698400  0.31215800  1
  S  S26  1  0.12698400  0.18724400  0.81215800  1
  S  S27  1  0.81275600  0.87301600  0.68784200  1
  S  S28  1  0.73998700  0.67970600  0.10969900  1
  S  S29  1  0.32029400  0.26001300  0.39030100  1
  S  S30  1  0.26001300  0.32029400  0.89030100  1
  S  S31  1  0.67970600  0.73998700  0.60969900  1
