# generated using pymatgen
data_ScSnPd
_symmetry_space_group_name_H-M   'P 1'
_cell_length_a   7.54358950
_cell_length_b   7.54358950
_cell_length_c   7.24652900
_cell_angle_alpha   90.00000000
_cell_angle_beta   90.00000000
_cell_angle_gamma   119.99999563
_symmetry_Int_Tables_number   1
_chemical_formula_structural   ScSnPd
_chemical_formula_sum   'Sc6 Sn6 Pd6'
_cell_volume   357.12214400
_cell_formula_units_Z   6
loop_
 _symmetry_equiv_pos_site_id
 _symmetry_equiv_pos_as_xyz
  1  'x, y, z'
loop_
 _atom_site_type_symbol
 _atom_site_label
 _atom_site_symmetry_multiplicity
 _atom_site_fract_x
 _atom_site_fract_y
 _atom_site_fract_z
 _atom_site_occupancy
  Sc  Sc0  1  0.40088200  0.01498000  0.25000000  1
  Sc  Sc1  1  0.61409800  0.59911800  0.25000000  1
  Sc  Sc2  1  0.98502000  0.38590200  0.25000000  1
  Sc  Sc3  1  0.38590200  0.98502000  0.75000000  1
  Sc  Sc4  1  0.59911800  0.61409800  0.75000000  1
  Sc  Sc5  1  0.01498000  0.40088200  0.75000000  1
  Sn  Sn6  1  0.72512200  0.00000000  0.00000000  1
  Sn  Sn7  1  0.27487800  0.27487800  0.50000000  1
  Sn  Sn8  1  0.00000000  0.72512200  0.50000000  1
  Sn  Sn9  1  0.00000000  0.72512200  0.00000000  1
  Sn  Sn10  1  0.27487800  0.27487800  0.00000000  1
  Sn  Sn11  1  0.72512200  0.00000000  0.50000000  1
  Pd  Pd12  1  0.33333300  0.66666700  0.03220600  1
  Pd  Pd13  1  0.33333300  0.66666700  0.46779400  1
  Pd  Pd14  1  0.66666700  0.33333300  0.96779400  1
  Pd  Pd15  1  0.66666700  0.33333300  0.53220600  1
  Pd  Pd16  1  0.00000000  0.00000000  0.25000000  1
  Pd  Pd17  1  0.00000000  0.00000000  0.75000000  1
