# generated using pymatgen
data_BaVPO6
_symmetry_space_group_name_H-M   'P 1'
_cell_length_a   10.14274300
_cell_length_b   5.83312300
_cell_length_c   8.79019532
_cell_angle_alpha   89.09301420
_cell_angle_beta   90.00000000
_cell_angle_gamma   90.00000000
_symmetry_Int_Tables_number   1
_chemical_formula_structural   BaVPO6
_chemical_formula_sum   'Ba4 V4 P4 O24'
_cell_volume   519.99679265
_cell_formula_units_Z   4
loop_
 _symmetry_equiv_pos_site_id
 _symmetry_equiv_pos_as_xyz
  1  'x, y, z'
loop_
 _atom_site_type_symbol
 _atom_site_label
 _atom_site_symmetry_multiplicity
 _atom_site_fract_x
 _atom_site_fract_y
 _atom_site_fract_z
 _atom_site_occupancy
  Ba  Ba0  1  0.19028500  0.14322400  0.41408900  1
  Ba  Ba1  1  0.69028500  0.85677600  0.08591100  1
  Ba  Ba2  1  0.80971500  0.85677600  0.58591100  1
  Ba  Ba3  1  0.30971500  0.14322400  0.91408900  1
  V  V4  1  0.08815100  0.64960900  0.08431700  1
  V  V5  1  0.58815100  0.35039100  0.41568300  1
  V  V6  1  0.91184900  0.35039100  0.91568300  1
  V  V7  1  0.41184900  0.64960900  0.58431700  1
  P  P8  1  0.88477800  0.34725600  0.28119000  1
  P  P9  1  0.38477800  0.65274400  0.21881000  1
  P  P10  1  0.11522200  0.65274400  0.71881000  1
  P  P11  1  0.61522200  0.34725600  0.78119000  1
  O  O12  1  0.91544000  0.13458000  0.37775100  1
  O  O13  1  0.41544000  0.86542000  0.12224900  1
  O  O14  1  0.08456000  0.86542000  0.62224900  1
  O  O15  1  0.58456000  0.13458000  0.87775100  1
  O  O16  1  0.07081800  0.31814100  0.98343300  1
  O  O17  1  0.57081800  0.68185900  0.51656700  1
  O  O18  1  0.92918200  0.68185900  0.01656700  1
  O  O19  1  0.42918200  0.31814100  0.48343300  1
  O  O20  1  0.13008700  0.89800200  0.16089300  1
  O  O21  1  0.63008700  0.10199800  0.33910700  1
  O  O22  1  0.86991300  0.10199800  0.83910700  1
  O  O23  1  0.36991300  0.89800200  0.66089300  1
  O  O24  1  0.33381300  0.72071200  0.38180600  1
  O  O25  1  0.83381300  0.27928800  0.11819400  1
  O  O26  1  0.66618700  0.27928800  0.61819400  1
  O  O27  1  0.16618700  0.72071200  0.88180600  1
  O  O28  1  0.48150600  0.48488800  0.76724500  1
  O  O29  1  0.98150600  0.51511200  0.73275500  1
  O  O30  1  0.51849400  0.51511200  0.23275500  1
  O  O31  1  0.01849400  0.48488800  0.26724500  1
  O  O32  1  0.22295300  0.49463800  0.64835700  1
  O  O33  1  0.72295300  0.50536200  0.85164300  1
  O  O34  1  0.77704700  0.50536200  0.35164300  1
  O  O35  1  0.27704700  0.49463800  0.14835700  1
