# generated using pymatgen
data_LiLa2OsO6
_symmetry_space_group_name_H-M   'P 1'
_cell_length_a   5.82047600
_cell_length_b   5.58151600
_cell_length_c   9.66193873
_cell_angle_alpha   54.98901286
_cell_angle_beta   90.00000000
_cell_angle_gamma   90.00000000
_symmetry_Int_Tables_number   1
_chemical_formula_structural   LiLa2OsO6
_chemical_formula_sum   'Li2 La4 Os2 O12'
_cell_volume   257.08761152
_cell_formula_units_Z   2
loop_
 _symmetry_equiv_pos_site_id
 _symmetry_equiv_pos_as_xyz
  1  'x, y, z'
loop_
 _atom_site_type_symbol
 _atom_site_label
 _atom_site_symmetry_multiplicity
 _atom_site_fract_x
 _atom_site_fract_y
 _atom_site_fract_z
 _atom_site_occupancy
  Li  Li0  1  0.00000000  0.00000000  0.00000000  1
  Li  Li1  1  0.50000000  0.00000000  0.50000000  1
  La  La2  1  0.05965800  0.76382300  0.74867100  1
  La  La3  1  0.55965800  0.23617700  0.75132900  1
  La  La4  1  0.44034200  0.76382300  0.24867100  1
  La  La5  1  0.94034200  0.23617700  0.25132900  1
  Os  Os6  1  0.50000000  0.50000000  0.00000000  1
  Os  Os7  1  0.00000000  0.50000000  0.50000000  1
  O  O8  1  0.28485800  0.26365600  0.55038900  1
  O  O9  1  0.78485800  0.73634400  0.94961100  1
  O  O10  1  0.71514200  0.73634400  0.44961100  1
  O  O11  1  0.21514200  0.26365600  0.05038900  1
  O  O12  1  0.02863000  0.65080900  0.25777000  1
  O  O13  1  0.52863000  0.34919100  0.24223000  1
  O  O14  1  0.31046400  0.83506000  0.95452400  1
  O  O15  1  0.81046400  0.16494000  0.54547600  1
  O  O16  1  0.68953600  0.16494000  0.04547600  1
  O  O17  1  0.18953600  0.83506000  0.45452400  1
  O  O18  1  0.47137000  0.65080900  0.75777000  1
  O  O19  1  0.97137000  0.34919100  0.74223000  1
