# generated using pymatgen
data_Cs2AsH5O6
_symmetry_space_group_name_H-M   'P 1'
_cell_length_a   8.04930050
_cell_length_b   8.56099042
_cell_length_c   14.42185600
_cell_angle_alpha   90.00000000
_cell_angle_beta   90.00000000
_cell_angle_gamma   120.58571817
_symmetry_Int_Tables_number   1
_chemical_formula_structural   Cs2AsH5O6
_chemical_formula_sum   'Cs8 As4 H20 O24'
_cell_volume   855.53999885
_cell_formula_units_Z   4
loop_
 _symmetry_equiv_pos_site_id
 _symmetry_equiv_pos_as_xyz
  1  'x, y, z'
loop_
 _atom_site_type_symbol
 _atom_site_label
 _atom_site_symmetry_multiplicity
 _atom_site_fract_x
 _atom_site_fract_y
 _atom_site_fract_z
 _atom_site_occupancy
  Cs  Cs0  1  0.25891300  0.75536600  0.23347900  1
  Cs  Cs1  1  0.74108700  0.74463400  0.73347900  1
  Cs  Cs2  1  0.74108700  0.24463400  0.76652100  1
  Cs  Cs3  1  0.25891300  0.25536600  0.26652100  1
  Cs  Cs4  1  0.74996000  0.75352400  0.41685200  1
  Cs  Cs5  1  0.25004000  0.74647600  0.91685200  1
  Cs  Cs6  1  0.25004000  0.24647600  0.58314800  1
  Cs  Cs7  1  0.74996000  0.25352400  0.08314800  1
  As  As8  1  0.74541900  0.23644400  0.35898900  1
  As  As9  1  0.25458100  0.26355600  0.85898900  1
  As  As10  1  0.25458100  0.76355600  0.64101100  1
  As  As11  1  0.74541900  0.73644400  0.14101100  1
  H  H12  1  0.14823100  0.94844700  0.08172300  1
  H  H13  1  0.85176900  0.55155300  0.58172300  1
  H  H14  1  0.85176900  0.05155300  0.91827700  1
  H  H15  1  0.14823100  0.44844700  0.41827700  1
  H  H16  1  0.34857300  0.04882400  0.41680100  1
  H  H17  1  0.65142700  0.45117600  0.91680100  1
  H  H18  1  0.65142700  0.95117600  0.58319900  1
  H  H19  1  0.34857300  0.54882400  0.08319900  1
  H  H20  1  0.77577500  0.48283800  0.26563800  1
  H  H21  1  0.22422500  0.01716200  0.76563800  1
  H  H22  1  0.22422500  0.51716200  0.73436200  1
  H  H23  1  0.77577500  0.98283800  0.23436200  1
  H  H24  1  0.17908700  0.87481500  0.46735500  1
  H  H25  1  0.82091300  0.62518500  0.96735500  1
  H  H26  1  0.82091300  0.12518500  0.53264500  1
  H  H27  1  0.17908700  0.37481500  0.03264500  1
  H  H28  1  0.31583000  0.12238700  0.02987200  1
  H  H29  1  0.68417000  0.37761300  0.52987200  1
  H  H30  1  0.68417000  0.87761300  0.97012800  1
  H  H31  1  0.31583000  0.62238700  0.47012800  1
  O  O32  1  0.86608300  0.44239100  0.29211400  1
  O  O33  1  0.13391700  0.05760900  0.79211400  1
  O  O34  1  0.13391700  0.55760900  0.70788600  1
  O  O35  1  0.86608300  0.94239100  0.20788600  1
  O  O36  1  0.57088200  0.24539800  0.42283100  1
  O  O37  1  0.42911800  0.25460200  0.92283100  1
  O  O38  1  0.42911800  0.75460200  0.57716900  1
  O  O39  1  0.57088200  0.74539800  0.07716900  1
  O  O40  1  0.65162100  0.06181000  0.28037200  1
  O  O41  1  0.34837900  0.43819000  0.78037200  1
  O  O42  1  0.34837900  0.93819000  0.71962800  1
  O  O43  1  0.65162100  0.56181000  0.21962800  1
  O  O44  1  0.92579500  0.24165600  0.42379100  1
  O  O45  1  0.07420500  0.25834400  0.92379100  1
  O  O46  1  0.07420500  0.75834400  0.57620900  1
  O  O47  1  0.92579500  0.74165600  0.07620900  1
  O  O48  1  0.21011000  0.94964200  0.41031700  1
  O  O49  1  0.78989000  0.55035800  0.91031700  1
  O  O50  1  0.78989000  0.05035800  0.58968300  1
  O  O51  1  0.21011000  0.44964200  0.08968300  1
  O  O52  1  0.28689600  0.04742500  0.08654200  1
  O  O53  1  0.71310400  0.45257500  0.58654200  1
  O  O54  1  0.71310400  0.95257500  0.91345800  1
  O  O55  1  0.28689600  0.54742500  0.41345800  1
