# generated using pymatgen
data_Sr2Si
_symmetry_space_group_name_H-M   'P 1'
_cell_length_a   5.14963200
_cell_length_b   8.13175500
_cell_length_c   9.61716400
_cell_angle_alpha   90.00000000
_cell_angle_beta   90.00000000
_cell_angle_gamma   90.00000000
_symmetry_Int_Tables_number   1
_chemical_formula_structural   Sr2Si
_chemical_formula_sum   'Sr8 Si4'
_cell_volume   402.72399120
_cell_formula_units_Z   4
loop_
 _symmetry_equiv_pos_site_id
 _symmetry_equiv_pos_as_xyz
  1  'x, y, z'
loop_
 _atom_site_type_symbol
 _atom_site_label
 _atom_site_symmetry_multiplicity
 _atom_site_fract_x
 _atom_site_fract_y
 _atom_site_fract_z
 _atom_site_occupancy
  Sr  Sr0  1  0.75000000  0.98118200  0.82670000  1
  Sr  Sr1  1  0.25000000  0.01881800  0.17330000  1
  Sr  Sr2  1  0.75000000  0.48118200  0.67330000  1
  Sr  Sr3  1  0.25000000  0.51881800  0.32670000  1
  Sr  Sr4  1  0.25000000  0.65048600  0.92214700  1
  Sr  Sr5  1  0.75000000  0.34951400  0.07785300  1
  Sr  Sr6  1  0.25000000  0.15048600  0.57785300  1
  Sr  Sr7  1  0.75000000  0.84951400  0.42214700  1
  Si  Si8  1  0.25000000  0.25230400  0.89754400  1
  Si  Si9  1  0.75000000  0.74769600  0.10245600  1
  Si  Si10  1  0.25000000  0.75230400  0.60245600  1
  Si  Si11  1  0.75000000  0.24769600  0.39754400  1
