# generated using pymatgen
data_KSnAsO5
_symmetry_space_group_name_H-M   'P 1'
_cell_length_a   6.82048200
_cell_length_b   11.14481200
_cell_length_c   13.70401600
_cell_angle_alpha   90.00000000
_cell_angle_beta   90.00000000
_cell_angle_gamma   90.00000000
_symmetry_Int_Tables_number   1
_chemical_formula_structural   KSnAsO5
_chemical_formula_sum   'K8 Sn8 As8 O40'
_cell_volume   1041.68322623
_cell_formula_units_Z   8
loop_
 _symmetry_equiv_pos_site_id
 _symmetry_equiv_pos_as_xyz
  1  'x, y, z'
loop_
 _atom_site_type_symbol
 _atom_site_label
 _atom_site_symmetry_multiplicity
 _atom_site_fract_x
 _atom_site_fract_y
 _atom_site_fract_z
 _atom_site_occupancy
  K  K0  1  0.22468300  0.29830500  0.62998200  1
  K  K1  1  0.68947900  0.56144100  0.11211400  1
  K  K2  1  0.81052100  0.56144100  0.61211400  1
  K  K3  1  0.31052100  0.06144100  0.88788600  1
  K  K4  1  0.72468300  0.79830500  0.87001800  1
  K  K5  1  0.27531700  0.29830500  0.12998200  1
  K  K6  1  0.77531700  0.79830500  0.37001800  1
  K  K7  1  0.18947900  0.06144100  0.38788600  1
  Sn  Sn8  1  0.74607800  0.25039900  0.74982300  1
  Sn  Sn9  1  0.25392200  0.75039900  0.25017700  1
  Sn  Sn10  1  0.75392200  0.25039900  0.24982300  1
  Sn  Sn11  1  0.50023200  0.99896300  0.62598700  1
  Sn  Sn12  1  0.49976800  0.49896300  0.37401300  1
  Sn  Sn13  1  0.99976800  0.99896300  0.12598700  1
  Sn  Sn14  1  0.00023200  0.49896300  0.87401300  1
  Sn  Sn15  1  0.24607800  0.75039900  0.75017700  1
  As  As16  1  0.33392500  0.74774300  0.50227600  1
  As  As17  1  0.83392500  0.24774300  0.99772400  1
  As  As18  1  0.16607500  0.74774300  0.00227600  1
  As  As19  1  0.49771200  0.50154000  0.82281500  1
  As  As20  1  0.50228800  0.00154000  0.17718500  1
  As  As21  1  0.00228800  0.50154000  0.32281500  1
  As  As22  1  0.66607500  0.24774300  0.49772400  1
  As  As23  1  0.99771200  0.00154000  0.67718500  1
  O  O24  1  0.47013000  0.88632000  0.25921600  1
  O  O25  1  0.52987000  0.38632000  0.74078400  1
  O  O26  1  0.02987000  0.88632000  0.75921600  1
  O  O27  1  0.97013000  0.38632000  0.24078400  1
  O  O28  1  0.97669000  0.12462200  0.75302000  1
  O  O29  1  0.02331000  0.62462200  0.24698000  1
  O  O30  1  0.52331000  0.12462200  0.25302000  1
  O  O31  1  0.47669000  0.62462200  0.74698000  1
  O  O32  1  0.04470800  0.87747800  0.23279400  1
  O  O33  1  0.95529200  0.37747800  0.76720600  1
  O  O34  1  0.45529200  0.87747800  0.73279400  1
  O  O35  1  0.54470800  0.37747800  0.26720600  1
  O  O36  1  0.52520700  0.13481300  0.72329200  1
  O  O37  1  0.47479300  0.63481300  0.27670800  1
  O  O38  1  0.97479300  0.13481300  0.22329200  1
  O  O39  1  0.82086300  0.22570100  0.40035900  1
  O  O40  1  0.02520700  0.63481300  0.77670800  1
  O  O41  1  0.30325800  0.47350200  0.89856300  1
  O  O42  1  0.80325800  0.97350200  0.60143700  1
  O  O43  1  0.19674200  0.47350200  0.39856300  1
  O  O44  1  0.19204500  0.02847700  0.59992700  1
  O  O45  1  0.80795500  0.52847700  0.40007300  1
  O  O46  1  0.30795500  0.02847700  0.09992700  1
  O  O47  1  0.69204500  0.52847700  0.90007300  1
  O  O48  1  0.50514300  0.12918400  0.51010700  1
  O  O49  1  0.49485700  0.62918400  0.48989300  1
  O  O50  1  0.99485700  0.12918400  0.01010700  1
  O  O51  1  0.00514300  0.62918400  0.98989300  1
  O  O52  1  0.01680800  0.87278100  0.01093200  1
  O  O53  1  0.98319200  0.37278100  0.98906800  1
  O  O54  1  0.48319200  0.87278100  0.51093200  1
  O  O55  1  0.51680800  0.37278100  0.48906800  1
  O  O56  1  0.81716900  0.27083100  0.59662900  1
  O  O57  1  0.18283100  0.77083100  0.40337100  1
  O  O58  1  0.68283100  0.27083100  0.09662900  1
  O  O59  1  0.31716900  0.77083100  0.90337100  1
  O  O60  1  0.32086300  0.72570100  0.09964100  1
  O  O61  1  0.67913700  0.22570100  0.90035900  1
  O  O62  1  0.17913700  0.72570100  0.59964100  1
  O  O63  1  0.69674200  0.97350200  0.10143700  1
