# generated using pymatgen
data_Dy2(SO4)3
_symmetry_space_group_name_H-M   'P 1'
_cell_length_a   9.26318200
_cell_length_b   9.48432500
_cell_length_c   12.92397300
_cell_angle_alpha   90.00000000
_cell_angle_beta   90.00000000
_cell_angle_gamma   90.00000000
_symmetry_Int_Tables_number   1
_chemical_formula_structural   Dy2(SO4)3
_chemical_formula_sum   'Dy8 S12 O48'
_cell_volume   1135.43601783
_cell_formula_units_Z   4
loop_
 _symmetry_equiv_pos_site_id
 _symmetry_equiv_pos_as_xyz
  1  'x, y, z'
loop_
 _atom_site_type_symbol
 _atom_site_label
 _atom_site_symmetry_multiplicity
 _atom_site_fract_x
 _atom_site_fract_y
 _atom_site_fract_z
 _atom_site_occupancy
  Dy  Dy0  1  0.25195600  0.46566500  0.11731100  1
  Dy  Dy1  1  0.74804400  0.53433500  0.88268900  1
  Dy  Dy2  1  0.24804400  0.96566500  0.38268900  1
  Dy  Dy3  1  0.25195600  0.03433500  0.88268900  1
  Dy  Dy4  1  0.75195600  0.03433500  0.61731100  1
  Dy  Dy5  1  0.74804400  0.96566500  0.11731100  1
  Dy  Dy6  1  0.24804400  0.53433500  0.61731100  1
  Dy  Dy7  1  0.75195600  0.46566500  0.38268900  1
  S  S8  1  0.52957200  0.25000000  0.00000000  1
  S  S9  1  0.47042800  0.75000000  0.00000000  1
  S  S10  1  0.97042800  0.75000000  0.50000000  1
  S  S11  1  0.02957200  0.25000000  0.50000000  1
  S  S12  1  0.10547600  0.11831800  0.14411100  1
  S  S13  1  0.89452400  0.88168200  0.85588900  1
  S  S14  1  0.39452400  0.61831800  0.35588900  1
  S  S15  1  0.10547600  0.38168200  0.85588900  1
  S  S16  1  0.60547600  0.38168200  0.64411100  1
  S  S17  1  0.89452400  0.61831800  0.14411100  1
  S  S18  1  0.39452400  0.88168200  0.64411100  1
  S  S19  1  0.60547600  0.11831800  0.35588900  1
  O  O20  1  0.16751500  0.08015700  0.04261700  1
  O  O21  1  0.83248500  0.91984300  0.95738300  1
  O  O22  1  0.33248500  0.58015700  0.45738300  1
  O  O23  1  0.16751500  0.41984300  0.95738300  1
  O  O24  1  0.66751500  0.41984300  0.54261700  1
  O  O25  1  0.83248500  0.58015700  0.04261700  1
  O  O26  1  0.33248500  0.91984300  0.54261700  1
  O  O27  1  0.66751500  0.08015700  0.45738300  1
  O  O28  1  0.17014100  0.02704800  0.22510400  1
  O  O29  1  0.82985900  0.97295200  0.77489600  1
  O  O30  1  0.32985900  0.52704800  0.27489600  1
  O  O31  1  0.17014100  0.47295200  0.77489600  1
  O  O32  1  0.67014100  0.47295200  0.72510400  1
  O  O33  1  0.82985900  0.52704800  0.22510400  1
  O  O34  1  0.32985900  0.97295200  0.72510400  1
  O  O35  1  0.67014100  0.02704800  0.27489600  1
  O  O36  1  0.12235500  0.14642300  0.44619100  1
  O  O37  1  0.87764500  0.85357700  0.55380900  1
  O  O38  1  0.37764500  0.64642300  0.05380900  1
  O  O39  1  0.12235500  0.35357700  0.55380900  1
  O  O40  1  0.62235500  0.35357700  0.94619100  1
  O  O41  1  0.87764500  0.64642300  0.44619100  1
  O  O42  1  0.37764500  0.85357700  0.94619100  1
  O  O43  1  0.62235500  0.14642300  0.05380900  1
  O  O44  1  0.13659400  0.26833300  0.16829000  1
  O  O45  1  0.86340600  0.73166700  0.83171000  1
  O  O46  1  0.36340600  0.76833300  0.33171000  1
  O  O47  1  0.13659400  0.23166700  0.83171000  1
  O  O48  1  0.63659400  0.23166700  0.66829000  1
  O  O49  1  0.86340600  0.76833300  0.16829000  1
  O  O50  1  0.36340600  0.73166700  0.66829000  1
  O  O51  1  0.63659400  0.26833300  0.33171000  1
  O  O52  1  0.43773100  0.32223500  0.07752700  1
  O  O53  1  0.56226900  0.67776500  0.92247300  1
  O  O54  1  0.06226900  0.82223500  0.42247300  1
  O  O55  1  0.43773100  0.17776500  0.92247300  1
  O  O56  1  0.93773100  0.17776500  0.57752700  1
  O  O57  1  0.56226900  0.82223500  0.07752700  1
  O  O58  1  0.06226900  0.67776500  0.57752700  1
  O  O59  1  0.93773100  0.32223500  0.42247300  1
  O  O60  1  0.44701100  0.09768800  0.35765100  1
  O  O61  1  0.55298900  0.90231200  0.64234900  1
  O  O62  1  0.05298900  0.59768800  0.14234900  1
  O  O63  1  0.44701100  0.40231200  0.64234900  1
  O  O64  1  0.94701100  0.40231200  0.85765100  1
  O  O65  1  0.55298900  0.59768800  0.35765100  1
  O  O66  1  0.05298900  0.90231200  0.85765100  1
  O  O67  1  0.94701100  0.09768800  0.14234900  1
