# generated using pymatgen
data_Na5Gd4Si4O16F
_symmetry_space_group_name_H-M   'P 1'
_cell_length_a   8.78735706
_cell_length_b   8.78735706
_cell_length_c   8.78735706
_cell_angle_alpha   95.56819875
_cell_angle_beta   95.56819875
_cell_angle_gamma   143.70103784
_symmetry_Int_Tables_number   1
_chemical_formula_structural   Na5Gd4Si4O16F
_chemical_formula_sum   'Na5 Gd4 Si4 O16 F1'
_cell_volume   381.70867243
_cell_formula_units_Z   1
loop_
 _symmetry_equiv_pos_site_id
 _symmetry_equiv_pos_as_xyz
  1  'x, y, z'
loop_
 _atom_site_type_symbol
 _atom_site_label
 _atom_site_symmetry_multiplicity
 _atom_site_fract_x
 _atom_site_fract_y
 _atom_site_fract_z
 _atom_site_occupancy
  Na  Na0  1  0.09727300  0.40283900  0.48459900  1
  Na  Na1  1  0.91824100  0.61267500  0.51540100  1
  Na  Na2  1  0.38732500  0.90272700  0.30556600  1
  Na  Na3  1  0.59716100  0.08175900  0.69443400  1
  Na  Na4  1  0.50000000  0.50000000  0.00000000  1
  Gd  Gd5  1  0.13765300  0.83819000  0.93268000  1
  Gd  Gd6  1  0.90550900  0.20497300  0.06732000  1
  Gd  Gd7  1  0.79502700  0.86234700  0.70053600  1
  Gd  Gd8  1  0.16181000  0.09449100  0.29946400  1
  Si  Si9  1  0.24318100  0.59334000  0.85631100  1
  Si  Si10  1  0.73702900  0.38687000  0.14368900  1
  Si  Si11  1  0.61313000  0.75681900  0.35015900  1
  Si  Si12  1  0.40666000  0.26297100  0.64984100  1
  O  O13  1  0.12781900  0.62215200  0.72210500  1
  O  O14  1  0.90004700  0.40571400  0.27789500  1
  O  O15  1  0.59428600  0.87218100  0.49433300  1
  O  O16  1  0.37784800  0.09995300  0.50566700  1
  O  O17  1  0.54570900  0.78200100  0.85966700  1
  O  O18  1  0.92233400  0.68604200  0.14033300  1
  O  O19  1  0.31395800  0.45429100  0.23629200  1
  O  O20  1  0.21799900  0.07766600  0.76370800  1
  O  O21  1  0.03765700  0.27874700  0.82810300  1
  O  O22  1  0.45064500  0.20955500  0.17189700  1
  O  O23  1  0.79044500  0.96234300  0.24109000  1
  O  O24  1  0.72125300  0.54935500  0.75891000  1
  O  O25  1  0.23781300  0.67486600  0.03168400  1
  O  O26  1  0.64318200  0.20612900  0.96831600  1
  O  O27  1  0.79387100  0.76218700  0.43705300  1
  O  O28  1  0.32513400  0.35681800  0.56294700  1
  F  F29  1  0.00000000  0.00000000  0.00000000  1
