# generated using pymatgen
data_Yb11Sb10
_symmetry_space_group_name_H-M   'P 1'
_cell_length_a   12.10231194
_cell_length_b   12.10231194
_cell_length_c   12.10231194
_cell_angle_alpha   120.64809139
_cell_angle_beta   120.64809139
_cell_angle_gamma   88.88109094
_symmetry_Int_Tables_number   1
_chemical_formula_structural   Yb11Sb10
_chemical_formula_sum   'Yb22 Sb20'
_cell_volume   1240.86616097
_cell_formula_units_Z   2
loop_
 _symmetry_equiv_pos_site_id
 _symmetry_equiv_pos_as_xyz
  1  'x, y, z'
loop_
 _atom_site_type_symbol
 _atom_site_label
 _atom_site_symmetry_multiplicity
 _atom_site_fract_x
 _atom_site_fract_y
 _atom_site_fract_z
 _atom_site_occupancy
  Yb  Yb0  1  0.60329300  0.26555400  0.66226100  1
  Yb  Yb1  1  0.93717000  0.18896500  0.74820500  1
  Yb  Yb2  1  0.18896500  0.44076000  0.25179500  1
  Yb  Yb3  1  0.83374400  0.83374400  0.66748700  1
  Yb  Yb4  1  0.60329300  0.94103100  0.33773900  1
  Yb  Yb5  1  0.55924000  0.81103500  0.74820500  1
  Yb  Yb6  1  0.83374400  0.16625600  0.00000000  1
  Yb  Yb7  1  0.39670700  0.73444600  0.33773900  1
  Yb  Yb8  1  0.05896900  0.39670700  0.66226100  1
  Yb  Yb9  1  0.44076000  0.18896500  0.25179500  1
  Yb  Yb10  1  0.81103500  0.55924000  0.74820500  1
  Yb  Yb11  1  0.94103100  0.60329300  0.33773900  1
  Yb  Yb12  1  0.16625600  0.83374400  0.00000000  1
  Yb  Yb13  1  0.06283000  0.81103500  0.25179500  1
  Yb  Yb14  1  0.39670700  0.05896900  0.66226100  1
  Yb  Yb15  1  0.73444600  0.39670700  0.33773900  1
  Yb  Yb16  1  0.81103500  0.06283000  0.25179500  1
  Yb  Yb17  1  0.33690300  0.33690300  0.00000000  1
  Yb  Yb18  1  0.66309700  0.66309700  0.00000000  1
  Yb  Yb19  1  0.18896500  0.93717000  0.74820500  1
  Yb  Yb20  1  0.26555400  0.60329300  0.66226100  1
  Yb  Yb21  1  0.16625600  0.16625600  0.33251300  1
  Sb  Sb22  1  0.11688600  0.11688600  0.58629700  1
  Sb  Sb23  1  0.65009300  0.00000000  0.65009300  1
  Sb  Sb24  1  0.37367100  0.62632900  0.00000000  1
  Sb  Sb25  1  0.46941100  0.46941100  0.58629700  1
  Sb  Sb26  1  0.37367100  0.37367100  0.74734300  1
  Sb  Sb27  1  0.00000000  0.34990700  0.34990700  1
  Sb  Sb28  1  0.88311400  0.88311400  0.41370300  1
  Sb  Sb29  1  0.53058900  0.11688600  0.00000000  1
  Sb  Sb30  1  0.12787300  0.12787300  0.00000000  1
  Sb  Sb31  1  0.62632900  0.62632900  0.25265700  1
  Sb  Sb32  1  0.87212700  0.87212700  0.00000000  1
  Sb  Sb33  1  0.46941100  0.88311400  0.00000000  1
  Sb  Sb34  1  0.53058900  0.53058900  0.41370300  1
  Sb  Sb35  1  0.34990700  0.00000000  0.34990700  1
  Sb  Sb36  1  0.00000000  0.65009300  0.65009300  1
  Sb  Sb37  1  0.88311400  0.46941100  0.00000000  1
  Sb  Sb38  1  0.62632900  0.37367100  0.00000000  1
  Sb  Sb39  1  0.75000000  0.25000000  0.50000000  1
  Sb  Sb40  1  0.11688600  0.53058900  0.00000000  1
  Sb  Sb41  1  0.25000000  0.75000000  0.50000000  1
