# generated using pymatgen
data_LaVO4
_symmetry_space_group_name_H-M   'P 1'
_cell_length_a   6.26770854
_cell_length_b   6.26770854
_cell_length_c   6.26770854
_cell_angle_alpha   106.09115763
_cell_angle_beta   106.09115763
_cell_angle_gamma   116.46603721
_symmetry_Int_Tables_number   1
_chemical_formula_structural   LaVO4
_chemical_formula_sum   'La2 V2 O8'
_cell_volume   187.39801752
_cell_formula_units_Z   2
loop_
 _symmetry_equiv_pos_site_id
 _symmetry_equiv_pos_as_xyz
  1  'x, y, z'
loop_
 _atom_site_type_symbol
 _atom_site_label
 _atom_site_symmetry_multiplicity
 _atom_site_fract_x
 _atom_site_fract_y
 _atom_site_fract_z
 _atom_site_occupancy
  La  La0  1  0.00000000  0.00000000  0.00000000  1
  La  La1  1  0.25000000  0.75000000  0.50000000  1
  V  V2  1  0.75000000  0.25000000  0.50000000  1
  V  V3  1  0.50000000  0.50000000  0.00000000  1
  O  O4  1  0.33098100  0.50898900  0.17800800  1
  O  O5  1  0.40297400  0.08098100  0.32199200  1
  O  O6  1  0.75898900  0.08098100  0.67800800  1
  O  O7  1  0.33098100  0.15297400  0.82199200  1
  O  O8  1  0.84702600  0.66901900  0.17800800  1
  O  O9  1  0.91901900  0.24101100  0.32199200  1
  O  O10  1  0.91901900  0.59702600  0.67800800  1
  O  O11  1  0.49101100  0.66901900  0.82199200  1
