# generated using pymatgen
data_Ba2Yb2CuPtO8
_symmetry_space_group_name_H-M   'P 1'
_cell_length_a   5.66444800
_cell_length_b   10.33844500
_cell_length_c   13.31861200
_cell_angle_alpha   90.00000000
_cell_angle_beta   90.00000000
_cell_angle_gamma   90.00000000
_symmetry_Int_Tables_number   1
_chemical_formula_structural   Ba2Yb2CuPtO8
_chemical_formula_sum   'Ba8 Yb8 Cu4 Pt4 O32'
_cell_volume   779.95901678
_cell_formula_units_Z   4
loop_
 _symmetry_equiv_pos_site_id
 _symmetry_equiv_pos_as_xyz
  1  'x, y, z'
loop_
 _atom_site_type_symbol
 _atom_site_label
 _atom_site_symmetry_multiplicity
 _atom_site_fract_x
 _atom_site_fract_y
 _atom_site_fract_z
 _atom_site_occupancy
  Ba  Ba0  1  0.25000000  0.39902900  0.42291900  1
  Ba  Ba1  1  0.75000000  0.60097100  0.57708100  1
  Ba  Ba2  1  0.75000000  0.89902900  0.07708100  1
  Ba  Ba3  1  0.25000000  0.10097100  0.92291900  1
  Ba  Ba4  1  0.25000000  0.68186200  0.20430300  1
  Ba  Ba5  1  0.75000000  0.31813800  0.79569700  1
  Ba  Ba6  1  0.75000000  0.18186200  0.29569700  1
  Ba  Ba7  1  0.25000000  0.81813800  0.70430300  1
  Yb  Yb8  1  0.25000000  0.01699100  0.41870800  1
  Yb  Yb9  1  0.75000000  0.98300900  0.58129200  1
  Yb  Yb10  1  0.75000000  0.51699100  0.08129200  1
  Yb  Yb11  1  0.25000000  0.48300900  0.91870800  1
  Yb  Yb12  1  0.25000000  0.31484600  0.13984400  1
  Yb  Yb13  1  0.75000000  0.68515400  0.86015600  1
  Yb  Yb14  1  0.75000000  0.81484600  0.36015600  1
  Yb  Yb15  1  0.25000000  0.18515400  0.63984400  1
  Cu  Cu16  1  0.25000000  0.74119200  0.44984800  1
  Cu  Cu17  1  0.75000000  0.25880800  0.55015200  1
  Cu  Cu18  1  0.75000000  0.24119200  0.05015200  1
  Cu  Cu19  1  0.25000000  0.75880800  0.94984800  1
  Pt  Pt20  1  0.25000000  0.03646000  0.19460000  1
  Pt  Pt21  1  0.75000000  0.96354000  0.80540000  1
  Pt  Pt22  1  0.75000000  0.53646000  0.30540000  1
  Pt  Pt23  1  0.25000000  0.46354000  0.69460000  1
  O  O24  1  0.25000000  0.18527400  0.29262600  1
  O  O25  1  0.75000000  0.81472600  0.70737400  1
  O  O26  1  0.75000000  0.68527400  0.20737400  1
  O  O27  1  0.25000000  0.31472600  0.79262600  1
  O  O28  1  0.51039500  0.44702400  0.22174600  1
  O  O29  1  0.48960500  0.55297600  0.77825400  1
  O  O30  1  0.48960500  0.94702400  0.27825400  1
  O  O31  1  0.01039500  0.55297600  0.77825400  1
  O  O32  1  0.51039500  0.05297600  0.72174600  1
  O  O33  1  0.98960500  0.44702400  0.22174600  1
  O  O34  1  0.98960500  0.05297600  0.72174600  1
  O  O35  1  0.01039500  0.94702400  0.27825400  1
  O  O36  1  0.99671900  0.13652700  0.11016700  1
  O  O37  1  0.00328100  0.86347300  0.88983300  1
  O  O38  1  0.00328100  0.63652700  0.38983300  1
  O  O39  1  0.49671900  0.86347300  0.88983300  1
  O  O40  1  0.99671900  0.36347300  0.61016700  1
  O  O41  1  0.50328100  0.13652700  0.11016700  1
  O  O42  1  0.50328100  0.36347300  0.61016700  1
  O  O43  1  0.49671900  0.63652700  0.38983300  1
  O  O44  1  0.51867500  0.35431500  0.00347600  1
  O  O45  1  0.48132500  0.64568500  0.99652400  1
  O  O46  1  0.48132500  0.85431500  0.49652400  1
  O  O47  1  0.01867500  0.64568500  0.99652400  1
  O  O48  1  0.51867500  0.14568500  0.50347600  1
  O  O49  1  0.98132500  0.35431500  0.00347600  1
  O  O50  1  0.98132500  0.14568500  0.50347600  1
  O  O51  1  0.01867500  0.85431500  0.49652400  1
  O  O52  1  0.25000000  0.60213700  0.59207600  1
  O  O53  1  0.75000000  0.39786300  0.40792400  1
  O  O54  1  0.75000000  0.10213700  0.90792400  1
  O  O55  1  0.25000000  0.89786300  0.09207600  1
