# generated using pymatgen
data_Cu3Ag2Bi7Pb3S16
_symmetry_space_group_name_H-M   'P 1'
_cell_length_a   4.05663000
_cell_length_b   12.81222400
_cell_length_c   29.27994548
_cell_angle_alpha   77.83737251
_cell_angle_beta   90.00000000
_cell_angle_gamma   90.00000000
_symmetry_Int_Tables_number   1
_chemical_formula_structural   Cu3Ag2Bi7Pb3S16
_chemical_formula_sum   'Cu6 Ag4 Bi14 Pb6 S32'
_cell_volume   1487.64988192
_cell_formula_units_Z   2
loop_
 _symmetry_equiv_pos_site_id
 _symmetry_equiv_pos_as_xyz
  1  'x, y, z'
loop_
 _atom_site_type_symbol
 _atom_site_label
 _atom_site_symmetry_multiplicity
 _atom_site_fract_x
 _atom_site_fract_y
 _atom_site_fract_z
 _atom_site_occupancy
  Cu  Cu0  1  0.25000000  0.77876500  0.76447700  1
  Cu  Cu1  1  0.75000000  0.22123500  0.23552300  1
  Cu  Cu2  1  0.25000000  0.46621900  0.25964200  1
  Cu  Cu3  1  0.75000000  0.53378100  0.74035800  1
  Cu  Cu4  1  0.25000000  0.26438100  0.75760300  1
  Cu  Cu5  1  0.75000000  0.73561900  0.24239700  1
  Ag  Ag6  1  0.25000000  0.61292700  0.45007800  1
  Ag  Ag7  1  0.75000000  0.38707300  0.54992200  1
  Ag  Ag8  1  0.25000000  0.43635100  0.94833600  1
  Ag  Ag9  1  0.75000000  0.56364900  0.05166400  1
  Bi  Bi10  1  0.25000000  0.98989200  0.19243900  1
  Bi  Bi11  1  0.75000000  0.01010800  0.80756100  1
  Bi  Bi12  1  0.25000000  0.94746400  0.44427500  1
  Bi  Bi13  1  0.75000000  0.05253600  0.55572500  1
  Bi  Bi14  1  0.25000000  0.76308400  0.95468200  1
  Bi  Bi15  1  0.75000000  0.23691600  0.04531800  1
  Bi  Bi16  1  0.25000000  0.47972000  0.64673900  1
  Bi  Bi17  1  0.75000000  0.52028000  0.35326100  1
  Bi  Bi18  1  0.25000000  0.36341900  0.14376700  1
  Bi  Bi19  1  0.75000000  0.63658100  0.85623300  1
  Bi  Bi20  1  0.25000000  0.28261700  0.45314900  1
  Bi  Bi21  1  0.75000000  0.71738300  0.54685100  1
  Bi  Bi22  1  0.25000000  0.10085500  0.94390900  1
  Bi  Bi23  1  0.75000000  0.89914500  0.05609100  1
  Pb  Pb24  1  0.25000000  0.81163600  0.65961100  1
  Pb  Pb25  1  0.75000000  0.18836400  0.34038900  1
  Pb  Pb26  1  0.25000000  0.67781600  0.16122200  1
  Pb  Pb27  1  0.75000000  0.32218400  0.83877800  1
  Pb  Pb28  1  0.25000000  0.13729400  0.67247400  1
  Pb  Pb29  1  0.75000000  0.86270600  0.32752600  1
  S  S30  1  0.25000000  0.95926600  0.75298500  1
  S  S31  1  0.75000000  0.04073400  0.24701500  1
  S  S32  1  0.25000000  0.87808200  0.55762400  1
  S  S33  1  0.75000000  0.12191800  0.44237600  1
  S  S34  1  0.25000000  0.80898600  0.25460300  1
  S  S35  1  0.75000000  0.19101400  0.74539700  1
  S  S36  1  0.25000000  0.78918500  0.86094200  1
  S  S37  1  0.75000000  0.21081500  0.13905800  1
  S  S38  1  0.25000000  0.74834900  0.06083200  1
  S  S39  1  0.75000000  0.25165100  0.93916800  1
  S  S40  1  0.25000000  0.65530900  0.36461000  1
  S  S41  1  0.75000000  0.34469100  0.63539000  1
  S  S42  1  0.25000000  0.57722000  0.53694200  1
  S  S43  1  0.75000000  0.42278000  0.46305800  1
  S  S44  1  0.25000000  0.47809200  0.86258400  1
  S  S45  1  0.75000000  0.52190800  0.13741600  1
  S  S46  1  0.25000000  0.44811000  0.73949200  1
  S  S47  1  0.75000000  0.55189000  0.26050800  1
  S  S48  1  0.25000000  0.38764000  0.03539900  1
  S  S49  1  0.75000000  0.61236000  0.96460100  1
  S  S50  1  0.25000000  0.34506600  0.35667600  1
  S  S51  1  0.75000000  0.65493400  0.64332400  1
  S  S52  1  0.25000000  0.30602400  0.23714300  1
  S  S53  1  0.75000000  0.69397600  0.76285700  1
  S  S54  1  0.25000000  0.19562900  0.55640500  1
  S  S55  1  0.75000000  0.80437100  0.44359500  1
  S  S56  1  0.25000000  0.14421600  0.84625400  1
  S  S57  1  0.75000000  0.85578400  0.15374600  1
  S  S58  1  0.25000000  0.06806900  0.04775400  1
  S  S59  1  0.75000000  0.93193100  0.95224600  1
  S  S60  1  0.25000000  0.00822700  0.35226200  1
  S  S61  1  0.75000000  0.99177300  0.64773800  1
