# generated using pymatgen
data_BaCdGeS4
_symmetry_space_group_name_H-M   'P 1'
_cell_length_a   15.51624369
_cell_length_b   12.86844511
_cell_length_c   12.60924311
_cell_angle_alpha   75.02861876
_cell_angle_beta   53.24491563
_cell_angle_gamma   51.72646561
_symmetry_Int_Tables_number   1
_chemical_formula_structural   BaCdGeS4
_chemical_formula_sum   'Ba8 Cd8 Ge8 S32'
_cell_volume   1558.15338030
_cell_formula_units_Z   8
loop_
 _symmetry_equiv_pos_site_id
 _symmetry_equiv_pos_as_xyz
  1  'x, y, z'
loop_
 _atom_site_type_symbol
 _atom_site_label
 _atom_site_symmetry_multiplicity
 _atom_site_fract_x
 _atom_site_fract_y
 _atom_site_fract_z
 _atom_site_occupancy
  Ba  Ba0  1  0.24862300  0.74832500  0.24342600  1
  Ba  Ba1  1  0.75962700  0.24342600  0.74832500  1
  Ba  Ba2  1  0.00657400  0.49037300  0.00137700  1
  Ba  Ba3  1  0.50167500  0.00137700  0.49037300  1
  Ba  Ba4  1  0.25941700  0.74058300  0.74058300  1
  Ba  Ba5  1  0.50941700  0.99058300  0.99058300  1
  Ba  Ba6  1  0.74859900  0.25140100  0.25140100  1
  Ba  Ba7  1  0.99859900  0.50140100  0.50140100  1
  Cd  Cd8  1  0.48745900  0.26457000  0.73429900  1
  Cd  Cd9  1  0.51367200  0.73429900  0.26457000  1
  Cd  Cd10  1  0.51570100  0.73632800  0.76254100  1
  Cd  Cd11  1  0.98543000  0.76254100  0.73632800  1
  Cd  Cd12  1  0.92026900  0.82894200  0.23064700  1
  Cd  Cd13  1  0.02014300  0.23064700  0.82894200  1
  Cd  Cd14  1  0.01935300  0.22985700  0.32973100  1
  Cd  Cd15  1  0.42105800  0.32973100  0.22985700  1
  Ge  Ge16  1  0.34950100  0.40044300  0.51501100  1
  Ge  Ge17  1  0.73504500  0.51501100  0.40044300  1
  Ge  Ge18  1  0.73498900  0.51495500  0.90049900  1
  Ge  Ge19  1  0.84955700  0.90049900  0.51495500  1
  Ge  Ge20  1  0.23734800  0.01322800  0.98308000  1
  Ge  Ge21  1  0.76634400  0.98308000  0.01322800  1
  Ge  Ge22  1  0.26692000  0.48365600  0.01265200  1
  Ge  Ge23  1  0.23677200  0.01265200  0.48365600  1
  S  S24  1  0.94286700  0.96715900  0.32040400  1
  S  S25  1  0.76956900  0.32040400  0.96715900  1
  S  S26  1  0.92959600  0.48043100  0.30713300  1
  S  S27  1  0.28284100  0.30713300  0.48043100  1
  S  S28  1  0.42772400  0.98365200  0.80241700  1
  S  S29  1  0.78620700  0.80241700  0.98365200  1
  S  S30  1  0.44758300  0.46379300  0.82227600  1
  S  S31  1  0.26634800  0.82227600  0.46379300  1
  S  S32  1  0.08542900  0.66506200  0.01706300  1
  S  S33  1  0.23244500  0.01706300  0.66506200  1
  S  S34  1  0.23293700  0.01755500  0.16457100  1
  S  S35  1  0.58493800  0.16457100  0.01755500  1
  S  S36  1  0.02523300  0.72493700  0.52192000  1
  S  S37  1  0.72791000  0.52192000  0.72493700  1
  S  S38  1  0.72808000  0.52209000  0.22476700  1
  S  S39  1  0.52506300  0.22476700  0.52209000  1
  S  S40  1  0.20502500  0.54231800  0.70773000  1
  S  S41  1  0.54492700  0.70773000  0.54231800  1
  S  S42  1  0.54227000  0.70507300  0.04497500  1
  S  S43  1  0.70768200  0.04497500  0.70507300  1
  S  S44  1  0.22525700  0.52291700  0.20584200  1
  S  S45  1  0.04598400  0.20584200  0.52291700  1
  S  S46  1  0.04415800  0.20401600  0.02474300  1
  S  S47  1  0.72708300  0.02474300  0.20401600  1
  S  S48  1  0.94773300  0.96101000  0.82184500  1
  S  S49  1  0.26941200  0.82184500  0.96101000  1
  S  S50  1  0.42815500  0.98058800  0.30226700  1
  S  S51  1  0.28899000  0.30226700  0.98058800  1
  S  S52  1  0.78097000  0.80786900  0.48290000  1
  S  S53  1  0.92826100  0.48290000  0.80786900  1
  S  S54  1  0.76710000  0.32173900  0.46903000  1
  S  S55  1  0.44213100  0.46903000  0.32173900  1
