# generated using pymatgen
data_Y2Si5Ir3
_symmetry_space_group_name_H-M   'P 1'
_cell_length_a   8.14465683
_cell_length_b   8.14465683
_cell_length_c   8.14465683
_cell_angle_alpha   137.91414551
_cell_angle_beta   104.37345986
_cell_angle_gamma   90.55104851
_symmetry_Int_Tables_number   1
_chemical_formula_structural   Y2Si5Ir3
_chemical_formula_sum   'Y4 Si10 Ir6'
_cell_volume   334.78421994
_cell_formula_units_Z   2
loop_
 _symmetry_equiv_pos_site_id
 _symmetry_equiv_pos_as_xyz
  1  'x, y, z'
loop_
 _atom_site_type_symbol
 _atom_site_label
 _atom_site_symmetry_multiplicity
 _atom_site_fract_x
 _atom_site_fract_y
 _atom_site_fract_z
 _atom_site_occupancy
  Y  Y0  1  0.86069300  0.63073500  0.22995900  1
  Y  Y1  1  0.13930700  0.36926500  0.77004100  1
  Y  Y2  1  0.40077600  0.13073500  0.27004100  1
  Y  Y3  1  0.59922400  0.86926500  0.72995900  1
  Si  Si4  1  0.50000000  0.75000000  0.25000000  1
  Si  Si5  1  0.50000000  0.25000000  0.75000000  1
  Si  Si6  1  0.22607800  0.97607800  0.75000000  1
  Si  Si7  1  0.77392200  0.52392200  0.75000000  1
  Si  Si8  1  0.77392200  0.02392200  0.25000000  1
  Si  Si9  1  0.22607800  0.47607800  0.25000000  1
  Si  Si10  1  0.04889400  0.89362100  0.15527300  1
  Si  Si11  1  0.95110600  0.10637900  0.84472700  1
  Si  Si12  1  0.73834700  0.39362100  0.34472700  1
  Si  Si13  1  0.26165300  0.60637900  0.65527300  1
  Ir  Ir14  1  0.00000000  0.75000000  0.75000000  1
  Ir  Ir15  1  0.00000000  0.25000000  0.25000000  1
  Ir  Ir16  1  0.24692600  0.86050800  0.38641800  1
  Ir  Ir17  1  0.75307400  0.13949200  0.61358200  1
  Ir  Ir18  1  0.47409000  0.36050800  0.11358200  1
  Ir  Ir19  1  0.52591000  0.63949200  0.88641800  1
