# generated using pymatgen
data_Sr2SiO4
_symmetry_space_group_name_H-M   'P 1'
_cell_length_a   7.16529500
_cell_length_b   5.75752600
_cell_length_c   11.12053421
_cell_angle_alpha   62.25751109
_cell_angle_beta   90.00000000
_cell_angle_gamma   90.00000000
_symmetry_Int_Tables_number   1
_chemical_formula_structural   Sr2SiO4
_chemical_formula_sum   'Sr8 Si4 O16'
_cell_volume   406.03436022
_cell_formula_units_Z   4
loop_
 _symmetry_equiv_pos_site_id
 _symmetry_equiv_pos_as_xyz
  1  'x, y, z'
loop_
 _atom_site_type_symbol
 _atom_site_label
 _atom_site_symmetry_multiplicity
 _atom_site_fract_x
 _atom_site_fract_y
 _atom_site_fract_z
 _atom_site_occupancy
  Sr  Sr0  1  0.50146800  0.02782800  0.19802100  1
  Sr  Sr1  1  0.00146800  0.97217200  0.30197900  1
  Sr  Sr2  1  0.49853200  0.97217200  0.80197900  1
  Sr  Sr3  1  0.99853200  0.02782800  0.69802100  1
  Sr  Sr4  1  0.15997400  0.31128900  0.92455900  1
  Sr  Sr5  1  0.65997400  0.68871100  0.57544100  1
  Sr  Sr6  1  0.84002600  0.68871100  0.07544100  1
  Sr  Sr7  1  0.34002600  0.31128900  0.42455900  1
  Si  Si8  1  0.72101700  0.34072700  0.91848900  1
  Si  Si9  1  0.22101700  0.65927300  0.58151100  1
  Si  Si10  1  0.27898300  0.65927300  0.08151100  1
  Si  Si11  1  0.77898300  0.34072700  0.41848900  1
  O  O12  1  0.76420300  0.65491400  0.81909500  1
  O  O13  1  0.26420300  0.34508600  0.68090500  1
  O  O14  1  0.23579700  0.34508600  0.18090500  1
  O  O15  1  0.73579700  0.65491400  0.31909500  1
  O  O16  1  0.82407000  0.15423900  0.86046800  1
  O  O17  1  0.32407000  0.84576100  0.63953200  1
  O  O18  1  0.17593000  0.84576100  0.13953200  1
  O  O19  1  0.67593000  0.15423900  0.36046800  1
  O  O20  1  0.81899400  0.25143000  0.06987500  1
  O  O21  1  0.31899400  0.74857000  0.43012500  1
  O  O22  1  0.18100600  0.74857000  0.93012500  1
  O  O23  1  0.68100600  0.25143000  0.56987500  1
  O  O24  1  0.00357400  0.28637500  0.43231500  1
  O  O25  1  0.50357400  0.71362500  0.06768500  1
  O  O26  1  0.99642600  0.71362500  0.56768500  1
  O  O27  1  0.49642600  0.28637500  0.93231500  1
