# generated using pymatgen
data_HoBe13
_symmetry_space_group_name_H-M   'P 1'
_cell_length_a   7.18207226
_cell_length_b   7.18207226
_cell_length_c   7.18207226
_cell_angle_alpha   60.00000000
_cell_angle_beta   60.00000000
_cell_angle_gamma   60.00000000
_symmetry_Int_Tables_number   1
_chemical_formula_structural   HoBe13
_chemical_formula_sum   'Ho2 Be26'
_cell_volume   261.95959700
_cell_formula_units_Z   2
loop_
 _symmetry_equiv_pos_site_id
 _symmetry_equiv_pos_as_xyz
  1  'x, y, z'
loop_
 _atom_site_type_symbol
 _atom_site_label
 _atom_site_symmetry_multiplicity
 _atom_site_fract_x
 _atom_site_fract_y
 _atom_site_fract_z
 _atom_site_occupancy
  Ho  Ho0  1  0.25000000  0.25000000  0.25000000  1
  Ho  Ho1  1  0.75000000  0.75000000  0.75000000  1
  Be  Be2  1  0.50000000  0.50000000  0.50000000  1
  Be  Be3  1  0.00000000  0.00000000  0.00000000  1
  Be  Be4  1  0.79120800  0.56284400  0.20879200  1
  Be  Be5  1  0.20879200  0.43715600  0.79120800  1
  Be  Be6  1  0.56284400  0.79120800  0.43715600  1
  Be  Be7  1  0.43715600  0.20879200  0.56284400  1
  Be  Be8  1  0.29120800  0.93715600  0.70879200  1
  Be  Be9  1  0.70879200  0.06284400  0.29120800  1
  Be  Be10  1  0.93715600  0.29120800  0.06284400  1
  Be  Be11  1  0.06284400  0.70879200  0.93715600  1
  Be  Be12  1  0.20879200  0.79120800  0.56284400  1
  Be  Be13  1  0.79120800  0.20879200  0.43715600  1
  Be  Be14  1  0.43715600  0.56284400  0.79120800  1
  Be  Be15  1  0.56284400  0.43715600  0.20879200  1
  Be  Be16  1  0.70879200  0.29120800  0.93715600  1
  Be  Be17  1  0.29120800  0.70879200  0.06284400  1
  Be  Be18  1  0.06284400  0.93715600  0.29120800  1
  Be  Be19  1  0.93715600  0.06284400  0.70879200  1
  Be  Be20  1  0.56284400  0.20879200  0.79120800  1
  Be  Be21  1  0.43715600  0.79120800  0.20879200  1
  Be  Be22  1  0.79120800  0.43715600  0.56284400  1
  Be  Be23  1  0.20879200  0.56284400  0.43715600  1
  Be  Be24  1  0.93715600  0.70879200  0.29120800  1
  Be  Be25  1  0.06284400  0.29120800  0.70879200  1
  Be  Be26  1  0.29120800  0.06284400  0.93715600  1
  Be  Be27  1  0.70879200  0.93715600  0.06284400  1
