# generated using pymatgen
data_Sm2TiCo16
_symmetry_space_group_name_H-M   'P 1'
_cell_length_a   6.32292039
_cell_length_b   6.32292039
_cell_length_c   6.32292033
_cell_angle_alpha   83.12401823
_cell_angle_beta   83.12401823
_cell_angle_gamma   83.12403000
_symmetry_Int_Tables_number   1
_chemical_formula_structural   Sm2TiCo16
_chemical_formula_sum   'Sm2 Ti1 Co16'
_cell_volume   247.73458516
_cell_formula_units_Z   1
loop_
 _symmetry_equiv_pos_site_id
 _symmetry_equiv_pos_as_xyz
  1  'x, y, z'
loop_
 _atom_site_type_symbol
 _atom_site_label
 _atom_site_symmetry_multiplicity
 _atom_site_fract_x
 _atom_site_fract_y
 _atom_site_fract_z
 _atom_site_occupancy
  Sm  Sm0  1  0.65618100  0.65618100  0.65618100  1
  Sm  Sm1  1  0.35102400  0.35102400  0.35102400  1
  Ti  Ti2  1  0.09164100  0.09164100  0.09164100  1
  Co  Co3  1  0.28985200  0.70940900  0.99778300  1
  Co  Co4  1  0.70940900  0.99778300  0.28985200  1
  Co  Co5  1  0.99778300  0.28985200  0.70940900  1
  Co  Co6  1  0.28985200  0.99778300  0.70940900  1
  Co  Co7  1  0.99778300  0.70940900  0.28985200  1
  Co  Co8  1  0.70940900  0.28985200  0.99778300  1
  Co  Co9  1  0.99863900  0.99863900  0.50478500  1
  Co  Co10  1  0.99863900  0.50478500  0.99863900  1
  Co  Co11  1  0.50478500  0.99863900  0.99863900  1
  Co  Co12  1  0.34687400  0.34687400  0.84892500  1
  Co  Co13  1  0.34687400  0.84892500  0.34687400  1
  Co  Co14  1  0.84892500  0.34687400  0.34687400  1
  Co  Co15  1  0.65591100  0.65591100  0.14909000  1
  Co  Co16  1  0.65591100  0.14909000  0.65591100  1
  Co  Co17  1  0.14909000  0.65591100  0.65591100  1
  Co  Co18  1  0.90141500  0.90141500  0.90141500  1
