# generated using pymatgen
data_Tb2B4C
_symmetry_space_group_name_H-M   'P 1'
_cell_length_a   5.29176306
_cell_length_b   5.29176306
_cell_length_c   5.29176306
_cell_angle_alpha   143.77145415
_cell_angle_beta   103.24367559
_cell_angle_gamma   87.95072864
_symmetry_Int_Tables_number   1
_chemical_formula_structural   Tb2B4C
_chemical_formula_sum   'Tb2 B4 C1'
_cell_volume   82.33806921
_cell_formula_units_Z   1
loop_
 _symmetry_equiv_pos_site_id
 _symmetry_equiv_pos_as_xyz
  1  'x, y, z'
loop_
 _atom_site_type_symbol
 _atom_site_label
 _atom_site_symmetry_multiplicity
 _atom_site_fract_x
 _atom_site_fract_y
 _atom_site_fract_z
 _atom_site_occupancy
  Tb  Tb0  1  0.23461300  0.73461300  0.50000000  1
  Tb  Tb1  1  0.76538700  0.26538700  0.50000000  1
  B  B2  1  0.63507900  0.50000000  0.13507900  1
  B  B3  1  0.36492100  0.50000000  0.86492100  1
  B  B4  1  0.22724600  0.00000000  0.22724600  1
  B  B5  1  0.77275400  0.00000000  0.77275400  1
  C  C6  1  0.00000000  0.00000000  0.00000000  1
