# generated using pymatgen
data_TiCu4
_symmetry_space_group_name_H-M   'P 1'
_cell_length_a   4.33620500
_cell_length_b   4.49819700
_cell_length_c   13.03164300
_cell_angle_alpha   90.00000000
_cell_angle_beta   90.00000000
_cell_angle_gamma   90.00000000
_symmetry_Int_Tables_number   1
_chemical_formula_structural   TiCu4
_chemical_formula_sum   'Ti4 Cu16'
_cell_volume   254.18355621
_cell_formula_units_Z   4
loop_
 _symmetry_equiv_pos_site_id
 _symmetry_equiv_pos_as_xyz
  1  'x, y, z'
loop_
 _atom_site_type_symbol
 _atom_site_label
 _atom_site_symmetry_multiplicity
 _atom_site_fract_x
 _atom_site_fract_y
 _atom_site_fract_z
 _atom_site_occupancy
  Ti  Ti0  1  0.25000000  0.15917900  0.59671000  1
  Ti  Ti1  1  0.25000000  0.65917900  0.90329000  1
  Ti  Ti2  1  0.75000000  0.84082100  0.40329000  1
  Ti  Ti3  1  0.75000000  0.34082100  0.09671000  1
  Cu  Cu4  1  0.25000000  0.16344600  0.00303900  1
  Cu  Cu5  1  0.25000000  0.66344600  0.49696100  1
  Cu  Cu6  1  0.75000000  0.83655400  0.99696100  1
  Cu  Cu7  1  0.75000000  0.33655400  0.50303900  1
  Cu  Cu8  1  0.25000000  0.16362100  0.79866800  1
  Cu  Cu9  1  0.25000000  0.66362100  0.70133200  1
  Cu  Cu10  1  0.75000000  0.83637900  0.20133200  1
  Cu  Cu11  1  0.75000000  0.33637900  0.29866800  1
  Cu  Cu12  1  0.25000000  0.17893500  0.39529900  1
  Cu  Cu13  1  0.25000000  0.67893500  0.10470100  1
  Cu  Cu14  1  0.75000000  0.82106500  0.60470100  1
  Cu  Cu15  1  0.75000000  0.32106500  0.89529900  1
  Cu  Cu16  1  0.25000000  0.16795900  0.20224000  1
  Cu  Cu17  1  0.25000000  0.66795900  0.29776000  1
  Cu  Cu18  1  0.75000000  0.83204100  0.79776000  1
  Cu  Cu19  1  0.75000000  0.33204100  0.70224000  1
