# generated using pymatgen
data_Ge3F8
_symmetry_space_group_name_H-M   'P 1'
_cell_length_a   5.20907300
_cell_length_b   5.09439700
_cell_length_c   13.01652628
_cell_angle_alpha   67.90756789
_cell_angle_beta   90.00000000
_cell_angle_gamma   90.00000000
_symmetry_Int_Tables_number   1
_chemical_formula_structural   Ge3F8
_chemical_formula_sum   'Ge6 F16'
_cell_volume   320.05930784
_cell_formula_units_Z   2
loop_
 _symmetry_equiv_pos_site_id
 _symmetry_equiv_pos_as_xyz
  1  'x, y, z'
loop_
 _atom_site_type_symbol
 _atom_site_label
 _atom_site_symmetry_multiplicity
 _atom_site_fract_x
 _atom_site_fract_y
 _atom_site_fract_z
 _atom_site_occupancy
  Ge  Ge0  1  0.60055300  0.38327800  0.16871300  1
  Ge  Ge1  1  0.89944700  0.38327800  0.66871300  1
  Ge  Ge2  1  0.39944700  0.61672200  0.83128700  1
  Ge  Ge3  1  0.10055300  0.61672200  0.33128700  1
  Ge  Ge4  1  0.00000000  0.00000000  0.00000000  1
  Ge  Ge5  1  0.50000000  0.00000000  0.50000000  1
  F  F6  1  0.70321800  0.77638600  0.05950200  1
  F  F7  1  0.79678200  0.77638600  0.55950200  1
  F  F8  1  0.29678200  0.22361400  0.94049800  1
  F  F9  1  0.20321800  0.22361400  0.44049800  1
  F  F10  1  0.80933200  0.31700400  0.96610000  1
  F  F11  1  0.69066800  0.31700400  0.46610000  1
  F  F12  1  0.19066800  0.68299600  0.03390000  1
  F  F13  1  0.30933200  0.68299600  0.53390000  1
  F  F14  1  0.93682800  0.98788700  0.86401000  1
  F  F15  1  0.56317200  0.98788700  0.36401000  1
  F  F16  1  0.06317200  0.01211300  0.13599000  1
  F  F17  1  0.43682800  0.01211300  0.63599000  1
  F  F18  1  0.92268500  0.41500700  0.24840100  1
  F  F19  1  0.57731500  0.41500700  0.74840100  1
  F  F20  1  0.07731500  0.58499300  0.75159900  1
  F  F21  1  0.42268500  0.58499300  0.25159900  1
