# generated using pymatgen
data_Rb6Ge2O7
_symmetry_space_group_name_H-M   'P 1'
_cell_length_a   9.56561500
_cell_length_b   6.93705500
_cell_length_c   11.74977145
_cell_angle_alpha   55.40898176
_cell_angle_beta   90.00000000
_cell_angle_gamma   90.00000000
_symmetry_Int_Tables_number   1
_chemical_formula_structural   Rb6Ge2O7
_chemical_formula_sum   'Rb12 Ge4 O14'
_cell_volume   641.85392651
_cell_formula_units_Z   2
loop_
 _symmetry_equiv_pos_site_id
 _symmetry_equiv_pos_as_xyz
  1  'x, y, z'
loop_
 _atom_site_type_symbol
 _atom_site_label
 _atom_site_symmetry_multiplicity
 _atom_site_fract_x
 _atom_site_fract_y
 _atom_site_fract_z
 _atom_site_occupancy
  Rb  Rb0  1  0.78639500  0.60110400  0.27859900  1
  Rb  Rb1  1  0.71360500  0.60110400  0.77859900  1
  Rb  Rb2  1  0.21360500  0.39889600  0.72140100  1
  Rb  Rb3  1  0.35307600  0.03889600  0.08137600  1
  Rb  Rb4  1  0.85307600  0.96110400  0.41862400  1
  Rb  Rb5  1  0.64692400  0.96110400  0.91862400  1
  Rb  Rb6  1  0.14692400  0.03889600  0.58137600  1
  Rb  Rb7  1  0.47308000  0.79125400  0.45696400  1
  Rb  Rb8  1  0.97308000  0.20874600  0.04303600  1
  Rb  Rb9  1  0.52692000  0.20874600  0.54303600  1
  Rb  Rb10  1  0.02692000  0.79125400  0.95696400  1
  Rb  Rb11  1  0.28639500  0.39889600  0.22140100  1
  Ge  Ge12  1  0.36129800  0.67860800  0.87208600  1
  Ge  Ge13  1  0.13870200  0.67860800  0.37208600  1
  Ge  Ge14  1  0.63870200  0.32139200  0.12791400  1
  Ge  Ge15  1  0.86129800  0.32139200  0.62791400  1
  O  O16  1  0.28790600  0.49313400  0.43508700  1
  O  O17  1  0.00000000  0.50000000  0.50000000  1
  O  O18  1  0.50000000  0.50000000  0.00000000  1
  O  O19  1  0.08382000  0.74516500  0.20941000  1
  O  O20  1  0.78790600  0.50686600  0.06491300  1
  O  O21  1  0.71209400  0.50686600  0.56491300  1
  O  O22  1  0.21209400  0.49313400  0.93508700  1
  O  O23  1  0.33945000  0.93218900  0.87316800  1
  O  O24  1  0.83945000  0.06781100  0.62683200  1
  O  O25  1  0.66055000  0.06781100  0.12683200  1
  O  O26  1  0.16055000  0.93218900  0.37316800  1
  O  O27  1  0.41618000  0.74516500  0.70941000  1
  O  O28  1  0.91618000  0.25483500  0.79059000  1
  O  O29  1  0.58382000  0.25483500  0.29059000  1
