# generated using pymatgen
data_Cs3SnTe3
_symmetry_space_group_name_H-M   'P 1'
_cell_length_a   11.62005030
_cell_length_b   11.62005030
_cell_length_c   10.55194469
_cell_angle_alpha   85.19282230
_cell_angle_beta   85.19282230
_cell_angle_gamma   79.05233318
_symmetry_Int_Tables_number   1
_chemical_formula_structural   Cs3SnTe3
_chemical_formula_sum   'Cs12 Sn4 Te12'
_cell_volume   1390.57223320
_cell_formula_units_Z   4
loop_
 _symmetry_equiv_pos_site_id
 _symmetry_equiv_pos_as_xyz
  1  'x, y, z'
loop_
 _atom_site_type_symbol
 _atom_site_label
 _atom_site_symmetry_multiplicity
 _atom_site_fract_x
 _atom_site_fract_y
 _atom_site_fract_z
 _atom_site_occupancy
  Cs  Cs0  1  0.60395000  0.39605000  0.25000000  1
  Cs  Cs1  1  0.39605000  0.60395000  0.75000000  1
  Cs  Cs2  1  0.91424500  0.08575500  0.25000000  1
  Cs  Cs3  1  0.08575500  0.91424500  0.75000000  1
  Cs  Cs4  1  0.78618900  0.40313400  0.86380500  1
  Cs  Cs5  1  0.59686600  0.21381100  0.63619500  1
  Cs  Cs6  1  0.21381100  0.59686600  0.13619500  1
  Cs  Cs7  1  0.40313400  0.78618900  0.36380500  1
  Cs  Cs8  1  0.75488300  0.80777000  0.68557500  1
  Cs  Cs9  1  0.19223000  0.24511700  0.81442500  1
  Cs  Cs10  1  0.24511700  0.19223000  0.31442500  1
  Cs  Cs11  1  0.80777000  0.75488300  0.18557500  1
  Sn  Sn12  1  0.91723300  0.43439300  0.45479000  1
  Sn  Sn13  1  0.56560700  0.08276700  0.04521000  1
  Sn  Sn14  1  0.08276700  0.56560700  0.54521000  1
  Sn  Sn15  1  0.43439300  0.91723300  0.95479000  1
  Te  Te16  1  0.04733200  0.58111600  0.80914800  1
  Te  Te17  1  0.41888400  0.95266800  0.69085200  1
  Te  Te18  1  0.95266800  0.41888400  0.19085200  1
  Te  Te19  1  0.58111600  0.04733200  0.30914800  1
  Te  Te20  1  0.05023100  0.78923100  0.42319100  1
  Te  Te21  1  0.21076900  0.94976900  0.07680900  1
  Te  Te22  1  0.94976900  0.21076900  0.57680900  1
  Te  Te23  1  0.78923100  0.05023100  0.92319100  1
  Te  Te24  1  0.68795500  0.54909200  0.52275100  1
  Te  Te25  1  0.45090800  0.31204500  0.97724900  1
  Te  Te26  1  0.31204500  0.45090800  0.47724900  1
  Te  Te27  1  0.54909200  0.68795500  0.02275100  1
