# generated using pymatgen
data_Nd12InPt7
_symmetry_space_group_name_H-M   'P 1'
_cell_length_a   11.27988693
_cell_length_b   11.27988693
_cell_length_c   11.27988693
_cell_angle_alpha   115.02273809
_cell_angle_beta   115.02273809
_cell_angle_gamma   98.86136710
_symmetry_Int_Tables_number   1
_chemical_formula_structural   Nd12InPt7
_chemical_formula_sum   'Nd24 In2 Pt14'
_cell_volume   1077.19795349
_cell_formula_units_Z   2
loop_
 _symmetry_equiv_pos_site_id
 _symmetry_equiv_pos_as_xyz
  1  'x, y, z'
loop_
 _atom_site_type_symbol
 _atom_site_label
 _atom_site_symmetry_multiplicity
 _atom_site_fract_x
 _atom_site_fract_y
 _atom_site_fract_z
 _atom_site_occupancy
  Nd  Nd0  1  0.84988100  0.71417800  0.27966200  1
  Nd  Nd1  1  0.15011900  0.28582200  0.72033800  1
  Nd  Nd2  1  0.43451600  0.57021900  0.72033800  1
  Nd  Nd3  1  0.71417800  0.43451600  0.86429700  1
  Nd  Nd4  1  0.06548400  0.78582200  0.13570300  1
  Nd  Nd5  1  0.56548400  0.42978100  0.27966200  1
  Nd  Nd6  1  0.28582200  0.56548400  0.13570300  1
  Nd  Nd7  1  0.93451600  0.21417800  0.86429700  1
  Nd  Nd8  1  0.57021900  0.84988100  0.13570300  1
  Nd  Nd9  1  0.65011900  0.92978100  0.86429700  1
  Nd  Nd10  1  0.42978100  0.15011900  0.86429700  1
  Nd  Nd11  1  0.34988100  0.07021900  0.13570300  1
  Nd  Nd12  1  0.92978100  0.06548400  0.27966200  1
  Nd  Nd13  1  0.07021900  0.93451600  0.72033800  1
  Nd  Nd14  1  0.78582200  0.65011900  0.72033800  1
  Nd  Nd15  1  0.21417800  0.34988100  0.27966200  1
  Nd  Nd16  1  0.17699000  0.67699000  0.85398000  1
  Nd  Nd17  1  0.82301000  0.32301000  0.14602000  1
  Nd  Nd18  1  0.67699000  0.82301000  0.50000000  1
  Nd  Nd19  1  0.32301000  0.17699000  0.50000000  1
  Nd  Nd20  1  0.13398000  0.63398000  0.50000000  1
  Nd  Nd21  1  0.86602000  0.36602000  0.50000000  1
  Nd  Nd22  1  0.63398000  0.13398000  0.50000000  1
  Nd  Nd23  1  0.36602000  0.86602000  0.50000000  1
  In  In24  1  0.50000000  0.50000000  0.00000000  1
  In  In25  1  0.00000000  0.00000000  0.00000000  1
  Pt  Pt26  1  0.62583700  0.12583700  0.75167400  1
  Pt  Pt27  1  0.37416300  0.87416300  0.24832600  1
  Pt  Pt28  1  0.12583700  0.37416300  0.50000000  1
  Pt  Pt29  1  0.87416300  0.62583700  0.50000000  1
  Pt  Pt30  1  0.37072400  0.87072400  0.85105900  1
  Pt  Pt31  1  0.62927600  0.12927600  0.14894100  1
  Pt  Pt32  1  0.01966500  0.51966500  0.14894100  1
  Pt  Pt33  1  0.87072400  0.01966500  0.50000000  1
  Pt  Pt34  1  0.48033500  0.62927600  0.50000000  1
  Pt  Pt35  1  0.98033500  0.48033500  0.85105900  1
  Pt  Pt36  1  0.12927600  0.98033500  0.50000000  1
  Pt  Pt37  1  0.51966500  0.37072400  0.50000000  1
  Pt  Pt38  1  0.75000000  0.75000000  0.00000000  1
  Pt  Pt39  1  0.25000000  0.25000000  0.00000000  1
