# generated using pymatgen
data_Rb2SbF5
_symmetry_space_group_name_H-M   'P 1'
_cell_length_a   6.39212600
_cell_length_b   8.55599100
_cell_length_c   12.53693400
_cell_angle_alpha   90.00000000
_cell_angle_beta   90.00000000
_cell_angle_gamma   90.00000000
_symmetry_Int_Tables_number   1
_chemical_formula_structural   Rb2SbF5
_chemical_formula_sum   'Rb8 Sb4 F20'
_cell_volume   685.65711297
_cell_formula_units_Z   4
loop_
 _symmetry_equiv_pos_site_id
 _symmetry_equiv_pos_as_xyz
  1  'x, y, z'
loop_
 _atom_site_type_symbol
 _atom_site_label
 _atom_site_symmetry_multiplicity
 _atom_site_fract_x
 _atom_site_fract_y
 _atom_site_fract_z
 _atom_site_occupancy
  Rb  Rb0  1  0.75000000  0.48953400  0.27231100  1
  Rb  Rb1  1  0.25000000  0.51046600  0.72768900  1
  Rb  Rb2  1  0.25000000  0.01046600  0.77231100  1
  Rb  Rb3  1  0.75000000  0.98953400  0.22768900  1
  Rb  Rb4  1  0.75000000  0.84740000  0.57492600  1
  Rb  Rb5  1  0.25000000  0.15260000  0.42507400  1
  Rb  Rb6  1  0.25000000  0.65260000  0.07492600  1
  Rb  Rb7  1  0.75000000  0.34740000  0.92507400  1
  Sb  Sb8  1  0.75000000  0.82024500  0.93649900  1
  Sb  Sb9  1  0.25000000  0.17975500  0.06350100  1
  Sb  Sb10  1  0.25000000  0.67975500  0.43649900  1
  Sb  Sb11  1  0.75000000  0.32024500  0.56350100  1
  F  F12  1  0.75000000  0.69396800  0.09935800  1
  F  F13  1  0.25000000  0.30603200  0.90064200  1
  F  F14  1  0.25000000  0.80603200  0.59935800  1
  F  F15  1  0.75000000  0.19396800  0.40064200  1
  F  F16  1  0.98609600  0.66986400  0.88297900  1
  F  F17  1  0.01390400  0.33013600  0.11702100  1
  F  F18  1  0.01390400  0.83013600  0.38297900  1
  F  F19  1  0.48609600  0.33013600  0.11702100  1
  F  F20  1  0.98609600  0.16986400  0.61702100  1
  F  F21  1  0.51390400  0.66986400  0.88297900  1
  F  F22  1  0.51390400  0.16986400  0.61702100  1
  F  F23  1  0.48609600  0.83013600  0.38297900  1
  F  F24  1  0.00000000  0.00000000  0.00000000  1
  F  F25  1  0.00000000  0.50000000  0.50000000  1
  F  F26  1  0.50000000  0.00000000  0.00000000  1
  F  F27  1  0.50000000  0.50000000  0.50000000  1
  F  F28  1  0.75000000  0.93338600  0.78750900  1
  F  F29  1  0.25000000  0.06661400  0.21249100  1
  F  F30  1  0.25000000  0.56661400  0.28750900  1
  F  F31  1  0.75000000  0.43338600  0.71249100  1
