# generated using pymatgen
data_Sm3(Ge3Pd10)2
_symmetry_space_group_name_H-M   'P 1'
_cell_length_a   8.87938875
_cell_length_b   8.87938875
_cell_length_c   8.87938875
_cell_angle_alpha   60.00000000
_cell_angle_beta   60.00000000
_cell_angle_gamma   60.00000000
_symmetry_Int_Tables_number   1
_chemical_formula_structural   Sm3(Ge3Pd10)2
_chemical_formula_sum   'Sm3 Ge6 Pd20'
_cell_volume   495.03307140
_cell_formula_units_Z   1
loop_
 _symmetry_equiv_pos_site_id
 _symmetry_equiv_pos_as_xyz
  1  'x, y, z'
loop_
 _atom_site_type_symbol
 _atom_site_label
 _atom_site_symmetry_multiplicity
 _atom_site_fract_x
 _atom_site_fract_y
 _atom_site_fract_z
 _atom_site_occupancy
  Sm  Sm0  1  0.25000000  0.25000000  0.25000000  1
  Sm  Sm1  1  0.75000000  0.75000000  0.75000000  1
  Sm  Sm2  1  0.00000000  0.00000000  0.00000000  1
  Ge  Ge3  1  0.73045100  0.26954900  0.26954900  1
  Ge  Ge4  1  0.26954900  0.73045100  0.73045100  1
  Ge  Ge5  1  0.26954900  0.73045100  0.26954900  1
  Ge  Ge6  1  0.73045100  0.26954900  0.73045100  1
  Ge  Ge7  1  0.26954900  0.26954900  0.73045100  1
  Ge  Ge8  1  0.73045100  0.73045100  0.26954900  1
  Pd  Pd9  1  0.38144600  0.38144600  0.38144600  1
  Pd  Pd10  1  0.61855400  0.61855400  0.61855400  1
  Pd  Pd11  1  0.38144600  0.38144600  0.85566200  1
  Pd  Pd12  1  0.38144600  0.85566200  0.38144600  1
  Pd  Pd13  1  0.61855400  0.61855400  0.14433800  1
  Pd  Pd14  1  0.61855400  0.14433800  0.61855400  1
  Pd  Pd15  1  0.85566200  0.38144600  0.38144600  1
  Pd  Pd16  1  0.14433800  0.61855400  0.61855400  1
  Pd  Pd17  1  0.34717600  0.00000000  0.00000000  1
  Pd  Pd18  1  0.65282400  0.00000000  0.00000000  1
  Pd  Pd19  1  0.00000000  0.34717600  0.65282400  1
  Pd  Pd20  1  0.00000000  0.65282400  0.34717600  1
  Pd  Pd21  1  0.00000000  0.34717600  0.00000000  1
  Pd  Pd22  1  0.65282400  0.00000000  0.34717600  1
  Pd  Pd23  1  0.00000000  0.65282400  0.00000000  1
  Pd  Pd24  1  0.34717600  0.00000000  0.65282400  1
  Pd  Pd25  1  0.00000000  0.00000000  0.34717600  1
  Pd  Pd26  1  0.00000000  0.00000000  0.65282400  1
  Pd  Pd27  1  0.65282400  0.34717600  0.00000000  1
  Pd  Pd28  1  0.34717600  0.65282400  0.00000000  1
