# generated using pymatgen
data_Sr3Sc2(GeO4)3
_symmetry_space_group_name_H-M   'P 1'
_cell_length_a   11.21653760
_cell_length_b   11.21653760
_cell_length_c   11.21653760
_cell_angle_alpha   109.47122063
_cell_angle_beta   109.47122063
_cell_angle_gamma   109.47122063
_symmetry_Int_Tables_number   1
_chemical_formula_structural   Sr3Sc2(GeO4)3
_chemical_formula_sum   'Sr12 Sc8 Ge12 O48'
_cell_volume   1086.31195308
_cell_formula_units_Z   4
loop_
 _symmetry_equiv_pos_site_id
 _symmetry_equiv_pos_as_xyz
  1  'x, y, z'
loop_
 _atom_site_type_symbol
 _atom_site_label
 _atom_site_symmetry_multiplicity
 _atom_site_fract_x
 _atom_site_fract_y
 _atom_site_fract_z
 _atom_site_occupancy
  Sr  Sr0  1  0.25000000  0.37500000  0.12500000  1
  Sr  Sr1  1  0.75000000  0.62500000  0.87500000  1
  Sr  Sr2  1  0.75000000  0.12500000  0.37500000  1
  Sr  Sr3  1  0.12500000  0.25000000  0.37500000  1
  Sr  Sr4  1  0.37500000  0.75000000  0.12500000  1
  Sr  Sr5  1  0.25000000  0.87500000  0.62500000  1
  Sr  Sr6  1  0.87500000  0.75000000  0.62500000  1
  Sr  Sr7  1  0.62500000  0.25000000  0.87500000  1
  Sr  Sr8  1  0.37500000  0.12500000  0.25000000  1
  Sr  Sr9  1  0.62500000  0.87500000  0.75000000  1
  Sr  Sr10  1  0.12500000  0.37500000  0.75000000  1
  Sr  Sr11  1  0.87500000  0.62500000  0.25000000  1
  Sc  Sc12  1  0.00000000  0.00000000  0.00000000  1
  Sc  Sc13  1  0.50000000  0.00000000  0.50000000  1
  Sc  Sc14  1  0.00000000  0.50000000  0.50000000  1
  Sc  Sc15  1  0.50000000  0.00000000  0.00000000  1
  Sc  Sc16  1  0.50000000  0.50000000  0.00000000  1
  Sc  Sc17  1  0.50000000  0.50000000  0.50000000  1
  Sc  Sc18  1  0.00000000  0.00000000  0.50000000  1
  Sc  Sc19  1  0.00000000  0.50000000  0.00000000  1
  Ge  Ge20  1  0.25000000  0.62500000  0.37500000  1
  Ge  Ge21  1  0.75000000  0.37500000  0.62500000  1
  Ge  Ge22  1  0.75000000  0.87500000  0.12500000  1
  Ge  Ge23  1  0.37500000  0.25000000  0.62500000  1
  Ge  Ge24  1  0.62500000  0.75000000  0.37500000  1
  Ge  Ge25  1  0.25000000  0.12500000  0.87500000  1
  Ge  Ge26  1  0.12500000  0.75000000  0.87500000  1
  Ge  Ge27  1  0.87500000  0.25000000  0.12500000  1
  Ge  Ge28  1  0.62500000  0.37500000  0.25000000  1
  Ge  Ge29  1  0.37500000  0.62500000  0.75000000  1
  Ge  Ge30  1  0.87500000  0.12500000  0.75000000  1
  Ge  Ge31  1  0.12500000  0.87500000  0.25000000  1
  O  O32  1  0.49091400  0.38477600  0.29988700  1
  O  O33  1  0.50908600  0.61522400  0.70011300  1
  O  O34  1  0.58489000  0.19102800  0.20011300  1
  O  O35  1  0.91511000  0.11522400  0.60613800  1
  O  O36  1  0.29988700  0.49091400  0.38477600  1
  O  O37  1  0.30897200  0.91511000  0.29988700  1
  O  O38  1  0.41511000  0.80897200  0.79988700  1
  O  O39  1  0.08489000  0.88477600  0.39386200  1
  O  O40  1  0.70011300  0.50908600  0.61522400  1
  O  O41  1  0.69102800  0.08489000  0.70011300  1
  O  O42  1  0.00908600  0.30897200  0.89386200  1
  O  O43  1  0.20011300  0.58489000  0.19102800  1
  O  O44  1  0.11522400  0.00908600  0.20011300  1
  O  O45  1  0.99091400  0.69102800  0.10613800  1
  O  O46  1  0.79988700  0.41511000  0.80897200  1
  O  O47  1  0.88477600  0.99091400  0.79988700  1
  O  O48  1  0.60613800  0.91511000  0.11522400  1
  O  O49  1  0.19102800  0.49091400  0.60613800  1
  O  O50  1  0.39386200  0.08489000  0.88477600  1
  O  O51  1  0.80897200  0.50908600  0.39386200  1
  O  O52  1  0.89386200  0.00908600  0.30897200  1
  O  O53  1  0.38477600  0.58489000  0.89386200  1
  O  O54  1  0.10613800  0.99091400  0.69102800  1
  O  O55  1  0.61522400  0.41511000  0.10613800  1
  O  O56  1  0.38477600  0.29988700  0.49091400  1
  O  O57  1  0.58489000  0.89386200  0.38477600  1
  O  O58  1  0.61522400  0.70011300  0.50908600  1
  O  O59  1  0.41511000  0.10613800  0.61522400  1
  O  O60  1  0.11522400  0.60613800  0.91511000  1
  O  O61  1  0.00908600  0.20011300  0.11522400  1
  O  O62  1  0.88477600  0.39386200  0.08489000  1
  O  O63  1  0.99091400  0.79988700  0.88477600  1
  O  O64  1  0.30897200  0.89386200  0.00908600  1
  O  O65  1  0.91511000  0.29988700  0.30897200  1
  O  O66  1  0.69102800  0.10613800  0.99091400  1
  O  O67  1  0.08489000  0.70011300  0.69102800  1
  O  O68  1  0.19102800  0.20011300  0.58489000  1
  O  O69  1  0.49091400  0.60613800  0.19102800  1
  O  O70  1  0.80897200  0.79988700  0.41511000  1
  O  O71  1  0.50908600  0.39386200  0.80897200  1
  O  O72  1  0.29988700  0.30897200  0.91511000  1
  O  O73  1  0.70011300  0.69102800  0.08489000  1
  O  O74  1  0.20011300  0.11522400  0.00908600  1
  O  O75  1  0.79988700  0.88477600  0.99091400  1
  O  O76  1  0.89386200  0.38477600  0.58489000  1
  O  O77  1  0.10613800  0.61522400  0.41511000  1
  O  O78  1  0.60613800  0.19102800  0.49091400  1
  O  O79  1  0.39386200  0.80897200  0.50908600  1
