# generated using pymatgen
data_Ca3Al7Cu2
_symmetry_space_group_name_H-M   'P 1'
_cell_length_a   9.18297738
_cell_length_b   9.18297738
_cell_length_c   9.18297683
_cell_angle_alpha   35.37038993
_cell_angle_beta   35.37038993
_cell_angle_gamma   35.37038855
_symmetry_Int_Tables_number   1
_chemical_formula_structural   Ca3Al7Cu2
_chemical_formula_sum   'Ca3 Al7 Cu2'
_cell_volume   231.82855649
_cell_formula_units_Z   1
loop_
 _symmetry_equiv_pos_site_id
 _symmetry_equiv_pos_as_xyz
  1  'x, y, z'
loop_
 _atom_site_type_symbol
 _atom_site_label
 _atom_site_symmetry_multiplicity
 _atom_site_fract_x
 _atom_site_fract_y
 _atom_site_fract_z
 _atom_site_occupancy
  Ca  Ca0  1  0.00000000  0.00000000  0.00000000  1
  Ca  Ca1  1  0.14295600  0.14295600  0.14295600  1
  Ca  Ca2  1  0.85704400  0.85704400  0.85704400  1
  Al  Al3  1  0.50000000  0.50000000  0.50000000  1
  Al  Al4  1  0.07305100  0.57951800  0.57951800  1
  Al  Al5  1  0.57951800  0.57951800  0.07305100  1
  Al  Al6  1  0.57951800  0.07305100  0.57951800  1
  Al  Al7  1  0.42048200  0.92694900  0.42048200  1
  Al  Al8  1  0.92694900  0.42048200  0.42048200  1
  Al  Al9  1  0.42048200  0.42048200  0.92694900  1
  Cu  Cu10  1  0.33501400  0.33501400  0.33501400  1
  Cu  Cu11  1  0.66498600  0.66498600  0.66498600  1
