# generated using pymatgen
data_Sr(LuSe2)2
_symmetry_space_group_name_H-M   'P 1'
_cell_length_a   4.08980300
_cell_length_b   12.53058200
_cell_length_c   14.77710500
_cell_angle_alpha   90.00000000
_cell_angle_beta   90.00000000
_cell_angle_gamma   90.00000000
_symmetry_Int_Tables_number   1
_chemical_formula_structural   Sr(LuSe2)2
_chemical_formula_sum   'Sr4 Lu8 Se16'
_cell_volume   757.29134139
_cell_formula_units_Z   4
loop_
 _symmetry_equiv_pos_site_id
 _symmetry_equiv_pos_as_xyz
  1  'x, y, z'
loop_
 _atom_site_type_symbol
 _atom_site_label
 _atom_site_symmetry_multiplicity
 _atom_site_fract_x
 _atom_site_fract_y
 _atom_site_fract_z
 _atom_site_occupancy
  Sr  Sr0  1  0.25000000  0.75997600  0.33378800  1
  Sr  Sr1  1  0.25000000  0.25997600  0.16621200  1
  Sr  Sr2  1  0.75000000  0.24002400  0.66621200  1
  Sr  Sr3  1  0.75000000  0.74002400  0.83378800  1
  Lu  Lu4  1  0.25000000  0.43925500  0.38919900  1
  Lu  Lu5  1  0.25000000  0.93925500  0.11080100  1
  Lu  Lu6  1  0.75000000  0.56074500  0.61080100  1
  Lu  Lu7  1  0.75000000  0.06074500  0.88919900  1
  Lu  Lu8  1  0.25000000  0.41720100  0.90264900  1
  Lu  Lu9  1  0.25000000  0.91720100  0.59735100  1
  Lu  Lu10  1  0.75000000  0.58279900  0.09735100  1
  Lu  Lu11  1  0.75000000  0.08279900  0.40264900  1
  Se  Se12  1  0.25000000  0.20469800  0.83157500  1
  Se  Se13  1  0.25000000  0.70469800  0.66842500  1
  Se  Se14  1  0.75000000  0.79530200  0.16842500  1
  Se  Se15  1  0.75000000  0.29530200  0.33157500  1
  Se  Se16  1  0.25000000  0.12803300  0.53039300  1
  Se  Se17  1  0.25000000  0.62803300  0.96960700  1
  Se  Se18  1  0.75000000  0.87196700  0.46960700  1
  Se  Se19  1  0.75000000  0.37196700  0.03039300  1
  Se  Se20  1  0.25000000  0.02821200  0.28456900  1
  Se  Se21  1  0.25000000  0.52821200  0.21543100  1
  Se  Se22  1  0.75000000  0.97178800  0.71543100  1
  Se  Se23  1  0.75000000  0.47178800  0.78456900  1
  Se  Se24  1  0.25000000  0.40934400  0.57646100  1
  Se  Se25  1  0.25000000  0.90934400  0.92353900  1
  Se  Se26  1  0.75000000  0.59065600  0.42353900  1
  Se  Se27  1  0.75000000  0.09065600  0.07646100  1
