# generated using pymatgen
data_U12Ge3Te20
_symmetry_space_group_name_H-M   'P 1'
_cell_length_a   4.25682500
_cell_length_b   8.92996300
_cell_length_c   26.28070100
_cell_angle_alpha   90.00000000
_cell_angle_beta   90.00000000
_cell_angle_gamma   90.00000000
_symmetry_Int_Tables_number   1
_chemical_formula_structural   U12Ge3Te20
_chemical_formula_sum   'U12 Ge3 Te20'
_cell_volume   999.01590188
_cell_formula_units_Z   1
loop_
 _symmetry_equiv_pos_site_id
 _symmetry_equiv_pos_as_xyz
  1  'x, y, z'
loop_
 _atom_site_type_symbol
 _atom_site_label
 _atom_site_symmetry_multiplicity
 _atom_site_fract_x
 _atom_site_fract_y
 _atom_site_fract_z
 _atom_site_occupancy
  U  U0  1  0.00000000  0.72261600  0.25001400  1
  U  U1  1  0.00000000  0.72261600  0.74998600  1
  U  U2  1  0.50000000  0.27819000  0.00000000  1
  U  U3  1  0.50000000  0.27712500  0.50000000  1
  U  U4  1  0.00000000  0.74379100  0.91482500  1
  U  U5  1  0.00000000  0.74093700  0.41733500  1
  U  U6  1  0.00000000  0.74379100  0.08517500  1
  U  U7  1  0.00000000  0.74093700  0.58266500  1
  U  U8  1  0.50000000  0.25856700  0.33242100  1
  U  U9  1  0.50000000  0.25604800  0.83328300  1
  U  U10  1  0.50000000  0.25604800  0.16671700  1
  U  U11  1  0.50000000  0.25856700  0.66757900  1
  Ge  Ge12  1  0.00000000  0.00744200  0.50000000  1
  Ge  Ge13  1  0.50000000  0.99217000  0.24972800  1
  Ge  Ge14  1  0.50000000  0.99217000  0.75027200  1
  Te  Te15  1  0.00000000  0.99364600  0.17400500  1
  Te  Te16  1  0.00000000  0.99304700  0.67411700  1
  Te  Te17  1  0.00000000  0.99304700  0.32588300  1
  Te  Te18  1  0.00000000  0.99364600  0.82599500  1
  Te  Te19  1  0.50000000  0.00565700  0.07104900  1
  Te  Te20  1  0.50000000  0.00691400  0.57590400  1
  Te  Te21  1  0.50000000  0.00565700  0.92895100  1
  Te  Te22  1  0.50000000  0.00691400  0.42409600  1
  Te  Te23  1  0.00000000  0.37061400  0.91626200  1
  Te  Te24  1  0.00000000  0.37119400  0.41560800  1
  Te  Te25  1  0.00000000  0.37061400  0.08373800  1
  Te  Te26  1  0.00000000  0.37119400  0.58439200  1
  Te  Te27  1  0.50000000  0.62887300  0.33423400  1
  Te  Te28  1  0.50000000  0.62798700  0.83397100  1
  Te  Te29  1  0.50000000  0.62798700  0.16602900  1
  Te  Te30  1  0.50000000  0.62887300  0.66576600  1
  Te  Te31  1  0.00000000  0.35995400  0.24971000  1
  Te  Te32  1  0.00000000  0.35995400  0.75029000  1
  Te  Te33  1  0.50000000  0.64410700  0.00000000  1
  Te  Te34  1  0.50000000  0.64030500  0.50000000  1
