# generated using pymatgen
data_Tb3PO7
_symmetry_space_group_name_H-M   'P 1'
_cell_length_a   9.04415307
_cell_length_b   9.04415307
_cell_length_c   12.03490801
_cell_angle_alpha   77.25644353
_cell_angle_beta   77.25644353
_cell_angle_gamma   90.58744125
_symmetry_Int_Tables_number   1
_chemical_formula_structural   Tb3PO7
_chemical_formula_sum   'Tb18 P6 O42'
_cell_volume   934.71783347
_cell_formula_units_Z   6
loop_
 _symmetry_equiv_pos_site_id
 _symmetry_equiv_pos_as_xyz
  1  'x, y, z'
loop_
 _atom_site_type_symbol
 _atom_site_label
 _atom_site_symmetry_multiplicity
 _atom_site_fract_x
 _atom_site_fract_y
 _atom_site_fract_z
 _atom_site_occupancy
  Tb  Tb0  1  0.67493900  0.98731600  0.91449000  1
  Tb  Tb1  1  0.98731600  0.67493900  0.91449000  1
  Tb  Tb2  1  0.31363500  0.70659100  0.68609100  1
  Tb  Tb3  1  0.70659100  0.31363500  0.68609100  1
  Tb  Tb4  1  0.32917500  0.67903200  0.99663500  1
  Tb  Tb5  1  0.67903200  0.32917500  0.99663500  1
  Tb  Tb6  1  0.34876900  0.03342800  0.79792000  1
  Tb  Tb7  1  0.03342800  0.34876900  0.79792000  1
  Tb  Tb8  1  0.33584500  0.98275600  0.13250700  1
  Tb  Tb9  1  0.98275600  0.33584500  0.13250700  1
  Tb  Tb10  1  0.68426000  0.03721000  0.23870300  1
  Tb  Tb11  1  0.03721000  0.68426000  0.23870300  1
  Tb  Tb12  1  0.67068000  0.98717500  0.57384100  1
  Tb  Tb13  1  0.98717500  0.67068000  0.57384100  1
  Tb  Tb14  1  0.34156400  0.69150800  0.37486600  1
  Tb  Tb15  1  0.69150800  0.34156400  0.37486600  1
  Tb  Tb16  1  0.34463100  0.03319900  0.45663200  1
  Tb  Tb17  1  0.03319900  0.34463100  0.45663200  1
  P  P18  1  0.34286500  0.34286500  0.95197500  1
  P  P19  1  0.01396400  0.01396400  0.36583300  1
  P  P20  1  0.67913400  0.67913400  0.41881500  1
  P  P21  1  0.67399100  0.67399100  0.79773800  1
  P  P22  1  0.00510000  0.00510000  0.00414700  1
  P  P23  1  0.34951400  0.34951400  0.57427200  1
  O  O24  1  0.61465200  0.06514800  0.74144700  1
  O  O25  1  0.06514800  0.61465200  0.74144700  1
  O  O26  1  0.57920900  0.57920900  0.36706600  1
  O  O27  1  0.30775800  0.30775800  0.46496600  1
  O  O28  1  0.50676400  0.70451200  0.79531400  1
  O  O29  1  0.70451200  0.50676400  0.79531400  1
  O  O30  1  0.30112500  0.71956400  0.18525600  1
  O  O31  1  0.71956400  0.30112500  0.18525600  1
  O  O32  1  0.44121300  0.44121300  0.00641100  1
  O  O33  1  0.57296400  0.77184500  0.49368300  1
  O  O34  1  0.77184500  0.57296400  0.49368300  1
  O  O35  1  0.91255900  0.91255900  0.47833700  1
  O  O36  1  0.40302500  0.95664600  0.62993600  1
  O  O37  1  0.95664600  0.40302500  0.62993600  1
  O  O38  1  0.78633100  0.78633100  0.30877800  1
  O  O39  1  0.10591700  0.10591700  0.89150900  1
  O  O40  1  0.21889200  0.79658300  0.84957600  1
  O  O41  1  0.79658300  0.21889200  0.84957600  1
  O  O42  1  0.58709600  0.08429300  0.07439500  1
  O  O43  1  0.08429300  0.58709600  0.07439500  1
  O  O44  1  0.70922600  0.70922600  0.91124900  1
  O  O45  1  0.43307900  0.93558300  0.29738200  1
  O  O46  1  0.93558300  0.43307900  0.29738200  1
  O  O47  1  0.12378100  0.12378100  0.39911100  1
  O  O48  1  0.24675100  0.24675100  0.68608900  1
  O  O49  1  0.78138500  0.78138500  0.69065200  1
  O  O50  1  0.89498800  0.89498800  0.97161600  1
  O  O51  1  0.23405600  0.23405600  0.05982700  1
  O  O52  1  0.45101600  0.25215300  0.87666300  1
  O  O53  1  0.25215300  0.45101600  0.87666300  1
  O  O54  1  0.51774200  0.31999700  0.57287000  1
  O  O55  1  0.31999700  0.51774200  0.57287000  1
  O  O56  1  0.42721500  0.91548200  0.96314100  1
  O  O57  1  0.91548200  0.42721500  0.96314100  1
  O  O58  1  0.59277700  0.10618100  0.40773300  1
  O  O59  1  0.10618100  0.59277700  0.40773300  1
  O  O60  1  0.22217200  0.80192300  0.52215700  1
  O  O61  1  0.80192300  0.22217200  0.52215700  1
  O  O62  1  0.11301900  0.91476600  0.29396000  1
  O  O63  1  0.91476600  0.11301900  0.29396000  1
  O  O64  1  0.10528500  0.90604500  0.07540500  1
  O  O65  1  0.90604500  0.10528500  0.07540500  1
