# generated using pymatgen
data_NaSrAlF6
_symmetry_space_group_name_H-M   'P 1'
_cell_length_a   5.40400600
_cell_length_b   9.52999100
_cell_length_c   18.61233600
_cell_angle_alpha   90.00000000
_cell_angle_beta   90.00000000
_cell_angle_gamma   90.00000000
_symmetry_Int_Tables_number   1
_chemical_formula_structural   NaSrAlF6
_chemical_formula_sum   'Na8 Sr8 Al8 F48'
_cell_volume   958.53769650
_cell_formula_units_Z   8
loop_
 _symmetry_equiv_pos_site_id
 _symmetry_equiv_pos_as_xyz
  1  'x, y, z'
loop_
 _atom_site_type_symbol
 _atom_site_label
 _atom_site_symmetry_multiplicity
 _atom_site_fract_x
 _atom_site_fract_y
 _atom_site_fract_z
 _atom_site_occupancy
  Na  Na0  1  0.25557100  0.86814900  0.31316100  1
  Na  Na1  1  0.74442900  0.36814900  0.68683900  1
  Na  Na2  1  0.24442900  0.86814900  0.81316100  1
  Na  Na3  1  0.75557100  0.36814900  0.18683900  1
  Na  Na4  1  0.76015800  0.77258400  0.43337300  1
  Na  Na5  1  0.23984200  0.27258400  0.56662700  1
  Na  Na6  1  0.73984200  0.77258400  0.93337300  1
  Na  Na7  1  0.26015800  0.27258400  0.06662700  1
  Sr  Sr8  1  0.24798400  0.63991000  0.13272900  1
  Sr  Sr9  1  0.75201600  0.13991000  0.86727100  1
  Sr  Sr10  1  0.25201600  0.63991000  0.63272900  1
  Sr  Sr11  1  0.74798400  0.13991000  0.36727100  1
  Sr  Sr12  1  0.24875300  0.50247300  0.38371600  1
  Sr  Sr13  1  0.75124700  0.00247300  0.61628400  1
  Sr  Sr14  1  0.25124700  0.50247300  0.88371600  1
  Sr  Sr15  1  0.74875300  0.00247300  0.11628400  1
  Al  Al16  1  0.24129000  0.89919500  0.99335100  1
  Al  Al17  1  0.75871000  0.39919500  0.00664900  1
  Al  Al18  1  0.25871000  0.89919500  0.49335100  1
  Al  Al19  1  0.74129000  0.39919500  0.50664900  1
  Al  Al20  1  0.75185600  0.74134800  0.25470200  1
  Al  Al21  1  0.24814400  0.24134800  0.74529700  1
  Al  Al22  1  0.74814400  0.74134800  0.75470300  1
  Al  Al23  1  0.25185600  0.24134800  0.24529800  1
  F  F24  1  0.46788100  0.17416700  0.17918700  1
  F  F25  1  0.53211900  0.67416700  0.82081300  1
  F  F26  1  0.03211900  0.17416700  0.67918700  1
  F  F27  1  0.96788100  0.67416700  0.32081300  1
  F  F28  1  0.55151000  0.46310600  0.07632000  1
  F  F29  1  0.44849000  0.96310600  0.92368000  1
  F  F30  1  0.94849000  0.46310600  0.57632000  1
  F  F31  1  0.05151000  0.96310600  0.42368000  1
  F  F32  1  0.98637600  0.14923900  0.20784600  1
  F  F33  1  0.01362400  0.64923900  0.79215400  1
  F  F34  1  0.51362400  0.14923900  0.70784600  1
  F  F35  1  0.48637600  0.64923900  0.29215400  1
  F  F36  1  0.33094100  0.74930700  0.43318400  1
  F  F37  1  0.66905900  0.24930700  0.56681600  1
  F  F38  1  0.16905900  0.74930700  0.93318400  1
  F  F39  1  0.83094100  0.24930700  0.06681600  1
  F  F40  1  0.31395700  0.10133000  0.30849100  1
  F  F41  1  0.32058200  0.04012200  0.05451000  1
  F  F42  1  0.68604300  0.60133000  0.69150900  1
  F  F43  1  0.81395700  0.60133000  0.19150900  1
  F  F44  1  0.52908500  0.99367300  0.46007800  1
  F  F45  1  0.47091500  0.49367300  0.53992200  1
  F  F46  1  0.97091500  0.99367300  0.96007800  1
  F  F47  1  0.02908500  0.49367300  0.03992200  1
  F  F48  1  0.00178000  0.83949600  0.21117300  1
  F  F49  1  0.99822000  0.33949600  0.78882700  1
  F  F50  1  0.49821900  0.83949600  0.71117300  1
  F  F51  1  0.50178000  0.33949600  0.28882700  1
  F  F52  1  0.19526800  0.39072300  0.18408400  1
  F  F53  1  0.80473200  0.89072300  0.81591600  1
  F  F54  1  0.30473200  0.39072300  0.68408400  1
  F  F55  1  0.69526800  0.89072300  0.31591600  1
  F  F56  1  0.53291600  0.82189500  0.18989300  1
  F  F57  1  0.46708400  0.32189500  0.81010700  1
  F  F58  1  0.96708400  0.82189500  0.68989300  1
  F  F59  1  0.03291600  0.32189500  0.31010700  1
  F  F60  1  0.02934500  0.82249000  0.06084200  1
  F  F61  1  0.97065500  0.32249000  0.93915800  1
  F  F62  1  0.47065500  0.82249000  0.56084200  1
  F  F63  1  0.52934500  0.32249000  0.43915800  1
  F  F64  1  0.99018500  0.29699100  0.46467200  1
  F  F65  1  0.00981500  0.79699100  0.53532800  1
  F  F66  1  0.50981500  0.29699100  0.96467200  1
  F  F67  1  0.49018500  0.79699100  0.03532800  1
  F  F68  1  0.82058200  0.54012200  0.44549000  1
  F  F69  1  0.17941800  0.04012200  0.55451000  1
  F  F70  1  0.67941800  0.54012200  0.94549000  1
  F  F71  1  0.18604300  0.10133000  0.80849100  1
