# generated using pymatgen
data_KNdF4
_symmetry_space_group_name_H-M   'P 1'
_cell_length_a   3.77783300
_cell_length_b   6.29715700
_cell_length_c   15.76801600
_cell_angle_alpha   90.00000000
_cell_angle_beta   90.00000000
_cell_angle_gamma   90.00000000
_symmetry_Int_Tables_number   1
_chemical_formula_structural   KNdF4
_chemical_formula_sum   'K4 Nd4 F16'
_cell_volume   375.11491202
_cell_formula_units_Z   4
loop_
 _symmetry_equiv_pos_site_id
 _symmetry_equiv_pos_as_xyz
  1  'x, y, z'
loop_
 _atom_site_type_symbol
 _atom_site_label
 _atom_site_symmetry_multiplicity
 _atom_site_fract_x
 _atom_site_fract_y
 _atom_site_fract_z
 _atom_site_occupancy
  K  K0  1  0.25000000  0.72314700  0.70173600  1
  K  K1  1  0.75000000  0.27685300  0.29826400  1
  K  K2  1  0.75000000  0.77685300  0.20173600  1
  K  K3  1  0.25000000  0.22314700  0.79826400  1
  Nd  Nd4  1  0.25000000  0.25089400  0.06146700  1
  Nd  Nd5  1  0.75000000  0.74910600  0.93853300  1
  Nd  Nd6  1  0.75000000  0.24910600  0.56146700  1
  Nd  Nd7  1  0.25000000  0.75089400  0.43853300  1
  F  F8  1  0.25000000  0.60597500  0.86500900  1
  F  F9  1  0.75000000  0.39402500  0.13499100  1
  F  F10  1  0.75000000  0.89402500  0.36500900  1
  F  F11  1  0.25000000  0.10597500  0.63499100  1
  F  F12  1  0.25000000  0.63440200  0.03516900  1
  F  F13  1  0.75000000  0.36559800  0.96483100  1
  F  F14  1  0.75000000  0.86559800  0.53516900  1
  F  F15  1  0.25000000  0.13440200  0.46483100  1
  F  F16  1  0.25000000  0.50410300  0.55809300  1
  F  F17  1  0.75000000  0.49589700  0.44190700  1
  F  F18  1  0.75000000  0.99589700  0.05809300  1
  F  F19  1  0.25000000  0.00410300  0.94190700  1
  F  F20  1  0.25000000  0.58773800  0.30630200  1
  F  F21  1  0.75000000  0.41226200  0.69369800  1
  F  F22  1  0.75000000  0.91226200  0.80630200  1
  F  F23  1  0.25000000  0.08773800  0.19369800  1
