# generated using pymatgen
data_Ni(PO3)2
_symmetry_space_group_name_H-M   'P 1'
_cell_length_a   7.21952781
_cell_length_b   7.21952781
_cell_length_c   9.98933171
_cell_angle_alpha   67.08465859
_cell_angle_beta   67.08465859
_cell_angle_gamma   70.43904485
_symmetry_Int_Tables_number   1
_chemical_formula_structural   Ni(PO3)2
_chemical_formula_sum   'Ni4 P8 O24'
_cell_volume   431.30125694
_cell_formula_units_Z   4
loop_
 _symmetry_equiv_pos_site_id
 _symmetry_equiv_pos_as_xyz
  1  'x, y, z'
loop_
 _atom_site_type_symbol
 _atom_site_label
 _atom_site_symmetry_multiplicity
 _atom_site_fract_x
 _atom_site_fract_y
 _atom_site_fract_z
 _atom_site_occupancy
  Ni  Ni0  1  0.44575700  0.55424300  0.25000000  1
  Ni  Ni1  1  0.55424300  0.44575700  0.75000000  1
  Ni  Ni2  1  0.50000000  0.00000000  0.00000000  1
  Ni  Ni3  1  0.00000000  0.50000000  0.50000000  1
  P  P4  1  0.23030000  0.75172200  0.97633100  1
  P  P5  1  0.24827800  0.76970000  0.52366900  1
  P  P6  1  0.76970000  0.24827800  0.02366900  1
  P  P7  1  0.75172200  0.23030000  0.47633100  1
  P  P8  1  0.81199700  0.79457300  0.19636800  1
  P  P9  1  0.20542700  0.18800300  0.30363200  1
  P  P10  1  0.18800300  0.20542700  0.80363200  1
  P  P11  1  0.79457300  0.81199700  0.69636800  1
  O  O12  1  0.65245400  0.41454700  0.09468300  1
  O  O13  1  0.58545300  0.34754600  0.40531700  1
  O  O14  1  0.34754600  0.58545300  0.90531700  1
  O  O15  1  0.41454700  0.65245400  0.59468300  1
  O  O16  1  0.30926900  0.78959200  0.08268700  1
  O  O17  1  0.21040800  0.69073100  0.41731300  1
  O  O18  1  0.69073100  0.21040800  0.91731300  1
  O  O19  1  0.78959200  0.30926900  0.58268700  1
  O  O20  1  0.61954900  0.78234900  0.17489600  1
  O  O21  1  0.21765100  0.38045100  0.32510400  1
  O  O22  1  0.38045100  0.21765100  0.82510400  1
  O  O23  1  0.78234900  0.61954900  0.67489600  1
  O  O24  1  0.03351700  0.81195200  0.65356700  1
  O  O25  1  0.18804800  0.96648300  0.84643300  1
  O  O26  1  0.96648300  0.18804800  0.34643300  1
  O  O27  1  0.81195200  0.03351700  0.15356700  1
  O  O28  1  0.71309000  0.00075400  0.56493200  1
  O  O29  1  0.99924600  0.28691000  0.93506800  1
  O  O30  1  0.28691000  0.99924600  0.43506800  1
  O  O31  1  0.00075400  0.71309000  0.06493200  1
  O  O32  1  0.68957200  0.84404600  0.84801900  1
  O  O33  1  0.15595400  0.31042800  0.65198100  1
  O  O34  1  0.31042800  0.15595400  0.15198100  1
  O  O35  1  0.84404600  0.68957200  0.34801900  1
