# generated using pymatgen
data_EuCdPd
_symmetry_space_group_name_H-M   'P 1'
_cell_length_a   4.39299300
_cell_length_b   7.48171800
_cell_length_c   8.79733600
_cell_angle_alpha   90.00000000
_cell_angle_beta   90.00000000
_cell_angle_gamma   90.00000000
_symmetry_Int_Tables_number   1
_chemical_formula_structural   EuCdPd
_chemical_formula_sum   'Eu4 Cd4 Pd4'
_cell_volume   289.14322821
_cell_formula_units_Z   4
loop_
 _symmetry_equiv_pos_site_id
 _symmetry_equiv_pos_as_xyz
  1  'x, y, z'
loop_
 _atom_site_type_symbol
 _atom_site_label
 _atom_site_symmetry_multiplicity
 _atom_site_fract_x
 _atom_site_fract_y
 _atom_site_fract_z
 _atom_site_occupancy
  Eu  Eu0  1  0.25000000  0.53589600  0.18075000  1
  Eu  Eu1  1  0.75000000  0.46410400  0.81925000  1
  Eu  Eu2  1  0.25000000  0.03589600  0.31925000  1
  Eu  Eu3  1  0.75000000  0.96410400  0.68075000  1
  Cd  Cd4  1  0.25000000  0.14068100  0.93789800  1
  Cd  Cd5  1  0.75000000  0.35931900  0.43789800  1
  Cd  Cd6  1  0.25000000  0.64068100  0.56210200  1
  Cd  Cd7  1  0.75000000  0.85931900  0.06210200  1
  Pd  Pd8  1  0.75000000  0.24048800  0.12894400  1
  Pd  Pd9  1  0.25000000  0.25951200  0.62894400  1
  Pd  Pd10  1  0.75000000  0.74048800  0.37105600  1
  Pd  Pd11  1  0.25000000  0.75951200  0.87105600  1
