# generated using pymatgen
data_SmGePd2
_symmetry_space_group_name_H-M   'P 1'
_cell_length_a   5.72777800
_cell_length_b   7.12562200
_cell_length_c   7.47864800
_cell_angle_alpha   90.00000000
_cell_angle_beta   90.00000000
_cell_angle_gamma   90.00000000
_symmetry_Int_Tables_number   1
_chemical_formula_structural   SmGePd2
_chemical_formula_sum   'Sm4 Ge4 Pd8'
_cell_volume   305.23339684
_cell_formula_units_Z   4
loop_
 _symmetry_equiv_pos_site_id
 _symmetry_equiv_pos_as_xyz
  1  'x, y, z'
loop_
 _atom_site_type_symbol
 _atom_site_label
 _atom_site_symmetry_multiplicity
 _atom_site_fract_x
 _atom_site_fract_y
 _atom_site_fract_z
 _atom_site_occupancy
  Sm  Sm0  1  0.35552800  0.75000000  0.02339700  1
  Sm  Sm1  1  0.14447200  0.75000000  0.52339700  1
  Sm  Sm2  1  0.64447200  0.25000000  0.97660300  1
  Sm  Sm3  1  0.85552800  0.25000000  0.47660300  1
  Ge  Ge4  1  0.64182400  0.75000000  0.37776400  1
  Ge  Ge5  1  0.85817600  0.75000000  0.87776400  1
  Ge  Ge6  1  0.35817600  0.25000000  0.62223600  1
  Ge  Ge7  1  0.14182400  0.25000000  0.12223600  1
  Pd  Pd8  1  0.91159600  0.55242400  0.18224900  1
  Pd  Pd9  1  0.58840400  0.94757600  0.68224900  1
  Pd  Pd10  1  0.08840400  0.05242400  0.81775100  1
  Pd  Pd11  1  0.41159600  0.44757600  0.31775100  1
  Pd  Pd12  1  0.08840400  0.44757600  0.81775100  1
  Pd  Pd13  1  0.41159600  0.05242400  0.31775100  1
  Pd  Pd14  1  0.91159600  0.94757600  0.18224900  1
  Pd  Pd15  1  0.58840400  0.55242400  0.68224900  1
