# generated using pymatgen
data_Ba8Si43Ni3
_symmetry_space_group_name_H-M   'P 1'
_cell_length_a   10.38163575
_cell_length_b   10.38163575
_cell_length_c   10.38163543
_cell_angle_alpha   89.98833427
_cell_angle_beta   89.98833427
_cell_angle_gamma   89.98833936
_symmetry_Int_Tables_number   1
_chemical_formula_structural   Ba8Si43Ni3
_chemical_formula_sum   'Ba8 Si43 Ni3'
_cell_volume   1118.91557983
_cell_formula_units_Z   1
loop_
 _symmetry_equiv_pos_site_id
 _symmetry_equiv_pos_as_xyz
  1  'x, y, z'
loop_
 _atom_site_type_symbol
 _atom_site_label
 _atom_site_symmetry_multiplicity
 _atom_site_fract_x
 _atom_site_fract_y
 _atom_site_fract_z
 _atom_site_occupancy
  Ba  Ba0  1  0.25398200  0.25398200  0.25398200  1
  Ba  Ba1  1  0.74601800  0.74601800  0.74601800  1
  Ba  Ba2  1  0.50000000  0.74083000  0.25917000  1
  Ba  Ba3  1  0.74083000  0.25917000  0.50000000  1
  Ba  Ba4  1  0.25917000  0.50000000  0.74083000  1
  Ba  Ba5  1  0.00000000  0.74037000  0.25963000  1
  Ba  Ba6  1  0.74037000  0.25963000  0.00000000  1
  Ba  Ba7  1  0.25963000  0.00000000  0.74037000  1
  Si  Si8  1  0.43422700  0.43422700  0.43422700  1
  Si  Si9  1  0.06561400  0.06561400  0.06561400  1
  Si  Si10  1  0.06394800  0.43328000  0.06567500  1
  Si  Si11  1  0.43359600  0.06432700  0.43408100  1
  Si  Si12  1  0.43328000  0.06567500  0.06394800  1
  Si  Si13  1  0.06432700  0.43408100  0.43359600  1
  Si  Si14  1  0.06567500  0.06394800  0.43328000  1
  Si  Si15  1  0.43408100  0.43359600  0.06432700  1
  Si  Si16  1  0.56591900  0.93567300  0.56640400  1
  Si  Si17  1  0.93432500  0.56672000  0.93605200  1
  Si  Si18  1  0.93438600  0.93438600  0.93438600  1
  Si  Si19  1  0.56577300  0.56577300  0.56577300  1
  Si  Si20  1  0.93567300  0.56640400  0.56591900  1
  Si  Si21  1  0.56672000  0.93605200  0.93432500  1
  Si  Si22  1  0.56640400  0.56591900  0.93567300  1
  Si  Si23  1  0.93605200  0.93432500  0.56672000  1
  Si  Si24  1  0.24979700  0.56771000  0.38123100  1
  Si  Si25  1  0.56771000  0.38123100  0.24979700  1
  Si  Si26  1  0.38123100  0.24979700  0.56771000  1
  Si  Si27  1  0.25005400  0.94327700  0.13663000  1
  Si  Si28  1  0.94327700  0.13663000  0.25005400  1
  Si  Si29  1  0.13663000  0.25005400  0.94327700  1
  Si  Si30  1  0.24980800  0.55578200  0.13388900  1
  Si  Si31  1  0.93079300  0.37838500  0.25002000  1
  Si  Si32  1  0.25002000  0.93079300  0.37838500  1
  Si  Si33  1  0.55578200  0.13388900  0.24980800  1
  Si  Si34  1  0.37838500  0.25002000  0.93079300  1
  Si  Si35  1  0.13388900  0.24980800  0.55578200  1
  Si  Si36  1  0.62161500  0.06920700  0.74998000  1
  Si  Si37  1  0.75019200  0.86611100  0.44421800  1
  Si  Si38  1  0.43229000  0.75020300  0.61876900  1
  Si  Si39  1  0.86611100  0.44421800  0.75019200  1
  Si  Si40  1  0.74998000  0.62161500  0.06920700  1
  Si  Si41  1  0.05672300  0.74994600  0.86337000  1
  Si  Si42  1  0.86337000  0.05672300  0.74994600  1
  Si  Si43  1  0.74994600  0.86337000  0.05672300  1
  Si  Si44  1  0.61876900  0.43229000  0.75020300  1
  Si  Si45  1  0.75020300  0.61876900  0.43229000  1
  Si  Si46  1  0.06920700  0.74998000  0.62161500  1
  Si  Si47  1  0.44421800  0.75019200  0.86611100  1
  Si  Si48  1  0.00000000  0.25009100  0.74990900  1
  Si  Si49  1  0.25009100  0.74990900  0.00000000  1
  Si  Si50  1  0.74990900  0.00000000  0.25009100  1
  Ni  Ni51  1  0.50000000  0.25026000  0.74974000  1
  Ni  Ni52  1  0.25026000  0.74974000  0.50000000  1
  Ni  Ni53  1  0.74974000  0.50000000  0.25026000  1
