# generated using pymatgen
data_Rb6Na4Tl13
_symmetry_space_group_name_H-M   'P 1'
_cell_length_a   10.40221737
_cell_length_b   10.40221737
_cell_length_c   10.40221737
_cell_angle_alpha   109.47122063
_cell_angle_beta   109.47122063
_cell_angle_gamma   109.47122063
_symmetry_Int_Tables_number   1
_chemical_formula_structural   Rb6Na4Tl13
_chemical_formula_sum   'Rb6 Na4 Tl13'
_cell_volume   866.47469495
_cell_formula_units_Z   1
loop_
 _symmetry_equiv_pos_site_id
 _symmetry_equiv_pos_as_xyz
  1  'x, y, z'
loop_
 _atom_site_type_symbol
 _atom_site_label
 _atom_site_symmetry_multiplicity
 _atom_site_fract_x
 _atom_site_fract_y
 _atom_site_fract_z
 _atom_site_occupancy
  Rb  Rb0  1  0.82914400  0.32914400  0.50000000  1
  Rb  Rb1  1  0.17085600  0.67085600  0.50000000  1
  Rb  Rb2  1  0.32914400  0.50000000  0.82914400  1
  Rb  Rb3  1  0.67085600  0.50000000  0.17085600  1
  Rb  Rb4  1  0.50000000  0.82914400  0.32914400  1
  Rb  Rb5  1  0.50000000  0.17085600  0.67085600  1
  Na  Na6  1  0.50000000  0.50000000  0.50000000  1
  Na  Na7  1  0.50000000  0.00000000  0.00000000  1
  Na  Na8  1  0.00000000  0.50000000  0.00000000  1
  Na  Na9  1  0.00000000  0.00000000  0.50000000  1
  Tl  Tl10  1  0.85932200  0.76225800  0.62158000  1
  Tl  Tl11  1  0.14067800  0.23774200  0.37842000  1
  Tl  Tl12  1  0.14067800  0.76225800  0.90293500  1
  Tl  Tl13  1  0.85932200  0.23774200  0.09706500  1
  Tl  Tl14  1  0.76225800  0.62158000  0.85932200  1
  Tl  Tl15  1  0.23774200  0.37842000  0.14067800  1
  Tl  Tl16  1  0.76225800  0.90293500  0.14067800  1
  Tl  Tl17  1  0.23774200  0.09706500  0.85932200  1
  Tl  Tl18  1  0.62158000  0.85932200  0.76225800  1
  Tl  Tl19  1  0.37842000  0.14067800  0.23774200  1
  Tl  Tl20  1  0.09706500  0.85932200  0.23774200  1
  Tl  Tl21  1  0.90293500  0.14067800  0.76225800  1
  Tl  Tl22  1  0.00000000  0.00000000  0.00000000  1
