# generated using pymatgen
data_Mn2O3
_symmetry_space_group_name_H-M   'P 1'
_cell_length_a   9.58026900
_cell_length_b   9.60874200
_cell_length_c   9.65843400
_cell_angle_alpha   90.00000000
_cell_angle_beta   90.00000000
_cell_angle_gamma   90.00000000
_symmetry_Int_Tables_number   1
_chemical_formula_structural   Mn2O3
_chemical_formula_sum   'Mn32 O48'
_cell_volume   889.10070077
_cell_formula_units_Z   16
loop_
 _symmetry_equiv_pos_site_id
 _symmetry_equiv_pos_as_xyz
  1  'x, y, z'
loop_
 _atom_site_type_symbol
 _atom_site_label
 _atom_site_symmetry_multiplicity
 _atom_site_fract_x
 _atom_site_fract_y
 _atom_site_fract_z
 _atom_site_occupancy
  Mn  Mn0  1  0.50000000  0.50000000  0.00000000  1
  Mn  Mn1  1  0.50000000  0.00000000  0.50000000  1
  Mn  Mn2  1  0.00000000  0.50000000  0.50000000  1
  Mn  Mn3  1  0.00000000  0.00000000  0.00000000  1
  Mn  Mn4  1  0.00000000  0.00000000  0.50000000  1
  Mn  Mn5  1  0.00000000  0.50000000  0.00000000  1
  Mn  Mn6  1  0.50000000  0.00000000  0.00000000  1
  Mn  Mn7  1  0.50000000  0.50000000  0.50000000  1
  Mn  Mn8  1  0.50913600  0.75883900  0.28594100  1
  Mn  Mn9  1  0.49086400  0.25883900  0.21405900  1
  Mn  Mn10  1  0.99086400  0.24116100  0.78594100  1
  Mn  Mn11  1  0.00913600  0.74116100  0.71405900  1
  Mn  Mn12  1  0.49086400  0.24116100  0.71405900  1
  Mn  Mn13  1  0.50913600  0.74116100  0.78594100  1
  Mn  Mn14  1  0.00913600  0.75883900  0.21405900  1
  Mn  Mn15  1  0.99086400  0.25883900  0.28594100  1
  Mn  Mn16  1  0.25641400  0.78794300  0.99987600  1
  Mn  Mn17  1  0.74358600  0.28794300  0.50012400  1
  Mn  Mn18  1  0.24358600  0.21205700  0.49987600  1
  Mn  Mn19  1  0.75641400  0.71205700  0.00012400  1
  Mn  Mn20  1  0.74358600  0.21205700  0.00012400  1
  Mn  Mn21  1  0.25641400  0.71205700  0.49987600  1
  Mn  Mn22  1  0.75641400  0.78794300  0.50012400  1
  Mn  Mn23  1  0.24358600  0.28794300  0.99987600  1
  Mn  Mn24  1  0.21575100  0.51179600  0.24663900  1
  Mn  Mn25  1  0.78424900  0.01179600  0.25336100  1
  Mn  Mn26  1  0.28424900  0.48820400  0.74663900  1
  Mn  Mn27  1  0.71575100  0.98820400  0.75336100  1
  Mn  Mn28  1  0.78424900  0.48820400  0.75336100  1
  Mn  Mn29  1  0.21575100  0.98820400  0.74663900  1
  Mn  Mn30  1  0.71575100  0.51179600  0.25336100  1
  Mn  Mn31  1  0.28424900  0.01179600  0.24663900  1
  O  O32  1  0.14865300  0.92325000  0.12533600  1
  O  O33  1  0.85134700  0.42325000  0.37466400  1
  O  O34  1  0.35134700  0.07675000  0.62533600  1
  O  O35  1  0.64865300  0.57675000  0.87466400  1
  O  O36  1  0.85134700  0.07675000  0.87466400  1
  O  O37  1  0.14865300  0.57675000  0.62533600  1
  O  O38  1  0.64865300  0.92325000  0.37466400  1
  O  O39  1  0.35134700  0.42325000  0.12533600  1
  O  O40  1  0.09336200  0.63976700  0.35272500  1
  O  O41  1  0.90663800  0.13976700  0.14727500  1
  O  O42  1  0.40663800  0.36023300  0.85272500  1
  O  O43  1  0.59336200  0.86023300  0.64727500  1
  O  O44  1  0.90663800  0.36023300  0.64727500  1
  O  O45  1  0.09336200  0.86023300  0.85272500  1
  O  O46  1  0.59336200  0.63976700  0.14727500  1
  O  O47  1  0.40663800  0.13976700  0.35272500  1
  O  O48  1  0.37727800  0.85790000  0.41665400  1
  O  O49  1  0.62272200  0.35790000  0.08334600  1
  O  O50  1  0.12272200  0.14210000  0.91665400  1
  O  O51  1  0.87727800  0.64210000  0.58334600  1
  O  O52  1  0.62272200  0.14210000  0.58334600  1
  O  O53  1  0.37727800  0.64210000  0.91665400  1
  O  O54  1  0.87727800  0.85790000  0.08334600  1
  O  O55  1  0.12272200  0.35790000  0.41665400  1
  O  O56  1  0.36121200  0.58585000  0.37229600  1
  O  O57  1  0.63878800  0.08585000  0.12770400  1
  O  O58  1  0.13878800  0.41415000  0.87229600  1
  O  O59  1  0.86121200  0.91415000  0.62770400  1
  O  O60  1  0.63878800  0.41415000  0.62770400  1
  O  O61  1  0.36121200  0.91415000  0.87229600  1
  O  O62  1  0.86121200  0.58585000  0.12770400  1
  O  O63  1  0.13878800  0.08585000  0.37229600  1
  O  O64  1  0.41963000  0.87881200  0.14619200  1
  O  O65  1  0.58037000  0.37881200  0.35380800  1
  O  O66  1  0.08037000  0.12118800  0.64619200  1
  O  O67  1  0.91963000  0.62118800  0.85380800  1
  O  O68  1  0.58037000  0.12118800  0.85380800  1
  O  O69  1  0.41963000  0.62118800  0.64619200  1
  O  O70  1  0.91963000  0.87881200  0.35380800  1
  O  O71  1  0.08037000  0.37881200  0.14619200  1
  O  O72  1  0.13849800  0.65363400  0.08819600  1
  O  O73  1  0.86150200  0.15363400  0.41180400  1
  O  O74  1  0.36150200  0.34636600  0.58819600  1
  O  O75  1  0.63849800  0.84636600  0.91180400  1
  O  O76  1  0.86150200  0.34636600  0.91180400  1
  O  O77  1  0.13849800  0.84636600  0.58819600  1
  O  O78  1  0.63849800  0.65363400  0.41180400  1
  O  O79  1  0.36150200  0.15363400  0.08819600  1
