# generated using pymatgen
data_Rb2MgH12(SO7)2
_symmetry_space_group_name_H-M   'P 1'
_cell_length_a   12.59247500
_cell_length_b   6.28435000
_cell_length_c   9.29246047
_cell_angle_alpha   74.01474105
_cell_angle_beta   90.00000000
_cell_angle_gamma   90.00000000
_symmetry_Int_Tables_number   1
_chemical_formula_structural   Rb2MgH12(SO7)2
_chemical_formula_sum   'Rb4 Mg2 H24 S4 O28'
_cell_volume   706.92907719
_cell_formula_units_Z   2
loop_
 _symmetry_equiv_pos_site_id
 _symmetry_equiv_pos_as_xyz
  1  'x, y, z'
loop_
 _atom_site_type_symbol
 _atom_site_label
 _atom_site_symmetry_multiplicity
 _atom_site_fract_x
 _atom_site_fract_y
 _atom_site_fract_z
 _atom_site_occupancy
  Rb  Rb0  1  0.14899200  0.65411500  0.62747600  1
  Rb  Rb1  1  0.64899200  0.34588500  0.87252400  1
  Rb  Rb2  1  0.85100800  0.34588500  0.37252400  1
  Rb  Rb3  1  0.35100800  0.65411500  0.12747600  1
  Mg  Mg4  1  0.50000000  0.00000000  0.50000000  1
  Mg  Mg5  1  0.00000000  0.00000000  0.00000000  1
  H  H6  1  0.40522300  0.68500400  0.71113100  1
  H  H7  1  0.90522300  0.31499600  0.78886900  1
  H  H8  1  0.59477700  0.31499600  0.28886900  1
  H  H9  1  0.09477700  0.68500400  0.21113100  1
  H  H10  1  0.37139300  0.91892900  0.73905600  1
  H  H11  1  0.87139300  0.08107100  0.76094400  1
  H  H12  1  0.62860700  0.08107100  0.26094400  1
  H  H13  1  0.12860700  0.91892900  0.23905600  1
  H  H14  1  0.40347200  0.06442800  0.23139000  1
  H  H15  1  0.90347200  0.93557200  0.26861000  1
  H  H16  1  0.59652800  0.93557200  0.76861000  1
  H  H17  1  0.09652800  0.06442800  0.73139000  1
  H  H18  1  0.31573400  0.00480900  0.35867200  1
  H  H19  1  0.81573400  0.99519100  0.14132800  1
  H  H20  1  0.68426600  0.99519100  0.64132800  1
  H  H21  1  0.18426600  0.00480900  0.85867200  1
  H  H22  1  0.55457800  0.65371300  0.40925800  1
  H  H23  1  0.05457800  0.34628700  0.09074200  1
  H  H24  1  0.44542200  0.34628700  0.59074200  1
  H  H25  1  0.94542200  0.65371300  0.90925800  1
  H  H26  1  0.64263000  0.66836300  0.52774600  1
  H  H27  1  0.14263000  0.33163700  0.97225400  1
  H  H28  1  0.35737000  0.33163700  0.47225400  1
  H  H29  1  0.85737000  0.66836300  0.02774600  1
  S  S30  1  0.35872500  0.26908200  0.90280600  1
  S  S31  1  0.85872500  0.73091800  0.59719400  1
  S  S32  1  0.64127500  0.73091800  0.09719400  1
  S  S33  1  0.14127500  0.26908200  0.40280600  1
  O  O34  1  0.26563400  0.41334100  0.91114200  1
  O  O35  1  0.76563400  0.58665900  0.58885800  1
  O  O36  1  0.73436600  0.58665900  0.08885800  1
  O  O37  1  0.23436600  0.41334100  0.41114200  1
  O  O38  1  0.42052500  0.21945700  0.04451200  1
  O  O39  1  0.92052500  0.78054300  0.45548800  1
  O  O40  1  0.57947500  0.78054300  0.95548800  1
  O  O41  1  0.07947500  0.21945700  0.54451200  1
  O  O42  1  0.42857800  0.39196500  0.77629300  1
  O  O43  1  0.92857800  0.60803500  0.72370700  1
  O  O44  1  0.57142200  0.60803500  0.22370700  1
  O  O45  1  0.07142200  0.39196500  0.27629300  1
  O  O46  1  0.32030200  0.05791200  0.87402100  1
  O  O47  1  0.82030200  0.94208800  0.62597900  1
  O  O48  1  0.67969800  0.94208800  0.12597900  1
  O  O49  1  0.17969800  0.05791200  0.37402100  1
  O  O50  1  0.38900100  0.84303400  0.66169700  1
  O  O51  1  0.88900100  0.15696600  0.83830300  1
  O  O52  1  0.61099900  0.15696600  0.33830300  1
  O  O53  1  0.11099900  0.84303400  0.16169700  1
  O  O54  1  0.39038200  0.97296800  0.33542100  1
  O  O55  1  0.89038200  0.02703200  0.16457900  1
  O  O56  1  0.60961800  0.02703200  0.66457900  1
  O  O57  1  0.10961800  0.97296800  0.83542100  1
  O  O58  1  0.56587700  0.69755500  0.50206700  1
  O  O59  1  0.06587700  0.30244500  0.99793300  1
  O  O60  1  0.43412300  0.30244500  0.49793300  1
  O  O61  1  0.93412300  0.69755500  0.00206700  1
