# generated using pymatgen
data_K2CeCl5
_symmetry_space_group_name_H-M   'P 1'
_cell_length_a   8.17483800
_cell_length_b   8.84946700
_cell_length_c   13.16799000
_cell_angle_alpha   90.00000000
_cell_angle_beta   90.00000000
_cell_angle_gamma   90.00000000
_symmetry_Int_Tables_number   1
_chemical_formula_structural   K2CeCl5
_chemical_formula_sum   'K8 Ce4 Cl20'
_cell_volume   952.61136215
_cell_formula_units_Z   4
loop_
 _symmetry_equiv_pos_site_id
 _symmetry_equiv_pos_as_xyz
  1  'x, y, z'
loop_
 _atom_site_type_symbol
 _atom_site_label
 _atom_site_symmetry_multiplicity
 _atom_site_fract_x
 _atom_site_fract_y
 _atom_site_fract_z
 _atom_site_occupancy
  K  K0  1  0.53194400  0.49977200  0.82631000  1
  K  K1  1  0.46805600  0.50022800  0.17369000  1
  K  K2  1  0.03194400  0.50022800  0.67369000  1
  K  K3  1  0.46805600  0.99977200  0.17369000  1
  K  K4  1  0.96805600  0.49977200  0.32631000  1
  K  K5  1  0.53194400  0.00022800  0.82631000  1
  K  K6  1  0.96805600  0.00022800  0.32631000  1
  K  K7  1  0.03194400  0.99977200  0.67369000  1
  Ce  Ce8  1  0.57431000  0.75000000  0.50392900  1
  Ce  Ce9  1  0.42569000  0.25000000  0.49607100  1
  Ce  Ce10  1  0.07431000  0.25000000  0.99607100  1
  Ce  Ce11  1  0.92569000  0.75000000  0.00392900  1
  Cl  Cl12  1  0.82491500  0.75000000  0.79809700  1
  Cl  Cl13  1  0.17508500  0.25000000  0.20190300  1
  Cl  Cl14  1  0.32491500  0.25000000  0.70190300  1
  Cl  Cl15  1  0.67508500  0.75000000  0.29809700  1
  Cl  Cl16  1  0.35951100  0.75000000  0.66992600  1
  Cl  Cl17  1  0.64048900  0.25000000  0.33007400  1
  Cl  Cl18  1  0.85951100  0.25000000  0.83007400  1
  Cl  Cl19  1  0.14048900  0.75000000  0.16992600  1
  Cl  Cl20  1  0.92031800  0.75000000  0.51061300  1
  Cl  Cl21  1  0.07968200  0.25000000  0.48938700  1
  Cl  Cl22  1  0.42031800  0.25000000  0.98938700  1
  Cl  Cl23  1  0.57968200  0.75000000  0.01061300  1
  Cl  Cl24  1  0.65578400  0.04001900  0.58473000  1
  Cl  Cl25  1  0.34421600  0.95998100  0.41527000  1
  Cl  Cl26  1  0.15578400  0.95998100  0.91527000  1
  Cl  Cl27  1  0.34421600  0.54001900  0.41527000  1
  Cl  Cl28  1  0.84421600  0.04001900  0.08473000  1
  Cl  Cl29  1  0.65578400  0.45998100  0.58473000  1
  Cl  Cl30  1  0.84421600  0.45998100  0.08473000  1
  Cl  Cl31  1  0.15578400  0.54001900  0.91527000  1
