# generated using pymatgen
data_La(CoB)4
_symmetry_space_group_name_H-M   'P 1'
_cell_length_a   7.14001800
_cell_length_b   7.14001800
_cell_length_c   3.79223600
_cell_angle_alpha   90.00000000
_cell_angle_beta   90.00000000
_cell_angle_gamma   90.00000000
_symmetry_Int_Tables_number   1
_chemical_formula_structural   La(CoB)4
_chemical_formula_sum   'La2 Co8 B8'
_cell_volume   193.32764914
_cell_formula_units_Z   2
loop_
 _symmetry_equiv_pos_site_id
 _symmetry_equiv_pos_as_xyz
  1  'x, y, z'
loop_
 _atom_site_type_symbol
 _atom_site_label
 _atom_site_symmetry_multiplicity
 _atom_site_fract_x
 _atom_site_fract_y
 _atom_site_fract_z
 _atom_site_occupancy
  La  La0  1  0.00000000  0.00000000  0.00000000  1
  La  La1  1  0.50000000  0.50000000  0.50000000  1
  Co  Co2  1  0.38523300  0.14312100  0.89472300  1
  Co  Co3  1  0.61476700  0.85687900  0.89472300  1
  Co  Co4  1  0.35687900  0.88523300  0.39472300  1
  Co  Co5  1  0.64312100  0.11476700  0.39472300  1
  Co  Co6  1  0.11476700  0.35687900  0.60527700  1
  Co  Co7  1  0.88523300  0.64312100  0.60527700  1
  Co  Co8  1  0.14312100  0.61476700  0.10527700  1
  Co  Co9  1  0.85687900  0.38523300  0.10527700  1
  B  B10  1  0.79361100  0.66064000  0.10297600  1
  B  B11  1  0.20638900  0.33936000  0.10297600  1
  B  B12  1  0.83936000  0.29361100  0.60297600  1
  B  B13  1  0.16064000  0.70638900  0.60297600  1
  B  B14  1  0.70638900  0.83936000  0.39702400  1
  B  B15  1  0.29361100  0.16064000  0.39702400  1
  B  B16  1  0.66064000  0.20638900  0.89702400  1
  B  B17  1  0.33936000  0.79361100  0.89702400  1
