# generated using pymatgen
data_RbSnF3
_symmetry_space_group_name_H-M   'P 1'
_cell_length_a   13.92406500
_cell_length_b   8.41263200
_cell_length_c   15.30846374
_cell_angle_alpha   82.11373068
_cell_angle_beta   90.00000000
_cell_angle_gamma   90.00000000
_symmetry_Int_Tables_number   1
_chemical_formula_structural   RbSnF3
_chemical_formula_sum   'Rb16 Sn16 F48'
_cell_volume   1776.24390965
_cell_formula_units_Z   16
loop_
 _symmetry_equiv_pos_site_id
 _symmetry_equiv_pos_as_xyz
  1  'x, y, z'
loop_
 _atom_site_type_symbol
 _atom_site_label
 _atom_site_symmetry_multiplicity
 _atom_site_fract_x
 _atom_site_fract_y
 _atom_site_fract_z
 _atom_site_occupancy
  Rb  Rb0  1  0.52276000  0.43488900  0.13089900  1
  Rb  Rb1  1  0.02276000  0.56511100  0.36910100  1
  Rb  Rb2  1  0.47724000  0.56511100  0.86910100  1
  Rb  Rb3  1  0.97724000  0.43488900  0.63089900  1
  Rb  Rb4  1  0.49006100  0.92590800  0.13051500  1
  Rb  Rb5  1  0.99006100  0.07409200  0.36948500  1
  Rb  Rb6  1  0.50993900  0.07409200  0.86948500  1
  Rb  Rb7  1  0.00993900  0.92590800  0.63051500  1
  Rb  Rb8  1  0.23487900  0.99574600  0.25054700  1
  Rb  Rb9  1  0.73487900  0.00425400  0.24945300  1
  Rb  Rb10  1  0.76512100  0.00425400  0.74945300  1
  Rb  Rb11  1  0.26512100  0.99574600  0.75054700  1
  Rb  Rb12  1  0.76529200  0.50822900  0.24408000  1
  Rb  Rb13  1  0.26529200  0.49177100  0.25592000  1
  Rb  Rb14  1  0.23470800  0.49177100  0.75592000  1
  Rb  Rb15  1  0.73470800  0.50822900  0.74408000  1
  Sn  Sn16  1  0.72866800  0.73257300  0.98799000  1
  Sn  Sn17  1  0.22866800  0.26742700  0.51201000  1
  Sn  Sn18  1  0.27133200  0.26742700  0.01201000  1
  Sn  Sn19  1  0.77133200  0.73257300  0.48799000  1
  Sn  Sn20  1  0.74531800  0.23708700  0.99755600  1
  Sn  Sn21  1  0.24531800  0.76291300  0.50244400  1
  Sn  Sn22  1  0.25468200  0.76291300  0.00244400  1
  Sn  Sn23  1  0.75468200  0.23708700  0.49755600  1
  Sn  Sn24  1  0.98862700  0.82216000  0.13793600  1
  Sn  Sn25  1  0.48862700  0.17784000  0.36206400  1
  Sn  Sn26  1  0.01137300  0.17784000  0.86206400  1
  Sn  Sn27  1  0.51137300  0.82216000  0.63793600  1
  Sn  Sn28  1  0.00298800  0.31999900  0.13419800  1
  Sn  Sn29  1  0.50298800  0.68000100  0.36580200  1
  Sn  Sn30  1  0.99701200  0.68000100  0.86580200  1
  Sn  Sn31  1  0.49701200  0.31999900  0.63419800  1
  F  F32  1  0.74823300  0.81195100  0.10818000  1
  F  F33  1  0.24823300  0.18804900  0.39182000  1
  F  F34  1  0.25176700  0.18804900  0.89182000  1
  F  F35  1  0.75176700  0.81195100  0.60818000  1
  F  F36  1  0.71768800  0.49363900  0.06498000  1
  F  F37  1  0.21768800  0.50636100  0.43502000  1
  F  F38  1  0.28231200  0.50636100  0.93502000  1
  F  F39  1  0.78231200  0.49363900  0.56498000  1
  F  F40  1  0.57958500  0.73878000  0.00039400  1
  F  F41  1  0.07958500  0.26122000  0.49960600  1
  F  F42  1  0.42041500  0.26122000  0.99960600  1
  F  F43  1  0.92041500  0.73878000  0.50039400  1
  F  F44  1  0.70307600  0.02730200  0.93545100  1
  F  F45  1  0.20307600  0.97269800  0.56454900  1
  F  F46  1  0.29692400  0.97269800  0.06454900  1
  F  F47  1  0.79692400  0.02730200  0.43545100  1
  F  F48  1  0.63879500  0.16521100  0.08997200  1
  F  F49  1  0.13879500  0.83478900  0.41002800  1
  F  F50  1  0.36120500  0.83478900  0.91002800  1
  F  F51  1  0.86120500  0.16521100  0.58997200  1
  F  F52  1  0.64772000  0.36067000  0.90919200  1
  F  F53  1  0.14772000  0.63933000  0.59080800  1
  F  F54  1  0.35228000  0.63933000  0.09080800  1
  F  F55  1  0.85228000  0.36067000  0.40919200  1
  F  F56  1  0.11583100  0.73665800  0.20301000  1
  F  F57  1  0.61583100  0.26334200  0.29699000  1
  F  F58  1  0.88416900  0.26334200  0.79699000  1
  F  F59  1  0.38416900  0.73665800  0.70301000  1
  F  F60  1  0.91716800  0.82011900  0.25973200  1
  F  F61  1  0.41716800  0.17988100  0.24026800  1
  F  F62  1  0.08283200  0.17988100  0.74026800  1
  F  F63  1  0.58283200  0.82011900  0.75973200  1
  F  F64  1  0.04795000  0.05780400  0.17378300  1
  F  F65  1  0.54795000  0.94219600  0.32621700  1
  F  F66  1  0.95205000  0.94219600  0.82621700  1
  F  F67  1  0.45205000  0.05780400  0.67378300  1
  F  F68  1  0.94902800  0.55654800  0.17033400  1
  F  F69  1  0.44902800  0.44345200  0.32966600  1
  F  F70  1  0.05097200  0.44345200  0.82966600  1
  F  F71  1  0.55097200  0.55654800  0.67033400  1
  F  F72  1  0.08448000  0.32981000  0.24825400  1
  F  F73  1  0.58448000  0.67019000  0.25174600  1
  F  F74  1  0.91552000  0.67019000  0.75174600  1
  F  F75  1  0.41552000  0.32981000  0.74825400  1
  F  F76  1  0.88271400  0.23753400  0.20903900  1
  F  F77  1  0.38271400  0.76246600  0.29096100  1
  F  F78  1  0.11728600  0.76246600  0.79096100  1
  F  F79  1  0.61728600  0.23753400  0.70903900  1
