# generated using pymatgen
data_InHg6Sb4Br7
_symmetry_space_group_name_H-M   'P 1'
_cell_length_a   13.37596300
_cell_length_b   13.37596300
_cell_length_c   13.37596300
_cell_angle_alpha   90.00000000
_cell_angle_beta   90.00000000
_cell_angle_gamma   90.00000000
_symmetry_Int_Tables_number   1
_chemical_formula_structural   InHg6Sb4Br7
_chemical_formula_sum   'In4 Hg24 Sb16 Br28'
_cell_volume   2393.17896160
_cell_formula_units_Z   4
loop_
 _symmetry_equiv_pos_site_id
 _symmetry_equiv_pos_as_xyz
  1  'x, y, z'
loop_
 _atom_site_type_symbol
 _atom_site_label
 _atom_site_symmetry_multiplicity
 _atom_site_fract_x
 _atom_site_fract_y
 _atom_site_fract_z
 _atom_site_occupancy
  In  In0  1  0.50000000  0.50000000  0.00000000  1
  In  In1  1  0.50000000  0.00000000  0.50000000  1
  In  In2  1  0.00000000  0.50000000  0.50000000  1
  In  In3  1  0.00000000  0.00000000  0.00000000  1
  Hg  Hg4  1  0.44849600  0.68706600  0.70376000  1
  Hg  Hg5  1  0.55150400  0.18706600  0.79624000  1
  Hg  Hg6  1  0.05150400  0.31293400  0.20376000  1
  Hg  Hg7  1  0.94849600  0.81293400  0.29624000  1
  Hg  Hg8  1  0.70376000  0.44849600  0.68706600  1
  Hg  Hg9  1  0.79624000  0.55150400  0.18706600  1
  Hg  Hg10  1  0.20376000  0.05150400  0.31293400  1
  Hg  Hg11  1  0.29624000  0.94849600  0.81293400  1
  Hg  Hg12  1  0.68706600  0.70376000  0.44849600  1
  Hg  Hg13  1  0.18706600  0.79624000  0.55150400  1
  Hg  Hg14  1  0.31293400  0.20376000  0.05150400  1
  Hg  Hg15  1  0.81293400  0.29624000  0.94849600  1
  Hg  Hg16  1  0.55150400  0.31293400  0.29624000  1
  Hg  Hg17  1  0.44849600  0.81293400  0.20376000  1
  Hg  Hg18  1  0.94849600  0.68706600  0.79624000  1
  Hg  Hg19  1  0.05150400  0.18706600  0.70376000  1
  Hg  Hg20  1  0.29624000  0.55150400  0.31293400  1
  Hg  Hg21  1  0.20376000  0.44849600  0.81293400  1
  Hg  Hg22  1  0.79624000  0.94849600  0.68706600  1
  Hg  Hg23  1  0.70376000  0.05150400  0.18706600  1
  Hg  Hg24  1  0.31293400  0.29624000  0.55150400  1
  Hg  Hg25  1  0.81293400  0.20376000  0.44849600  1
  Hg  Hg26  1  0.68706600  0.79624000  0.94849600  1
  Hg  Hg27  1  0.18706600  0.70376000  0.05150400  1
  Sb  Sb28  1  0.63328300  0.63328300  0.63328300  1
  Sb  Sb29  1  0.36671700  0.13328300  0.86671700  1
  Sb  Sb30  1  0.86671700  0.36671700  0.13328300  1
  Sb  Sb31  1  0.13328300  0.86671700  0.36671700  1
  Sb  Sb32  1  0.36671700  0.36671700  0.36671700  1
  Sb  Sb33  1  0.63328300  0.86671700  0.13328300  1
  Sb  Sb34  1  0.13328300  0.63328300  0.86671700  1
  Sb  Sb35  1  0.86671700  0.13328300  0.63328300  1
  Sb  Sb36  1  0.26178400  0.76178400  0.73821600  1
  Sb  Sb37  1  0.73821600  0.26178400  0.76178400  1
  Sb  Sb38  1  0.23821600  0.23821600  0.23821600  1
  Sb  Sb39  1  0.76178400  0.73821600  0.26178400  1
  Sb  Sb40  1  0.73821600  0.23821600  0.26178400  1
  Sb  Sb41  1  0.26178400  0.73821600  0.23821600  1
  Sb  Sb42  1  0.76178400  0.76178400  0.76178400  1
  Sb  Sb43  1  0.23821600  0.26178400  0.73821600  1
  Br  Br44  1  0.45230800  0.69524600  0.96099000  1
  Br  Br45  1  0.54769200  0.19524600  0.53901000  1
  Br  Br46  1  0.04769200  0.30475400  0.46099000  1
  Br  Br47  1  0.95230800  0.80475400  0.03901000  1
  Br  Br48  1  0.96099000  0.45230800  0.69524600  1
  Br  Br49  1  0.53901000  0.54769200  0.19524600  1
  Br  Br50  1  0.46099000  0.04769200  0.30475400  1
  Br  Br51  1  0.03901000  0.95230800  0.80475400  1
  Br  Br52  1  0.69524600  0.96099000  0.45230800  1
  Br  Br53  1  0.19524600  0.53901000  0.54769200  1
  Br  Br54  1  0.30475400  0.46099000  0.04769200  1
  Br  Br55  1  0.80475400  0.03901000  0.95230800  1
  Br  Br56  1  0.54769200  0.30475400  0.03901000  1
  Br  Br57  1  0.45230800  0.80475400  0.46099000  1
  Br  Br58  1  0.95230800  0.69524600  0.53901000  1
  Br  Br59  1  0.04769200  0.19524600  0.96099000  1
  Br  Br60  1  0.03901000  0.54769200  0.30475400  1
  Br  Br61  1  0.46099000  0.45230800  0.80475400  1
  Br  Br62  1  0.53901000  0.95230800  0.69524600  1
  Br  Br63  1  0.96099000  0.04769200  0.19524600  1
  Br  Br64  1  0.30475400  0.03901000  0.54769200  1
  Br  Br65  1  0.80475400  0.46099000  0.45230800  1
  Br  Br66  1  0.69524600  0.53901000  0.95230800  1
  Br  Br67  1  0.19524600  0.96099000  0.04769200  1
  Br  Br68  1  0.50000000  0.50000000  0.50000000  1
  Br  Br69  1  0.50000000  0.00000000  0.00000000  1
  Br  Br70  1  0.00000000  0.50000000  0.00000000  1
  Br  Br71  1  0.00000000  0.00000000  0.50000000  1
