# generated using pymatgen
data_CsTmS2
_symmetry_space_group_name_H-M   'P 1'
_cell_length_a   4.04941589
_cell_length_b   4.04941589
_cell_length_c   16.05115900
_cell_angle_alpha   90.00000000
_cell_angle_beta   90.00000000
_cell_angle_gamma   119.99999821
_symmetry_Int_Tables_number   1
_chemical_formula_structural   CsTmS2
_chemical_formula_sum   'Cs2 Tm2 S4'
_cell_volume   227.94066022
_cell_formula_units_Z   2
loop_
 _symmetry_equiv_pos_site_id
 _symmetry_equiv_pos_as_xyz
  1  'x, y, z'
loop_
 _atom_site_type_symbol
 _atom_site_label
 _atom_site_symmetry_multiplicity
 _atom_site_fract_x
 _atom_site_fract_y
 _atom_site_fract_z
 _atom_site_occupancy
  Cs  Cs0  1  0.33333300  0.66666700  0.25000000  1
  Cs  Cs1  1  0.66666700  0.33333300  0.75000000  1
  Tm  Tm2  1  0.00000000  0.00000000  0.50000000  1
  Tm  Tm3  1  0.00000000  0.00000000  0.00000000  1
  S  S4  1  0.33333300  0.66666700  0.91021400  1
  S  S5  1  0.66666700  0.33333300  0.08978600  1
  S  S6  1  0.66666700  0.33333300  0.41021400  1
  S  S7  1  0.33333300  0.66666700  0.58978600  1
