# generated using pymatgen
data_Ba2TlF7
_symmetry_space_group_name_H-M   'P 1'
_cell_length_a   6.04941892
_cell_length_b   9.18643647
_cell_length_c   12.96451300
_cell_angle_alpha   90.00000000
_cell_angle_beta   90.00000000
_cell_angle_gamma   90.84571359
_symmetry_Int_Tables_number   1
_chemical_formula_structural   Ba2TlF7
_chemical_formula_sum   'Ba8 Tl4 F28'
_cell_volume   720.39324454
_cell_formula_units_Z   4
loop_
 _symmetry_equiv_pos_site_id
 _symmetry_equiv_pos_as_xyz
  1  'x, y, z'
loop_
 _atom_site_type_symbol
 _atom_site_label
 _atom_site_symmetry_multiplicity
 _atom_site_fract_x
 _atom_site_fract_y
 _atom_site_fract_z
 _atom_site_occupancy
  Ba  Ba0  1  0.25503300  0.94268300  0.71880500  1
  Ba  Ba1  1  0.74496700  0.05731700  0.28119500  1
  Ba  Ba2  1  0.74496700  0.55731700  0.21880500  1
  Ba  Ba3  1  0.25503300  0.44268300  0.78119500  1
  Ba  Ba4  1  0.72744200  0.66272100  0.56195500  1
  Ba  Ba5  1  0.27255800  0.33727900  0.43804500  1
  Ba  Ba6  1  0.27255800  0.83727900  0.06195500  1
  Ba  Ba7  1  0.72744200  0.16272100  0.93804500  1
  Tl  Tl8  1  0.79357800  0.68577800  0.87323400  1
  Tl  Tl9  1  0.20642200  0.31422200  0.12676600  1
  Tl  Tl10  1  0.20642200  0.81422200  0.37323400  1
  Tl  Tl11  1  0.79357800  0.18577800  0.62676600  1
  F  F12  1  0.99331300  0.80763600  0.22624000  1
  F  F13  1  0.00668700  0.19236400  0.77376000  1
  F  F14  1  0.00668700  0.69236400  0.72624000  1
  F  F15  1  0.99331300  0.30763600  0.27376000  1
  F  F16  1  0.73714600  0.95534900  0.66372600  1
  F  F17  1  0.26285400  0.04465100  0.33627400  1
  F  F18  1  0.26285400  0.54465100  0.16372600  1
  F  F19  1  0.73714600  0.45534900  0.83627400  1
  F  F20  1  0.51384500  0.70200300  0.76393000  1
  F  F21  1  0.48615500  0.29799700  0.23607000  1
  F  F22  1  0.48615500  0.79799700  0.26393000  1
  F  F23  1  0.51384500  0.20200300  0.73607000  1
  F  F24  1  0.42794900  0.96308500  0.89658500  1
  F  F25  1  0.57205100  0.03691500  0.10341500  1
  F  F26  1  0.57205100  0.53691500  0.39658500  1
  F  F27  1  0.42794900  0.46308500  0.60341500  1
  F  F28  1  0.87845800  0.87690800  0.43547600  1
  F  F29  1  0.12154200  0.12309200  0.56452400  1
  F  F30  1  0.12154200  0.62309200  0.93547600  1
  F  F31  1  0.87845800  0.37690800  0.06452400  1
  F  F32  1  0.35390400  0.81448800  0.52783400  1
  F  F33  1  0.64609600  0.18551200  0.47216600  1
  F  F34  1  0.64609600  0.68551200  0.02783400  1
  F  F35  1  0.35390400  0.31448800  0.97216600  1
  F  F36  1  0.93912600  0.90320800  0.90090700  1
  F  F37  1  0.06087400  0.09679200  0.09909300  1
  F  F38  1  0.06087400  0.59679200  0.40090700  1
  F  F39  1  0.93912600  0.40320800  0.59909300  1
