# generated using pymatgen
data_SrV2TeO8
_symmetry_space_group_name_H-M   'P 1'
_cell_length_a   10.33801500
_cell_length_b   11.32277304
_cell_length_c   14.16198121
_cell_angle_alpha   84.00659319
_cell_angle_beta   70.67202128
_cell_angle_gamma   72.59645245
_symmetry_Int_Tables_number   1
_chemical_formula_structural   SrV2TeO8
_chemical_formula_sum   'Sr8 V16 Te8 O64'
_cell_volume   1492.66219117
_cell_formula_units_Z   8
loop_
 _symmetry_equiv_pos_site_id
 _symmetry_equiv_pos_as_xyz
  1  'x, y, z'
loop_
 _atom_site_type_symbol
 _atom_site_label
 _atom_site_symmetry_multiplicity
 _atom_site_fract_x
 _atom_site_fract_y
 _atom_site_fract_z
 _atom_site_occupancy
  Sr  Sr0  1  0.57226500  0.35056300  0.87152500  1
  Sr  Sr1  1  0.42773500  0.64943700  0.12847500  1
  Sr  Sr2  1  0.93139200  0.18497900  0.43256500  1
  Sr  Sr3  1  0.06860800  0.81502100  0.56743500  1
  Sr  Sr4  1  0.93393900  0.17295500  0.93370200  1
  Sr  Sr5  1  0.06606100  0.82704500  0.06629800  1
  Sr  Sr6  1  0.44275100  0.64228600  0.63370500  1
  Sr  Sr7  1  0.55724900  0.35771400  0.36629500  1
  V  V8  1  0.48045700  0.76602300  0.37853500  1
  V  V9  1  0.51954300  0.23397700  0.62146500  1
  V  V10  1  0.65795900  0.91505400  0.55900000  1
  V  V11  1  0.34204100  0.08494600  0.44100000  1
  V  V12  1  0.05933500  0.83235300  0.31824300  1
  V  V13  1  0.94066500  0.16764700  0.68175700  1
  V  V14  1  0.83109000  0.47431100  0.61963100  1
  V  V15  1  0.16891000  0.52568900  0.38036900  1
  V  V16  1  0.34641300  0.08189500  0.94048500  1
  V  V17  1  0.65358700  0.91810500  0.05951500  1
  V  V18  1  0.49275600  0.76656500  0.88365300  1
  V  V19  1  0.50724400  0.23343500  0.11634700  1
  V  V20  1  0.80955600  0.48183800  0.12215200  1
  V  V21  1  0.19044400  0.51816200  0.87784800  1
  V  V22  1  0.07407700  0.82501700  0.81790800  1
  V  V23  1  0.92592300  0.17498300  0.18209200  1
  Te  Te24  1  0.70849500  0.93327900  0.29889100  1
  Te  Te25  1  0.29150500  0.06672100  0.70110900  1
  Te  Te26  1  0.78591000  0.54710400  0.38184400  1
  Te  Te27  1  0.21409000  0.45289600  0.61815600  1
  Te  Te28  1  0.72186300  0.93151000  0.79943400  1
  Te  Te29  1  0.27813700  0.06849000  0.20056600  1
  Te  Te30  1  0.79540300  0.54485200  0.87517500  1
  Te  Te31  1  0.20459700  0.45514800  0.12482500  1
  O  O32  1  0.68336900  0.77312100  0.32823400  1
  O  O33  1  0.31663100  0.22687900  0.67176600  1
  O  O34  1  0.46748000  0.95198600  0.36645300  1
  O  O35  1  0.53252000  0.04801400  0.63354700  1
  O  O36  1  0.71763500  0.96209500  0.42939500  1
  O  O37  1  0.28236500  0.03790500  0.57060500  1
  O  O38  1  0.91968100  0.85221800  0.26228100  1
  O  O39  1  0.08031900  0.14778200  0.73771900  1
  O  O40  1  0.57848700  0.59768000  0.40666400  1
  O  O41  1  0.42151300  0.40232000  0.59333600  1
  O  O42  1  0.79593000  0.38337100  0.36701400  1
  O  O43  1  0.20407000  0.61662900  0.63298600  1
  O  O44  1  0.72882800  0.52885700  0.53486900  1
  O  O45  1  0.27117200  0.47114300  0.46513100  1
  O  O46  1  0.42840100  0.74498600  0.28499200  1
  O  O47  1  0.57159900  0.25501400  0.71500800  1
  O  O48  1  0.33945000  0.78116900  0.48532100  1
  O  O49  1  0.66055000  0.21883100  0.51467900  1
  O  O50  1  0.57247300  0.80859000  0.56842400  1
  O  O51  1  0.42752700  0.19141000  0.43157600  1
  O  O52  1  0.79825700  0.86161300  0.60485300  1
  O  O53  1  0.20174300  0.13838700  0.39514700  1
  O  O54  1  0.19846800  0.83147800  0.21437400  1
  O  O55  1  0.80153200  0.16852200  0.78562600  1
  O  O56  1  0.08198100  0.69329700  0.39652400  1
  O  O57  1  0.91801900  0.30670300  0.60347600  1
  O  O58  1  0.03316700  0.94634400  0.39593700  1
  O  O59  1  0.96683300  0.05365600  0.60406300  1
  O  O60  1  0.71031400  0.49741500  0.73598200  1
  O  O61  1  0.28968600  0.50258500  0.26401800  1
  O  O62  1  0.95492400  0.54729500  0.60890800  1
  O  O63  1  0.04507600  0.45270500  0.39109200  1
  O  O64  1  0.69772300  0.77173700  0.83120100  1
  O  O65  1  0.30227700  0.22826300  0.16879900  1
  O  O66  1  0.47999500  0.95050500  0.86784100  1
  O  O67  1  0.52000500  0.04949500  0.13215900  1
  O  O68  1  0.72561000  0.96369700  0.93023100  1
  O  O69  1  0.27439000  0.03630300  0.06976900  1
  O  O70  1  0.93287300  0.84954200  0.76172300  1
  O  O71  1  0.06712700  0.15045800  0.23827700  1
  O  O72  1  0.82793600  0.56234800  0.00312700  1
  O  O73  1  0.17206400  0.43765200  0.99687300  1
  O  O74  1  0.79810300  0.38004500  0.89833400  1
  O  O75  1  0.20189700  0.61995500  0.10166600  1
  O  O76  1  0.58705600  0.60611000  0.93224700  1
  O  O77  1  0.41294400  0.39389000  0.06775300  1
  O  O78  1  0.42976900  0.18877300  0.93377700  1
  O  O79  1  0.57023100  0.81122700  0.06622300  1
  O  O80  1  0.21153800  0.13259800  0.88883200  1
  O  O81  1  0.78846200  0.86740200  0.11116800  1
  O  O82  1  0.34067500  0.78788800  0.98252000  1
  O  O83  1  0.65932500  0.21211200  0.01748000  1
  O  O84  1  0.45841100  0.73616900  0.78469600  1
  O  O85  1  0.54158900  0.26383100  0.21530400  1
  O  O86  1  0.87996900  0.54156500  0.19190000  1
  O  O87  1  0.12003100  0.45843500  0.80810000  1
  O  O88  1  0.63635700  0.49689200  0.18505800  1
  O  O89  1  0.36364300  0.50310800  0.81494200  1
  O  O90  1  0.04113200  0.93867900  0.89840600  1
  O  O91  1  0.95886800  0.06132100  0.10159400  1
  O  O92  1  0.09870300  0.68565500  0.89416000  1
  O  O93  1  0.90129700  0.31434500  0.10584000  1
  O  O94  1  0.21595800  0.82856000  0.71779300  1
  O  O95  1  0.78404200  0.17144000  0.28220700  1
