# generated using pymatgen
data_ZrHg4(PCl3)2
_symmetry_space_group_name_H-M   'P 1'
_cell_length_a   13.31685200
_cell_length_b   13.61771200
_cell_length_c   16.53000400
_cell_angle_alpha   90.00000000
_cell_angle_beta   90.00000000
_cell_angle_gamma   90.00000000
_symmetry_Int_Tables_number   1
_chemical_formula_structural   ZrHg4(PCl3)2
_chemical_formula_sum   'Zr8 Hg32 P16 Cl48'
_cell_volume   2997.63448920
_cell_formula_units_Z   8
loop_
 _symmetry_equiv_pos_site_id
 _symmetry_equiv_pos_as_xyz
  1  'x, y, z'
loop_
 _atom_site_type_symbol
 _atom_site_label
 _atom_site_symmetry_multiplicity
 _atom_site_fract_x
 _atom_site_fract_y
 _atom_site_fract_z
 _atom_site_occupancy
  Zr  Zr0  1  0.30183300  0.01046200  0.88689600  1
  Zr  Zr1  1  0.80183300  0.48953800  0.11310400  1
  Zr  Zr2  1  0.69816700  0.51046200  0.61310400  1
  Zr  Zr3  1  0.19816700  0.98953800  0.38689600  1
  Zr  Zr4  1  0.69816700  0.98953800  0.11310400  1
  Zr  Zr5  1  0.19816700  0.51046200  0.88689600  1
  Zr  Zr6  1  0.30183300  0.48953800  0.38689600  1
  Zr  Zr7  1  0.80183300  0.01046200  0.61310400  1
  Hg  Hg8  1  0.73067100  0.23747000  0.87216400  1
  Hg  Hg9  1  0.23067100  0.26253000  0.12783600  1
  Hg  Hg10  1  0.26932900  0.73747000  0.62783600  1
  Hg  Hg11  1  0.76932900  0.76253000  0.37216400  1
  Hg  Hg12  1  0.26932900  0.76253000  0.12783600  1
  Hg  Hg13  1  0.76932900  0.73747000  0.87216400  1
  Hg  Hg14  1  0.73067100  0.26253000  0.37216400  1
  Hg  Hg15  1  0.23067100  0.23747000  0.62783600  1
  Hg  Hg16  1  0.47894200  0.29365100  0.99529900  1
  Hg  Hg17  1  0.97894200  0.20634900  0.00470100  1
  Hg  Hg18  1  0.52105800  0.79365100  0.50470100  1
  Hg  Hg19  1  0.02105800  0.70634900  0.49529900  1
  Hg  Hg20  1  0.52105800  0.70634900  0.00470100  1
  Hg  Hg21  1  0.02105800  0.79365100  0.99529900  1
  Hg  Hg22  1  0.47894200  0.20634900  0.49529900  1
  Hg  Hg23  1  0.97894200  0.29365100  0.50470100  1
  Hg  Hg24  1  0.47968100  0.24584800  0.74595300  1
  Hg  Hg25  1  0.97968100  0.25415200  0.25404700  1
  Hg  Hg26  1  0.52031900  0.74584800  0.75404700  1
  Hg  Hg27  1  0.02031900  0.75415200  0.24595300  1
  Hg  Hg28  1  0.52031900  0.75415200  0.25404700  1
  Hg  Hg29  1  0.02031900  0.74584800  0.74595300  1
  Hg  Hg30  1  0.47968100  0.25415200  0.24595300  1
  Hg  Hg31  1  0.97968100  0.24584800  0.75404700  1
  Hg  Hg32  1  0.58947100  0.49217700  0.85510400  1
  Hg  Hg33  1  0.08947100  0.00782300  0.14489600  1
  Hg  Hg34  1  0.41052900  0.99217700  0.64489600  1
  Hg  Hg35  1  0.91052900  0.50782300  0.35510400  1
  Hg  Hg36  1  0.41052900  0.50782300  0.14489600  1
  Hg  Hg37  1  0.91052900  0.99217700  0.85510400  1
  Hg  Hg38  1  0.58947100  0.00782300  0.35510400  1
  Hg  Hg39  1  0.08947100  0.49217700  0.64489600  1
  P  P40  1  0.90103800  0.17187800  0.87299700  1
  P  P41  1  0.40103800  0.32812200  0.12700300  1
  P  P42  1  0.09896200  0.67187800  0.62700300  1
  P  P43  1  0.59896200  0.82812200  0.37299700  1
  P  P44  1  0.09896200  0.82812200  0.12700300  1
  P  P45  1  0.59896200  0.67187800  0.87299700  1
  P  P46  1  0.90103800  0.32812200  0.37299700  1
  P  P47  1  0.40103800  0.17187800  0.62700300  1
  P  P48  1  0.56478500  0.31315000  0.86461200  1
  P  P49  1  0.06478500  0.18685000  0.13538800  1
  P  P50  1  0.43521500  0.81315000  0.63538800  1
  P  P51  1  0.93521500  0.68685000  0.36461200  1
  P  P52  1  0.43521500  0.68685000  0.13538800  1
  P  P53  1  0.93521500  0.81315000  0.86461200  1
  P  P54  1  0.56478500  0.18685000  0.36461200  1
  P  P55  1  0.06478500  0.31315000  0.63538800  1
  Cl  Cl56  1  0.35961100  0.09800600  0.01027000  1
  Cl  Cl57  1  0.85961100  0.40199400  0.98973000  1
  Cl  Cl58  1  0.64038900  0.59800600  0.48973000  1
  Cl  Cl59  1  0.14038900  0.90199400  0.51027000  1
  Cl  Cl60  1  0.64038900  0.90199400  0.98973000  1
  Cl  Cl61  1  0.14038900  0.59800600  0.01027000  1
  Cl  Cl62  1  0.35961100  0.40199400  0.51027000  1
  Cl  Cl63  1  0.85961100  0.09800600  0.48973000  1
  Cl  Cl64  1  0.12711000  0.01187400  0.94755500  1
  Cl  Cl65  1  0.62711000  0.48812600  0.05244500  1
  Cl  Cl66  1  0.87289000  0.51187400  0.55244500  1
  Cl  Cl67  1  0.37289000  0.98812600  0.44755500  1
  Cl  Cl68  1  0.87289000  0.98812600  0.05244500  1
  Cl  Cl69  1  0.37289000  0.51187400  0.94755500  1
  Cl  Cl70  1  0.12711000  0.48812600  0.44755500  1
  Cl  Cl71  1  0.62711000  0.01187400  0.55244500  1
  Cl  Cl72  1  0.26582200  0.17018500  0.82103600  1
  Cl  Cl73  1  0.76582200  0.32981500  0.17896400  1
  Cl  Cl74  1  0.73417800  0.67018500  0.67896400  1
  Cl  Cl75  1  0.23417800  0.82981500  0.32103600  1
  Cl  Cl76  1  0.73417800  0.82981500  0.17896400  1
  Cl  Cl77  1  0.23417800  0.67018500  0.82103600  1
  Cl  Cl78  1  0.26582200  0.32981500  0.32103600  1
  Cl  Cl79  1  0.76582200  0.17018500  0.67896400  1
  Cl  Cl80  1  0.22856800  0.92891600  0.76543100  1
  Cl  Cl81  1  0.72856800  0.57108400  0.23456900  1
  Cl  Cl82  1  0.77143200  0.42891600  0.73456900  1
  Cl  Cl83  1  0.27143200  0.07108400  0.26543100  1
  Cl  Cl84  1  0.77143200  0.07108400  0.23456900  1
  Cl  Cl85  1  0.27143200  0.42891600  0.76543100  1
  Cl  Cl86  1  0.22856800  0.57108400  0.26543100  1
  Cl  Cl87  1  0.72856800  0.92891600  0.73456900  1
  Cl  Cl88  1  0.33568100  0.85001900  0.95304800  1
  Cl  Cl89  1  0.83568100  0.64998100  0.04695200  1
  Cl  Cl90  1  0.66431900  0.35001900  0.54695200  1
  Cl  Cl91  1  0.16431900  0.14998100  0.45304800  1
  Cl  Cl92  1  0.66431900  0.14998100  0.04695200  1
  Cl  Cl93  1  0.16431900  0.35001900  0.95304800  1
  Cl  Cl94  1  0.33568100  0.64998100  0.45304800  1
  Cl  Cl95  1  0.83568100  0.85001900  0.54695200  1
  Cl  Cl96  1  0.47294200  0.01189800  0.82708600  1
  Cl  Cl97  1  0.97294200  0.48810200  0.17291400  1
  Cl  Cl98  1  0.52705800  0.51189800  0.67291400  1
  Cl  Cl99  1  0.02705800  0.98810200  0.32708600  1
  Cl  Cl100  1  0.52705800  0.98810200  0.17291400  1
  Cl  Cl101  1  0.02705800  0.51189800  0.82708600  1
  Cl  Cl102  1  0.47294200  0.48810200  0.32708600  1
  Cl  Cl103  1  0.97294200  0.01189800  0.67291400  1
