# generated using pymatgen
data_RbFe3P3(O4F3)2
_symmetry_space_group_name_H-M   'P 1'
_cell_length_a   10.97553313
_cell_length_b   10.97553313
_cell_length_c   7.91007078
_cell_angle_alpha   77.90644770
_cell_angle_beta   77.90644770
_cell_angle_gamma   40.51731387
_symmetry_Int_Tables_number   1
_chemical_formula_structural   RbFe3P3(O4F3)2
_chemical_formula_sum   'Rb2 Fe6 P6 O16 F12'
_cell_volume   603.42095097
_cell_formula_units_Z   2
loop_
 _symmetry_equiv_pos_site_id
 _symmetry_equiv_pos_as_xyz
  1  'x, y, z'
loop_
 _atom_site_type_symbol
 _atom_site_label
 _atom_site_symmetry_multiplicity
 _atom_site_fract_x
 _atom_site_fract_y
 _atom_site_fract_z
 _atom_site_occupancy
  Rb  Rb0  1  0.64805500  0.35194500  0.75000000  1
  Rb  Rb1  1  0.35194500  0.64805500  0.25000000  1
  Fe  Fe2  1  0.50000000  0.00000000  0.50000000  1
  Fe  Fe3  1  0.00000000  0.50000000  0.00000000  1
  Fe  Fe4  1  0.13792800  0.18680400  0.69684500  1
  Fe  Fe5  1  0.81319600  0.86207200  0.80315500  1
  Fe  Fe6  1  0.86207200  0.81319600  0.30315500  1
  Fe  Fe7  1  0.18680400  0.13792800  0.19684500  1
  P  P8  1  0.82053600  0.52695800  0.42067100  1
  P  P9  1  0.47304200  0.17946400  0.07932900  1
  P  P10  1  0.17946400  0.47304200  0.57932900  1
  P  P11  1  0.52695800  0.82053600  0.92067100  1
  P  P12  1  0.11797300  0.88202700  0.75000000  1
  P  P13  1  0.88202700  0.11797300  0.25000000  1
  O  O14  1  0.96334600  0.92277400  0.70832900  1
  O  O15  1  0.07722600  0.03665400  0.79167100  1
  O  O16  1  0.03665400  0.07722600  0.29167100  1
  O  O17  1  0.92277400  0.96334600  0.20832900  1
  O  O18  1  0.24718800  0.29116200  0.57109000  1
  O  O19  1  0.70883800  0.75281200  0.92891000  1
  O  O20  1  0.75281200  0.70883800  0.42891000  1
  O  O21  1  0.29116200  0.24718800  0.07109000  1
  O  O22  1  0.42398200  0.95366100  0.75982700  1
  O  O23  1  0.04633900  0.57601800  0.74017300  1
  O  O24  1  0.57601800  0.04633900  0.24017300  1
  O  O25  1  0.95366100  0.42398200  0.25982700  1
  O  O26  1  0.88654300  0.39942000  0.58670400  1
  O  O27  1  0.60058000  0.11345700  0.91329600  1
  O  O28  1  0.11345700  0.60058000  0.41329600  1
  O  O29  1  0.39942000  0.88654300  0.08670400  1
  F  F30  1  0.23239800  0.71587600  0.89870200  1
  F  F31  1  0.28412400  0.76760200  0.60129800  1
  F  F32  1  0.76760200  0.28412400  0.10129800  1
  F  F33  1  0.71587600  0.23239800  0.39870200  1
  F  F34  1  0.29127400  0.04617700  0.44269100  1
  F  F35  1  0.95382300  0.70872600  0.05730900  1
  F  F36  1  0.70872600  0.95382300  0.55730900  1
  F  F37  1  0.04617700  0.29127400  0.94269100  1
  F  F38  1  0.63418400  0.59404800  0.39392300  1
  F  F39  1  0.40595200  0.36581600  0.10607700  1
  F  F40  1  0.36581600  0.40595200  0.60607700  1
  F  F41  1  0.59404800  0.63418400  0.89392300  1
