# generated using pymatgen
data_Cs5FeO4
_symmetry_space_group_name_H-M   'P 1'
_cell_length_a   10.89494900
_cell_length_b   9.11046000
_cell_length_c   11.32004596
_cell_angle_alpha   82.89254496
_cell_angle_beta   90.00000000
_cell_angle_gamma   90.00000000
_symmetry_Int_Tables_number   1
_chemical_formula_structural   Cs5FeO4
_chemical_formula_sum   'Cs20 Fe4 O16'
_cell_volume   1114.97113579
_cell_formula_units_Z   4
loop_
 _symmetry_equiv_pos_site_id
 _symmetry_equiv_pos_as_xyz
  1  'x, y, z'
loop_
 _atom_site_type_symbol
 _atom_site_label
 _atom_site_symmetry_multiplicity
 _atom_site_fract_x
 _atom_site_fract_y
 _atom_site_fract_z
 _atom_site_occupancy
  Cs  Cs0  1  0.82982200  0.95622800  0.53053900  1
  Cs  Cs1  1  0.32982200  0.04377200  0.96946100  1
  Cs  Cs2  1  0.17017800  0.04377200  0.46946100  1
  Cs  Cs3  1  0.67017800  0.95622800  0.03053900  1
  Cs  Cs4  1  0.85199000  0.26756700  0.76062800  1
  Cs  Cs5  1  0.35199000  0.73243300  0.73937200  1
  Cs  Cs6  1  0.14801000  0.73243300  0.23937200  1
  Cs  Cs7  1  0.64801000  0.26756700  0.26062800  1
  Cs  Cs8  1  0.69101700  0.56508100  0.52207000  1
  Cs  Cs9  1  0.19101700  0.43491900  0.97793000  1
  Cs  Cs10  1  0.30898300  0.43491900  0.47793000  1
  Cs  Cs11  1  0.80898300  0.56508100  0.02207000  1
  Cs  Cs12  1  0.99115500  0.89310000  0.85934400  1
  Cs  Cs13  1  0.49115500  0.10690000  0.64065600  1
  Cs  Cs14  1  0.00884500  0.10690000  0.14065600  1
  Cs  Cs15  1  0.50884500  0.89310000  0.35934400  1
  Cs  Cs16  1  0.02842000  0.60159100  0.63869400  1
  Cs  Cs17  1  0.52842000  0.39840900  0.86130600  1
  Cs  Cs18  1  0.97158000  0.39840900  0.36130600  1
  Cs  Cs19  1  0.47158000  0.60159100  0.13869400  1
  Fe  Fe20  1  0.66744600  0.77926900  0.76765400  1
  Fe  Fe21  1  0.16744600  0.22073100  0.73234600  1
  Fe  Fe22  1  0.33255400  0.22073100  0.23234600  1
  Fe  Fe23  1  0.83255400  0.77926900  0.26765400  1
  O  O24  1  0.57176900  0.79435200  0.62083600  1
  O  O25  1  0.07176900  0.20564800  0.87916400  1
  O  O26  1  0.42823100  0.20564800  0.37916400  1
  O  O27  1  0.92823100  0.79435200  0.12083600  1
  O  O28  1  0.56202100  0.71114200  0.90332400  1
  O  O29  1  0.06202100  0.28885800  0.59667600  1
  O  O30  1  0.43797900  0.28885800  0.09667600  1
  O  O31  1  0.93797900  0.71114200  0.40332400  1
  O  O32  1  0.73123600  0.97358400  0.78395600  1
  O  O33  1  0.23123600  0.02641600  0.71604400  1
  O  O34  1  0.26876400  0.02641600  0.21604400  1
  O  O35  1  0.76876400  0.97358400  0.28395600  1
  O  O36  1  0.79785400  0.63842100  0.75567800  1
  O  O37  1  0.29785400  0.36157900  0.74432200  1
  O  O38  1  0.20214600  0.36157900  0.24432200  1
  O  O39  1  0.70214600  0.63842100  0.25567800  1
