# generated using pymatgen
data_Er7IrI12
_symmetry_space_group_name_H-M   'P 1'
_cell_length_a   9.75682176
_cell_length_b   9.75682176
_cell_length_c   9.75682200
_cell_angle_alpha   106.90268836
_cell_angle_beta   106.90268836
_cell_angle_gamma   106.90269124
_symmetry_Int_Tables_number   1
_chemical_formula_structural   Er7IrI12
_chemical_formula_sum   'Er7 Ir1 I12'
_cell_volume   775.56288983
_cell_formula_units_Z   1
loop_
 _symmetry_equiv_pos_site_id
 _symmetry_equiv_pos_as_xyz
  1  'x, y, z'
loop_
 _atom_site_type_symbol
 _atom_site_label
 _atom_site_symmetry_multiplicity
 _atom_site_fract_x
 _atom_site_fract_y
 _atom_site_fract_z
 _atom_site_occupancy
  Er  Er0  1  0.09329400  0.02312800  0.29413900  1
  Er  Er1  1  0.29413900  0.09329400  0.02312800  1
  Er  Er2  1  0.02312800  0.29413900  0.09329400  1
  Er  Er3  1  0.90670600  0.97687200  0.70586100  1
  Er  Er4  1  0.70586100  0.90670600  0.97687200  1
  Er  Er5  1  0.97687200  0.70586100  0.90670600  1
  Er  Er6  1  0.50000000  0.50000000  0.50000000  1
  Ir  Ir7  1  0.00000000  0.00000000  0.00000000  1
  I  I8  1  0.06971000  0.67456900  0.22461100  1
  I  I9  1  0.22461100  0.06971000  0.67456900  1
  I  I10  1  0.67456900  0.22461100  0.06971000  1
  I  I11  1  0.93029000  0.32543100  0.77538900  1
  I  I12  1  0.77538900  0.93029000  0.32543100  1
  I  I13  1  0.32543100  0.77538900  0.93029000  1
  I  I14  1  0.46544000  0.16347100  0.38886100  1
  I  I15  1  0.38886100  0.46544000  0.16347100  1
  I  I16  1  0.16347100  0.38886100  0.46544000  1
  I  I17  1  0.53456000  0.83652900  0.61113900  1
  I  I18  1  0.61113900  0.53456000  0.83652900  1
  I  I19  1  0.83652900  0.61113900  0.53456000  1
