# generated using pymatgen
data_TbNbO4
_symmetry_space_group_name_H-M   'P 1'
_cell_length_a   6.64131062
_cell_length_b   6.64131062
_cell_length_c   5.16582027
_cell_angle_alpha   68.76923087
_cell_angle_beta   68.76923087
_cell_angle_gamma   114.42529756
_symmetry_Int_Tables_number   1
_chemical_formula_structural   TbNbO4
_chemical_formula_sum   'Tb2 Nb2 O8'
_cell_volume   154.24762872
_cell_formula_units_Z   2
loop_
 _symmetry_equiv_pos_site_id
 _symmetry_equiv_pos_as_xyz
  1  'x, y, z'
loop_
 _atom_site_type_symbol
 _atom_site_label
 _atom_site_symmetry_multiplicity
 _atom_site_fract_x
 _atom_site_fract_y
 _atom_site_fract_z
 _atom_site_occupancy
  Tb  Tb0  1  0.12796700  0.87203300  0.75000000  1
  Tb  Tb1  1  0.87203300  0.12796700  0.25000000  1
  Nb  Nb2  1  0.60872600  0.39127400  0.75000000  1
  Nb  Nb3  1  0.39127400  0.60872600  0.25000000  1
  O  O4  1  0.13014700  0.55043700  0.15936600  1
  O  O5  1  0.44956300  0.86985300  0.34063400  1
  O  O6  1  0.86985300  0.44956300  0.84063400  1
  O  O7  1  0.55043700  0.13014700  0.65936600  1
  O  O8  1  0.71696800  0.78245400  0.79945000  1
  O  O9  1  0.21754600  0.28303200  0.70055000  1
  O  O10  1  0.28303200  0.21754600  0.20055000  1
  O  O11  1  0.78245400  0.71696800  0.29945000  1
