# generated using pymatgen
data_HgO
_symmetry_space_group_name_H-M   'P 1'
_cell_length_a   3.73885200
_cell_length_b   5.79659500
_cell_length_c   6.73969100
_cell_angle_alpha   90.00000000
_cell_angle_beta   90.00000000
_cell_angle_gamma   90.00000000
_symmetry_Int_Tables_number   1
_chemical_formula_structural   HgO
_chemical_formula_sum   'Hg4 O4'
_cell_volume   146.06670002
_cell_formula_units_Z   4
loop_
 _symmetry_equiv_pos_site_id
 _symmetry_equiv_pos_as_xyz
  1  'x, y, z'
loop_
 _atom_site_type_symbol
 _atom_site_label
 _atom_site_symmetry_multiplicity
 _atom_site_fract_x
 _atom_site_fract_y
 _atom_site_fract_z
 _atom_site_occupancy
  Hg  Hg0  1  0.74292200  0.75000000  0.61526100  1
  Hg  Hg1  1  0.24292200  0.25000000  0.88473900  1
  Hg  Hg2  1  0.25707800  0.25000000  0.38473900  1
  Hg  Hg3  1  0.75707800  0.75000000  0.11526100  1
  O  O4  1  0.06904500  0.75000000  0.86223300  1
  O  O5  1  0.56904500  0.25000000  0.63776700  1
  O  O6  1  0.93095500  0.25000000  0.13776700  1
  O  O7  1  0.43095500  0.75000000  0.36223300  1
