# generated using pymatgen
data_SmIn2Pd
_symmetry_space_group_name_H-M   'P 1'
_cell_length_a   10.98482355
_cell_length_b   10.98482355
_cell_length_c   10.98482355
_cell_angle_alpha   100.22872950
_cell_angle_beta   100.22872950
_cell_angle_gamma   130.15394751
_symmetry_Int_Tables_number   1
_chemical_formula_structural   SmIn2Pd
_chemical_formula_sum   'Sm10 In20 Pd10'
_cell_volume   918.75285461
_cell_formula_units_Z   10
loop_
 _symmetry_equiv_pos_site_id
 _symmetry_equiv_pos_as_xyz
  1  'x, y, z'
loop_
 _atom_site_type_symbol
 _atom_site_label
 _atom_site_symmetry_multiplicity
 _atom_site_fract_x
 _atom_site_fract_y
 _atom_site_fract_z
 _atom_site_occupancy
  Sm  Sm0  1  0.89305000  0.61246100  0.28058900  1
  Sm  Sm1  1  0.33187200  0.61246100  0.71941100  1
  Sm  Sm2  1  0.61246100  0.33187200  0.71941100  1
  Sm  Sm3  1  0.61246100  0.89305000  0.28058900  1
  Sm  Sm4  1  0.92169200  0.32533500  0.00000000  1
  Sm  Sm5  1  0.32533500  0.92169200  0.00000000  1
  Sm  Sm6  1  0.32533500  0.32533500  0.40364400  1
  Sm  Sm7  1  0.92169200  0.92169200  0.59635600  1
  Sm  Sm8  1  0.53755400  0.53755400  0.00000000  1
  Sm  Sm9  1  0.00703400  0.00703400  0.00000000  1
  In  In10  1  0.01625700  0.52317900  0.78965000  1
  In  In11  1  0.73352900  0.22660800  0.21035000  1
  In  In12  1  0.52317900  0.73352900  0.50692100  1
  In  In13  1  0.01625700  0.22660800  0.49307900  1
  In  In14  1  0.22660800  0.01625700  0.49307900  1
  In  In15  1  0.73352900  0.52317900  0.50692100  1
  In  In16  1  0.52317900  0.01625700  0.78965000  1
  In  In17  1  0.22660800  0.73352900  0.21035000  1
  In  In18  1  0.51707100  0.13428200  0.38278800  1
  In  In19  1  0.75149400  0.13428200  0.61721200  1
  In  In20  1  0.13428200  0.75149400  0.61721200  1
  In  In21  1  0.13428200  0.51707100  0.38278800  1
  In  In22  1  0.91020000  0.64345600  0.00000000  1
  In  In23  1  0.64345600  0.91020000  0.00000000  1
  In  In24  1  0.64345600  0.64345600  0.73325600  1
  In  In25  1  0.91020000  0.91020000  0.26674400  1
  In  In26  1  0.44582800  0.28062800  0.16520100  1
  In  In27  1  0.11542700  0.28062800  0.83479900  1
  In  In28  1  0.28062800  0.11542700  0.83479900  1
  In  In29  1  0.28062800  0.44582800  0.16520100  1
  Pd  Pd30  1  0.88392100  0.38392100  0.50000000  1
  Pd  Pd31  1  0.38392100  0.88392100  0.50000000  1
  Pd  Pd32  1  0.30464800  0.62459600  0.00000000  1
  Pd  Pd33  1  0.62459600  0.30464800  0.00000000  1
  Pd  Pd34  1  0.62459600  0.62459600  0.31994800  1
  Pd  Pd35  1  0.30464800  0.30464800  0.68005200  1
  Pd  Pd36  1  0.18660400  0.97149700  0.21510700  1
  Pd  Pd37  1  0.75639000  0.97149700  0.78489300  1
  Pd  Pd38  1  0.97149700  0.75639000  0.78489300  1
  Pd  Pd39  1  0.97149700  0.18660400  0.21510700  1
