# generated using pymatgen
data_CuAs12P4S12Br
_symmetry_space_group_name_H-M   'P 1'
_cell_length_a   13.77325859
_cell_length_b   13.77325859
_cell_length_c   22.05949000
_cell_angle_alpha   90.00000000
_cell_angle_beta   90.00000000
_cell_angle_gamma   120.00000283
_symmetry_Int_Tables_number   1
_chemical_formula_structural   CuAs12P4S12Br
_chemical_formula_sum   'Cu4 As48 P16 S48 Br4'
_cell_volume   3624.09429938
_cell_formula_units_Z   4
loop_
 _symmetry_equiv_pos_site_id
 _symmetry_equiv_pos_as_xyz
  1  'x, y, z'
loop_
 _atom_site_type_symbol
 _atom_site_label
 _atom_site_symmetry_multiplicity
 _atom_site_fract_x
 _atom_site_fract_y
 _atom_site_fract_z
 _atom_site_occupancy
  Cu  Cu0  1  0.33333300  0.66666700  0.06111600  1
  Cu  Cu1  1  0.66666700  0.33333300  0.56111600  1
  Cu  Cu2  1  0.00000000  0.00000000  0.30199200  1
  Cu  Cu3  1  0.00000000  0.00000000  0.80199200  1
  As  As4  1  0.57330000  0.51598600  0.19527800  1
  As  As5  1  0.94268600  0.42670000  0.19527800  1
  As  As6  1  0.48401400  0.05731400  0.19527800  1
  As  As7  1  0.05731400  0.48401400  0.69527800  1
  As  As8  1  0.51598600  0.57330000  0.69527800  1
  As  As9  1  0.42670000  0.94268600  0.69527800  1
  As  As10  1  0.43769600  0.34369700  0.13679800  1
  As  As11  1  0.90600000  0.56230400  0.13679800  1
  As  As12  1  0.65630300  0.09400000  0.13679800  1
  As  As13  1  0.09400000  0.65630300  0.63679800  1
  As  As14  1  0.34369700  0.43769600  0.63679800  1
  As  As15  1  0.56230400  0.90600000  0.63679800  1
  As  As16  1  0.61582500  0.49041500  0.08680500  1
  As  As17  1  0.87458900  0.38417500  0.08680500  1
  As  As18  1  0.50958500  0.12541100  0.08680500  1
  As  As19  1  0.12541100  0.50958500  0.58680400  1
  As  As20  1  0.49041500  0.61582500  0.58680400  1
  As  As21  1  0.38417500  0.87458900  0.58680400  1
  As  As22  1  0.29743200  0.54752200  0.81787900  1
  As  As23  1  0.25008900  0.70256800  0.81787900  1
  As  As24  1  0.45247800  0.74991100  0.81787900  1
  As  As25  1  0.74991100  0.45247800  0.31787900  1
  As  As26  1  0.54752200  0.29743200  0.31787900  1
  As  As27  1  0.70256800  0.25008900  0.31787900  1
  As  As28  1  0.25519400  0.39268200  0.43938500  1
  As  As29  1  0.13748800  0.74480600  0.43938500  1
  As  As30  1  0.60731800  0.86251200  0.43938500  1
  As  As31  1  0.86251200  0.60731800  0.93938500  1
  As  As32  1  0.39268200  0.25519400  0.93938500  1
  As  As33  1  0.74480600  0.13748800  0.93938500  1
  As  As34  1  0.11052700  0.42570300  0.38870500  1
  As  As35  1  0.31517600  0.88947300  0.38870500  1
  As  As36  1  0.57429700  0.68482400  0.38870500  1
  As  As37  1  0.68482400  0.57429700  0.88870500  1
  As  As38  1  0.42570300  0.11052700  0.88870500  1
  As  As39  1  0.88947300  0.31517600  0.88870500  1
  As  As40  1  0.28684200  0.46775200  0.33256400  1
  As  As41  1  0.18091000  0.71315800  0.33256400  1
  As  As42  1  0.53224800  0.81909000  0.33256400  1
  As  As43  1  0.81909000  0.53224800  0.83256400  1
  As  As44  1  0.46775200  0.28684200  0.83256400  1
  As  As45  1  0.71315800  0.18091000  0.83256400  1
  As  As46  1  0.10954700  0.00778500  0.05786500  1
  As  As47  1  0.89823700  0.89045300  0.05786500  1
  As  As48  1  0.99221500  0.10176300  0.05786500  1
  As  As49  1  0.10176300  0.99221500  0.55786500  1
  As  As50  1  0.00778500  0.10954700  0.55786500  1
  As  As51  1  0.89045300  0.89823700  0.55786500  1
  P  P52  1  0.41984000  0.57228100  0.09463000  1
  P  P53  1  0.15244000  0.58016000  0.09463000  1
  P  P54  1  0.42771900  0.84756000  0.09463000  1
  P  P55  1  0.84756000  0.42771900  0.59463000  1
  P  P56  1  0.57228100  0.41984000  0.59463000  1
  P  P57  1  0.58016000  0.15244000  0.59463000  1
  P  P58  1  0.33333300  0.66666700  0.95742100  1
  P  P59  1  0.66666700  0.33333300  0.45742100  1
  P  P60  1  0.09929300  0.18590400  0.33556900  1
  P  P61  1  0.08661000  0.90070700  0.33556900  1
  P  P62  1  0.81409600  0.91339000  0.33556900  1
  P  P63  1  0.91339000  0.81409600  0.83556900  1
  P  P64  1  0.18590400  0.09929300  0.83556900  1
  P  P65  1  0.90070700  0.08661000  0.83556900  1
  P  P66  1  0.00000000  0.00000000  0.19759900  1
  P  P67  1  0.00000000  0.00000000  0.69759900  1
  S  S68  1  0.49197500  0.62170900  0.18088500  1
  S  S69  1  0.12973400  0.50802500  0.18088500  1
  S  S70  1  0.37829100  0.87026600  0.18088500  1
  S  S71  1  0.87026600  0.37829100  0.68088500  1
  S  S72  1  0.62170900  0.49197500  0.68088500  1
  S  S73  1  0.50802500  0.12973400  0.68088500  1
  S  S74  1  0.31786600  0.39776600  0.10185500  1
  S  S75  1  0.07990000  0.68213400  0.10185500  1
  S  S76  1  0.60223400  0.92010000  0.10185500  1
  S  S77  1  0.92010000  0.60223400  0.60185500  1
  S  S78  1  0.39776600  0.31786600  0.60185500  1
  S  S79  1  0.68213400  0.07990000  0.60185500  1
  S  S80  1  0.55294700  0.59368400  0.03925400  1
  S  S81  1  0.04073700  0.44705300  0.03925400  1
  S  S82  1  0.40631600  0.95926300  0.03925400  1
  S  S83  1  0.95926300  0.40631600  0.53925400  1
  S  S84  1  0.59368400  0.55294700  0.53925400  1
  S  S85  1  0.44705300  0.04073700  0.53925400  1
  S  S86  1  0.28667800  0.51082500  0.91833400  1
  S  S87  1  0.22414700  0.71332200  0.91833400  1
  S  S88  1  0.48917500  0.77585300  0.91833400  1
  S  S89  1  0.77585300  0.48917500  0.41833400  1
  S  S90  1  0.51082500  0.28667800  0.41833400  1
  S  S91  1  0.71332200  0.22414700  0.41833400  1
  S  S92  1  0.18148000  0.20751000  0.41893300  1
  S  S93  1  0.02603100  0.81852000  0.41893300  1
  S  S94  1  0.79249000  0.97396900  0.41893300  1
  S  S95  1  0.97396900  0.79249000  0.91893300  1
  S  S96  1  0.20751000  0.18148000  0.91893300  1
  S  S97  1  0.81852000  0.02603100  0.91893300  1
  S  S98  1  0.99382100  0.25257800  0.35103900  1
  S  S99  1  0.25875600  0.00617900  0.35103900  1
  S  S100  1  0.74742200  0.74124400  0.35103900  1
  S  S101  1  0.74124400  0.74742200  0.85103900  1
  S  S102  1  0.25257800  0.99382100  0.85103900  1
  S  S103  1  0.00617900  0.25875600  0.85103900  1
  S  S104  1  0.22565200  0.30652900  0.27959900  1
  S  S105  1  0.08087700  0.77434800  0.27959900  1
  S  S106  1  0.69347100  0.91912300  0.27959900  1
  S  S107  1  0.91912300  0.69347100  0.77959900  1
  S  S108  1  0.30652900  0.22565200  0.77959900  1
  S  S109  1  0.77434800  0.08087700  0.77959900  1
  S  S110  1  0.14384400  0.01202500  0.15797600  1
  S  S111  1  0.86818100  0.85615600  0.15797600  1
  S  S112  1  0.98797500  0.13181900  0.15797600  1
  S  S113  1  0.13181900  0.98797500  0.65797600  1
  S  S114  1  0.01202500  0.14384400  0.65797600  1
  S  S115  1  0.85615600  0.86818100  0.65797600  1
  Br  Br116  1  0.66666700  0.33333300  0.18170800  1
  Br  Br117  1  0.33333300  0.66666700  0.68170800  1
  Br  Br118  1  0.33333300  0.66666700  0.44127200  1
  Br  Br119  1  0.66666700  0.33333300  0.94127200  1
