# generated using pymatgen
data_Er3Ge4
_symmetry_space_group_name_H-M   'P 1'
_cell_length_a   5.68019390
_cell_length_b   5.68019390
_cell_length_c   14.22629400
_cell_angle_alpha   90.00000000
_cell_angle_beta   90.00000000
_cell_angle_gamma   138.38306762
_symmetry_Int_Tables_number   1
_chemical_formula_structural   Er3Ge4
_chemical_formula_sum   'Er6 Ge8'
_cell_volume   304.84735645
_cell_formula_units_Z   2
loop_
 _symmetry_equiv_pos_site_id
 _symmetry_equiv_pos_as_xyz
  1  'x, y, z'
loop_
 _atom_site_type_symbol
 _atom_site_label
 _atom_site_symmetry_multiplicity
 _atom_site_fract_x
 _atom_site_fract_y
 _atom_site_fract_z
 _atom_site_occupancy
  Er  Er0  1  0.66915400  0.33084600  0.59685400  1
  Er  Er1  1  0.33084600  0.66915400  0.40314600  1
  Er  Er2  1  0.33084600  0.66915400  0.09685400  1
  Er  Er3  1  0.66915400  0.33084600  0.90314600  1
  Er  Er4  1  0.04756700  0.95243300  0.25000000  1
  Er  Er5  1  0.95243300  0.04756700  0.75000000  1
  Ge  Ge6  1  0.62047800  0.37952200  0.39162600  1
  Ge  Ge7  1  0.37952200  0.62047800  0.60837400  1
  Ge  Ge8  1  0.37952200  0.62047800  0.89162600  1
  Ge  Ge9  1  0.62047800  0.37952200  0.10837400  1
  Ge  Ge10  1  0.77692000  0.22308000  0.25000000  1
  Ge  Ge11  1  0.22308000  0.77692000  0.75000000  1
  Ge  Ge12  1  0.00000000  0.00000000  0.00000000  1
  Ge  Ge13  1  0.00000000  0.00000000  0.50000000  1
