# generated using pymatgen
data_K2Ca4Si8O21
_symmetry_space_group_name_H-M   'P 1'
_cell_length_a   6.88323100
_cell_length_b   7.19391899
_cell_length_c   11.33271883
_cell_angle_alpha   96.69197155
_cell_angle_beta   105.31884906
_cell_angle_gamma   109.12697282
_symmetry_Int_Tables_number   1
_chemical_formula_structural   K2Ca4Si8O21
_chemical_formula_sum   'K2 Ca4 Si8 O21'
_cell_volume   498.48732328
_cell_formula_units_Z   1
loop_
 _symmetry_equiv_pos_site_id
 _symmetry_equiv_pos_as_xyz
  1  'x, y, z'
loop_
 _atom_site_type_symbol
 _atom_site_label
 _atom_site_symmetry_multiplicity
 _atom_site_fract_x
 _atom_site_fract_y
 _atom_site_fract_z
 _atom_site_occupancy
  K  K0  1  0.73953800  0.70777700  0.43040300  1
  K  K1  1  0.26046200  0.29222300  0.56959700  1
  Ca  Ca2  1  0.66238300  0.78522800  0.81700900  1
  Ca  Ca3  1  0.33761700  0.21477200  0.18299100  1
  Ca  Ca4  1  0.37098900  0.73308000  0.04271100  1
  Ca  Ca5  1  0.62901100  0.26692000  0.95728900  1
  Si  Si6  1  0.09761300  0.23897400  0.88669200  1
  Si  Si7  1  0.90238700  0.76102600  0.11330800  1
  Si  Si8  1  0.17554100  0.90146000  0.74509000  1
  Si  Si9  1  0.82445900  0.09854000  0.25491000  1
  Si  Si10  1  0.66290700  0.19962200  0.47078800  1
  Si  Si11  1  0.33709300  0.80037800  0.52921200  1
  Si  Si12  1  0.87171700  0.47041200  0.74272200  1
  Si  Si13  1  0.12828300  0.52958800  0.25727800  1
  O  O14  1  0.50000000  0.00000000  0.50000000  1
  O  O15  1  0.84578200  0.34410700  0.60495300  1
  O  O16  1  0.15421800  0.65589300  0.39504700  1
  O  O17  1  0.38922600  0.91167700  0.85112100  1
  O  O18  1  0.61077400  0.08832300  0.14887900  1
  O  O19  1  0.87396300  0.12394700  0.91222900  1
  O  O20  1  0.12603700  0.87605300  0.08777100  1
  O  O21  1  0.67447700  0.69324700  0.00257700  1
  O  O22  1  0.32552300  0.30675300  0.99742300  1
  O  O23  1  0.11653700  0.10482800  0.76213200  1
  O  O24  1  0.88346300  0.89517200  0.23786800  1
  O  O25  1  0.08688900  0.45480200  0.84502300  1
  O  O26  1  0.91311100  0.54519800  0.15497700  1
  O  O27  1  0.95163400  0.71505400  0.74006200  1
  O  O28  1  0.04836600  0.28494600  0.25993800  1
  O  O29  1  0.46765300  0.68659700  0.60892500  1
  O  O30  1  0.53234700  0.31340300  0.39107500  1
  O  O31  1  0.34243800  0.58512000  0.21728600  1
  O  O32  1  0.65756200  0.41488000  0.78271400  1
  O  O33  1  0.18732800  0.88053000  0.60026700  1
  O  O34  1  0.81267200  0.11947000  0.39973300  1
