# generated using pymatgen
data_Zr4CuS8
_symmetry_space_group_name_H-M   'P 1'
_cell_length_a   7.42457312
_cell_length_b   7.42457312
_cell_length_c   7.42457312
_cell_angle_alpha   60.00000000
_cell_angle_beta   60.00000000
_cell_angle_gamma   60.00000000
_symmetry_Int_Tables_number   1
_chemical_formula_structural   Zr4CuS8
_chemical_formula_sum   'Zr4 Cu1 S8'
_cell_volume   289.40062729
_cell_formula_units_Z   1
loop_
 _symmetry_equiv_pos_site_id
 _symmetry_equiv_pos_as_xyz
  1  'x, y, z'
loop_
 _atom_site_type_symbol
 _atom_site_label
 _atom_site_symmetry_multiplicity
 _atom_site_fract_x
 _atom_site_fract_y
 _atom_site_fract_z
 _atom_site_occupancy
  Zr  Zr0  1  0.61760600  0.12746500  0.12746500  1
  Zr  Zr1  1  0.12746500  0.61760600  0.12746500  1
  Zr  Zr2  1  0.12746500  0.12746500  0.61760600  1
  Zr  Zr3  1  0.12746500  0.12746500  0.12746500  1
  Cu  Cu4  1  0.75000000  0.75000000  0.75000000  1
  S  S5  1  0.36728300  0.87757200  0.87757200  1
  S  S6  1  0.87757200  0.36728300  0.87757200  1
  S  S7  1  0.87757200  0.87757200  0.36728300  1
  S  S8  1  0.87757200  0.87757200  0.87757200  1
  S  S9  1  0.88641000  0.37119700  0.37119700  1
  S  S10  1  0.37119700  0.88641000  0.37119700  1
  S  S11  1  0.37119700  0.37119700  0.88641000  1
  S  S12  1  0.37119700  0.37119700  0.37119700  1
