# generated using pymatgen
data_Rb2MnSO4F3
_symmetry_space_group_name_H-M   'P 1'
_cell_length_a   11.36641800
_cell_length_b   7.48220600
_cell_length_c   8.94542962
_cell_angle_alpha   86.77934558
_cell_angle_beta   90.00000000
_cell_angle_gamma   90.00000000
_symmetry_Int_Tables_number   1
_chemical_formula_structural   Rb2MnSO4F3
_chemical_formula_sum   'Rb8 Mn4 S4 O16 F12'
_cell_volume   759.57036165
_cell_formula_units_Z   4
loop_
 _symmetry_equiv_pos_site_id
 _symmetry_equiv_pos_as_xyz
  1  'x, y, z'
loop_
 _atom_site_type_symbol
 _atom_site_label
 _atom_site_symmetry_multiplicity
 _atom_site_fract_x
 _atom_site_fract_y
 _atom_site_fract_z
 _atom_site_occupancy
  Rb  Rb0  1  0.19131400  0.29949300  0.67220400  1
  Rb  Rb1  1  0.69131400  0.70050700  0.82779600  1
  Rb  Rb2  1  0.80868600  0.70050700  0.32779600  1
  Rb  Rb3  1  0.30868600  0.29949300  0.17220400  1
  Rb  Rb4  1  0.30925500  0.80827800  0.83240000  1
  Rb  Rb5  1  0.80925500  0.19172200  0.66760000  1
  Rb  Rb6  1  0.69074500  0.19172200  0.16760000  1
  Rb  Rb7  1  0.19074500  0.80827800  0.33240000  1
  Mn  Mn8  1  0.50000000  0.00000000  0.50000000  1
  Mn  Mn9  1  0.00000000  0.00000000  0.00000000  1
  Mn  Mn10  1  0.50000000  0.50000000  0.50000000  1
  Mn  Mn11  1  0.00000000  0.50000000  0.00000000  1
  S  S12  1  0.50170800  0.25270000  0.80308000  1
  S  S13  1  0.00170800  0.74730000  0.69692000  1
  S  S14  1  0.49829200  0.74730000  0.19692000  1
  S  S15  1  0.99829200  0.25270000  0.30308000  1
  O  O16  1  0.40267600  0.18076100  0.89359000  1
  O  O17  1  0.90267600  0.81923900  0.60641000  1
  O  O18  1  0.59732400  0.81923900  0.10641000  1
  O  O19  1  0.09732400  0.18076100  0.39359000  1
  O  O20  1  0.59238800  0.33853800  0.89169000  1
  O  O21  1  0.09238800  0.66146200  0.60831000  1
  O  O22  1  0.40761200  0.66146200  0.10831000  1
  O  O23  1  0.90761200  0.33853800  0.39169000  1
  O  O24  1  0.44610300  0.39495100  0.69204600  1
  O  O25  1  0.94610300  0.60504900  0.80795400  1
  O  O26  1  0.55389700  0.60504900  0.30795400  1
  O  O27  1  0.05389700  0.39495100  0.19204600  1
  O  O28  1  0.05662100  0.88956000  0.78529700  1
  O  O29  1  0.55662100  0.11044000  0.71470300  1
  O  O30  1  0.94337900  0.11044000  0.21470300  1
  O  O31  1  0.44337900  0.88956000  0.28529700  1
  F  F32  1  0.34294700  0.52098000  0.44488800  1
  F  F33  1  0.84294700  0.47902000  0.05511200  1
  F  F34  1  0.65705300  0.47902000  0.55511200  1
  F  F35  1  0.15705300  0.52098000  0.94488800  1
  F  F36  1  0.15861500  0.02304500  0.04568800  1
  F  F37  1  0.65861500  0.97695500  0.45431200  1
  F  F38  1  0.84138500  0.97695500  0.95431200  1
  F  F39  1  0.34138500  0.02304500  0.54568800  1
  F  F40  1  0.00121100  0.76599600  0.10017300  1
  F  F41  1  0.50121100  0.23400400  0.39982700  1
  F  F42  1  0.99878900  0.23400400  0.89982700  1
  F  F43  1  0.49878900  0.76599600  0.60017300  1
