# generated using pymatgen
data_TbAlNi4
_symmetry_space_group_name_H-M   'P 1'
_cell_length_a   4.89161618
_cell_length_b   4.89161618
_cell_length_c   4.00442400
_cell_angle_alpha   90.00000000
_cell_angle_beta   90.00000000
_cell_angle_gamma   118.33985884
_symmetry_Int_Tables_number   1
_chemical_formula_structural   TbAlNi4
_chemical_formula_sum   'Tb1 Al1 Ni4'
_cell_volume   84.33351045
_cell_formula_units_Z   1
loop_
 _symmetry_equiv_pos_site_id
 _symmetry_equiv_pos_as_xyz
  1  'x, y, z'
loop_
 _atom_site_type_symbol
 _atom_site_label
 _atom_site_symmetry_multiplicity
 _atom_site_fract_x
 _atom_site_fract_y
 _atom_site_fract_z
 _atom_site_occupancy
  Tb  Tb0  1  0.50000000  0.50000000  0.00000000  1
  Al  Al1  1  0.00000000  0.00000000  0.50000000  1
  Ni  Ni2  1  0.16630600  0.83369400  0.00000000  1
  Ni  Ni3  1  0.83369400  0.16630600  0.00000000  1
  Ni  Ni4  1  0.00000000  0.50000000  0.50000000  1
  Ni  Ni5  1  0.50000000  0.00000000  0.50000000  1
