# generated using pymatgen
data_Ba3Dy2MoO9
_symmetry_space_group_name_H-M   'P 1'
_cell_length_a   6.09958512
_cell_length_b   8.64904500
_cell_length_c   10.57306052
_cell_angle_alpha   65.85712938
_cell_angle_beta   73.23485567
_cell_angle_gamma   90.00000000
_symmetry_Int_Tables_number   1
_chemical_formula_structural   Ba3Dy2MoO9
_chemical_formula_sum   'Ba6 Dy4 Mo2 O18'
_cell_volume   482.89915919
_cell_formula_units_Z   2
loop_
 _symmetry_equiv_pos_site_id
 _symmetry_equiv_pos_as_xyz
  1  'x, y, z'
loop_
 _atom_site_type_symbol
 _atom_site_label
 _atom_site_symmetry_multiplicity
 _atom_site_fract_x
 _atom_site_fract_y
 _atom_site_fract_z
 _atom_site_occupancy
  Ba  Ba0  1  0.50000000  0.26460400  0.00000000  1
  Ba  Ba1  1  0.83913400  0.58020400  0.32173200  1
  Ba  Ba2  1  0.16086600  0.90193700  0.67826800  1
  Ba  Ba3  1  0.50000000  0.73539600  0.00000000  1
  Ba  Ba4  1  0.83913400  0.09806300  0.32173200  1
  Ba  Ba5  1  0.16086600  0.41979600  0.67826800  1
  Dy  Dy6  1  0.00000000  0.00000000  0.00000000  1
  Dy  Dy7  1  0.32804600  0.32804600  0.34390700  1
  Dy  Dy8  1  0.67195400  0.67195400  0.65609300  1
  Dy  Dy9  1  0.00000000  0.50000000  0.00000000  1
  Mo  Mo10  1  0.33412700  0.83412700  0.33174400  1
  Mo  Mo11  1  0.66587300  0.16587300  0.66825600  1
  O  O12  1  0.00000000  0.24679900  0.00000000  1
  O  O13  1  0.32994000  0.60141600  0.34011800  1
  O  O14  1  0.67006000  0.94153500  0.65988200  1
  O  O15  1  0.16086300  0.41036900  0.17926100  1
  O  O16  1  0.48942400  0.76004400  0.47991200  1
  O  O17  1  0.81814100  0.08975300  0.82049500  1
  O  O18  1  0.34012500  0.58963100  0.82073900  1
  O  O19  1  0.63863600  0.91024700  0.17950500  1
  O  O20  1  0.96933500  0.23995600  0.52008800  1
  O  O21  1  0.00000000  0.75320100  0.00000000  1
  O  O22  1  0.32994000  0.05846500  0.34011800  1
  O  O23  1  0.67006000  0.39858400  0.65988200  1
  O  O24  1  0.83913700  0.58963100  0.82073900  1
  O  O25  1  0.18185900  0.91024700  0.17950500  1
  O  O26  1  0.51057600  0.23995600  0.52008800  1
  O  O27  1  0.65987500  0.41036900  0.17926100  1
  O  O28  1  0.03066500  0.76004400  0.47991200  1
  O  O29  1  0.36136400  0.08975300  0.82049500  1
