# generated using pymatgen
data_Eu(InS2)2
_symmetry_space_group_name_H-M   'P 1'
_cell_length_a   6.19158345
_cell_length_b   6.19162749
_cell_length_c   10.49770800
_cell_angle_alpha   90.00097845
_cell_angle_beta   89.99965745
_cell_angle_gamma   115.29556985
_symmetry_Int_Tables_number   1
_chemical_formula_structural   Eu(InS2)2
_chemical_formula_sum   'Eu2 In4 S8'
_cell_volume   363.85219338
_cell_formula_units_Z   2
loop_
 _symmetry_equiv_pos_site_id
 _symmetry_equiv_pos_as_xyz
  1  'x, y, z'
loop_
 _atom_site_type_symbol
 _atom_site_label
 _atom_site_symmetry_multiplicity
 _atom_site_fract_x
 _atom_site_fract_y
 _atom_site_fract_z
 _atom_site_occupancy
  Eu  Eu0  1  0.49999900  0.49999900  0.25000000  1
  Eu  Eu1  1  0.50000000  0.50000100  0.75000000  1
  In  In2  1  0.77052500  0.22634700  0.49997000  1
  In  In3  1  0.22947400  0.77365100  0.49997100  1
  In  In4  1  0.77365800  0.22947500  0.00003300  1
  In  In5  1  0.22634800  0.77052600  0.00002800  1
  S  S6  1  0.79203800  0.64888000  0.49999400  1
  S  S7  1  0.20796000  0.35111800  0.49999200  1
  S  S8  1  0.35111900  0.20796000  0.00000600  1
  S  S9  1  0.64888000  0.79204000  0.00000700  1
  S  S10  1  0.00000000  0.50000000  0.18005800  1
  S  S11  1  0.50000000  0.00000100  0.31994200  1
  S  S12  1  0.00000100  0.50000300  0.81999200  1
  S  S13  1  0.49999800  0.99999900  0.68000700  1
