# generated using pymatgen
data_TbCrB4
_symmetry_space_group_name_H-M   'P 1'
_cell_length_a   5.94376900
_cell_length_b   11.48440300
_cell_length_c   3.46056500
_cell_angle_alpha   90.00000000
_cell_angle_beta   90.00000000
_cell_angle_gamma   90.00000000
_symmetry_Int_Tables_number   1
_chemical_formula_structural   TbCrB4
_chemical_formula_sum   'Tb4 Cr4 B16'
_cell_volume   236.22037659
_cell_formula_units_Z   4
loop_
 _symmetry_equiv_pos_site_id
 _symmetry_equiv_pos_as_xyz
  1  'x, y, z'
loop_
 _atom_site_type_symbol
 _atom_site_label
 _atom_site_symmetry_multiplicity
 _atom_site_fract_x
 _atom_site_fract_y
 _atom_site_fract_z
 _atom_site_occupancy
  Tb  Tb0  1  0.62507800  0.34912000  0.00000000  1
  Tb  Tb1  1  0.37492200  0.65088000  0.00000000  1
  Tb  Tb2  1  0.12507800  0.15088000  0.00000000  1
  Tb  Tb3  1  0.87492200  0.84912000  0.00000000  1
  Cr  Cr4  1  0.62201900  0.07912100  0.00000000  1
  Cr  Cr5  1  0.37798100  0.92087900  0.00000000  1
  Cr  Cr6  1  0.12201900  0.42087900  0.00000000  1
  Cr  Cr7  1  0.87798100  0.57912100  0.00000000  1
  B  B8  1  0.78070100  0.18360700  0.50000000  1
  B  B9  1  0.21929900  0.81639300  0.50000000  1
  B  B10  1  0.28070100  0.31639300  0.50000000  1
  B  B11  1  0.71929900  0.68360700  0.50000000  1
  B  B12  1  0.86258300  0.03261500  0.50000000  1
  B  B13  1  0.13741700  0.96738500  0.50000000  1
  B  B14  1  0.36258300  0.46738500  0.50000000  1
  B  B15  1  0.63741700  0.53261500  0.50000000  1
  B  B16  1  0.88720200  0.45348500  0.50000000  1
  B  B17  1  0.11279800  0.54651500  0.50000000  1
  B  B18  1  0.38720200  0.04651500  0.50000000  1
  B  B19  1  0.61279800  0.95348500  0.50000000  1
  B  B20  1  0.97604500  0.30881600  0.50000000  1
  B  B21  1  0.02395500  0.69118400  0.50000000  1
  B  B22  1  0.47604500  0.19118400  0.50000000  1
  B  B23  1  0.52395500  0.80881600  0.50000000  1
