# generated using pymatgen
data_Cs5Na(W2N5)2
_symmetry_space_group_name_H-M   'P 1'
_cell_length_a   11.02153945
_cell_length_b   11.02153945
_cell_length_c   11.02153945
_cell_angle_alpha   99.50089813
_cell_angle_beta   99.50089813
_cell_angle_gamma   132.05733058
_symmetry_Int_Tables_number   1
_chemical_formula_structural   Cs5Na(W2N5)2
_chemical_formula_sum   'Cs10 Na2 W8 N20'
_cell_volume   908.31273016
_cell_formula_units_Z   2
loop_
 _symmetry_equiv_pos_site_id
 _symmetry_equiv_pos_as_xyz
  1  'x, y, z'
loop_
 _atom_site_type_symbol
 _atom_site_label
 _atom_site_symmetry_multiplicity
 _atom_site_fract_x
 _atom_site_fract_y
 _atom_site_fract_z
 _atom_site_occupancy
  Cs  Cs0  1  0.36484100  0.58436800  0.56510000  1
  Cs  Cs1  1  0.01926800  0.79974100  0.43490000  1
  Cs  Cs2  1  0.04974100  0.11484100  0.28047300  1
  Cs  Cs3  1  0.83436800  0.76926800  0.71952700  1
  Cs  Cs4  1  0.71520200  0.43827400  0.08349100  1
  Cs  Cs5  1  0.35478300  0.63171100  0.91650900  1
  Cs  Cs6  1  0.88171100  0.46520200  0.77692800  1
  Cs  Cs7  1  0.68827400  0.10478300  0.22307200  1
  Cs  Cs8  1  0.48017100  0.98017100  0.50000000  1
  Cs  Cs9  1  0.23017100  0.23017100  0.00000000  1
  Na  Na10  1  0.73569100  0.73569100  0.00000000  1
  Na  Na11  1  0.98569100  0.48569100  0.50000000  1
  W  W12  1  0.35998600  0.26585400  0.69369200  1
  W  W13  1  0.57216300  0.66629400  0.30630800  1
  W  W14  1  0.91629400  0.10998600  0.59413200  1
  W  W15  1  0.51585400  0.32216300  0.40586800  1
  W  W16  1  0.78662500  0.10173400  0.89074300  1
  W  W17  1  0.21099100  0.89588200  0.10925700  1
  W  W18  1  0.14588200  0.53662500  0.18489100  1
  W  W19  1  0.35173400  0.96099100  0.81510900  1
  N  N20  1  0.50973800  0.49007200  0.80378600  1
  N  N21  1  0.68628700  0.70595300  0.19621400  1
  N  N22  1  0.95595300  0.25973800  0.51966600  1
  N  N23  1  0.74007200  0.43628700  0.48033400  1
  N  N24  1  0.08916300  0.52147100  0.32868200  1
  N  N25  1  0.19278900  0.76048000  0.67131800  1
  N  N26  1  0.01048000  0.83916300  0.06769100  1
  N  N27  1  0.77147100  0.94278900  0.93230900  1
  N  N28  1  0.41028300  0.25935100  0.53672000  1
  N  N29  1  0.72263100  0.87356300  0.46328000  1
  N  N30  1  0.12356300  0.16028300  0.65093200  1
  N  N31  1  0.50935100  0.47263100  0.34906800  1
  N  N32  1  0.96262500  0.31807200  0.04106600  1
  N  N33  1  0.27700600  0.92155900  0.95893400  1
  N  N34  1  0.17155900  0.71262500  0.14455300  1
  N  N35  1  0.56807200  0.02700600  0.85544700  1
  N  N36  1  0.84986700  0.13545600  0.73846500  1
  N  N37  1  0.39699200  0.11140200  0.26153500  1
  N  N38  1  0.36140200  0.59986700  0.21441100  1
  N  N39  1  0.38545600  0.14699100  0.78558900  1
