# generated using pymatgen
data_MgAl6FeSi2(BO9)2
_symmetry_space_group_name_H-M   'P 1'
_cell_length_a   5.82950900
_cell_length_b   10.44397300
_cell_length_c   11.16754000
_cell_angle_alpha   90.00000000
_cell_angle_beta   90.00000000
_cell_angle_gamma   90.00000000
_symmetry_Int_Tables_number   1
_chemical_formula_structural   MgAl6FeSi2(BO9)2
_chemical_formula_sum   'Mg2 Al12 Fe2 Si4 B4 O36'
_cell_volume   679.91595772
_cell_formula_units_Z   2
loop_
 _symmetry_equiv_pos_site_id
 _symmetry_equiv_pos_as_xyz
  1  'x, y, z'
loop_
 _atom_site_type_symbol
 _atom_site_label
 _atom_site_symmetry_multiplicity
 _atom_site_fract_x
 _atom_site_fract_y
 _atom_site_fract_z
 _atom_site_occupancy
  Mg  Mg0  1  0.00000000  0.15719300  0.71925200  1
  Mg  Mg1  1  0.00000000  0.84280700  0.21925200  1
  Al  Al2  1  0.74994900  0.25006500  0.50091400  1
  Al  Al3  1  0.25005100  0.74993500  0.00091400  1
  Al  Al4  1  0.25005100  0.25006500  0.50091400  1
  Al  Al5  1  0.74994900  0.74993500  0.00091400  1
  Al  Al6  1  0.75002000  0.74994400  0.49925100  1
  Al  Al7  1  0.24998000  0.25005600  0.99925100  1
  Al  Al8  1  0.24998000  0.74994400  0.49925100  1
  Al  Al9  1  0.75002000  0.25005600  0.99925100  1
  Al  Al10  1  0.00000000  0.02327200  0.94798600  1
  Al  Al11  1  0.00000000  0.97672800  0.44798600  1
  Al  Al12  1  0.50000000  0.47635100  0.05221700  1
  Al  Al13  1  0.50000000  0.52364900  0.55221700  1
  Fe  Fe14  1  0.50000000  0.34309300  0.28163500  1
  Fe  Fe15  1  0.50000000  0.65690700  0.78163500  1
  Si  Si16  1  0.00000000  0.81663700  0.76317200  1
  Si  Si17  1  0.00000000  0.18336300  0.26317200  1
  Si  Si18  1  0.50000000  0.68553600  0.23574800  1
  Si  Si19  1  0.50000000  0.31446400  0.73574800  1
  B  B20  1  0.50000000  0.99894200  0.50015700  1
  B  B21  1  0.50000000  0.00105800  0.00015700  1
  B  B22  1  0.00000000  0.50098000  0.49981400  1
  B  B23  1  0.00000000  0.49902000  0.99981400  1
  O  O24  1  0.00000000  0.13160700  0.52214500  1
  O  O25  1  0.00000000  0.86839300  0.02214500  1
  O  O26  1  0.50000000  0.36767800  0.48048400  1
  O  O27  1  0.50000000  0.63232200  0.98048400  1
  O  O28  1  0.72819600  0.25575400  0.67087100  1
  O  O29  1  0.27180400  0.74424600  0.17087100  1
  O  O30  1  0.22495600  0.24268400  0.33053000  1
  O  O31  1  0.77504400  0.75731600  0.83053000  1
  O  O32  1  0.77504400  0.24268400  0.33053000  1
  O  O33  1  0.22495600  0.75731600  0.83053000  1
  O  O34  1  0.27180400  0.25575400  0.67087100  1
  O  O35  1  0.72819600  0.74424600  0.17087100  1
  O  O36  1  0.50000000  0.70320200  0.59636400  1
  O  O37  1  0.50000000  0.29679800  0.09636400  1
  O  O38  1  0.00000000  0.79750000  0.40072400  1
  O  O39  1  0.00000000  0.20250000  0.90072400  1
  O  O40  1  0.00000000  0.77631500  0.62067000  1
  O  O41  1  0.00000000  0.22368500  0.12067000  1
  O  O42  1  0.50000000  0.72395500  0.37884400  1
  O  O43  1  0.50000000  0.27604500  0.87884400  1
  O  O44  1  0.70437800  0.06908600  0.00095800  1
  O  O45  1  0.29562200  0.93091400  0.50095800  1
  O  O46  1  0.20406000  0.43080700  0.99910100  1
  O  O47  1  0.79594000  0.56919300  0.49910100  1
  O  O48  1  0.79594000  0.43080700  0.99910100  1
  O  O49  1  0.20406000  0.56919300  0.49910100  1
  O  O50  1  0.29562200  0.06908600  0.00095800  1
  O  O51  1  0.70437800  0.93091400  0.50095800  1
  O  O52  1  0.50000000  0.12851400  0.49608600  1
  O  O53  1  0.50000000  0.87148600  0.99608600  1
  O  O54  1  0.00000000  0.37148800  0.50363600  1
  O  O55  1  0.00000000  0.62851200  0.00363600  1
  O  O56  1  0.00000000  0.97474900  0.78889900  1
  O  O57  1  0.00000000  0.02525100  0.28889900  1
  O  O58  1  0.50000000  0.52802000  0.20891800  1
  O  O59  1  0.50000000  0.47198000  0.70891800  1
