# generated using pymatgen
data_La2Al3Cu7
_symmetry_space_group_name_H-M   'P 1'
_cell_length_a   4.19294100
_cell_length_b   5.26538100
_cell_length_c   9.07530411
_cell_angle_alpha   89.40880527
_cell_angle_beta   90.00000000
_cell_angle_gamma   90.00000000
_symmetry_Int_Tables_number   1
_chemical_formula_structural   La2Al3Cu7
_chemical_formula_sum   'La2 Al3 Cu7'
_cell_volume   200.34874241
_cell_formula_units_Z   1
loop_
 _symmetry_equiv_pos_site_id
 _symmetry_equiv_pos_as_xyz
  1  'x, y, z'
loop_
 _atom_site_type_symbol
 _atom_site_label
 _atom_site_symmetry_multiplicity
 _atom_site_fract_x
 _atom_site_fract_y
 _atom_site_fract_z
 _atom_site_occupancy
  La  La0  1  0.00000000  0.25032700  0.74917000  1
  La  La1  1  0.00000000  0.74967300  0.25083000  1
  Al  Al2  1  0.50000000  0.74494200  0.74458100  1
  Al  Al3  1  0.50000000  0.25505800  0.25541900  1
  Al  Al4  1  0.50000000  0.00000000  0.00000000  1
  Cu  Cu5  1  0.00000000  0.25129900  0.08305800  1
  Cu  Cu6  1  0.00000000  0.75016100  0.58266000  1
  Cu  Cu7  1  0.00000000  0.74870100  0.91694200  1
  Cu  Cu8  1  0.00000000  0.24983900  0.41734000  1
  Cu  Cu9  1  0.50000000  0.50000000  0.50000000  1
  Cu  Cu10  1  0.50000000  0.50000000  0.00000000  1
  Cu  Cu11  1  0.50000000  0.00000000  0.50000000  1
