# generated using pymatgen
data_Cs5GeP3
_symmetry_space_group_name_H-M   'P 1'
_cell_length_a   14.54421500
_cell_length_b   6.03226900
_cell_length_c   15.97646600
_cell_angle_alpha   90.00000000
_cell_angle_beta   90.00000000
_cell_angle_gamma   90.00000000
_symmetry_Int_Tables_number   1
_chemical_formula_structural   Cs5GeP3
_chemical_formula_sum   'Cs20 Ge4 P12'
_cell_volume   1401.68912990
_cell_formula_units_Z   4
loop_
 _symmetry_equiv_pos_site_id
 _symmetry_equiv_pos_as_xyz
  1  'x, y, z'
loop_
 _atom_site_type_symbol
 _atom_site_label
 _atom_site_symmetry_multiplicity
 _atom_site_fract_x
 _atom_site_fract_y
 _atom_site_fract_z
 _atom_site_occupancy
  Cs  Cs0  1  0.56086600  0.25000000  0.55037000  1
  Cs  Cs1  1  0.06086600  0.25000000  0.94963000  1
  Cs  Cs2  1  0.43913400  0.75000000  0.44963000  1
  Cs  Cs3  1  0.93913400  0.75000000  0.05037000  1
  Cs  Cs4  1  0.61638900  0.25000000  0.31065600  1
  Cs  Cs5  1  0.11638900  0.25000000  0.18934400  1
  Cs  Cs6  1  0.38361100  0.75000000  0.68934400  1
  Cs  Cs7  1  0.88361100  0.75000000  0.81065600  1
  Cs  Cs8  1  0.85447300  0.25000000  0.45087900  1
  Cs  Cs9  1  0.35447300  0.25000000  0.04912100  1
  Cs  Cs10  1  0.14552700  0.75000000  0.54912100  1
  Cs  Cs11  1  0.64552700  0.75000000  0.95087900  1
  Cs  Cs12  1  0.27368100  0.25000000  0.79383800  1
  Cs  Cs13  1  0.77368100  0.25000000  0.70616200  1
  Cs  Cs14  1  0.72631900  0.75000000  0.20616200  1
  Cs  Cs15  1  0.22631900  0.75000000  0.29383800  1
  Cs  Cs16  1  0.04772700  0.25000000  0.64907400  1
  Cs  Cs17  1  0.54772700  0.25000000  0.85092600  1
  Cs  Cs18  1  0.95227300  0.75000000  0.35092600  1
  Cs  Cs19  1  0.45227300  0.75000000  0.14907400  1
  Ge  Ge20  1  0.26108400  0.25000000  0.43611200  1
  Ge  Ge21  1  0.76108400  0.25000000  0.06388800  1
  Ge  Ge22  1  0.73891600  0.75000000  0.56388800  1
  Ge  Ge23  1  0.23891600  0.75000000  0.93611200  1
  P  P24  1  0.10545400  0.25000000  0.41269700  1
  P  P25  1  0.60545400  0.25000000  0.08730300  1
  P  P26  1  0.89454600  0.75000000  0.58730300  1
  P  P27  1  0.39454600  0.75000000  0.91269700  1
  P  P28  1  0.30717900  0.25000000  0.57349300  1
  P  P29  1  0.80717900  0.25000000  0.92650700  1
  P  P30  1  0.69282100  0.75000000  0.42650700  1
  P  P31  1  0.19282100  0.75000000  0.07349300  1
  P  P32  1  0.36480000  0.25000000  0.32773600  1
  P  P33  1  0.86480000  0.25000000  0.17226400  1
  P  P34  1  0.63520000  0.75000000  0.67226400  1
  P  P35  1  0.13520000  0.75000000  0.82773600  1
