# generated using pymatgen
data_ErCoB4
_symmetry_space_group_name_H-M   'P 1'
_cell_length_a   3.36768800
_cell_length_b   5.88581900
_cell_length_c   11.38918400
_cell_angle_alpha   90.00000000
_cell_angle_beta   90.00000000
_cell_angle_gamma   90.00000000
_symmetry_Int_Tables_number   1
_chemical_formula_structural   ErCoB4
_chemical_formula_sum   'Er4 Co4 B16'
_cell_volume   225.75187254
_cell_formula_units_Z   4
loop_
 _symmetry_equiv_pos_site_id
 _symmetry_equiv_pos_as_xyz
  1  'x, y, z'
loop_
 _atom_site_type_symbol
 _atom_site_label
 _atom_site_symmetry_multiplicity
 _atom_site_fract_x
 _atom_site_fract_y
 _atom_site_fract_z
 _atom_site_occupancy
  Er  Er0  1  0.50000000  0.37283400  0.14981300  1
  Er  Er1  1  0.50000000  0.62716600  0.85018700  1
  Er  Er2  1  0.50000000  0.12716600  0.64981300  1
  Er  Er3  1  0.50000000  0.87283400  0.35018700  1
  Co  Co4  1  0.50000000  0.36496500  0.41045700  1
  Co  Co5  1  0.50000000  0.63503500  0.58954300  1
  Co  Co6  1  0.50000000  0.13503500  0.91045700  1
  Co  Co7  1  0.50000000  0.86496500  0.08954300  1
  B  B8  1  0.00000000  0.11188100  0.04628700  1
  B  B9  1  0.00000000  0.88811900  0.95371300  1
  B  B10  1  0.00000000  0.38811900  0.54628700  1
  B  B11  1  0.00000000  0.61188100  0.45371300  1
  B  B12  1  0.00000000  0.13851100  0.46784800  1
  B  B13  1  0.00000000  0.86148900  0.53215200  1
  B  B14  1  0.00000000  0.36148900  0.96784800  1
  B  B15  1  0.00000000  0.63851100  0.03215200  1
  B  B16  1  0.00000000  0.02356600  0.19120300  1
  B  B17  1  0.00000000  0.97643400  0.80879700  1
  B  B18  1  0.00000000  0.47643400  0.69120300  1
  B  B19  1  0.00000000  0.52356600  0.30879700  1
  B  B20  1  0.00000000  0.21771400  0.31482900  1
  B  B21  1  0.00000000  0.78228600  0.68517100  1
  B  B22  1  0.00000000  0.28228600  0.81482900  1
  B  B23  1  0.00000000  0.71771400  0.18517100  1
