# generated using pymatgen
data_TlGaSe2
_symmetry_space_group_name_H-M   'P 1'
_cell_length_a   7.79138500
_cell_length_b   7.79138500
_cell_length_c   16.05960229
_cell_angle_alpha   83.28614062
_cell_angle_beta   83.28614062
_cell_angle_gamma   89.80882128
_symmetry_Int_Tables_number   1
_chemical_formula_structural   TlGaSe2
_chemical_formula_sum   'Tl8 Ga8 Se16'
_cell_volume   961.53109896
_cell_formula_units_Z   8
loop_
 _symmetry_equiv_pos_site_id
 _symmetry_equiv_pos_as_xyz
  1  'x, y, z'
loop_
 _atom_site_type_symbol
 _atom_site_label
 _atom_site_symmetry_multiplicity
 _atom_site_fract_x
 _atom_site_fract_y
 _atom_site_fract_z
 _atom_site_occupancy
  Tl  Tl0  1  0.82714500  0.65733000  0.88312900  1
  Tl  Tl1  1  0.34267000  0.17285500  0.61687100  1
  Tl  Tl2  1  0.17285500  0.34267000  0.11687100  1
  Tl  Tl3  1  0.65733000  0.82714500  0.38312900  1
  Tl  Tl4  1  0.84485000  0.28306300  0.60330000  1
  Tl  Tl5  1  0.71693700  0.15515000  0.89670000  1
  Tl  Tl6  1  0.15515000  0.71693700  0.39670000  1
  Tl  Tl7  1  0.28306300  0.84485000  0.10330000  1
  Ga  Ga8  1  0.08657100  0.71163100  0.66490300  1
  Ga  Ga9  1  0.29125100  0.41925000  0.83602800  1
  Ga  Ga10  1  0.58075000  0.70874900  0.66397200  1
  Ga  Ga11  1  0.70874900  0.58075000  0.16397200  1
  Ga  Ga12  1  0.41925000  0.29125100  0.33602800  1
  Ga  Ga13  1  0.28836900  0.91342900  0.83509700  1
  Ga  Ga14  1  0.91342900  0.28836900  0.33509700  1
  Ga  Ga15  1  0.71163100  0.08657100  0.16490300  1
  Se  Se16  1  0.42960500  0.05244600  0.25025100  1
  Se  Se17  1  0.94755400  0.57039500  0.24974900  1
  Se  Se18  1  0.57039500  0.94755400  0.74974900  1
  Se  Se19  1  0.24943300  0.64432800  0.93063900  1
  Se  Se20  1  0.05244600  0.42960500  0.75025100  1
  Se  Se21  1  0.64432800  0.24943300  0.43063900  1
  Se  Se22  1  0.75056700  0.35567200  0.06936100  1
  Se  Se23  1  0.35567200  0.75056700  0.56936100  1
  Se  Se24  1  0.95336000  0.04664000  0.25000000  1
  Se  Se25  1  0.04664000  0.95336000  0.75000000  1
  Se  Se26  1  0.42976000  0.57024000  0.25000000  1
  Se  Se27  1  0.57024000  0.42976000  0.75000000  1
  Se  Se28  1  0.71478000  0.85659900  0.07172300  1
  Se  Se29  1  0.14340100  0.28522000  0.42827700  1
  Se  Se30  1  0.28522000  0.14340100  0.92827700  1
  Se  Se31  1  0.85659900  0.71478000  0.57172300  1
