# generated using pymatgen
data_TbNiGe3
_symmetry_space_group_name_H-M   'P 1'
_cell_length_a   10.93962553
_cell_length_b   10.93962553
_cell_length_c   4.08710800
_cell_angle_alpha   90.00000000
_cell_angle_beta   90.00000000
_cell_angle_gamma   158.44601691
_symmetry_Int_Tables_number   1
_chemical_formula_structural   TbNiGe3
_chemical_formula_sum   'Tb2 Ni2 Ge6'
_cell_volume   179.69409346
_cell_formula_units_Z   2
loop_
 _symmetry_equiv_pos_site_id
 _symmetry_equiv_pos_as_xyz
  1  'x, y, z'
loop_
 _atom_site_type_symbol
 _atom_site_label
 _atom_site_symmetry_multiplicity
 _atom_site_fract_x
 _atom_site_fract_y
 _atom_site_fract_z
 _atom_site_occupancy
  Tb  Tb0  1  0.16899200  0.83100800  0.50000000  1
  Tb  Tb1  1  0.83100800  0.16899200  0.50000000  1
  Ni  Ni2  1  0.38987600  0.61012400  0.00000000  1
  Ni  Ni3  1  0.61012400  0.38987600  0.00000000  1
  Ge  Ge4  1  0.28361000  0.71639000  0.00000000  1
  Ge  Ge5  1  0.71639000  0.28361000  0.00000000  1
  Ge  Ge6  1  0.44272900  0.55727100  0.50000000  1
  Ge  Ge7  1  0.55727100  0.44272900  0.50000000  1
  Ge  Ge8  1  0.05740900  0.94259100  0.00000000  1
  Ge  Ge9  1  0.94259100  0.05740900  0.00000000  1
