# generated using pymatgen
data_GdZnPd
_symmetry_space_group_name_H-M   'P 1'
_cell_length_a   7.36047496
_cell_length_b   7.36047496
_cell_length_c   3.92570500
_cell_angle_alpha   90.00000000
_cell_angle_beta   90.00000000
_cell_angle_gamma   119.99999066
_symmetry_Int_Tables_number   1
_chemical_formula_structural   GdZnPd
_chemical_formula_sum   'Gd3 Zn3 Pd3'
_cell_volume   184.18744052
_cell_formula_units_Z   3
loop_
 _symmetry_equiv_pos_site_id
 _symmetry_equiv_pos_as_xyz
  1  'x, y, z'
loop_
 _atom_site_type_symbol
 _atom_site_label
 _atom_site_symmetry_multiplicity
 _atom_site_fract_x
 _atom_site_fract_y
 _atom_site_fract_z
 _atom_site_occupancy
  Gd  Gd0  1  0.00000000  0.40355700  0.50000000  1
  Gd  Gd1  1  0.59644300  0.59644300  0.50000000  1
  Gd  Gd2  1  0.40355700  0.00000000  0.50000000  1
  Zn  Zn3  1  0.00000000  0.74971700  0.00000000  1
  Zn  Zn4  1  0.25028300  0.25028300  0.00000000  1
  Zn  Zn5  1  0.74971700  0.00000000  0.00000000  1
  Pd  Pd6  1  0.33333300  0.66666700  0.00000000  1
  Pd  Pd7  1  0.66666700  0.33333300  0.00000000  1
  Pd  Pd8  1  0.00000000  0.00000000  0.50000000  1
