# generated using pymatgen
data_VSi2
_symmetry_space_group_name_H-M   'P 1'
_cell_length_a   4.56494719
_cell_length_b   4.56494719
_cell_length_c   6.37215600
_cell_angle_alpha   90.00000000
_cell_angle_beta   90.00000000
_cell_angle_gamma   119.99998827
_symmetry_Int_Tables_number   1
_chemical_formula_structural   VSi2
_chemical_formula_sum   'V3 Si6'
_cell_volume   114.99755268
_cell_formula_units_Z   3
loop_
 _symmetry_equiv_pos_site_id
 _symmetry_equiv_pos_as_xyz
  1  'x, y, z'
loop_
 _atom_site_type_symbol
 _atom_site_label
 _atom_site_symmetry_multiplicity
 _atom_site_fract_x
 _atom_site_fract_y
 _atom_site_fract_z
 _atom_site_occupancy
  V  V0  1  0.00000000  0.50000000  0.33333300  1
  V  V1  1  0.50000000  0.50000000  0.66666700  1
  V  V2  1  0.50000000  0.00000000  0.00000000  1
  Si  Si3  1  0.83715800  0.67431600  0.00000000  1
  Si  Si4  1  0.16284200  0.83715800  0.66666700  1
  Si  Si5  1  0.67431600  0.83715800  0.33333300  1
  Si  Si6  1  0.16284200  0.32568400  0.00000000  1
  Si  Si7  1  0.83715800  0.16284200  0.66666700  1
  Si  Si8  1  0.32568400  0.16284200  0.33333300  1
