# generated using pymatgen
data_K2Zn2(MoO4)3
_symmetry_space_group_name_H-M   'P 1'
_cell_length_a   9.25258900
_cell_length_b   7.04321200
_cell_length_c   19.62041094
_cell_angle_alpha   88.96859222
_cell_angle_beta   90.00000000
_cell_angle_gamma   90.00000000
_symmetry_Int_Tables_number   1
_chemical_formula_structural   K2Zn2(MoO4)3
_chemical_formula_sum   'K8 Zn8 Mo12 O48'
_cell_volume   1278.41471321
_cell_formula_units_Z   4
loop_
 _symmetry_equiv_pos_site_id
 _symmetry_equiv_pos_as_xyz
  1  'x, y, z'
loop_
 _atom_site_type_symbol
 _atom_site_label
 _atom_site_symmetry_multiplicity
 _atom_site_fract_x
 _atom_site_fract_y
 _atom_site_fract_z
 _atom_site_occupancy
  K  K0  1  0.39013300  0.81543300  0.79080400  1
  K  K1  1  0.89013300  0.68456700  0.70919600  1
  K  K2  1  0.60986700  0.18456700  0.20919600  1
  K  K3  1  0.10986700  0.31543300  0.29080400  1
  K  K4  1  0.48271200  0.29885600  0.90131400  1
  K  K5  1  0.98271200  0.20114400  0.59868600  1
  K  K6  1  0.51728800  0.70114400  0.09868600  1
  K  K7  1  0.01728800  0.79885600  0.40131400  1
  Zn  Zn8  1  0.89945700  0.87602300  0.06541100  1
  Zn  Zn9  1  0.39945700  0.62397700  0.43458900  1
  Zn  Zn10  1  0.10054300  0.12397700  0.93458900  1
  Zn  Zn11  1  0.60054300  0.37602300  0.56541100  1
  Zn  Zn12  1  0.36772800  0.09456300  0.63593400  1
  Zn  Zn13  1  0.86772800  0.40543700  0.86406600  1
  Zn  Zn14  1  0.63227200  0.90543700  0.36406600  1
  Zn  Zn15  1  0.13227200  0.59456300  0.13593400  1
  Mo  Mo16  1  0.17009100  0.61819300  0.96429700  1
  Mo  Mo17  1  0.67009100  0.88180700  0.53570300  1
  Mo  Mo18  1  0.82990900  0.38180700  0.03570300  1
  Mo  Mo19  1  0.32990900  0.11819300  0.46429700  1
  Mo  Mo20  1  0.28539300  0.60023800  0.60024200  1
  Mo  Mo21  1  0.78539300  0.89976200  0.89975800  1
  Mo  Mo22  1  0.71460700  0.39976200  0.39975800  1
  Mo  Mo23  1  0.21460700  0.10023800  0.10024200  1
  Mo  Mo24  1  0.18499000  0.28025200  0.77519300  1
  Mo  Mo25  1  0.68499000  0.21974800  0.72480700  1
  Mo  Mo26  1  0.81501000  0.71974800  0.22480700  1
  Mo  Mo27  1  0.31501000  0.78025200  0.27519300  1
  O  O28  1  0.22508600  0.13231300  0.85010600  1
  O  O29  1  0.72508600  0.36768700  0.64989400  1
  O  O30  1  0.77491400  0.86768700  0.14989400  1
  O  O31  1  0.27491400  0.63231300  0.35010600  1
  O  O32  1  0.25674100  0.65047100  0.51064500  1
  O  O33  1  0.75674100  0.84952900  0.98935500  1
  O  O34  1  0.74325900  0.34952900  0.48935500  1
  O  O35  1  0.24325900  0.15047100  0.01064500  1
  O  O36  1  0.07458400  0.84055600  0.95622200  1
  O  O37  1  0.57458400  0.65944400  0.54377800  1
  O  O38  1  0.92541600  0.15944400  0.04377800  1
  O  O39  1  0.42541600  0.34055600  0.45622200  1
  O  O40  1  0.31876100  0.62798700  0.90923700  1
  O  O41  1  0.81876100  0.87201300  0.59076300  1
  O  O42  1  0.68123900  0.37201300  0.09076300  1
  O  O43  1  0.18123900  0.12798700  0.40923700  1
  O  O44  1  0.31951700  0.45469800  0.77037900  1
  O  O45  1  0.81951700  0.04530200  0.72962100  1
  O  O46  1  0.34984000  0.80386400  0.64471100  1
  O  O47  1  0.68048300  0.54530200  0.22962100  1
  O  O48  1  0.05625400  0.41787400  0.93754300  1
  O  O49  1  0.55625400  0.08212600  0.56245700  1
  O  O50  1  0.94374600  0.58212600  0.06245700  1
  O  O51  1  0.44374600  0.91787400  0.43754300  1
  O  O52  1  0.11483500  0.53966700  0.63356700  1
  O  O53  1  0.61483500  0.96033300  0.86643300  1
  O  O54  1  0.88516500  0.46033300  0.36643300  1
  O  O55  1  0.38516500  0.03966700  0.13356700  1
  O  O56  1  0.98887700  0.60898000  0.21519900  1
  O  O57  1  0.48887700  0.89102000  0.28480100  1
  O  O58  1  0.01112300  0.39102000  0.78480100  1
  O  O59  1  0.51112300  0.10898000  0.71519900  1
  O  O60  1  0.09659700  0.89312600  0.11238200  1
  O  O61  1  0.59659700  0.60687400  0.38761800  1
  O  O62  1  0.90340300  0.10687400  0.88761800  1
  O  O63  1  0.40340300  0.39312600  0.61238200  1
  O  O64  1  0.25031200  0.59226400  0.04737000  1
  O  O65  1  0.75031200  0.90773600  0.45263000  1
  O  O66  1  0.74968800  0.40773600  0.95263000  1
  O  O67  1  0.24968800  0.09226400  0.54737000  1
  O  O68  1  0.30567900  0.63703500  0.19978300  1
  O  O69  1  0.80567900  0.86296500  0.30021700  1
  O  O70  1  0.69432100  0.36296500  0.80021700  1
  O  O71  1  0.19432100  0.13703500  0.69978300  1
  O  O72  1  0.15016000  0.30386400  0.14471100  1
  O  O73  1  0.65016000  0.19613600  0.35528900  1
  O  O74  1  0.84984000  0.69613600  0.85528900  1
  O  O75  1  0.18048300  0.95469800  0.27037900  1
