# generated using pymatgen
data_SiRu
_symmetry_space_group_name_H-M   'P 1'
_cell_length_a   4.74398200
_cell_length_b   4.74398200
_cell_length_c   4.74398200
_cell_angle_alpha   90.00000000
_cell_angle_beta   90.00000000
_cell_angle_gamma   90.00000000
_symmetry_Int_Tables_number   1
_chemical_formula_structural   SiRu
_chemical_formula_sum   'Si4 Ru4'
_cell_volume   106.76504749
_cell_formula_units_Z   4
loop_
 _symmetry_equiv_pos_site_id
 _symmetry_equiv_pos_as_xyz
  1  'x, y, z'
loop_
 _atom_site_type_symbol
 _atom_site_label
 _atom_site_symmetry_multiplicity
 _atom_site_fract_x
 _atom_site_fract_y
 _atom_site_fract_z
 _atom_site_occupancy
  Si  Si0  1  0.66284000  0.16284000  0.33716000  1
  Si  Si1  1  0.16284000  0.33716000  0.66284000  1
  Si  Si2  1  0.33716000  0.66284000  0.16284000  1
  Si  Si3  1  0.83716000  0.83716000  0.83716000  1
  Ru  Ru4  1  0.37078900  0.87078900  0.62921100  1
  Ru  Ru5  1  0.87078900  0.62921100  0.37078900  1
  Ru  Ru6  1  0.62921100  0.37078900  0.87078900  1
  Ru  Ru7  1  0.12921100  0.12921100  0.12921100  1
