# generated using pymatgen
data_Cs3B(SeO4)3
_symmetry_space_group_name_H-M   'P 1'
_cell_length_a   11.62863500
_cell_length_b   8.25392800
_cell_length_c   16.42805271
_cell_angle_alpha   90.00000000
_cell_angle_beta   101.10452089
_cell_angle_gamma   90.00000000
_symmetry_Int_Tables_number   1
_chemical_formula_structural   Cs3B(SeO4)3
_chemical_formula_sum   'Cs12 B4 Se12 O48'
_cell_volume   1547.27436573
_cell_formula_units_Z   4
loop_
 _symmetry_equiv_pos_site_id
 _symmetry_equiv_pos_as_xyz
  1  'x, y, z'
loop_
 _atom_site_type_symbol
 _atom_site_label
 _atom_site_symmetry_multiplicity
 _atom_site_fract_x
 _atom_site_fract_y
 _atom_site_fract_z
 _atom_site_occupancy
  Cs  Cs0  1  0.12931400  0.70921400  0.06207900  1
  Cs  Cs1  1  0.87068600  0.20921400  0.43792100  1
  Cs  Cs2  1  0.87068600  0.29078600  0.93792100  1
  Cs  Cs3  1  0.12931400  0.79078600  0.56207900  1
  Cs  Cs4  1  0.13554300  0.43123400  0.30432400  1
  Cs  Cs5  1  0.86445700  0.93123400  0.19567600  1
  Cs  Cs6  1  0.86445700  0.56876600  0.69567600  1
  Cs  Cs7  1  0.13554300  0.06876600  0.80432400  1
  Cs  Cs8  1  0.46489500  0.27551300  0.05115800  1
  Cs  Cs9  1  0.53510500  0.77551300  0.44884200  1
  Cs  Cs10  1  0.53510500  0.72448700  0.94884200  1
  Cs  Cs11  1  0.46489500  0.22448700  0.55115800  1
  B  B12  1  0.65550500  0.55110000  0.26914000  1
  B  B13  1  0.34449500  0.05110000  0.23086000  1
  B  B14  1  0.34449500  0.44890000  0.73086000  1
  B  B15  1  0.65550500  0.94890000  0.76914000  1
  Se  Se16  1  0.49147000  0.79549200  0.18818700  1
  Se  Se17  1  0.50853000  0.29549200  0.31181300  1
  Se  Se18  1  0.50853000  0.20450800  0.81181300  1
  Se  Se19  1  0.49147000  0.70450800  0.68818700  1
  Se  Se20  1  0.18651200  0.56858600  0.83183700  1
  Se  Se21  1  0.81348800  0.06858600  0.66816300  1
  Se  Se22  1  0.81348800  0.43141400  0.16816300  1
  Se  Se23  1  0.18651200  0.93141400  0.33183700  1
  Se  Se24  1  0.17005500  0.17489500  0.09482700  1
  Se  Se25  1  0.82994500  0.67489500  0.40517300  1
  Se  Se26  1  0.82994500  0.82510500  0.90517300  1
  Se  Se27  1  0.17005500  0.32510500  0.59482700  1
  O  O28  1  0.43101200  0.42158800  0.35675100  1
  O  O29  1  0.56898800  0.92158800  0.14324900  1
  O  O30  1  0.56898800  0.57841200  0.64324900  1
  O  O31  1  0.43101200  0.07841200  0.85675100  1
  O  O32  1  0.41018200  0.66789600  0.12546400  1
  O  O33  1  0.58981800  0.16789600  0.37453600  1
  O  O34  1  0.58981800  0.33210400  0.87453600  1
  O  O35  1  0.41018200  0.83210400  0.62546400  1
  O  O36  1  0.91758000  0.54539700  0.14271800  1
  O  O37  1  0.08242000  0.04539700  0.35728200  1
  O  O38  1  0.08242000  0.45460300  0.85728200  1
  O  O39  1  0.91758000  0.95460300  0.64271800  1
  O  O40  1  0.13979300  0.80517700  0.25454600  1
  O  O41  1  0.86020700  0.30517700  0.24545400  1
  O  O42  1  0.86020700  0.19482300  0.74545400  1
  O  O43  1  0.13979300  0.69482300  0.75454600  1
  O  O44  1  0.27168500  0.65557100  0.91261300  1
  O  O45  1  0.72831500  0.15557100  0.58738700  1
  O  O46  1  0.72831500  0.34442900  0.08738700  1
  O  O47  1  0.27168500  0.84442900  0.41261300  1
  O  O48  1  0.21965700  0.36064000  0.11821300  1
  O  O49  1  0.78034300  0.86064000  0.38178700  1
  O  O50  1  0.78034300  0.63936000  0.88178700  1
  O  O51  1  0.21965700  0.13936000  0.61821300  1
  O  O52  1  0.04815100  0.13445600  0.12795100  1
  O  O53  1  0.95184900  0.63445600  0.37204900  1
  O  O54  1  0.95184900  0.86554400  0.87204900  1
  O  O55  1  0.04815100  0.36554400  0.62795100  1
  O  O56  1  0.16777300  0.12331100  0.99764600  1
  O  O57  1  0.83222700  0.62331100  0.50235400  1
  O  O58  1  0.83222700  0.87668900  0.00235400  1
  O  O59  1  0.16777300  0.37668900  0.49764600  1
  O  O60  1  0.58718000  0.39691300  0.24707300  1
  O  O61  1  0.41282000  0.89691300  0.25292700  1
  O  O62  1  0.41282000  0.60308700  0.75292700  1
  O  O63  1  0.58718000  0.10308700  0.74707300  1
  O  O64  1  0.28068300  0.03359800  0.14544100  1
  O  O65  1  0.71931700  0.53359800  0.35455900  1
  O  O66  1  0.71931700  0.96640200  0.85455900  1
  O  O67  1  0.28068300  0.46640200  0.64544100  1
  O  O68  1  0.42427800  0.19487600  0.22831100  1
  O  O69  1  0.57572200  0.69487600  0.27168900  1
  O  O70  1  0.57572200  0.80512400  0.77168900  1
  O  O71  1  0.42427800  0.30512400  0.72831100  1
  O  O72  1  0.27931600  0.08177000  0.29655900  1
  O  O73  1  0.72068400  0.58177000  0.20344100  1
  O  O74  1  0.72068400  0.91823000  0.70344100  1
  O  O75  1  0.27931600  0.41823000  0.79655900  1
