# generated using pymatgen
data_Zr6MnCl14
_symmetry_space_group_name_H-M   'P 1'
_cell_length_a   9.91535107
_cell_length_b   9.91535107
_cell_length_c   11.99446000
_cell_angle_alpha   90.00000000
_cell_angle_beta   90.00000000
_cell_angle_gamma   97.08347539
_symmetry_Int_Tables_number   1
_chemical_formula_structural   Zr6MnCl14
_chemical_formula_sum   'Zr12 Mn2 Cl28'
_cell_volume   1170.22519445
_cell_formula_units_Z   2
loop_
 _symmetry_equiv_pos_site_id
 _symmetry_equiv_pos_as_xyz
  1  'x, y, z'
loop_
 _atom_site_type_symbol
 _atom_site_label
 _atom_site_symmetry_multiplicity
 _atom_site_fract_x
 _atom_site_fract_y
 _atom_site_fract_z
 _atom_site_occupancy
  Zr  Zr0  1  0.95180700  0.19314200  0.12166900  1
  Zr  Zr1  1  0.04819300  0.80685800  0.87833100  1
  Zr  Zr2  1  0.54819300  0.30685800  0.62166900  1
  Zr  Zr3  1  0.69314200  0.45180700  0.37833100  1
  Zr  Zr4  1  0.45180700  0.69314200  0.37833100  1
  Zr  Zr5  1  0.30685800  0.54819300  0.62166900  1
  Zr  Zr6  1  0.80685800  0.04819300  0.87833100  1
  Zr  Zr7  1  0.19314200  0.95180700  0.12166900  1
  Zr  Zr8  1  0.35083100  0.35083100  0.39336700  1
  Zr  Zr9  1  0.64916900  0.64916900  0.60663300  1
  Zr  Zr10  1  0.14916900  0.14916900  0.89336700  1
  Zr  Zr11  1  0.85083100  0.85083100  0.10663300  1
  Mn  Mn12  1  0.00000000  0.00000000  0.00000000  1
  Mn  Mn13  1  0.50000000  0.50000000  0.50000000  1
  Cl  Cl14  1  0.29115600  0.53363200  0.25662100  1
  Cl  Cl15  1  0.70884400  0.46636800  0.74337900  1
  Cl  Cl16  1  0.20884400  0.96636800  0.75662100  1
  Cl  Cl17  1  0.03363200  0.79115600  0.24337900  1
  Cl  Cl18  1  0.79115600  0.03363200  0.24337900  1
  Cl  Cl19  1  0.96636800  0.20884400  0.75662100  1
  Cl  Cl20  1  0.46636800  0.70884400  0.74337900  1
  Cl  Cl21  1  0.53363200  0.29115600  0.25662100  1
  Cl  Cl22  1  0.11773400  0.35991800  0.01084000  1
  Cl  Cl23  1  0.88226600  0.64008200  0.98916000  1
  Cl  Cl24  1  0.38226600  0.14008200  0.51084000  1
  Cl  Cl25  1  0.85991800  0.61773400  0.48916000  1
  Cl  Cl26  1  0.61773400  0.85991800  0.48916000  1
  Cl  Cl27  1  0.14008200  0.38226600  0.51084000  1
  Cl  Cl28  1  0.64008200  0.88226600  0.98916000  1
  Cl  Cl29  1  0.35991800  0.11773400  0.01084000  1
  Cl  Cl30  1  0.90278800  0.40278800  0.25000000  1
  Cl  Cl31  1  0.09721200  0.59721200  0.75000000  1
  Cl  Cl32  1  0.59721200  0.09721200  0.75000000  1
  Cl  Cl33  1  0.40278800  0.90278800  0.25000000  1
  Cl  Cl34  1  0.75310900  0.24689100  0.00000000  1
  Cl  Cl35  1  0.24689100  0.75310900  0.00000000  1
  Cl  Cl36  1  0.74689100  0.25310900  0.50000000  1
  Cl  Cl37  1  0.25310900  0.74689100  0.50000000  1
  Cl  Cl38  1  0.15428200  0.15428200  0.26002800  1
  Cl  Cl39  1  0.84571800  0.84571800  0.73997200  1
  Cl  Cl40  1  0.34571800  0.34571800  0.76002800  1
  Cl  Cl41  1  0.65428200  0.65428200  0.23997200  1
