# generated using pymatgen
data_GdCrGeO5
_symmetry_space_group_name_H-M   'P 1'
_cell_length_a   5.84467300
_cell_length_b   7.51134400
_cell_length_c   8.54002700
_cell_angle_alpha   90.00000000
_cell_angle_beta   90.00000000
_cell_angle_gamma   90.00000000
_symmetry_Int_Tables_number   1
_chemical_formula_structural   GdCrGeO5
_chemical_formula_sum   'Gd4 Cr4 Ge4 O20'
_cell_volume   374.91870981
_cell_formula_units_Z   4
loop_
 _symmetry_equiv_pos_site_id
 _symmetry_equiv_pos_as_xyz
  1  'x, y, z'
loop_
 _atom_site_type_symbol
 _atom_site_label
 _atom_site_symmetry_multiplicity
 _atom_site_fract_x
 _atom_site_fract_y
 _atom_site_fract_z
 _atom_site_occupancy
  Gd  Gd0  1  0.50000000  0.35716100  0.32656000  1
  Gd  Gd1  1  0.50000000  0.64283900  0.67344000  1
  Gd  Gd2  1  0.50000000  0.14283900  0.82656000  1
  Gd  Gd3  1  0.50000000  0.85716100  0.17344000  1
  Cr  Cr4  1  0.24831100  0.00000000  0.50000000  1
  Cr  Cr5  1  0.75168900  0.00000000  0.50000000  1
  Cr  Cr6  1  0.75168900  0.50000000  0.00000000  1
  Cr  Cr7  1  0.24831100  0.50000000  0.00000000  1
  Ge  Ge8  1  0.00000000  0.11664400  0.14391700  1
  Ge  Ge9  1  0.00000000  0.88335600  0.85608300  1
  Ge  Ge10  1  0.00000000  0.38335600  0.64391700  1
  Ge  Ge11  1  0.00000000  0.61664400  0.35608300  1
  O  O12  1  0.24700500  0.10948500  0.28274200  1
  O  O13  1  0.75299500  0.89051500  0.71725800  1
  O  O14  1  0.24700500  0.89051500  0.71725800  1
  O  O15  1  0.75299500  0.39051500  0.78274200  1
  O  O16  1  0.75299500  0.10948500  0.28274200  1
  O  O17  1  0.24700500  0.60948500  0.21725800  1
  O  O18  1  0.75299500  0.60948500  0.21725800  1
  O  O19  1  0.24700500  0.39051500  0.78274200  1
  O  O20  1  0.00000000  0.34152300  0.07993700  1
  O  O21  1  0.00000000  0.65847700  0.92006300  1
  O  O22  1  0.00000000  0.15847700  0.57993700  1
  O  O23  1  0.00000000  0.84152300  0.42006300  1
  O  O24  1  0.50000000  0.33351100  0.05609800  1
  O  O25  1  0.50000000  0.66648900  0.94390200  1
  O  O26  1  0.50000000  0.16648900  0.55609800  1
  O  O27  1  0.50000000  0.83351100  0.44390200  1
  O  O28  1  0.20941900  0.00000000  0.00000000  1
  O  O29  1  0.79058100  0.00000000  0.00000000  1
  O  O30  1  0.79058100  0.50000000  0.50000000  1
  O  O31  1  0.20941900  0.50000000  0.50000000  1
