# generated using pymatgen
data_Ba3Na3(CO3)5
_symmetry_space_group_name_H-M   'P 1'
_cell_length_a   11.04460791
_cell_length_b   11.04460791
_cell_length_c   6.89122600
_cell_angle_alpha   90.00000000
_cell_angle_beta   90.00000000
_cell_angle_gamma   119.99999947
_symmetry_Int_Tables_number   1
_chemical_formula_structural   Ba3Na3(CO3)5
_chemical_formula_sum   'Ba6 Na6 C10 O30'
_cell_volume   727.99388716
_cell_formula_units_Z   2
loop_
 _symmetry_equiv_pos_site_id
 _symmetry_equiv_pos_as_xyz
  1  'x, y, z'
loop_
 _atom_site_type_symbol
 _atom_site_label
 _atom_site_symmetry_multiplicity
 _atom_site_fract_x
 _atom_site_fract_y
 _atom_site_fract_z
 _atom_site_occupancy
  Ba  Ba0  1  0.84150200  0.68300400  0.83026000  1
  Ba  Ba1  1  0.84150200  0.15849800  0.83026000  1
  Ba  Ba2  1  0.15849800  0.31699600  0.33026000  1
  Ba  Ba3  1  0.31699600  0.15849800  0.83026000  1
  Ba  Ba4  1  0.15849800  0.84150200  0.33026000  1
  Ba  Ba5  1  0.68300400  0.84150200  0.33026000  1
  Na  Na6  1  0.52498000  0.04996000  0.51467200  1
  Na  Na7  1  0.52498000  0.47502000  0.51467200  1
  Na  Na8  1  0.47502000  0.95004000  0.01467200  1
  Na  Na9  1  0.95004000  0.47502000  0.51467200  1
  Na  Na10  1  0.47502000  0.52498000  0.01467200  1
  Na  Na11  1  0.04996000  0.52498000  0.01467200  1
  C  C12  1  0.20549500  0.41098900  0.79548700  1
  C  C13  1  0.20549500  0.79450500  0.79548700  1
  C  C14  1  0.79450500  0.58901100  0.29548700  1
  C  C15  1  0.58901100  0.79450500  0.79548700  1
  C  C16  1  0.79450500  0.20549500  0.29548700  1
  C  C17  1  0.41098900  0.20549500  0.29548700  1
  C  C18  1  0.66666700  0.33333300  0.83734400  1
  C  C19  1  0.33333300  0.66666700  0.33734400  1
  C  C20  1  0.00000000  0.00000000  0.00338600  1
  C  C21  1  0.00000000  0.00000000  0.50338600  1
  O  O22  1  0.61227800  0.70388700  0.70692900  1
  O  O23  1  0.09160900  0.38772200  0.70692900  1
  O  O24  1  0.38772200  0.29611300  0.20692900  1
  O  O25  1  0.09160900  0.70388700  0.70692900  1
  O  O26  1  0.29611300  0.90839100  0.70692900  1
  O  O27  1  0.90839100  0.61227800  0.20692900  1
  O  O28  1  0.29611300  0.38772200  0.70692900  1
  O  O29  1  0.90839100  0.29611300  0.20692900  1
  O  O30  1  0.70388700  0.09160900  0.20692900  1
  O  O31  1  0.70388700  0.61227800  0.20692900  1
  O  O32  1  0.61227800  0.90839100  0.70692900  1
  O  O33  1  0.38772200  0.09160900  0.20692900  1
  O  O34  1  0.22850600  0.45701100  0.97135700  1
  O  O35  1  0.22850600  0.77149400  0.97135700  1
  O  O36  1  0.77149400  0.54298900  0.47135700  1
  O  O37  1  0.54298900  0.77149400  0.97135700  1
  O  O38  1  0.77149400  0.22850600  0.47135700  1
  O  O39  1  0.45701100  0.22850600  0.47135700  1
  O  O40  1  0.59879200  0.19758400  0.83743500  1
  O  O41  1  0.59879200  0.40120800  0.83743500  1
  O  O42  1  0.40120800  0.80241600  0.33743500  1
  O  O43  1  0.80241600  0.40120800  0.83743500  1
  O  O44  1  0.40120800  0.59879200  0.33743500  1
  O  O45  1  0.19758400  0.59879200  0.33743500  1
  O  O46  1  0.06784900  0.13569800  0.00068700  1
  O  O47  1  0.06784900  0.93215100  0.00068700  1
  O  O48  1  0.93215100  0.86430200  0.50068700  1
  O  O49  1  0.86430200  0.93215100  0.00068700  1
  O  O50  1  0.93215100  0.06784900  0.50068700  1
  O  O51  1  0.13569800  0.06784900  0.50068700  1
