# generated using pymatgen
data_ErMoBrO4
_symmetry_space_group_name_H-M   'P 1'
_cell_length_a   6.92512000
_cell_length_b   7.24497667
_cell_length_c   10.92927859
_cell_angle_alpha   104.36636050
_cell_angle_beta   107.56649923
_cell_angle_gamma   94.01632301
_symmetry_Int_Tables_number   1
_chemical_formula_structural   ErMoBrO4
_chemical_formula_sum   'Er4 Mo4 Br4 O16'
_cell_volume   500.15453426
_cell_formula_units_Z   4
loop_
 _symmetry_equiv_pos_site_id
 _symmetry_equiv_pos_as_xyz
  1  'x, y, z'
loop_
 _atom_site_type_symbol
 _atom_site_label
 _atom_site_symmetry_multiplicity
 _atom_site_fract_x
 _atom_site_fract_y
 _atom_site_fract_z
 _atom_site_occupancy
  Er  Er0  1  0.65152100  0.11453500  0.73079900  1
  Er  Er1  1  0.34847900  0.88546500  0.26920100  1
  Er  Er2  1  0.38559800  0.65858400  0.76825900  1
  Er  Er3  1  0.61440200  0.34141600  0.23174100  1
  Mo  Mo4  1  0.73138900  0.81323900  0.13376000  1
  Mo  Mo5  1  0.26861100  0.18676100  0.86624000  1
  Mo  Mo6  1  0.77338100  0.59149000  0.62773700  1
  Mo  Mo7  1  0.22661900  0.40851000  0.37226300  1
  Br  Br8  1  0.26146600  0.99696700  0.51863000  1
  Br  Br9  1  0.73853400  0.00303300  0.48137000  1
  Br  Br10  1  0.19149000  0.71707800  0.98166500  1
  Br  Br11  1  0.80851000  0.28292200  0.01833500  1
  O  O12  1  0.66383800  0.72876300  0.95714700  1
  O  O13  1  0.33616200  0.27123700  0.04285300  1
  O  O14  1  0.00235000  0.87289400  0.20652200  1
  O  O15  1  0.99765000  0.12710600  0.79347800  1
  O  O16  1  0.62992900  0.63967300  0.20109000  1
  O  O17  1  0.37007100  0.36032700  0.79891000  1
  O  O18  1  0.39927100  0.98312700  0.81740100  1
  O  O19  1  0.60072900  0.01687300  0.18259900  1
  O  O20  1  0.04257600  0.65409400  0.67190800  1
  O  O21  1  0.95742400  0.34590600  0.32809200  1
  O  O22  1  0.72165200  0.40685400  0.70041700  1
  O  O23  1  0.27834800  0.59314600  0.29958300  1
  O  O24  1  0.67023800  0.50451600  0.44908600  1
  O  O25  1  0.32976200  0.49548400  0.55091400  1
  O  O26  1  0.65431200  0.79156300  0.70307000  1
  O  O27  1  0.34568800  0.20843700  0.29693000  1
