# generated using pymatgen
data_UMo4PbO16
_symmetry_space_group_name_H-M   'P 1'
_cell_length_a   6.84562900
_cell_length_b   8.71648500
_cell_length_c   14.50044818
_cell_angle_alpha   53.66249148
_cell_angle_beta   90.00000000
_cell_angle_gamma   90.00000000
_symmetry_Int_Tables_number   1
_chemical_formula_structural   UMo4PbO16
_chemical_formula_sum   'U2 Mo8 Pb2 O32'
_cell_volume   696.98523594
_cell_formula_units_Z   2
loop_
 _symmetry_equiv_pos_site_id
 _symmetry_equiv_pos_as_xyz
  1  'x, y, z'
loop_
 _atom_site_type_symbol
 _atom_site_label
 _atom_site_symmetry_multiplicity
 _atom_site_fract_x
 _atom_site_fract_y
 _atom_site_fract_z
 _atom_site_occupancy
  U  U0  1  0.30585300  0.00000000  0.25000000  1
  U  U1  1  0.69414700  0.00000000  0.75000000  1
  Mo  Mo2  1  0.83729000  0.70549000  0.09364900  1
  Mo  Mo3  1  0.16271000  0.29451000  0.90635100  1
  Mo  Mo4  1  0.83729000  0.29451000  0.40635100  1
  Mo  Mo5  1  0.16271000  0.70549000  0.59364900  1
  Mo  Mo6  1  0.83613700  0.79825200  0.40376600  1
  Mo  Mo7  1  0.16386300  0.20174800  0.59623400  1
  Mo  Mo8  1  0.83613700  0.20174800  0.09623400  1
  Mo  Mo9  1  0.16386300  0.79825200  0.90376600  1
  Pb  Pb10  1  0.31061000  0.50000000  0.25000000  1
  Pb  Pb11  1  0.68939000  0.50000000  0.75000000  1
  O  O12  1  0.85116100  0.81787200  0.92960300  1
  O  O13  1  0.14883900  0.18212800  0.07039700  1
  O  O14  1  0.85116100  0.18212800  0.57039700  1
  O  O15  1  0.14883900  0.81787200  0.42960300  1
  O  O16  1  0.94379800  0.00000000  0.25000000  1
  O  O17  1  0.05620200  0.00000000  0.75000000  1
  O  O18  1  0.92430300  0.50000000  0.25000000  1
  O  O19  1  0.07569700  0.50000000  0.75000000  1
  O  O20  1  0.84493200  0.60225700  0.40139000  1
  O  O21  1  0.15506800  0.39774300  0.59861000  1
  O  O22  1  0.84493200  0.39774300  0.09861000  1
  O  O23  1  0.15506800  0.60225700  0.90139000  1
  O  O24  1  0.85945900  0.68987600  0.55952200  1
  O  O25  1  0.14054100  0.31012400  0.44047800  1
  O  O26  1  0.85945900  0.31012400  0.94047800  1
  O  O27  1  0.14054100  0.68987600  0.05952200  1
  O  O28  1  0.58464000  0.87311000  0.36878700  1
  O  O29  1  0.41536000  0.12689000  0.63121300  1
  O  O30  1  0.58464000  0.12689000  0.13121300  1
  O  O31  1  0.41536000  0.87311000  0.86878700  1
  O  O32  1  0.58920900  0.64480300  0.11383200  1
  O  O33  1  0.41079100  0.35519700  0.88616800  1
  O  O34  1  0.58920900  0.35519700  0.38616800  1
  O  O35  1  0.41079100  0.64480300  0.61383200  1
  O  O36  1  0.30155600  0.79397000  0.24604000  1
  O  O37  1  0.69844400  0.20603000  0.75396000  1
  O  O38  1  0.30155600  0.20603000  0.25396000  1
  O  O39  1  0.69844400  0.79397000  0.74604000  1
  O  O40  1  0.84820900  0.90149300  0.09666000  1
  O  O41  1  0.15179100  0.09850700  0.90334000  1
  O  O42  1  0.84820900  0.09850700  0.40334000  1
  O  O43  1  0.15179100  0.90149300  0.59666000  1
