# generated using pymatgen
data_Np3Se5
_symmetry_space_group_name_H-M   'P 1'
_cell_length_a   7.65275000
_cell_length_b   8.29523700
_cell_length_c   12.08087700
_cell_angle_alpha   90.00000000
_cell_angle_beta   90.00000000
_cell_angle_gamma   90.00000000
_symmetry_Int_Tables_number   1
_chemical_formula_structural   Np3Se5
_chemical_formula_sum   'Np12 Se20'
_cell_volume   766.91068258
_cell_formula_units_Z   4
loop_
 _symmetry_equiv_pos_site_id
 _symmetry_equiv_pos_as_xyz
  1  'x, y, z'
loop_
 _atom_site_type_symbol
 _atom_site_label
 _atom_site_symmetry_multiplicity
 _atom_site_fract_x
 _atom_site_fract_y
 _atom_site_fract_z
 _atom_site_occupancy
  Np  Np0  1  0.97639700  0.49760800  0.32076000  1
  Np  Np1  1  0.52360300  0.00239200  0.82076000  1
  Np  Np2  1  0.02360300  0.99760800  0.67924000  1
  Np  Np3  1  0.47639700  0.50239200  0.17924000  1
  Np  Np4  1  0.02360300  0.50239200  0.67924000  1
  Np  Np5  1  0.47639700  0.99760800  0.17924000  1
  Np  Np6  1  0.97639700  0.00239200  0.32076000  1
  Np  Np7  1  0.52360300  0.49760800  0.82076000  1
  Np  Np8  1  0.92311800  0.75000000  0.00780400  1
  Np  Np9  1  0.57688200  0.75000000  0.50780400  1
  Np  Np10  1  0.07688200  0.25000000  0.99219600  1
  Np  Np11  1  0.42311800  0.25000000  0.49219600  1
  Se  Se12  1  0.82946500  0.04819900  0.09672300  1
  Se  Se13  1  0.67053500  0.45180100  0.59672300  1
  Se  Se14  1  0.17053500  0.54819900  0.90327700  1
  Se  Se15  1  0.32946500  0.95180100  0.40327700  1
  Se  Se16  1  0.17053500  0.95180100  0.90327700  1
  Se  Se17  1  0.32946500  0.54819900  0.40327700  1
  Se  Se18  1  0.82946500  0.45180100  0.09672300  1
  Se  Se19  1  0.67053500  0.04819900  0.59672300  1
  Se  Se20  1  0.53691900  0.75000000  0.99871100  1
  Se  Se21  1  0.96308100  0.75000000  0.49871100  1
  Se  Se22  1  0.46308100  0.25000000  0.00128900  1
  Se  Se23  1  0.03691900  0.25000000  0.50128900  1
  Se  Se24  1  0.16990700  0.75000000  0.18851800  1
  Se  Se25  1  0.33009300  0.75000000  0.68851800  1
  Se  Se26  1  0.83009300  0.25000000  0.81148200  1
  Se  Se27  1  0.66990700  0.25000000  0.31148200  1
  Se  Se28  1  0.69884200  0.75000000  0.28191800  1
  Se  Se29  1  0.80115800  0.75000000  0.78191800  1
  Se  Se30  1  0.30115800  0.25000000  0.71808200  1
  Se  Se31  1  0.19884200  0.25000000  0.21808200  1
