# generated using pymatgen
data_Ba21(Cd2Bi9)2
_symmetry_space_group_name_H-M   'P 1'
_cell_length_a   13.63230643
_cell_length_b   13.63230643
_cell_length_c   38.41398959
_cell_angle_alpha   90.00000000
_cell_angle_beta   90.00000000
_cell_angle_gamma   92.54424098
_symmetry_Int_Tables_number   1
_chemical_formula_structural   Ba21(Cd2Bi9)2
_chemical_formula_sum   'Ba84 Cd16 Bi72'
_cell_volume   7131.81014922
_cell_formula_units_Z   4
loop_
 _symmetry_equiv_pos_site_id
 _symmetry_equiv_pos_as_xyz
  1  'x, y, z'
loop_
 _atom_site_type_symbol
 _atom_site_label
 _atom_site_symmetry_multiplicity
 _atom_site_fract_x
 _atom_site_fract_y
 _atom_site_fract_z
 _atom_site_occupancy
  Ba  Ba0  1  0.73057368  0.26942632  0.79689582  1
  Ba  Ba1  1  0.26942632  0.73057368  0.20310418  1
  Ba  Ba2  1  0.76942632  0.23057368  0.29689582  1
  Ba  Ba3  1  0.23057368  0.76942632  0.70310418  1
  Ba  Ba4  1  0.41191846  0.94029982  0.87058528  1
  Ba  Ba5  1  0.58808154  0.05970018  0.12941472  1
  Ba  Ba6  1  0.08808154  0.55970018  0.37058528  1
  Ba  Ba7  1  0.55970018  0.08808154  0.62941472  1
  Ba  Ba8  1  0.91191846  0.44029982  0.62941472  1
  Ba  Ba9  1  0.44029982  0.91191846  0.37058528  1
  Ba  Ba10  1  0.94029982  0.41191846  0.12941472  1
  Ba  Ba11  1  0.05970018  0.58808154  0.87058528  1
  Ba  Ba12  1  0.39235326  0.26753974  0.82912765  1
  Ba  Ba13  1  0.60764674  0.73246026  0.17087235  1
  Ba  Ba14  1  0.10764674  0.23246026  0.32912765  1
  Ba  Ba15  1  0.23246026  0.10764674  0.67087235  1
  Ba  Ba16  1  0.89235326  0.76753974  0.67087235  1
  Ba  Ba17  1  0.76753974  0.89235326  0.32912765  1
  Ba  Ba18  1  0.26753974  0.39235326  0.17087235  1
  Ba  Ba19  1  0.73246026  0.60764674  0.82912765  1
  Ba  Ba20  1  0.42504423  0.32599162  0.94010768  1
  Ba  Ba21  1  0.57495577  0.67400838  0.05989232  1
  Ba  Ba22  1  0.07495577  0.17400838  0.44010768  1
  Ba  Ba23  1  0.17400838  0.07495577  0.55989232  1
  Ba  Ba24  1  0.92504423  0.82599162  0.55989232  1
  Ba  Ba25  1  0.82599162  0.92504423  0.44010768  1
  Ba  Ba26  1  0.32599162  0.42504423  0.05989232  1
  Ba  Ba27  1  0.67400838  0.57495577  0.94010768  1
  Ba  Ba28  1  0.74163715  0.93611748  0.82252098  1
  Ba  Ba29  1  0.25836285  0.06388252  0.17747902  1
  Ba  Ba30  1  0.75836285  0.56388252  0.32252098  1
  Ba  Ba31  1  0.56388252  0.75836285  0.67747902  1
  Ba  Ba32  1  0.24163715  0.43611748  0.67747902  1
  Ba  Ba33  1  0.43611748  0.24163715  0.32252098  1
  Ba  Ba34  1  0.93611748  0.74163715  0.17747902  1
  Ba  Ba35  1  0.06388252  0.25836285  0.82252098  1
  Ba  Ba36  1  0.50205523  0.82547845  0.96776328  1
  Ba  Ba37  1  0.49794477  0.17452155  0.03223672  1
  Ba  Ba38  1  0.99794477  0.67452155  0.46776328  1
  Ba  Ba39  1  0.67452155  0.99794477  0.53223672  1
  Ba  Ba40  1  0.00205523  0.32547845  0.53223672  1
  Ba  Ba41  1  0.32547845  0.00205523  0.46776328  1
  Ba  Ba42  1  0.82547845  0.50205523  0.03223672  1
  Ba  Ba43  1  0.17452155  0.49794477  0.96776328  1
  Ba  Ba44  1  0.75662510  0.93681934  0.92468619  1
  Ba  Ba45  1  0.24337490  0.06318066  0.07531381  1
  Ba  Ba46  1  0.74337490  0.56318066  0.42468619  1
  Ba  Ba47  1  0.56318066  0.74337490  0.57531381  1
  Ba  Ba48  1  0.25662510  0.43681934  0.57531381  1
  Ba  Ba49  1  0.43681934  0.25662510  0.42468619  1
  Ba  Ba50  1  0.93681934  0.75662510  0.07531381  1
  Ba  Ba51  1  0.06318066  0.24337490  0.92468619  1
  Ba  Ba52  1  0.22515286  0.01073861  0.96144027  1
  Ba  Ba53  1  0.77484714  0.98926139  0.03855973  1
  Ba  Ba54  1  0.27484714  0.48926139  0.46144027  1
  Ba  Ba55  1  0.48926139  0.27484714  0.53855973  1
  Ba  Ba56  1  0.72515286  0.51073861  0.53855973  1
  Ba  Ba57  1  0.51073861  0.72515286  0.46144027  1
  Ba  Ba58  1  0.01073861  0.22515286  0.03855973  1
  Ba  Ba59  1  0.98926139  0.77484714  0.96144027  1
  Ba  Ba60  1  0.72904249  0.00803646  0.71912974  1
  Ba  Ba61  1  0.27095751  0.99196354  0.28087026  1
  Ba  Ba62  1  0.77095751  0.49196354  0.21912974  1
  Ba  Ba63  1  0.49196354  0.77095751  0.78087026  1
  Ba  Ba64  1  0.22904249  0.50803646  0.78087026  1
  Ba  Ba65  1  0.50803646  0.22904249  0.21912974  1
  Ba  Ba66  1  0.00803646  0.72904249  0.28087026  1
  Ba  Ba67  1  0.99196354  0.27095751  0.71912974  1
  Ba  Ba68  1  0.89439961  0.10560039  0.62204377  1
  Ba  Ba69  1  0.10560039  0.89439961  0.37795623  1
  Ba  Ba70  1  0.60560039  0.39439961  0.12204377  1
  Ba  Ba71  1  0.39439961  0.60560039  0.87795623  1
  Ba  Ba72  1  0.74358733  0.25641267  0.95797445  1
  Ba  Ba73  1  0.25641267  0.74358733  0.04202555  1
  Ba  Ba74  1  0.75641267  0.24358733  0.45797445  1
  Ba  Ba75  1  0.24358733  0.75641267  0.54202555  1
  Ba  Ba76  1  0.48610030  0.27182292  0.72227298  1
  Ba  Ba77  1  0.51389970  0.72817708  0.27772702  1
  Ba  Ba78  1  0.01389970  0.22817708  0.22227298  1
  Ba  Ba79  1  0.22817708  0.01389970  0.77772702  1
  Ba  Ba80  1  0.98610030  0.77182292  0.77772702  1
  Ba  Ba81  1  0.77182292  0.98610030  0.22227298  1
  Ba  Ba82  1  0.27182292  0.48610030  0.27772702  1
  Ba  Ba83  1  0.72817708  0.51389970  0.72227298  1
  Cd  Cd84  1  0.99183699  0.00816301  0.85410886  1
  Cd  Cd85  1  0.00816301  0.99183699  0.14589114  1
  Cd  Cd86  1  0.50816301  0.49183699  0.35410886  1
  Cd  Cd87  1  0.49183699  0.50816301  0.64589114  1
  Cd  Cd88  1  0.60857066  0.15048885  0.87308681  1
  Cd  Cd89  1  0.39142934  0.84951115  0.12691319  1
  Cd  Cd90  1  0.89142934  0.34951115  0.37308681  1
  Cd  Cd91  1  0.34951115  0.89142934  0.62691319  1
  Cd  Cd92  1  0.10857066  0.65048885  0.62691319  1
  Cd  Cd93  1  0.65048885  0.10857066  0.37308681  1
  Cd  Cd94  1  0.15048885  0.60857066  0.12691319  1
  Cd  Cd95  1  0.84951115  0.39142934  0.87308681  1
  Cd  Cd96  1  0.64853304  0.35146696  0.62672055  1
  Cd  Cd97  1  0.35146696  0.64853304  0.37327945  1
  Cd  Cd98  1  0.85146696  0.14853304  0.12672055  1
  Cd  Cd99  1  0.14853304  0.85146696  0.87327945  1
  Bi  Bi100  1  0.59583256  0.77075703  0.87855273  1
  Bi  Bi101  1  0.40416744  0.22924297  0.12144727  1
  Bi  Bi102  1  0.90416744  0.72924297  0.37855273  1
  Bi  Bi103  1  0.72924297  0.90416744  0.62144727  1
  Bi  Bi104  1  0.09583256  0.27075703  0.62144727  1
  Bi  Bi105  1  0.27075703  0.09583256  0.37855273  1
  Bi  Bi106  1  0.77075703  0.59583256  0.12144727  1
  Bi  Bi107  1  0.22924297  0.40416744  0.87855273  1
  Bi  Bi108  1  0.53228704  0.07976589  0.94432567  1
  Bi  Bi109  1  0.46771296  0.92023411  0.05567433  1
  Bi  Bi110  1  0.96771296  0.42023411  0.44432567  1
  Bi  Bi111  1  0.42023411  0.96771296  0.55567433  1
  Bi  Bi112  1  0.03228704  0.57976589  0.55567433  1
  Bi  Bi113  1  0.57976589  0.03228704  0.44432567  1
  Bi  Bi114  1  0.07976589  0.53228704  0.05567433  1
  Bi  Bi115  1  0.92023411  0.46771296  0.94432567  1
  Bi  Bi116  1  0.74858488  0.25141512  0.56087419  1
  Bi  Bi117  1  0.25141512  0.74858488  0.43912581  1
  Bi  Bi118  1  0.75141512  0.24858488  0.06087419  1
  Bi  Bi119  1  0.24858488  0.75141512  0.93912581  1
  Bi  Bi120  1  0.53294622  0.06867757  0.79764880  1
  Bi  Bi121  1  0.46705378  0.93132243  0.20235120  1
  Bi  Bi122  1  0.96705378  0.43132243  0.29764880  1
  Bi  Bi123  1  0.43132243  0.96705378  0.70235120  1
  Bi  Bi124  1  0.03294622  0.56867757  0.70235120  1
  Bi  Bi125  1  0.56867757  0.03294622  0.29764880  1
  Bi  Bi126  1  0.06867757  0.53294622  0.20235120  1
  Bi  Bi127  1  0.93132243  0.46705378  0.79764880  1
  Bi  Bi128  1  0.92503527  0.07496473  0.51527971  1
  Bi  Bi129  1  0.07496473  0.92503527  0.48472029  1
  Bi  Bi130  1  0.57496473  0.42503527  0.01527971  1
  Bi  Bi131  1  0.42503527  0.57496473  0.98472029  1
  Bi  Bi132  1  0.74505677  0.25494323  0.69030463  1
  Bi  Bi133  1  0.25494323  0.74505677  0.30969537  1
  Bi  Bi134  1  0.75494323  0.24505677  0.19030463  1
  Bi  Bi135  1  0.24505677  0.75494323  0.80969537  1
  Bi  Bi136  1  0.20007980  0.07814285  0.87065750  1
  Bi  Bi137  1  0.79992020  0.92185715  0.12934250  1
  Bi  Bi138  1  0.29992020  0.42185715  0.37065750  1
  Bi  Bi139  1  0.42185715  0.29992020  0.62934250  1
  Bi  Bi140  1  0.70007980  0.57814285  0.62934250  1
  Bi  Bi141  1  0.57814285  0.70007980  0.37065750  1
  Bi  Bi142  1  0.07814285  0.20007980  0.12934250  1
  Bi  Bi143  1  0.92185715  0.79992020  0.87065750  1
  Bi  Bi144  1  0.84031996  0.15968004  0.87582028  1
  Bi  Bi145  1  0.15968004  0.84031996  0.12417972  1
  Bi  Bi146  1  0.65968004  0.34031996  0.37582028  1
  Bi  Bi147  1  0.34031996  0.65968004  0.62417972  1
  Bi  Bi148  1  0.52646859  0.47353141  0.79047714  1
  Bi  Bi149  1  0.47353141  0.52646859  0.20952286  1
  Bi  Bi150  1  0.97353141  0.02646859  0.29047714  1
  Bi  Bi151  1  0.02646859  0.97353141  0.70952286  1
  Bi  Bi152  1  0.93650052  0.06349948  0.77732837  1
  Bi  Bi153  1  0.06349948  0.93650052  0.22267163  1
  Bi  Bi154  1  0.56349948  0.43650052  0.27732837  1
  Bi  Bi155  1  0.43650052  0.56349948  0.72267163  1
  Bi  Bi156  1  0.73768428  0.76231572  0.75000000  1
  Bi  Bi157  1  0.26231572  0.23768428  0.25000000  1
  Bi  Bi158  1  0.76231572  0.73768428  0.25000000  1
  Bi  Bi159  1  0.23768428  0.26231572  0.75000000  1
  Bi  Bi160  1  0.95226299  0.04773701  0.96877289  1
  Bi  Bi161  1  0.04773701  0.95226299  0.03122711  1
  Bi  Bi162  1  0.54773701  0.45226299  0.46877289  1
  Bi  Bi163  1  0.45226299  0.54773701  0.53122711  1
  Bi  Bi164  1  0.75360794  0.75360794  -0.00000000  1
  Bi  Bi165  1  0.24639206  0.24639206  -0.00000000  1
  Bi  Bi166  1  0.74639206  0.74639206  0.50000000  1
  Bi  Bi167  1  0.25360794  0.25360794  0.50000000  1
  Bi  Bi168  1  0.61714248  0.38285752  0.87531055  1
  Bi  Bi169  1  0.38285752  0.61714248  0.12468945  1
  Bi  Bi170  1  0.88285752  0.11714248  0.37531055  1
  Bi  Bi171  1  0.11714248  0.88285752  0.62468945  1
