# generated using pymatgen
data_NaCrP2O7
_symmetry_space_group_name_H-M   'P 1'
_cell_length_a   7.98225800
_cell_length_b   7.36707900
_cell_length_c   9.62136673
_cell_angle_alpha   68.45810779
_cell_angle_beta   90.00000000
_cell_angle_gamma   90.00000000
_symmetry_Int_Tables_number   1
_chemical_formula_structural   NaCrP2O7
_chemical_formula_sum   'Na4 Cr4 P8 O28'
_cell_volume   526.27233759
_cell_formula_units_Z   4
loop_
 _symmetry_equiv_pos_site_id
 _symmetry_equiv_pos_as_xyz
  1  'x, y, z'
loop_
 _atom_site_type_symbol
 _atom_site_label
 _atom_site_symmetry_multiplicity
 _atom_site_fract_x
 _atom_site_fract_y
 _atom_site_fract_z
 _atom_site_occupancy
  Na  Na0  1  0.47836100  0.70859300  0.29586300  1
  Na  Na1  1  0.97836100  0.29140700  0.20413700  1
  Na  Na2  1  0.52163900  0.29140700  0.70413700  1
  Na  Na3  1  0.02163900  0.70859300  0.79586300  1
  Cr  Cr4  1  0.99345500  0.26011700  0.75295400  1
  Cr  Cr5  1  0.49345500  0.73988300  0.74704600  1
  Cr  Cr6  1  0.00654500  0.73988300  0.24704600  1
  Cr  Cr7  1  0.50654500  0.26011700  0.25295400  1
  P  P8  1  0.71062000  0.67286800  0.04424600  1
  P  P9  1  0.21062000  0.32713200  0.45575400  1
  P  P10  1  0.28938000  0.32713200  0.95575400  1
  P  P11  1  0.78938000  0.67286800  0.54424600  1
  P  P12  1  0.75521000  0.07568300  0.04573900  1
  P  P13  1  0.25521000  0.92431700  0.45426100  1
  P  P14  1  0.24479000  0.92431700  0.95426100  1
  P  P15  1  0.74479000  0.07568300  0.54573900  1
  O  O16  1  0.65394800  0.87969900  0.05617200  1
  O  O17  1  0.15394800  0.12030100  0.44382800  1
  O  O18  1  0.34605200  0.12030100  0.94382800  1
  O  O19  1  0.84605200  0.87969900  0.55617200  1
  O  O20  1  0.58619100  0.53511400  0.15129600  1
  O  O21  1  0.08619100  0.46488600  0.34870400  1
  O  O22  1  0.41380900  0.46488600  0.84870400  1
  O  O23  1  0.91380900  0.53511400  0.65129600  1
  O  O24  1  0.63708100  0.18726100  0.10766100  1
  O  O25  1  0.13708100  0.81273900  0.39233900  1
  O  O26  1  0.36291900  0.81273900  0.89233900  1
  O  O27  1  0.86291900  0.18726100  0.60766100  1
  O  O28  1  0.91523800  0.01156000  0.14097700  1
  O  O29  1  0.41523800  0.98844000  0.35902300  1
  O  O30  1  0.08476200  0.98844000  0.85902300  1
  O  O31  1  0.58476200  0.01156000  0.64097700  1
  O  O32  1  0.89468800  0.63798800  0.09773000  1
  O  O33  1  0.39468800  0.36201200  0.40227000  1
  O  O34  1  0.10531200  0.36201200  0.90227000  1
  O  O35  1  0.60531200  0.63798800  0.59773000  1
  O  O36  1  0.78691400  0.19347200  0.88014400  1
  O  O37  1  0.28691400  0.80652800  0.61985600  1
  O  O38  1  0.21308600  0.80652800  0.11985600  1
  O  O39  1  0.71308600  0.19347200  0.38014400  1
  O  O40  1  0.70148100  0.68647300  0.88184900  1
  O  O41  1  0.20148100  0.31352700  0.61815100  1
  O  O42  1  0.29851900  0.31352700  0.11815100  1
  O  O43  1  0.79851900  0.68647300  0.38184900  1
