# generated using pymatgen
data_Eu2BPd6
_symmetry_space_group_name_H-M   'P 1'
_cell_length_a   4.34449600
_cell_length_b   4.34449600
_cell_length_c   8.31471400
_cell_angle_alpha   90.00000000
_cell_angle_beta   90.00000000
_cell_angle_gamma   90.00000000
_symmetry_Int_Tables_number   1
_chemical_formula_structural   Eu2BPd6
_chemical_formula_sum   'Eu2 B1 Pd6'
_cell_volume   156.93727913
_cell_formula_units_Z   1
loop_
 _symmetry_equiv_pos_site_id
 _symmetry_equiv_pos_as_xyz
  1  'x, y, z'
loop_
 _atom_site_type_symbol
 _atom_site_label
 _atom_site_symmetry_multiplicity
 _atom_site_fract_x
 _atom_site_fract_y
 _atom_site_fract_z
 _atom_site_occupancy
  Eu  Eu0  1  0.00000000  0.00000000  0.98911300  1
  Eu  Eu1  1  0.00000000  0.00000000  0.51088700  1
  B  B2  1  0.50000000  0.50000000  0.25000000  1
  Pd  Pd3  1  0.00000000  0.50000000  0.25000000  1
  Pd  Pd4  1  0.00000000  0.50000000  0.75000000  1
  Pd  Pd5  1  0.50000000  0.50000000  0.99416800  1
  Pd  Pd6  1  0.50000000  0.50000000  0.50583200  1
  Pd  Pd7  1  0.50000000  0.00000000  0.25000000  1
  Pd  Pd8  1  0.50000000  0.00000000  0.75000000  1
