# generated using pymatgen
data_Pu2SiO10
_symmetry_space_group_name_H-M   'P 1'
_cell_length_a   10.27760273
_cell_length_b   10.27760273
_cell_length_c   10.27760273
_cell_angle_alpha   139.49040470
_cell_angle_beta   139.49040470
_cell_angle_gamma   58.62786993
_symmetry_Int_Tables_number   1
_chemical_formula_structural   Pu2SiO10
_chemical_formula_sum   'Pu4 Si2 O20'
_cell_volume   453.80605904
_cell_formula_units_Z   2
loop_
 _symmetry_equiv_pos_site_id
 _symmetry_equiv_pos_as_xyz
  1  'x, y, z'
loop_
 _atom_site_type_symbol
 _atom_site_label
 _atom_site_symmetry_multiplicity
 _atom_site_fract_x
 _atom_site_fract_y
 _atom_site_fract_z
 _atom_site_occupancy
  Pu  Pu0  1  0.32274700  0.32274700  0.00000000  1
  Pu  Pu1  1  0.07274700  0.57274700  0.50000000  1
  Pu  Pu2  1  0.42725300  0.92725300  0.50000000  1
  Pu  Pu3  1  0.67725300  0.67725300  0.00000000  1
  Si  Si4  1  0.50000000  0.50000000  0.00000000  1
  Si  Si5  1  0.25000000  0.75000000  0.50000000  1
  O  O6  1  0.57897600  0.32927300  0.24970300  1
  O  O7  1  0.07956900  0.32927300  0.75029700  1
  O  O8  1  0.07927300  0.82897600  0.74970300  1
  O  O9  1  0.07927300  0.32956900  0.25029700  1
  O  O10  1  0.17102400  0.92072700  0.25029700  1
  O  O11  1  0.67043100  0.92072700  0.74970300  1
  O  O12  1  0.67072700  0.42102400  0.75029700  1
  O  O13  1  0.67072700  0.92043100  0.24970300  1
  O  O14  1  0.43946500  0.61183700  0.17237200  1
  O  O15  1  0.36183700  0.68946500  0.67237200  1
  O  O16  1  0.01709300  0.68946500  0.32762800  1
  O  O17  1  0.43946500  0.26709300  0.82762800  1
  O  O18  1  0.31053500  0.63816300  0.32762800  1
  O  O19  1  0.38816300  0.56053500  0.82762800  1
  O  O20  1  0.73290700  0.56053500  0.17237200  1
  O  O21  1  0.31053500  0.98290700  0.67237200  1
  O  O22  1  0.21949500  0.21949500  0.00000000  1
  O  O23  1  0.96949500  0.46949500  0.50000000  1
  O  O24  1  0.53050500  0.03050500  0.50000000  1
  O  O25  1  0.78050500  0.78050500  0.00000000  1
