# generated using pymatgen
data_TiAu4
_symmetry_space_group_name_H-M   'P 1'
_cell_length_a   5.08100331
_cell_length_b   5.08100331
_cell_length_c   5.08100331
_cell_angle_alpha   98.97792252
_cell_angle_beta   98.97792252
_cell_angle_gamma   133.46349327
_symmetry_Int_Tables_number   1
_chemical_formula_structural   TiAu4
_chemical_formula_sum   'Ti1 Au4'
_cell_volume   87.46422058
_cell_formula_units_Z   1
loop_
 _symmetry_equiv_pos_site_id
 _symmetry_equiv_pos_as_xyz
  1  'x, y, z'
loop_
 _atom_site_type_symbol
 _atom_site_label
 _atom_site_symmetry_multiplicity
 _atom_site_fract_x
 _atom_site_fract_y
 _atom_site_fract_z
 _atom_site_occupancy
  Ti  Ti0  1  0.00000000  0.00000000  0.00000000  1
  Au  Au1  1  0.60494300  0.20692300  0.81186500  1
  Au  Au2  1  0.39505700  0.79307700  0.18813500  1
  Au  Au3  1  0.79307700  0.60494300  0.39802000  1
  Au  Au4  1  0.20692300  0.39505700  0.60198000  1
