# generated using pymatgen
data_CaTm2(GeO3)4
_symmetry_space_group_name_H-M   'P 1'
_cell_length_a   10.05279312
_cell_length_b   10.05279312
_cell_length_c   5.07496700
_cell_angle_alpha   90.00000000
_cell_angle_beta   90.00000000
_cell_angle_gamma   90.17390897
_symmetry_Int_Tables_number   1
_chemical_formula_structural   CaTm2(GeO3)4
_chemical_formula_sum   'Ca2 Tm4 Ge8 O24'
_cell_volume   512.86694899
_cell_formula_units_Z   2
loop_
 _symmetry_equiv_pos_site_id
 _symmetry_equiv_pos_as_xyz
  1  'x, y, z'
loop_
 _atom_site_type_symbol
 _atom_site_label
 _atom_site_symmetry_multiplicity
 _atom_site_fract_x
 _atom_site_fract_y
 _atom_site_fract_z
 _atom_site_occupancy
  Ca  Ca0  1  0.50000000  0.50000000  0.50000000  1
  Ca  Ca1  1  0.00000000  0.00000000  0.50000000  1
  Tm  Tm2  1  0.00000000  0.50000000  0.50000000  1
  Tm  Tm3  1  0.50000000  0.00000000  0.50000000  1
  Tm  Tm4  1  0.75000000  0.75000000  0.50000000  1
  Tm  Tm5  1  0.25000000  0.25000000  0.50000000  1
  Ge  Ge6  1  0.74964700  0.01943100  0.99702700  1
  Ge  Ge7  1  0.25035300  0.98056900  0.00297300  1
  Ge  Ge8  1  0.24964700  0.51943100  0.00297300  1
  Ge  Ge9  1  0.75035300  0.48056900  0.99702700  1
  Ge  Ge10  1  0.01943100  0.74964700  0.00297300  1
  Ge  Ge11  1  0.98056900  0.25035300  0.99702700  1
  Ge  Ge12  1  0.51943100  0.24964700  0.99702700  1
  Ge  Ge13  1  0.48056900  0.75035300  0.00297300  1
  O  O14  1  0.57152900  0.67717800  0.25349500  1
  O  O15  1  0.05869000  0.32899700  0.26257300  1
  O  O16  1  0.44131000  0.17100300  0.26257300  1
  O  O17  1  0.92847100  0.82282200  0.25349500  1
  O  O18  1  0.42847100  0.32282200  0.74650500  1
  O  O19  1  0.94131000  0.67100300  0.73742700  1
  O  O20  1  0.55869000  0.82899700  0.73742700  1
  O  O21  1  0.07152900  0.17717800  0.74650500  1
  O  O22  1  0.67717800  0.57152900  0.74650500  1
  O  O23  1  0.32899700  0.05869000  0.73742700  1
  O  O24  1  0.17100300  0.44131000  0.73742700  1
  O  O25  1  0.82282200  0.92847100  0.74650500  1
  O  O26  1  0.32282200  0.42847100  0.25349500  1
  O  O27  1  0.67100300  0.94131000  0.26257300  1
  O  O28  1  0.82899700  0.55869000  0.26257300  1
  O  O29  1  0.17717800  0.07152900  0.25349500  1
  O  O30  1  0.87029100  0.12970900  0.15126500  1
  O  O31  1  0.37744400  0.87744400  0.16875900  1
  O  O32  1  0.12255600  0.62255600  0.16875900  1
  O  O33  1  0.62970900  0.37029100  0.15126500  1
  O  O34  1  0.12970900  0.87029100  0.84873500  1
  O  O35  1  0.62255600  0.12255600  0.83124100  1
  O  O36  1  0.87744400  0.37744400  0.83124100  1
  O  O37  1  0.37029100  0.62970900  0.84873500  1
