# generated using pymatgen
data_Eu(GaSe2)2
_symmetry_space_group_name_H-M   'P 1'
_cell_length_a   15.34642299
_cell_length_b   12.69051380
_cell_length_c   12.56551068
_cell_angle_alpha   74.83543053
_cell_angle_beta   52.95295170
_cell_angle_gamma   52.21161777
_symmetry_Int_Tables_number   1
_chemical_formula_structural   Eu(GaSe2)2
_chemical_formula_sum   'Eu8 Ga16 Se32'
_cell_volume   1520.95906455
_cell_formula_units_Z   8
loop_
 _symmetry_equiv_pos_site_id
 _symmetry_equiv_pos_as_xyz
  1  'x, y, z'
loop_
 _atom_site_type_symbol
 _atom_site_label
 _atom_site_symmetry_multiplicity
 _atom_site_fract_x
 _atom_site_fract_y
 _atom_site_fract_z
 _atom_site_occupancy
  Eu  Eu0  1  0.49807700  0.49807700  0.00192300  1
  Eu  Eu1  1  0.00192300  0.00192300  0.49807700  1
  Eu  Eu2  1  0.75192300  0.75192300  0.24807700  1
  Eu  Eu3  1  0.24807700  0.24807700  0.75192300  1
  Eu  Eu4  1  0.75000000  0.75000000  0.75000000  1
  Eu  Eu5  1  0.50000000  0.50000000  0.50000000  1
  Eu  Eu6  1  0.25000000  0.25000000  0.25000000  1
  Eu  Eu7  1  0.00000000  0.00000000  0.00000000  1
  Ga  Ga8  1  0.48995500  0.75891800  0.73735000  1
  Ga  Ga9  1  0.75891800  0.48995500  0.01377800  1
  Ga  Ga10  1  0.73735000  0.01377800  0.48995500  1
  Ga  Ga11  1  0.01377800  0.73735000  0.75891800  1
  Ga  Ga12  1  0.76004500  0.49108200  0.51265000  1
  Ga  Ga13  1  0.49108200  0.76004500  0.23622200  1
  Ga  Ga14  1  0.51265000  0.23622200  0.76004500  1
  Ga  Ga15  1  0.23622200  0.51265000  0.49108200  1
  Ga  Ga16  1  0.98633900  0.26322700  0.65496000  1
  Ga  Ga17  1  0.26322700  0.98633900  0.09547300  1
  Ga  Ga18  1  0.65496000  0.09547300  0.98633900  1
  Ga  Ga19  1  0.09547300  0.65496000  0.26322700  1
  Ga  Ga20  1  0.26366100  0.98677300  0.59504000  1
  Ga  Ga21  1  0.98677300  0.26366100  0.15452700  1
  Ga  Ga22  1  0.59504000  0.15452700  0.26366100  1
  Ga  Ga23  1  0.15452700  0.59504000  0.98677300  1
  Se  Se24  1  0.46742600  0.27994000  0.96978700  1
  Se  Se25  1  0.27994000  0.46742600  0.28284600  1
  Se  Se26  1  0.96978700  0.28284600  0.46742600  1
  Se  Se27  1  0.28284600  0.96978700  0.27994000  1
  Se  Se28  1  0.78257400  0.97006000  0.28021300  1
  Se  Se29  1  0.97006000  0.78257400  0.96715400  1
  Se  Se30  1  0.28021300  0.96715400  0.78257400  1
  Se  Se31  1  0.96715400  0.28021300  0.97006000  1
  Se  Se32  1  0.47128800  0.77683200  0.94145500  1
  Se  Se33  1  0.77683200  0.47128800  0.81042400  1
  Se  Se34  1  0.94145500  0.81042400  0.47128800  1
  Se  Se35  1  0.81042400  0.94145500  0.77683200  1
  Se  Se36  1  0.77871200  0.47316800  0.30854500  1
  Se  Se37  1  0.47316800  0.77871200  0.43957600  1
  Se  Se38  1  0.30854500  0.43957600  0.77871200  1
  Se  Se39  1  0.43957600  0.30854500  0.47316800  1
  Se  Se40  1  0.03869500  0.54140800  0.71152000  1
  Se  Se41  1  0.54140800  0.03869500  0.70837700  1
  Se  Se42  1  0.71152000  0.70837700  0.03869500  1
  Se  Se43  1  0.70837700  0.71152000  0.54140800  1
  Se  Se44  1  0.21130500  0.70859200  0.53848000  1
  Se  Se45  1  0.70859200  0.21130500  0.54162300  1
  Se  Se46  1  0.53848000  0.54162300  0.21130500  1
  Se  Se47  1  0.54162300  0.53848000  0.70859200  1
  Se  Se48  1  0.21143300  0.70915000  0.03844100  1
  Se  Se49  1  0.70915000  0.21143300  0.04097600  1
  Se  Se50  1  0.03844100  0.04097600  0.21143300  1
  Se  Se51  1  0.04097600  0.03844100  0.70915000  1
  Se  Se52  1  0.03856700  0.54085000  0.21155900  1
  Se  Se53  1  0.54085000  0.03856700  0.20902400  1
  Se  Se54  1  0.21155900  0.20902400  0.03856700  1
  Se  Se55  1  0.20902400  0.21155900  0.54085000  1
