# generated using pymatgen
data_RbNpN3O11
_symmetry_space_group_name_H-M   'P 1'
_cell_length_a   8.55610608
_cell_length_b   8.55610608
_cell_length_c   8.55610542
_cell_angle_alpha   68.82321635
_cell_angle_beta   68.82321635
_cell_angle_gamma   68.82321916
_symmetry_Int_Tables_number   1
_chemical_formula_structural   RbNpN3O11
_chemical_formula_sum   'Rb2 Np2 N6 O22'
_cell_volume   525.09800477
_cell_formula_units_Z   2
loop_
 _symmetry_equiv_pos_site_id
 _symmetry_equiv_pos_as_xyz
  1  'x, y, z'
loop_
 _atom_site_type_symbol
 _atom_site_label
 _atom_site_symmetry_multiplicity
 _atom_site_fract_x
 _atom_site_fract_y
 _atom_site_fract_z
 _atom_site_occupancy
  Rb  Rb0  1  0.50000000  0.50000000  0.50000000  1
  Rb  Rb1  1  0.00000000  0.00000000  0.00000000  1
  Np  Np2  1  0.25000000  0.25000000  0.25000000  1
  Np  Np3  1  0.75000000  0.75000000  0.75000000  1
  N  N4  1  0.55232900  0.25000000  0.94767100  1
  N  N5  1  0.94767100  0.55232900  0.25000000  1
  N  N6  1  0.75000000  0.05232900  0.44767100  1
  N  N7  1  0.44767100  0.75000000  0.05232900  1
  N  N8  1  0.05232900  0.44767100  0.75000000  1
  N  N9  1  0.25000000  0.94767100  0.55232900  1
  O  O10  1  0.59001200  0.62674700  0.05165300  1
  O  O11  1  0.32062400  0.75000000  0.17937600  1
  O  O12  1  0.75000000  0.17937600  0.32062400  1
  O  O13  1  0.82062400  0.67937600  0.25000000  1
  O  O14  1  0.67937600  0.25000000  0.82062400  1
  O  O15  1  0.25000000  0.82062400  0.67937600  1
  O  O16  1  0.05165300  0.59001200  0.62674700  1
  O  O17  1  0.62674700  0.05165300  0.59001200  1
  O  O18  1  0.17937600  0.32062400  0.75000000  1
  O  O19  1  0.90998800  0.44834700  0.87325300  1
  O  O20  1  0.94834700  0.40998800  0.37325300  1
  O  O21  1  0.87325300  0.90998800  0.44834700  1
  O  O22  1  0.44834700  0.87325300  0.90998800  1
  O  O23  1  0.40998800  0.37325300  0.94834700  1
  O  O24  1  0.37325300  0.94834700  0.40998800  1
  O  O25  1  0.09001200  0.55165300  0.12674700  1
  O  O26  1  0.55165300  0.12674700  0.09001200  1
  O  O27  1  0.12674700  0.09001200  0.55165300  1
  O  O28  1  0.15794000  0.15794000  0.15794000  1
  O  O29  1  0.65794000  0.65794000  0.65794000  1
  O  O30  1  0.84206000  0.84206000  0.84206000  1
  O  O31  1  0.34206000  0.34206000  0.34206000  1
