# generated using pymatgen
data_Sr2InF7
_symmetry_space_group_name_H-M   'P 1'
_cell_length_a   12.44248100
_cell_length_b   5.59825900
_cell_length_c   8.41229070
_cell_angle_alpha   89.40492931
_cell_angle_beta   90.00000000
_cell_angle_gamma   90.00000000
_symmetry_Int_Tables_number   1
_chemical_formula_structural   Sr2InF7
_chemical_formula_sum   'Sr8 In4 F28'
_cell_volume   585.93686323
_cell_formula_units_Z   4
loop_
 _symmetry_equiv_pos_site_id
 _symmetry_equiv_pos_as_xyz
  1  'x, y, z'
loop_
 _atom_site_type_symbol
 _atom_site_label
 _atom_site_symmetry_multiplicity
 _atom_site_fract_x
 _atom_site_fract_y
 _atom_site_fract_z
 _atom_site_occupancy
  Sr  Sr0  1  0.27935200  0.76681200  0.44721500  1
  Sr  Sr1  1  0.77935200  0.23318800  0.05278500  1
  Sr  Sr2  1  0.72064800  0.23318800  0.55278500  1
  Sr  Sr3  1  0.22064800  0.76681200  0.94721500  1
  Sr  Sr4  1  0.06145100  0.23425900  0.67684900  1
  Sr  Sr5  1  0.56145100  0.76574100  0.82315100  1
  Sr  Sr6  1  0.93854900  0.76574100  0.32315100  1
  Sr  Sr7  1  0.43854900  0.23425900  0.17684900  1
  In  In8  1  0.37447100  0.27889900  0.71439700  1
  In  In9  1  0.87447100  0.72110100  0.78560300  1
  In  In10  1  0.62552900  0.72110100  0.28560300  1
  In  In11  1  0.12552900  0.27889900  0.21439700  1
  F  F12  1  0.86064400  0.80138600  0.03165100  1
  F  F13  1  0.36064400  0.19861400  0.46834900  1
  F  F14  1  0.13935600  0.19861400  0.96834900  1
  F  F15  1  0.63935600  0.80138600  0.53165100  1
  F  F16  1  0.57386000  0.37290200  0.37342000  1
  F  F17  1  0.07386000  0.62709800  0.12658000  1
  F  F18  1  0.42614000  0.62709800  0.62658000  1
  F  F19  1  0.92614000  0.37290200  0.87342000  1
  F  F20  1  0.22756300  0.49174900  0.70639900  1
  F  F21  1  0.72756300  0.50825100  0.79360100  1
  F  F22  1  0.77243700  0.50825100  0.29360100  1
  F  F23  1  0.27243700  0.49174900  0.20639900  1
  F  F24  1  0.39561300  0.49143300  0.92729700  1
  F  F25  1  0.89561300  0.50856700  0.57270300  1
  F  F26  1  0.60438700  0.50856700  0.07270300  1
  F  F27  1  0.10438700  0.49143300  0.42729700  1
  F  F28  1  0.24409000  0.01164400  0.69522800  1
  F  F29  1  0.74409000  0.98835600  0.80477200  1
  F  F30  1  0.75591000  0.98835600  0.30477200  1
  F  F31  1  0.25591000  0.01164400  0.19522800  1
  F  F32  1  0.39539500  0.01311500  0.91156500  1
  F  F33  1  0.89539500  0.98688500  0.58843500  1
  F  F34  1  0.60460500  0.98688500  0.08843500  1
  F  F35  1  0.10460500  0.01311500  0.41156500  1
  F  F36  1  0.04120500  0.80568600  0.78824300  1
  F  F37  1  0.54120500  0.19431400  0.71175700  1
  F  F38  1  0.95879500  0.19431400  0.21175700  1
  F  F39  1  0.45879500  0.80568600  0.28824300  1
