# generated using pymatgen
data_CsNb4Ag(PS10)2
_symmetry_space_group_name_H-M   'P 1'
_cell_length_a   12.95133700
_cell_length_b   7.89662900
_cell_length_c   14.98143199
_cell_angle_alpha   86.22420787
_cell_angle_beta   90.00000000
_cell_angle_gamma   90.00000000
_symmetry_Int_Tables_number   1
_chemical_formula_structural   CsNb4Ag(PS10)2
_chemical_formula_sum   'Cs2 Nb8 Ag2 P4 S40'
_cell_volume   1528.85378542
_cell_formula_units_Z   2
loop_
 _symmetry_equiv_pos_site_id
 _symmetry_equiv_pos_as_xyz
  1  'x, y, z'
loop_
 _atom_site_type_symbol
 _atom_site_label
 _atom_site_symmetry_multiplicity
 _atom_site_fract_x
 _atom_site_fract_y
 _atom_site_fract_z
 _atom_site_occupancy
  Cs  Cs0  1  0.52261900  0.99971500  0.73760600  1
  Cs  Cs1  1  0.02261900  0.00028500  0.26239400  1
  Nb  Nb2  1  0.53506600  0.57154300  0.49934100  1
  Nb  Nb3  1  0.03506600  0.42845700  0.50065900  1
  Nb  Nb4  1  0.46467900  0.42855200  0.00091100  1
  Nb  Nb5  1  0.96467900  0.57144800  0.99908900  1
  Nb  Nb6  1  0.82595500  0.56437100  0.50069200  1
  Nb  Nb7  1  0.32595500  0.43562900  0.49930800  1
  Nb  Nb8  1  0.17382900  0.43506000  0.99937500  1
  Nb  Nb9  1  0.67382900  0.56494000  0.00062500  1
  Ag  Ag10  1  0.50041400  0.00003100  0.24957700  1
  Ag  Ag11  1  0.00041400  0.99996900  0.75042300  1
  P  P12  1  0.68294900  0.87004600  0.39674600  1
  P  P13  1  0.18294900  0.12995400  0.60325400  1
  P  P14  1  0.31720100  0.13048600  0.10304500  1
  P  P15  1  0.81720100  0.86951400  0.89695500  1
  S  S16  1  0.68353700  0.02255600  0.28403000  1
  S  S17  1  0.18353700  0.97744400  0.71597000  1
  S  S18  1  0.31681700  0.97764600  0.21627300  1
  S  S19  1  0.81681700  0.02235400  0.78372700  1
  S  S20  1  0.97210600  0.65440300  0.59871000  1
  S  S21  1  0.47210600  0.34559700  0.40129000  1
  S  S22  1  0.02767400  0.34520600  0.90119900  1
  S  S23  1  0.52767400  0.65479400  0.09880100  1
  S  S24  1  0.67821000  0.37505300  0.56484300  1
  S  S25  1  0.17821000  0.62494700  0.43515700  1
  S  S26  1  0.32129100  0.62406900  0.93517800  1
  S  S27  1  0.82129100  0.37593100  0.06482200  1
  S  S28  1  0.88676600  0.33292000  0.40449600  1
  S  S29  1  0.38676600  0.66708000  0.59550400  1
  S  S30  1  0.11283200  0.66631900  0.09555900  1
  S  S31  1  0.61283200  0.33368100  0.90444100  1
  S  S32  1  0.91596700  0.41928300  0.63482700  1
  S  S33  1  0.41596700  0.58071700  0.36517300  1
  S  S34  1  0.08408200  0.58020800  0.86508500  1
  S  S35  1  0.58408200  0.41979200  0.13491500  1
  S  S36  1  0.68078300  0.61024200  0.37720100  1
  S  S37  1  0.18078300  0.38975800  0.62279900  1
  S  S38  1  0.31891600  0.38976600  0.12312500  1
  S  S39  1  0.81891600  0.61023400  0.87687500  1
  S  S40  1  0.55060500  0.89730700  0.47077400  1
  S  S41  1  0.05060500  0.10269300  0.52922600  1
  S  S42  1  0.44954300  0.10261100  0.02986800  1
  S  S43  1  0.94954300  0.89738900  0.97013200  1
  S  S44  1  0.81808900  0.89257600  0.46673000  1
  S  S45  1  0.31808900  0.10742400  0.53327000  1
  S  S46  1  0.18170400  0.10671200  0.03410000  1
  S  S47  1  0.68170400  0.89328800  0.96590000  1
  S  S48  1  0.68139700  0.60884700  0.61673400  1
  S  S49  1  0.18139700  0.39115300  0.38326600  1
  S  S50  1  0.31873900  0.38984400  0.88366700  1
  S  S51  1  0.81873900  0.61015600  0.11633300  1
  S  S52  1  0.94364900  0.56665100  0.36627400  1
  S  S53  1  0.44364900  0.43334900  0.63372600  1
  S  S54  1  0.05551200  0.43254100  0.13342000  1
  S  S55  1  0.55551200  0.56745900  0.86658000  1
