# generated using pymatgen
data_K2MnSO4F3
_symmetry_space_group_name_H-M   'P 1'
_cell_length_a   11.02287500
_cell_length_b   7.40239500
_cell_length_c   8.61656481
_cell_angle_alpha   87.58202573
_cell_angle_beta   90.00000000
_cell_angle_gamma   90.00000000
_symmetry_Int_Tables_number   1
_chemical_formula_structural   K2MnSO4F3
_chemical_formula_sum   'K8 Mn4 S4 O16 F12'
_cell_volume   702.44843349
_cell_formula_units_Z   4
loop_
 _symmetry_equiv_pos_site_id
 _symmetry_equiv_pos_as_xyz
  1  'x, y, z'
loop_
 _atom_site_type_symbol
 _atom_site_label
 _atom_site_symmetry_multiplicity
 _atom_site_fract_x
 _atom_site_fract_y
 _atom_site_fract_z
 _atom_site_occupancy
  K  K0  1  0.80700300  0.18368600  0.66491500  1
  K  K1  1  0.80737100  0.68771100  0.33273000  1
  K  K2  1  0.30700300  0.81631400  0.83508500  1
  K  K3  1  0.19299700  0.81631400  0.33508500  1
  K  K4  1  0.19262900  0.31228900  0.66727000  1
  K  K5  1  0.30737100  0.31228900  0.16727000  1
  K  K6  1  0.69262900  0.68771100  0.83273000  1
  K  K7  1  0.69299700  0.18368600  0.16491500  1
  Mn  Mn8  1  0.50000000  0.00000000  0.50000000  1
  Mn  Mn9  1  0.00000000  0.50000000  0.00000000  1
  Mn  Mn10  1  0.50000000  0.50000000  0.50000000  1
  Mn  Mn11  1  0.00000000  0.00000000  0.00000000  1
  S  S12  1  0.49955200  0.74768700  0.18871700  1
  S  S13  1  0.99955200  0.25231300  0.31128300  1
  S  S14  1  0.50044800  0.25231300  0.81128300  1
  S  S15  1  0.00044800  0.74768700  0.68871700  1
  O  O16  1  0.59956700  0.82854100  0.09690600  1
  O  O17  1  0.09956700  0.17145900  0.40309400  1
  O  O18  1  0.40043300  0.17145900  0.90309400  1
  O  O19  1  0.90043300  0.82854100  0.59690600  1
  O  O20  1  0.40802700  0.65882400  0.09452300  1
  O  O21  1  0.90802700  0.34117600  0.40547700  1
  O  O22  1  0.59197300  0.34117600  0.90547700  1
  O  O23  1  0.09197300  0.65882400  0.59452300  1
  O  O24  1  0.55987700  0.60604500  0.30040100  1
  O  O25  1  0.05987700  0.39395500  0.19959900  1
  O  O26  1  0.44012300  0.39395500  0.69959900  1
  O  O27  1  0.94012300  0.60604500  0.80040100  1
  O  O28  1  0.93883300  0.11410700  0.21516400  1
  O  O29  1  0.56116700  0.11410700  0.71516400  1
  O  O30  1  0.43883300  0.88589300  0.28483600  1
  O  O31  1  0.06116700  0.88589300  0.78483600  1
  F  F32  1  0.83699800  0.97693500  0.94629700  1
  F  F33  1  0.33699800  0.02306500  0.55370300  1
  F  F34  1  0.16300200  0.02306500  0.05370300  1
  F  F35  1  0.66300200  0.97693500  0.44629700  1
  F  F36  1  0.00047800  0.23717300  0.88972000  1
  F  F37  1  0.50047800  0.76282700  0.61028000  1
  F  F38  1  0.99952200  0.76282700  0.11028000  1
  F  F39  1  0.49952200  0.23717300  0.38972000  1
  F  F40  1  0.16306400  0.52281200  0.93875400  1
  F  F41  1  0.83693600  0.47718800  0.06124600  1
  F  F42  1  0.33693600  0.52281200  0.43875400  1
  F  F43  1  0.66306400  0.47718800  0.56124600  1
