# generated using pymatgen
data_YSi2Ni
_symmetry_space_group_name_H-M   'P 1'
_cell_length_a   8.48989750
_cell_length_b   8.48989750
_cell_length_c   3.95843500
_cell_angle_alpha   90.00000000
_cell_angle_beta   90.00000000
_cell_angle_gamma   152.77978653
_symmetry_Int_Tables_number   1
_chemical_formula_structural   YSi2Ni
_chemical_formula_sum   'Y2 Si4 Ni2'
_cell_volume   130.50755693
_cell_formula_units_Z   2
loop_
 _symmetry_equiv_pos_site_id
 _symmetry_equiv_pos_as_xyz
  1  'x, y, z'
loop_
 _atom_site_type_symbol
 _atom_site_label
 _atom_site_symmetry_multiplicity
 _atom_site_fract_x
 _atom_site_fract_y
 _atom_site_fract_z
 _atom_site_occupancy
  Y  Y0  1  0.60558400  0.39441600  0.75000000  1
  Y  Y1  1  0.39441600  0.60558400  0.25000000  1
  Si  Si2  1  0.95996400  0.04003600  0.75000000  1
  Si  Si3  1  0.04003600  0.95996400  0.25000000  1
  Si  Si4  1  0.24983300  0.75016700  0.75000000  1
  Si  Si5  1  0.75016700  0.24983300  0.25000000  1
  Ni  Ni6  1  0.82251900  0.17748100  0.75000000  1
  Ni  Ni7  1  0.17748100  0.82251900  0.25000000  1
