# generated using pymatgen
data_Y12Al7Si
_symmetry_space_group_name_H-M   'P 1'
_cell_length_a   11.24251813
_cell_length_b   11.24251813
_cell_length_c   11.24251813
_cell_angle_alpha   117.25707458
_cell_angle_beta   117.25707458
_cell_angle_gamma   94.82039989
_symmetry_Int_Tables_number   1
_chemical_formula_structural   Y12Al7Si
_chemical_formula_sum   'Y24 Al14 Si2'
_cell_volume   1042.45699827
_cell_formula_units_Z   2
loop_
 _symmetry_equiv_pos_site_id
 _symmetry_equiv_pos_as_xyz
  1  'x, y, z'
loop_
 _atom_site_type_symbol
 _atom_site_label
 _atom_site_symmetry_multiplicity
 _atom_site_fract_x
 _atom_site_fract_y
 _atom_site_fract_z
 _atom_site_occupancy
  Y  Y0  1  0.14679000  0.64679000  0.50000000  1
  Y  Y1  1  0.85321000  0.35321000  0.50000000  1
  Y  Y2  1  0.64679000  0.14679000  0.50000000  1
  Y  Y3  1  0.35321000  0.85321000  0.50000000  1
  Y  Y4  1  0.83785800  0.70148400  0.26557200  1
  Y  Y5  1  0.16214200  0.29851600  0.73442800  1
  Y  Y6  1  0.43591300  0.57228700  0.73442800  1
  Y  Y7  1  0.70148400  0.43591300  0.86362600  1
  Y  Y8  1  0.06408700  0.79851600  0.13637400  1
  Y  Y9  1  0.56408700  0.42771300  0.26557200  1
  Y  Y10  1  0.29851600  0.56408700  0.13637400  1
  Y  Y11  1  0.93591300  0.20148400  0.86362600  1
  Y  Y12  1  0.57228700  0.83785800  0.13637400  1
  Y  Y13  1  0.66214200  0.92771300  0.86362600  1
  Y  Y14  1  0.42771300  0.16214200  0.86362600  1
  Y  Y15  1  0.33785800  0.07228700  0.13637400  1
  Y  Y16  1  0.92771300  0.06408700  0.26557200  1
  Y  Y17  1  0.07228700  0.93591300  0.73442800  1
  Y  Y18  1  0.79851600  0.66214200  0.73442800  1
  Y  Y19  1  0.20148400  0.33785800  0.26557200  1
  Y  Y20  1  0.17047600  0.67047600  0.84095200  1
  Y  Y21  1  0.82952400  0.32952400  0.15904800  1
  Y  Y22  1  0.67047600  0.82952400  0.50000000  1
  Y  Y23  1  0.32952400  0.17047600  0.50000000  1
  Al  Al24  1  0.61819000  0.11819000  0.73638000  1
  Al  Al25  1  0.38181000  0.88181000  0.26362000  1
  Al  Al26  1  0.11819000  0.38181000  0.50000000  1
  Al  Al27  1  0.88181000  0.61819000  0.50000000  1
  Al  Al28  1  0.50000000  0.50000000  0.00000000  1
  Al  Al29  1  0.00000000  0.00000000  0.00000000  1
  Al  Al30  1  0.38158100  0.88158100  0.85689100  1
  Al  Al31  1  0.61841900  0.11841900  0.14310900  1
  Al  Al32  1  0.02469000  0.52469000  0.14310900  1
  Al  Al33  1  0.88158100  0.02469000  0.50000000  1
  Al  Al34  1  0.47531000  0.61841900  0.50000000  1
  Al  Al35  1  0.97531000  0.47531000  0.85689100  1
  Al  Al36  1  0.11841900  0.97531000  0.50000000  1
  Al  Al37  1  0.52469000  0.38158100  0.50000000  1
  Si  Si38  1  0.75000000  0.75000000  0.00000000  1
  Si  Si39  1  0.25000000  0.25000000  0.00000000  1
