# generated using pymatgen
data_Ce2Te4Cl2O11
_symmetry_space_group_name_H-M   'P 1'
_cell_length_a   8.25530000
_cell_length_b   9.90030874
_cell_length_c   10.69867107
_cell_angle_alpha   109.66706565
_cell_angle_beta   109.38732943
_cell_angle_gamma   97.58308546
_symmetry_Int_Tables_number   1
_chemical_formula_structural   Ce2Te4Cl2O11
_chemical_formula_sum   'Ce4 Te8 Cl4 O22'
_cell_volume   746.90488723
_cell_formula_units_Z   2
loop_
 _symmetry_equiv_pos_site_id
 _symmetry_equiv_pos_as_xyz
  1  'x, y, z'
loop_
 _atom_site_type_symbol
 _atom_site_label
 _atom_site_symmetry_multiplicity
 _atom_site_fract_x
 _atom_site_fract_y
 _atom_site_fract_z
 _atom_site_occupancy
  Ce  Ce0  1  0.87914900  0.61685100  0.61357200  1
  Ce  Ce1  1  0.12085100  0.38314900  0.38642800  1
  Ce  Ce2  1  0.38156300  0.11040600  0.11757500  1
  Ce  Ce3  1  0.61843700  0.88959400  0.88242500  1
  Te  Te4  1  0.99688500  0.73650500  0.00459300  1
  Te  Te5  1  0.00311500  0.26349500  0.99540700  1
  Te  Te6  1  0.74092300  0.48307000  0.19197900  1
  Te  Te7  1  0.25907700  0.51693000  0.80802100  1
  Te  Te8  1  0.80572800  0.96870900  0.26414000  1
  Te  Te9  1  0.19427200  0.03129100  0.73586000  1
  Te  Te10  1  0.46309200  0.75821200  0.45185200  1
  Te  Te11  1  0.53690800  0.24178800  0.54814800  1
  Cl  Cl12  1  0.63078600  0.39819800  0.89119000  1
  Cl  Cl13  1  0.36921400  0.60180200  0.10881000  1
  Cl  Cl14  1  0.10583000  0.87849600  0.37825800  1
  Cl  Cl15  1  0.89417000  0.12150400  0.62174200  1
  O  O16  1  0.60120100  0.99005200  0.12053300  1
  O  O17  1  0.39879900  0.00994800  0.87946700  1
  O  O18  1  0.66350200  0.68093900  0.47401400  1
  O  O19  1  0.33649800  0.31906100  0.52598600  1
  O  O20  1  0.48438500  0.14478700  0.34745500  1
  O  O21  1  0.51561500  0.85521300  0.65254500  1
  O  O22  1  0.88562000  0.50753600  0.38819300  1
  O  O23  1  0.11438000  0.49246400  0.61180700  1
  O  O24  1  0.83485100  0.85778700  0.08773700  1
  O  O25  1  0.16514900  0.14221300  0.91226300  1
  O  O26  1  0.92536300  0.39035700  0.15704200  1
  O  O27  1  0.07463700  0.60964300  0.84295800  1
  O  O28  1  0.17382600  0.25904800  0.16722400  1
  O  O29  1  0.82617400  0.74095200  0.83277600  1
  O  O30  1  0.94400300  0.15967600  0.31835800  1
  O  O31  1  0.05599700  0.84032400  0.68164200  1
  O  O32  1  0.70305100  0.41570700  0.58659600  1
  O  O33  1  0.29694900  0.58429300  0.41340400  1
  O  O34  1  0.56701300  0.31911100  0.15762300  1
  O  O35  1  0.43298700  0.68088900  0.84237700  1
  O  O36  1  0.17477200  0.90890700  0.06073200  1
  O  O37  1  0.82522800  0.09109300  0.93926800  1
