# generated using pymatgen
data_NpH6Cl2O13
_symmetry_space_group_name_H-M   'P 1'
_cell_length_a   5.75931737
_cell_length_b   10.81826732
_cell_length_c   18.35887100
_cell_angle_alpha   90.00000000
_cell_angle_beta   90.00000000
_cell_angle_gamma   91.57967361
_symmetry_Int_Tables_number   1
_chemical_formula_structural   NpH6Cl2O13
_chemical_formula_sum   'Np4 H24 Cl8 O52'
_cell_volume   1143.43006814
_cell_formula_units_Z   4
loop_
 _symmetry_equiv_pos_site_id
 _symmetry_equiv_pos_as_xyz
  1  'x, y, z'
loop_
 _atom_site_type_symbol
 _atom_site_label
 _atom_site_symmetry_multiplicity
 _atom_site_fract_x
 _atom_site_fract_y
 _atom_site_fract_z
 _atom_site_occupancy
  Np  Np0  1  0.47353900  0.80863600  0.85810100  1
  Np  Np1  1  0.52646100  0.69136400  0.35810100  1
  Np  Np2  1  0.52646100  0.19136400  0.14189900  1
  Np  Np3  1  0.47353900  0.30863600  0.64189900  1
  H  H4  1  0.14389000  0.61733400  0.78451900  1
  H  H5  1  0.85611000  0.88266600  0.28451900  1
  H  H6  1  0.85611000  0.38266600  0.21548100  1
  H  H7  1  0.14389000  0.11733400  0.71548100  1
  H  H8  1  0.19595700  0.71434700  0.72231200  1
  H  H9  1  0.80404300  0.78565300  0.22231200  1
  H  H10  1  0.80404300  0.28565300  0.27768800  1
  H  H11  1  0.19595700  0.21434700  0.77768800  1
  H  H12  1  0.83288700  0.00633100  0.91286700  1
  H  H13  1  0.16711300  0.49366900  0.41286700  1
  H  H14  1  0.16711300  0.99366900  0.08713300  1
  H  H15  1  0.83288700  0.50633100  0.58713300  1
  H  H16  1  0.64497900  0.08209800  0.87092800  1
  H  H17  1  0.35502100  0.41790200  0.37092800  1
  H  H18  1  0.35502100  0.91790200  0.12907200  1
  H  H19  1  0.64497900  0.58209800  0.62907200  1
  H  H20  1  0.33948300  0.54833700  0.91895600  1
  H  H21  1  0.66051700  0.95166300  0.41895600  1
  H  H22  1  0.66051700  0.45166300  0.08104400  1
  H  H23  1  0.33948300  0.04833700  0.58104400  1
  H  H24  1  0.13606100  0.63224500  0.94660000  1
  H  H25  1  0.86393900  0.86775500  0.44660000  1
  H  H26  1  0.86393900  0.36775500  0.05340000  1
  H  H27  1  0.13606100  0.13224500  0.55340000  1
  Cl  Cl28  1  0.76503500  0.77699000  0.03152600  1
  Cl  Cl29  1  0.23496500  0.72301000  0.53152600  1
  Cl  Cl30  1  0.23496500  0.22301000  0.96847400  1
  Cl  Cl31  1  0.76503500  0.27699000  0.46847400  1
  Cl  Cl32  1  0.73778300  0.88505500  0.68657400  1
  Cl  Cl33  1  0.26221700  0.61494500  0.18657400  1
  Cl  Cl34  1  0.26221700  0.11494500  0.31342600  1
  Cl  Cl35  1  0.73778300  0.38505500  0.81342600  1
  O  O36  1  0.72762500  0.72245400  0.84735000  1
  O  O37  1  0.27237500  0.77754600  0.34735000  1
  O  O38  1  0.27237500  0.27754600  0.15265000  1
  O  O39  1  0.72762500  0.22245400  0.65265000  1
  O  O40  1  0.22225300  0.89726900  0.87001900  1
  O  O41  1  0.77774700  0.60273100  0.37001900  1
  O  O42  1  0.77774700  0.10273100  0.12998100  1
  O  O43  1  0.22225300  0.39726900  0.62998100  1
  O  O44  1  0.55701800  0.81255500  0.98709400  1
  O  O45  1  0.44298200  0.68744500  0.48709400  1
  O  O46  1  0.44298200  0.18744500  0.01290600  1
  O  O47  1  0.55701800  0.31255500  0.51290600  1
  O  O48  1  0.95722900  0.85968000  0.01232000  1
  O  O49  1  0.04277100  0.64032000  0.51232000  1
  O  O50  1  0.04277100  0.14032000  0.98768000  1
  O  O51  1  0.95722900  0.35968000  0.48768000  1
  O  O52  1  0.82108400  0.64977900  0.01490600  1
  O  O53  1  0.17891600  0.85022100  0.51490600  1
  O  O54  1  0.17891600  0.35022100  0.98509400  1
  O  O55  1  0.82108400  0.14977900  0.48509400  1
  O  O56  1  0.69834100  0.79105400  0.10682000  1
  O  O57  1  0.30165900  0.70894600  0.60682000  1
  O  O58  1  0.30165900  0.20894600  0.89318000  1
  O  O59  1  0.69834100  0.29105400  0.39318000  1
  O  O60  1  0.54287800  0.89532400  0.74268200  1
  O  O61  1  0.45712200  0.60467600  0.24268200  1
  O  O62  1  0.45712200  0.10467600  0.25731800  1
  O  O63  1  0.54287800  0.39532400  0.75731800  1
  O  O64  1  0.93734300  0.95289700  0.71453800  1
  O  O65  1  0.06265700  0.54710300  0.21453800  1
  O  O66  1  0.06265700  0.04710300  0.28546200  1
  O  O67  1  0.93734300  0.45289700  0.78546200  1
  O  O68  1  0.65133300  0.93765000  0.62020500  1
  O  O69  1  0.34866700  0.56235000  0.12020500  1
  O  O70  1  0.34866700  0.06235000  0.37979500  1
  O  O71  1  0.65133300  0.43765000  0.87979500  1
  O  O72  1  0.78788700  0.75540700  0.67811200  1
  O  O73  1  0.21211300  0.74459300  0.17811200  1
  O  O74  1  0.21211300  0.24459300  0.32188800  1
  O  O75  1  0.78788700  0.25540700  0.82188800  1
  O  O76  1  0.25678300  0.67990800  0.76732200  1
  O  O77  1  0.74321700  0.82009200  0.26732200  1
  O  O78  1  0.74321700  0.32009200  0.23267800  1
  O  O79  1  0.25678300  0.17990800  0.73267800  1
  O  O80  1  0.69461700  0.99870900  0.88228400  1
  O  O81  1  0.30538300  0.50129100  0.38228400  1
  O  O82  1  0.30538300  0.00129100  0.11771600  1
  O  O83  1  0.69461700  0.49870900  0.61771600  1
  O  O84  1  0.26623800  0.62784900  0.91252600  1
  O  O85  1  0.73376200  0.87215100  0.41252600  1
  O  O86  1  0.73376200  0.37215100  0.08747400  1
  O  O87  1  0.26623800  0.12784900  0.58747400  1
