# generated using pymatgen
data_Hf4CN3
_symmetry_space_group_name_H-M   'P 1'
_cell_length_a   10.70345064
_cell_length_b   10.70345064
_cell_length_c   10.70345067
_cell_angle_alpha   17.37248804
_cell_angle_beta   17.37248804
_cell_angle_gamma   17.37248280
_symmetry_Int_Tables_number   1
_chemical_formula_structural   Hf4CN3
_chemical_formula_sum   'Hf4 C1 N3'
_cell_volume   95.39922977
_cell_formula_units_Z   1
loop_
 _symmetry_equiv_pos_site_id
 _symmetry_equiv_pos_as_xyz
  1  'x, y, z'
loop_
 _atom_site_type_symbol
 _atom_site_label
 _atom_site_symmetry_multiplicity
 _atom_site_fract_x
 _atom_site_fract_y
 _atom_site_fract_z
 _atom_site_occupancy
  Hf  Hf0  1  0.87425000  0.87425000  0.87425000  1
  Hf  Hf1  1  0.12575000  0.12575000  0.12575000  1
  Hf  Hf2  1  0.37445800  0.37445800  0.37445800  1
  Hf  Hf3  1  0.62554200  0.62554200  0.62554200  1
  C  C4  1  0.00000000  0.00000000  0.00000000  1
  N  N5  1  0.24853500  0.24853500  0.24853500  1
  N  N6  1  0.50000000  0.50000000  0.50000000  1
  N  N7  1  0.75146500  0.75146500  0.75146500  1
