# generated using pymatgen
data_Ti2ZnN
_symmetry_space_group_name_H-M   'P 1'
_cell_length_a   8.35318742
_cell_length_b   8.35318742
_cell_length_c   4.19393400
_cell_angle_alpha   90.00000000
_cell_angle_beta   90.00000000
_cell_angle_gamma   159.40183230
_symmetry_Int_Tables_number   1
_chemical_formula_structural   Ti2ZnN
_chemical_formula_sum   'Ti4 Zn2 N2'
_cell_volume   102.95236746
_cell_formula_units_Z   2
loop_
 _symmetry_equiv_pos_site_id
 _symmetry_equiv_pos_as_xyz
  1  'x, y, z'
loop_
 _atom_site_type_symbol
 _atom_site_label
 _atom_site_symmetry_multiplicity
 _atom_site_fract_x
 _atom_site_fract_y
 _atom_site_fract_z
 _atom_site_occupancy
  Ti  Ti0  1  0.78832100  0.21167900  0.25000000  1
  Ti  Ti1  1  0.21167900  0.78832100  0.75000000  1
  Ti  Ti2  1  0.61290300  0.38709700  0.25000000  1
  Ti  Ti3  1  0.38709700  0.61290300  0.75000000  1
  Zn  Zn4  1  0.95868100  0.04131900  0.25000000  1
  Zn  Zn5  1  0.04131900  0.95868100  0.75000000  1
  N  N6  1  0.20000800  0.79999200  0.25000000  1
  N  N7  1  0.79999200  0.20000800  0.75000000  1
