# generated using pymatgen
data_Y5(Ge5Os2)2
_symmetry_space_group_name_H-M   'P 1'
_cell_length_a   13.20418900
_cell_length_b   13.20418900
_cell_length_c   4.28804600
_cell_angle_alpha   90.00000000
_cell_angle_beta   90.00000000
_cell_angle_gamma   90.00000000
_symmetry_Int_Tables_number   1
_chemical_formula_structural   Y5(Ge5Os2)2
_chemical_formula_sum   'Y10 Ge20 Os8'
_cell_volume   747.62342358
_cell_formula_units_Z   2
loop_
 _symmetry_equiv_pos_site_id
 _symmetry_equiv_pos_as_xyz
  1  'x, y, z'
loop_
 _atom_site_type_symbol
 _atom_site_label
 _atom_site_symmetry_multiplicity
 _atom_site_fract_x
 _atom_site_fract_y
 _atom_site_fract_z
 _atom_site_occupancy
  Y  Y0  1  0.50000000  0.50000000  0.00000000  1
  Y  Y1  1  0.00000000  0.00000000  0.00000000  1
  Y  Y2  1  0.67203600  0.17203600  0.50000000  1
  Y  Y3  1  0.32796400  0.82796400  0.50000000  1
  Y  Y4  1  0.17203600  0.32796400  0.50000000  1
  Y  Y5  1  0.82796400  0.67203600  0.50000000  1
  Y  Y6  1  0.88330100  0.38330100  0.50000000  1
  Y  Y7  1  0.11669900  0.61669900  0.50000000  1
  Y  Y8  1  0.38330100  0.11669900  0.50000000  1
  Y  Y9  1  0.61669900  0.88330100  0.50000000  1
  Ge  Ge10  1  0.56748700  0.06748700  0.00000000  1
  Ge  Ge11  1  0.43251300  0.93251300  0.00000000  1
  Ge  Ge12  1  0.06748700  0.43251300  0.00000000  1
  Ge  Ge13  1  0.93251300  0.56748700  0.00000000  1
  Ge  Ge14  1  0.66350200  0.69772300  0.00000000  1
  Ge  Ge15  1  0.33649800  0.30227700  0.00000000  1
  Ge  Ge16  1  0.16350200  0.80227700  0.00000000  1
  Ge  Ge17  1  0.83649800  0.19772300  0.00000000  1
  Ge  Ge18  1  0.30227700  0.66350200  0.00000000  1
  Ge  Ge19  1  0.69772300  0.33649800  0.00000000  1
  Ge  Ge20  1  0.19772300  0.16350200  0.00000000  1
  Ge  Ge21  1  0.80227700  0.83649800  0.00000000  1
  Ge  Ge22  1  0.65831700  0.50799700  0.50000000  1
  Ge  Ge23  1  0.34168300  0.49200300  0.50000000  1
  Ge  Ge24  1  0.15831700  0.99200300  0.50000000  1
  Ge  Ge25  1  0.84168300  0.00799700  0.50000000  1
  Ge  Ge26  1  0.49200300  0.65831700  0.50000000  1
  Ge  Ge27  1  0.50799700  0.34168300  0.50000000  1
  Ge  Ge28  1  0.00799700  0.15831700  0.50000000  1
  Ge  Ge29  1  0.99200300  0.84168300  0.50000000  1
  Os  Os30  1  0.74735100  0.51834100  0.00000000  1
  Os  Os31  1  0.25264900  0.48165900  0.00000000  1
  Os  Os32  1  0.24735100  0.98165900  0.00000000  1
  Os  Os33  1  0.75264900  0.01834100  0.00000000  1
  Os  Os34  1  0.48165900  0.74735100  0.00000000  1
  Os  Os35  1  0.51834100  0.25264900  0.00000000  1
  Os  Os36  1  0.01834100  0.24735100  0.00000000  1
  Os  Os37  1  0.98165900  0.75264900  0.00000000  1
