# generated using pymatgen
data_SmCrGeO5
_symmetry_space_group_name_H-M   'P 1'
_cell_length_a   5.84069800
_cell_length_b   7.51603000
_cell_length_c   8.58035200
_cell_angle_alpha   90.00000000
_cell_angle_beta   90.00000000
_cell_angle_gamma   90.00000000
_symmetry_Int_Tables_number   1
_chemical_formula_structural   SmCrGeO5
_chemical_formula_sum   'Sm4 Cr4 Ge4 O20'
_cell_volume   376.66768312
_cell_formula_units_Z   4
loop_
 _symmetry_equiv_pos_site_id
 _symmetry_equiv_pos_as_xyz
  1  'x, y, z'
loop_
 _atom_site_type_symbol
 _atom_site_label
 _atom_site_symmetry_multiplicity
 _atom_site_fract_x
 _atom_site_fract_y
 _atom_site_fract_z
 _atom_site_occupancy
  Sm  Sm0  1  0.50000000  0.35934200  0.32591700  1
  Sm  Sm1  1  0.50000000  0.64065800  0.67408300  1
  Sm  Sm2  1  0.50000000  0.14065800  0.82591700  1
  Sm  Sm3  1  0.50000000  0.85934200  0.17408300  1
  Cr  Cr4  1  0.24816900  0.00000000  0.50000000  1
  Cr  Cr5  1  0.75183100  0.00000000  0.50000000  1
  Cr  Cr6  1  0.75183100  0.50000000  0.00000000  1
  Cr  Cr7  1  0.24816900  0.50000000  0.00000000  1
  Ge  Ge8  1  0.00000000  0.11640200  0.14352400  1
  Ge  Ge9  1  0.00000000  0.88359800  0.85647600  1
  Ge  Ge10  1  0.00000000  0.38359800  0.64352400  1
  Ge  Ge11  1  0.00000000  0.61640200  0.35647600  1
  O  O12  1  0.24588600  0.10724600  0.28192500  1
  O  O13  1  0.75411400  0.89275400  0.71807500  1
  O  O14  1  0.24588600  0.89275400  0.71807500  1
  O  O15  1  0.75411400  0.39275400  0.78192500  1
  O  O16  1  0.75411400  0.10724600  0.28192500  1
  O  O17  1  0.24588600  0.60724600  0.21807500  1
  O  O18  1  0.75411400  0.60724600  0.21807500  1
  O  O19  1  0.24588600  0.39275400  0.78192500  1
  O  O20  1  0.00000000  0.34060400  0.07862500  1
  O  O21  1  0.00000000  0.65939600  0.92137500  1
  O  O22  1  0.00000000  0.15939600  0.57862500  1
  O  O23  1  0.00000000  0.84060400  0.42137500  1
  O  O24  1  0.50000000  0.33406400  0.05428000  1
  O  O25  1  0.50000000  0.66593600  0.94572000  1
  O  O26  1  0.50000000  0.16593600  0.55428000  1
  O  O27  1  0.50000000  0.83406400  0.44572000  1
  O  O28  1  0.20886300  0.00000000  0.00000000  1
  O  O29  1  0.79113700  0.00000000  0.00000000  1
  O  O30  1  0.79113700  0.50000000  0.50000000  1
  O  O31  1  0.20886300  0.50000000  0.50000000  1
