# generated using pymatgen
data_Ca3Cd2
_symmetry_space_group_name_H-M   'P 1'
_cell_length_a   8.90399500
_cell_length_b   8.90399500
_cell_length_c   7.98471600
_cell_angle_alpha   90.00000000
_cell_angle_beta   90.00000000
_cell_angle_gamma   90.00000000
_symmetry_Int_Tables_number   1
_chemical_formula_structural   Ca3Cd2
_chemical_formula_sum   'Ca12 Cd8'
_cell_volume   633.03728294
_cell_formula_units_Z   4
loop_
 _symmetry_equiv_pos_site_id
 _symmetry_equiv_pos_as_xyz
  1  'x, y, z'
loop_
 _atom_site_type_symbol
 _atom_site_label
 _atom_site_symmetry_multiplicity
 _atom_site_fract_x
 _atom_site_fract_y
 _atom_site_fract_z
 _atom_site_occupancy
  Ca  Ca0  1  0.14608100  0.14608100  0.00000000  1
  Ca  Ca1  1  0.64608100  0.35391900  0.50000000  1
  Ca  Ca2  1  0.35391900  0.64608100  0.50000000  1
  Ca  Ca3  1  0.85391900  0.85391900  0.00000000  1
  Ca  Ca4  1  0.19713200  0.19713200  0.50000000  1
  Ca  Ca5  1  0.69713200  0.30286800  0.00000000  1
  Ca  Ca6  1  0.30286800  0.69713200  0.00000000  1
  Ca  Ca7  1  0.80286800  0.80286800  0.50000000  1
  Ca  Ca8  1  0.50000000  0.00000000  0.25000000  1
  Ca  Ca9  1  0.50000000  0.00000000  0.75000000  1
  Ca  Ca10  1  0.00000000  0.50000000  0.75000000  1
  Ca  Ca11  1  0.00000000  0.50000000  0.25000000  1
  Cd  Cd12  1  0.37531200  0.37531200  0.80203500  1
  Cd  Cd13  1  0.87531200  0.12468800  0.30203500  1
  Cd  Cd14  1  0.12468800  0.87531200  0.30203500  1
  Cd  Cd15  1  0.62468800  0.62468800  0.80203500  1
  Cd  Cd16  1  0.37531200  0.37531200  0.19796500  1
  Cd  Cd17  1  0.87531200  0.12468800  0.69796500  1
  Cd  Cd18  1  0.12468800  0.87531200  0.69796500  1
  Cd  Cd19  1  0.62468800  0.62468800  0.19796500  1
