# generated using pymatgen
data_Tb5IrBr9
_symmetry_space_group_name_H-M   'P 1'
_cell_length_a   13.05637088
_cell_length_b   13.05637088
_cell_length_c   24.94483758
_cell_angle_alpha   105.17124812
_cell_angle_beta   105.17124812
_cell_angle_gamma   90.00000000
_symmetry_Int_Tables_number   1
_chemical_formula_structural   Tb5IrBr9
_chemical_formula_sum   'Tb40 Ir8 Br72'
_cell_volume   3950.35699877
_cell_formula_units_Z   8
loop_
 _symmetry_equiv_pos_site_id
 _symmetry_equiv_pos_as_xyz
  1  'x, y, z'
loop_
 _atom_site_type_symbol
 _atom_site_label
 _atom_site_symmetry_multiplicity
 _atom_site_fract_x
 _atom_site_fract_y
 _atom_site_fract_z
 _atom_site_occupancy
  Tb  Tb0  1  0.35278286  0.50682033  0.42188053  1
  Tb  Tb1  1  0.06909767  0.41506020  0.42188053  1
  Tb  Tb2  1  0.00682033  0.56909767  0.92188053  1
  Tb  Tb3  1  0.91506020  0.85278286  0.92188053  1
  Tb  Tb4  1  0.64721714  0.49317967  0.57811947  1
  Tb  Tb5  1  0.93090233  0.58493980  0.57811947  1
  Tb  Tb6  1  0.99317967  0.43090233  0.07811947  1
  Tb  Tb7  1  0.08493980  0.14721714  0.07811947  1
  Tb  Tb8  1  0.47733642  0.35913747  0.31079973  1
  Tb  Tb9  1  0.83346332  0.45166227  0.31079973  1
  Tb  Tb10  1  0.85913747  0.33346332  0.81079973  1
  Tb  Tb11  1  0.95166227  0.97733642  0.81079973  1
  Tb  Tb12  1  0.52266358  0.64086253  0.68920027  1
  Tb  Tb13  1  0.16653668  0.54833773  0.68920027  1
  Tb  Tb14  1  0.14086253  0.66653668  0.18920027  1
  Tb  Tb15  1  0.04833773  0.02266358  0.18920027  1
  Tb  Tb16  1  0.39054457  0.62808862  0.30748846  1
  Tb  Tb17  1  0.91694389  0.17939984  0.30748846  1
  Tb  Tb18  1  0.12808862  0.41694389  0.80748846  1
  Tb  Tb19  1  0.67939984  0.89054457  0.80748846  1
  Tb  Tb20  1  0.60945543  0.37191138  0.69251154  1
  Tb  Tb21  1  0.08305611  0.82060016  0.69251154  1
  Tb  Tb22  1  0.87191138  0.58305611  0.19251154  1
  Tb  Tb23  1  0.32060016  0.10945543  0.19251154  1
  Tb  Tb24  1  0.10813990  0.57017055  0.31729874  1
  Tb  Tb25  1  0.20915884  0.24712819  0.31729874  1
  Tb  Tb26  1  0.07017055  0.70915884  0.81729874  1
  Tb  Tb27  1  0.74712819  0.60813990  0.81729874  1
  Tb  Tb28  1  0.89186010  0.42982945  0.68270126  1
  Tb  Tb29  1  0.79084116  0.75287181  0.68270126  1
  Tb  Tb30  1  0.92982945  0.29084116  0.18270126  1
  Tb  Tb31  1  0.25287181  0.39186010  0.18270126  1
  Tb  Tb32  1  0.56423583  0.91725312  0.43255451  1
  Tb  Tb33  1  0.86831869  0.01530139  0.43255451  1
  Tb  Tb34  1  0.41725312  0.36831869  0.93255451  1
  Tb  Tb35  1  0.51530139  0.06423583  0.93255451  1
  Tb  Tb36  1  0.43576417  0.08274688  0.56744549  1
  Tb  Tb37  1  0.13168131  0.98469861  0.56744549  1
  Tb  Tb38  1  0.58274688  0.63168131  0.06744549  1
  Tb  Tb39  1  0.48469861  0.93576417  0.06744549  1
  Ir  Ir40  1  0.28367590  0.44334165  0.30455498  1
  Ir  Ir41  1  0.02087908  0.36121333  0.30455498  1
  Ir  Ir42  1  0.94334165  0.52087908  0.80455498  1
  Ir  Ir43  1  0.86121333  0.78367590  0.80455498  1
  Ir  Ir44  1  0.71632410  0.55665835  0.69544502  1
  Ir  Ir45  1  0.97912092  0.63878667  0.69544502  1
  Ir  Ir46  1  0.05665835  0.47912092  0.19544502  1
  Ir  Ir47  1  0.13878667  0.21632410  0.19544502  1
  Br  Br48  1  0.27257001  0.32528899  0.45073941  1
  Br  Br49  1  0.17816940  0.62545043  0.45073941  1
  Br  Br50  1  0.82528899  0.67816940  0.95073941  1
  Br  Br51  1  0.12545043  0.77257001  0.95073941  1
  Br  Br52  1  0.72742999  0.67471101  0.54926059  1
  Br  Br53  1  0.82183060  0.37454957  0.54926059  1
  Br  Br54  1  0.17471101  0.32183060  0.04926059  1
  Br  Br55  1  0.87454957  0.22742999  0.04926059  1
  Br  Br56  1  0.45914489  0.28119150  0.18757555  1
  Br  Br57  1  0.72843066  0.40638405  0.18757555  1
  Br  Br58  1  0.78119150  0.22843066  0.68757555  1
  Br  Br59  1  0.90638405  0.95914489  0.68757555  1
  Br  Br60  1  0.54085511  0.71880850  0.81242445  1
  Br  Br61  1  0.27156934  0.59361595  0.81242445  1
  Br  Br62  1  0.21880850  0.77156934  0.31242445  1
  Br  Br63  1  0.09361595  0.04085511  0.31242445  1
  Br  Br64  1  0.35454065  0.60760117  0.18508489  1
  Br  Br65  1  0.83054424  0.07748372  0.18508489  1
  Br  Br66  1  0.10760117  0.33054424  0.68508489  1
  Br  Br67  1  0.57748372  0.85454065  0.68508489  1
  Br  Br68  1  0.64545935  0.39239883  0.81491511  1
  Br  Br69  1  0.16945576  0.92251628  0.81491511  1
  Br  Br70  1  0.89239883  0.66945576  0.31491511  1
  Br  Br71  1  0.42251628  0.14545935  0.31491511  1
  Br  Br72  1  0.55389592  0.41490575  0.43740823  1
  Br  Br73  1  0.88351232  0.52250249  0.43740823  1
  Br  Br74  1  0.91490575  0.38351232  0.93740823  1
  Br  Br75  1  0.02250249  0.05389592  0.93740823  1
  Br  Br76  1  0.44610408  0.58509425  0.56259177  1
  Br  Br77  1  0.11648768  0.47749751  0.56259177  1
  Br  Br78  1  0.08509425  0.61648768  0.06259177  1
  Br  Br79  1  0.97749751  0.94610408  0.06259177  1
  Br  Br80  1  0.60086275  0.54383132  0.31509190  1
  Br  Br81  1  0.71422914  0.27126058  0.31509190  1
  Br  Br82  1  0.04383132  0.21422914  0.81509190  1
  Br  Br83  1  0.77126058  0.10086275  0.81509190  1
  Br  Br84  1  0.39913725  0.45616868  0.68490810  1
  Br  Br85  1  0.28577086  0.72873942  0.68490810  1
  Br  Br86  1  0.95616868  0.78577086  0.18490810  1
  Br  Br87  1  0.22873942  0.89913725  0.18490810  1
  Br  Br88  1  0.46244831  0.71593382  0.43340257  1
  Br  Br89  1  0.97095426  0.21746875  0.43340257  1
  Br  Br90  1  0.21593382  0.47095426  0.93340257  1
  Br  Br91  1  0.71746875  0.96244831  0.93340257  1
  Br  Br92  1  0.53755169  0.28406618  0.56659743  1
  Br  Br93  1  0.02904574  0.78253125  0.56659743  1
  Br  Br94  1  0.78406618  0.52904574  0.06659743  1
  Br  Br95  1  0.28253125  0.03755169  0.06659743  1
  Br  Br96  1  0.50484775  0.83624345  0.31543193  1
  Br  Br97  1  0.81058418  0.97918848  0.31543193  1
  Br  Br98  1  0.33624345  0.31058418  0.81543193  1
  Br  Br99  1  0.47918848  0.00484775  0.81543193  1
  Br  Br100  1  0.49515225  0.16375655  0.68456807  1
  Br  Br101  1  0.18941582  0.02081152  0.68456807  1
  Br  Br102  1  0.66375655  0.68941582  0.18456807  1
  Br  Br103  1  0.52081152  0.99515225  0.18456807  1
  Br  Br104  1  0.67348321  0.10668471  0.43837163  1
  Br  Br105  1  0.76488842  0.83168693  0.43837163  1
  Br  Br106  1  0.60668471  0.26488842  0.93837163  1
  Br  Br107  1  0.33168693  0.17348321  0.93837163  1
  Br  Br108  1  0.32651679  0.89331529  0.56162837  1
  Br  Br109  1  0.23511158  0.16831307  0.56162837  1
  Br  Br110  1  0.39331529  0.73511158  0.06162837  1
  Br  Br111  1  0.66831307  0.82651679  0.06162837  1
  Br  Br112  1  0.38297660  0.02810306  0.44369973  1
  Br  Br113  1  0.06072313  0.91559667  0.44369973  1
  Br  Br114  1  0.52810306  0.56072313  0.94369973  1
  Br  Br115  1  0.41559667  0.88297660  0.94369973  1
  Br  Br116  1  0.61702340  0.97189694  0.55630027  1
  Br  Br117  1  0.93927687  0.08440333  0.55630027  1
  Br  Br118  1  0.47189694  0.43927687  0.05630027  1
  Br  Br119  1  0.58440333  0.11702340  0.05630027  1
