# generated using pymatgen
data_KDyO2
_symmetry_space_group_name_H-M   'P 1'
_cell_length_a   6.58083667
_cell_length_b   6.58083667
_cell_length_c   6.58083664
_cell_angle_alpha   30.67597754
_cell_angle_beta   30.67597754
_cell_angle_gamma   30.67598292
_symmetry_Int_Tables_number   1
_chemical_formula_structural   KDyO2
_chemical_formula_sum   'K1 Dy1 O2'
_cell_volume   65.77500328
_cell_formula_units_Z   1
loop_
 _symmetry_equiv_pos_site_id
 _symmetry_equiv_pos_as_xyz
  1  'x, y, z'
loop_
 _atom_site_type_symbol
 _atom_site_label
 _atom_site_symmetry_multiplicity
 _atom_site_fract_x
 _atom_site_fract_y
 _atom_site_fract_z
 _atom_site_occupancy
  K  K0  1  0.00000000  0.00000000  0.00000000  1
  Dy  Dy1  1  0.50000000  0.50000000  0.50000000  1
  O  O2  1  0.22842700  0.22842700  0.22842700  1
  O  O3  1  0.77157300  0.77157300  0.77157300  1
