# generated using pymatgen
data_LaCrS3
_symmetry_space_group_name_H-M   'P 1'
_cell_length_a   3.82887000
_cell_length_b   7.88366300
_cell_length_c   13.14069500
_cell_angle_alpha   90.00000000
_cell_angle_beta   90.00000000
_cell_angle_gamma   90.00000000
_symmetry_Int_Tables_number   1
_chemical_formula_structural   LaCrS3
_chemical_formula_sum   'La4 Cr4 S12'
_cell_volume   396.65872160
_cell_formula_units_Z   4
loop_
 _symmetry_equiv_pos_site_id
 _symmetry_equiv_pos_as_xyz
  1  'x, y, z'
loop_
 _atom_site_type_symbol
 _atom_site_label
 _atom_site_symmetry_multiplicity
 _atom_site_fract_x
 _atom_site_fract_y
 _atom_site_fract_z
 _atom_site_occupancy
  La  La0  1  0.25000000  0.08690600  0.82849700  1
  La  La1  1  0.75000000  0.91309400  0.17150300  1
  La  La2  1  0.25000000  0.58690600  0.67150300  1
  La  La3  1  0.75000000  0.41309400  0.32849700  1
  Cr  Cr4  1  0.25000000  0.33842700  0.05247100  1
  Cr  Cr5  1  0.75000000  0.66157300  0.94752900  1
  Cr  Cr6  1  0.25000000  0.83842700  0.44752900  1
  Cr  Cr7  1  0.75000000  0.16157300  0.55247100  1
  S  S8  1  0.25000000  0.48881200  0.89570100  1
  S  S9  1  0.75000000  0.51118800  0.10429900  1
  S  S10  1  0.25000000  0.98881200  0.60429900  1
  S  S11  1  0.75000000  0.01118800  0.39570100  1
  S  S12  1  0.25000000  0.33664400  0.49464000  1
  S  S13  1  0.75000000  0.66335600  0.50536000  1
  S  S14  1  0.25000000  0.83664400  0.00536000  1
  S  S15  1  0.75000000  0.16335600  0.99464000  1
  S  S16  1  0.75000000  0.30424800  0.71294500  1
  S  S17  1  0.25000000  0.69575200  0.28705500  1
  S  S18  1  0.75000000  0.80424800  0.78705500  1
  S  S19  1  0.25000000  0.19575200  0.21294500  1
