# generated using pymatgen
data_K10Tl7
_symmetry_space_group_name_H-M   'P 1'
_cell_length_a   22.95723600
_cell_length_b   10.22298700
_cell_length_c   13.64435853
_cell_angle_alpha   86.82638099
_cell_angle_beta   90.00000000
_cell_angle_gamma   90.00000000
_symmetry_Int_Tables_number   1
_chemical_formula_structural   K10Tl7
_chemical_formula_sum   'K40 Tl28'
_cell_volume   3197.30426901
_cell_formula_units_Z   4
loop_
 _symmetry_equiv_pos_site_id
 _symmetry_equiv_pos_as_xyz
  1  'x, y, z'
loop_
 _atom_site_type_symbol
 _atom_site_label
 _atom_site_symmetry_multiplicity
 _atom_site_fract_x
 _atom_site_fract_y
 _atom_site_fract_z
 _atom_site_occupancy
  K  K0  1  0.97773000  0.95164500  0.26664500  1
  K  K1  1  0.02227000  0.04835500  0.73335500  1
  K  K2  1  0.47773000  0.04835500  0.23335500  1
  K  K3  1  0.52227000  0.95164500  0.76664500  1
  K  K4  1  0.23001500  0.69618400  0.50363200  1
  K  K5  1  0.76998500  0.30381600  0.49636800  1
  K  K6  1  0.73001500  0.30381600  0.99636800  1
  K  K7  1  0.26998500  0.69618400  0.00363200  1
  K  K8  1  0.71639700  0.67792100  0.55799000  1
  K  K9  1  0.28360300  0.32207900  0.44201000  1
  K  K10  1  0.21639700  0.32207900  0.94201000  1
  K  K11  1  0.78360300  0.67792100  0.05799000  1
  K  K12  1  0.14496800  0.35970300  0.64606000  1
  K  K13  1  0.85503200  0.64029700  0.35394000  1
  K  K14  1  0.64496800  0.64029700  0.85394000  1
  K  K15  1  0.35503200  0.35970300  0.14606000  1
  K  K16  1  0.37750500  0.98694200  0.58155700  1
  K  K17  1  0.62249500  0.01305800  0.41844300  1
  K  K18  1  0.87750500  0.01305800  0.91844300  1
  K  K19  1  0.12249500  0.98694200  0.08155700  1
  K  K20  1  0.02993400  0.68667500  0.52847900  1
  K  K21  1  0.97006600  0.31332500  0.47152100  1
  K  K22  1  0.52993400  0.31332500  0.97152100  1
  K  K23  1  0.47006600  0.68667500  0.02847900  1
  K  K24  1  0.10629300  0.66089000  0.83315800  1
  K  K25  1  0.89370700  0.33911000  0.16684200  1
  K  K26  1  0.60629300  0.33911000  0.66684200  1
  K  K27  1  0.39370700  0.66089000  0.33315800  1
  K  K28  1  0.22778300  0.96084900  0.74369300  1
  K  K29  1  0.77221700  0.03915100  0.25630700  1
  K  K30  1  0.72778300  0.03915100  0.75630700  1
  K  K31  1  0.27221700  0.96084900  0.24369300  1
  K  K32  1  0.97489000  0.68672000  0.03309700  1
  K  K33  1  0.02511000  0.31328000  0.96690300  1
  K  K34  1  0.47489000  0.31328000  0.46690300  1
  K  K35  1  0.52511000  0.68672000  0.53309700  1
  K  K36  1  0.87139600  0.92851500  0.58660900  1
  K  K37  1  0.12860400  0.07148500  0.41339100  1
  K  K38  1  0.37139600  0.07148500  0.91339100  1
  K  K39  1  0.62860400  0.92851500  0.08660900  1
  Tl  Tl40  1  0.25813200  0.58194600  0.75337100  1
  Tl  Tl41  1  0.74186800  0.41805400  0.24662900  1
  Tl  Tl42  1  0.75813200  0.41805400  0.74662900  1
  Tl  Tl43  1  0.24186800  0.58194600  0.25337100  1
  Tl  Tl44  1  0.49318800  0.57079200  0.77607500  1
  Tl  Tl45  1  0.50681200  0.42920800  0.22392500  1
  Tl  Tl46  1  0.99318800  0.42920800  0.72392500  1
  Tl  Tl47  1  0.00681200  0.57079200  0.27607500  1
  Tl  Tl48  1  0.94805800  0.72103600  0.77563800  1
  Tl  Tl49  1  0.05194200  0.27896400  0.22436200  1
  Tl  Tl50  1  0.44805800  0.27896400  0.72436200  1
  Tl  Tl51  1  0.55194200  0.72103600  0.27563800  1
  Tl  Tl52  1  0.30381800  0.28269100  0.70775900  1
  Tl  Tl53  1  0.69618200  0.71730900  0.29224100  1
  Tl  Tl54  1  0.80381800  0.71730900  0.79224100  1
  Tl  Tl55  1  0.19618200  0.28269100  0.20775900  1
  Tl  Tl56  1  0.37855500  0.54230600  0.62137100  1
  Tl  Tl57  1  0.62144500  0.45769400  0.37862900  1
  Tl  Tl58  1  0.87855500  0.45769400  0.87862900  1
  Tl  Tl59  1  0.12144500  0.54230600  0.12137100  1
  Tl  Tl60  1  0.37181000  0.45293100  0.87521900  1
  Tl  Tl61  1  0.62819000  0.54706900  0.12478100  1
  Tl  Tl62  1  0.87181000  0.54706900  0.62478100  1
  Tl  Tl63  1  0.12819000  0.45293100  0.37521900  1
  Tl  Tl64  1  0.37625900  0.76066400  0.79239200  1
  Tl  Tl65  1  0.62374100  0.23933600  0.20760800  1
  Tl  Tl66  1  0.87625900  0.23933600  0.70760800  1
  Tl  Tl67  1  0.12374100  0.76066400  0.29239200  1
