# generated using pymatgen
data_Y2Ge2O7
_symmetry_space_group_name_H-M   'P 1'
_cell_length_a   6.88764200
_cell_length_b   6.88764200
_cell_length_c   12.54373800
_cell_angle_alpha   90.00000000
_cell_angle_beta   90.00000000
_cell_angle_gamma   90.00000000
_symmetry_Int_Tables_number   1
_chemical_formula_structural   Y2Ge2O7
_chemical_formula_sum   'Y8 Ge8 O28'
_cell_volume   595.07006777
_cell_formula_units_Z   4
loop_
 _symmetry_equiv_pos_site_id
 _symmetry_equiv_pos_as_xyz
  1  'x, y, z'
loop_
 _atom_site_type_symbol
 _atom_site_label
 _atom_site_symmetry_multiplicity
 _atom_site_fract_x
 _atom_site_fract_y
 _atom_site_fract_z
 _atom_site_occupancy
  Y  Y0  1  0.12411300  0.64770700  0.86537600  1
  Y  Y1  1  0.87588700  0.35229300  0.36537600  1
  Y  Y2  1  0.64770700  0.12411300  0.13462400  1
  Y  Y3  1  0.14770700  0.37588700  0.11537600  1
  Y  Y4  1  0.85229300  0.62411300  0.61537600  1
  Y  Y5  1  0.37588700  0.14770700  0.88462400  1
  Y  Y6  1  0.62411300  0.85229300  0.38462400  1
  Y  Y7  1  0.35229300  0.87588700  0.63462400  1
  Ge  Ge8  1  0.15253300  0.90130900  0.11963900  1
  Ge  Ge9  1  0.84746700  0.09869100  0.61963900  1
  Ge  Ge10  1  0.90130900  0.15253300  0.88036100  1
  Ge  Ge11  1  0.40130900  0.34746700  0.36963900  1
  Ge  Ge12  1  0.59869100  0.65253300  0.86963900  1
  Ge  Ge13  1  0.34746700  0.40130900  0.63036100  1
  Ge  Ge14  1  0.65253300  0.59869100  0.13036100  1
  Ge  Ge15  1  0.09869100  0.84746700  0.38036100  1
  O  O16  1  0.14273700  0.68493200  0.04529500  1
  O  O17  1  0.85726300  0.31506800  0.54529500  1
  O  O18  1  0.68493200  0.14273700  0.95470500  1
  O  O19  1  0.18493200  0.35726300  0.29529500  1
  O  O20  1  0.81506800  0.64273700  0.79529500  1
  O  O21  1  0.35726300  0.18493200  0.70470500  1
  O  O22  1  0.64273700  0.81506800  0.20470500  1
  O  O23  1  0.31506800  0.85726300  0.45470500  1
  O  O24  1  0.33823900  0.06399300  0.07123000  1
  O  O25  1  0.66176100  0.93600700  0.57123000  1
  O  O26  1  0.06399300  0.33823900  0.92877000  1
  O  O27  1  0.56399300  0.16176100  0.32123000  1
  O  O28  1  0.43600700  0.83823900  0.82123000  1
  O  O29  1  0.16176100  0.56399300  0.67877000  1
  O  O30  1  0.83823900  0.43600700  0.17877000  1
  O  O31  1  0.93600700  0.66176100  0.42877000  1
  O  O32  1  0.19637100  0.80362900  0.25000000  1
  O  O33  1  0.69637100  0.69637100  0.00000000  1
  O  O34  1  0.30362900  0.30362900  0.50000000  1
  O  O35  1  0.80362900  0.19637100  0.75000000  1
  O  O36  1  0.92146400  0.03069000  0.37623100  1
  O  O37  1  0.46931000  0.42146400  0.12623100  1
  O  O38  1  0.53069000  0.57853600  0.62623100  1
  O  O39  1  0.42146400  0.46931000  0.87376900  1
  O  O40  1  0.57853600  0.53069000  0.37376900  1
  O  O41  1  0.07853600  0.96931000  0.87623100  1
  O  O42  1  0.03069000  0.92146400  0.62376900  1
  O  O43  1  0.96931000  0.07853600  0.12376900  1
