# generated using pymatgen
data_UAlAu
_symmetry_space_group_name_H-M   'P 1'
_cell_length_a   5.63557069
_cell_length_b   5.63557069
_cell_length_c   5.63557069
_cell_angle_alpha   129.07455048
_cell_angle_beta   120.45449322
_cell_angle_gamma   82.11501875
_symmetry_Int_Tables_number   1
_chemical_formula_structural   UAlAu
_chemical_formula_sum   'U2 Al2 Au2'
_cell_volume   115.24936918
_cell_formula_units_Z   2
loop_
 _symmetry_equiv_pos_site_id
 _symmetry_equiv_pos_as_xyz
  1  'x, y, z'
loop_
 _atom_site_type_symbol
 _atom_site_label
 _atom_site_symmetry_multiplicity
 _atom_site_fract_x
 _atom_site_fract_y
 _atom_site_fract_z
 _atom_site_occupancy
  U  U0  1  0.24533500  0.50000000  0.74533500  1
  U  U1  1  0.75466500  0.50000000  0.25466500  1
  Al  Al2  1  0.33753300  0.83753300  0.50000000  1
  Al  Al3  1  0.66246700  0.16246700  0.50000000  1
  Au  Au4  1  0.17435000  0.17435000  0.00000000  1
  Au  Au5  1  0.82565000  0.82565000  0.00000000  1
