# generated using pymatgen
data_Dy12(OsC3)5
_symmetry_space_group_name_H-M   'P 1'
_cell_length_a   5.08145200
_cell_length_b   10.71268581
_cell_length_c   10.71268581
_cell_angle_alpha   119.99999883
_cell_angle_beta   90.00000000
_cell_angle_gamma   90.00000000
_symmetry_Int_Tables_number   1
_chemical_formula_structural   Dy12(OsC3)5
_chemical_formula_sum   'Dy12 Os5 C15'
_cell_volume   505.02770091
_cell_formula_units_Z   1
loop_
 _symmetry_equiv_pos_site_id
 _symmetry_equiv_pos_as_xyz
  1  'x, y, z'
loop_
 _atom_site_type_symbol
 _atom_site_label
 _atom_site_symmetry_multiplicity
 _atom_site_fract_x
 _atom_site_fract_y
 _atom_site_fract_z
 _atom_site_occupancy
  Dy  Dy0  1  0.50000000  0.20624800  0.20624800  1
  Dy  Dy1  1  0.50000000  0.00000000  0.79375200  1
  Dy  Dy2  1  0.50000000  0.79375200  0.00000000  1
  Dy  Dy3  1  0.00000000  0.72711600  0.18335100  1
  Dy  Dy4  1  0.00000000  0.45623500  0.27288400  1
  Dy  Dy5  1  0.00000000  0.54376500  0.81664900  1
  Dy  Dy6  1  0.00000000  0.81664900  0.54376500  1
  Dy  Dy7  1  0.00000000  0.18335100  0.72711600  1
  Dy  Dy8  1  0.00000000  0.27288400  0.45623500  1
  Dy  Dy9  1  0.50000000  0.56737500  0.56737500  1
  Dy  Dy10  1  0.50000000  0.00000000  0.43262500  1
  Dy  Dy11  1  0.50000000  0.43262500  0.00000000  1
  Os  Os12  1  0.00000000  0.83909700  0.83909700  1
  Os  Os13  1  0.00000000  0.00000000  0.16090300  1
  Os  Os14  1  0.00000000  0.16090300  0.00000000  1
  Os  Os15  1  0.50000000  0.66666700  0.33333300  1
  Os  Os16  1  0.50000000  0.33333300  0.66666700  1
  C  C17  1  0.00000000  0.66390300  0.66390300  1
  C  C18  1  0.00000000  0.00000000  0.33609700  1
  C  C19  1  0.00000000  0.33609700  0.00000000  1
  C  C20  1  0.00000000  0.20894100  0.20894100  1
  C  C21  1  0.00000000  0.00000000  0.79105900  1
  C  C22  1  0.00000000  0.79105900  0.00000000  1
  C  C23  1  0.00000000  0.53920700  0.53920700  1
  C  C24  1  0.00000000  0.00000000  0.46079300  1
  C  C25  1  0.00000000  0.46079300  0.00000000  1
  C  C26  1  0.50000000  0.71639000  0.18423300  1
  C  C27  1  0.50000000  0.46784300  0.28361000  1
  C  C28  1  0.50000000  0.53215700  0.81576700  1
  C  C29  1  0.50000000  0.81576700  0.53215700  1
  C  C30  1  0.50000000  0.18423300  0.71639000  1
  C  C31  1  0.50000000  0.28361000  0.46784300  1
