# generated using pymatgen
data_LuSiPd2
_symmetry_space_group_name_H-M   'P 1'
_cell_length_a   5.47194700
_cell_length_b   6.99325200
_cell_length_c   7.21262400
_cell_angle_alpha   90.00000000
_cell_angle_beta   90.00000000
_cell_angle_gamma   90.00000000
_symmetry_Int_Tables_number   1
_chemical_formula_structural   LuSiPd2
_chemical_formula_sum   'Lu4 Si4 Pd8'
_cell_volume   276.00334985
_cell_formula_units_Z   4
loop_
 _symmetry_equiv_pos_site_id
 _symmetry_equiv_pos_as_xyz
  1  'x, y, z'
loop_
 _atom_site_type_symbol
 _atom_site_label
 _atom_site_symmetry_multiplicity
 _atom_site_fract_x
 _atom_site_fract_y
 _atom_site_fract_z
 _atom_site_occupancy
  Lu  Lu0  1  0.35697300  0.75000000  0.02679000  1
  Lu  Lu1  1  0.14302700  0.75000000  0.52679000  1
  Lu  Lu2  1  0.64302700  0.25000000  0.97321000  1
  Lu  Lu3  1  0.85697300  0.25000000  0.47321000  1
  Si  Si4  1  0.64209600  0.75000000  0.37864100  1
  Si  Si5  1  0.85790400  0.75000000  0.87864100  1
  Si  Si6  1  0.35790400  0.25000000  0.62135900  1
  Si  Si7  1  0.14209600  0.25000000  0.12135900  1
  Pd  Pd8  1  0.90590400  0.55073700  0.17914000  1
  Pd  Pd9  1  0.59409600  0.94926300  0.67914000  1
  Pd  Pd10  1  0.09409600  0.05073700  0.82086000  1
  Pd  Pd11  1  0.40590400  0.44926300  0.32086000  1
  Pd  Pd12  1  0.09409600  0.44926300  0.82086000  1
  Pd  Pd13  1  0.40590400  0.05073700  0.32086000  1
  Pd  Pd14  1  0.90590400  0.94926300  0.17914000  1
  Pd  Pd15  1  0.59409600  0.55073700  0.67914000  1
