# generated using pymatgen
data_BaNa(B3O5)3
_symmetry_space_group_name_H-M   'P 1'
_cell_length_a   8.77613532
_cell_length_b   8.77613532
_cell_length_c   8.77613601
_cell_angle_alpha   80.17507581
_cell_angle_beta   80.17507581
_cell_angle_gamma   80.17507781
_symmetry_Int_Tables_number   1
_chemical_formula_structural   BaNa(B3O5)3
_chemical_formula_sum   'Ba2 Na2 B18 O30'
_cell_volume   649.25178157
_cell_formula_units_Z   2
loop_
 _symmetry_equiv_pos_site_id
 _symmetry_equiv_pos_as_xyz
  1  'x, y, z'
loop_
 _atom_site_type_symbol
 _atom_site_label
 _atom_site_symmetry_multiplicity
 _atom_site_fract_x
 _atom_site_fract_y
 _atom_site_fract_z
 _atom_site_occupancy
  Ba  Ba0  1  0.50500900  0.50500900  0.50500900  1
  Ba  Ba1  1  0.00500900  0.00500900  0.00500900  1
  Na  Na2  1  0.27788500  0.27788500  0.27788500  1
  Na  Na3  1  0.77788500  0.77788500  0.77788500  1
  B  B4  1  0.16047700  0.71669200  0.28312000  1
  B  B5  1  0.71669200  0.28312000  0.16047700  1
  B  B6  1  0.28312000  0.16047700  0.71669200  1
  B  B7  1  0.78312000  0.21669200  0.66047700  1
  B  B8  1  0.87605600  0.72709300  0.38154700  1
  B  B9  1  0.72709300  0.38154700  0.87605600  1
  B  B10  1  0.38154700  0.87605600  0.72709300  1
  B  B11  1  0.88154700  0.22709300  0.37605600  1
  B  B12  1  0.22709300  0.37605600  0.88154700  1
  B  B13  1  0.37605600  0.88154700  0.22709300  1
  B  B14  1  0.06013300  0.70660000  0.56438600  1
  B  B15  1  0.70660000  0.56438600  0.06013300  1
  B  B16  1  0.56438600  0.06013300  0.70660000  1
  B  B17  1  0.06438600  0.20660000  0.56013300  1
  B  B18  1  0.20660000  0.56013300  0.06438600  1
  B  B19  1  0.56013300  0.06438600  0.20660000  1
  B  B20  1  0.21669200  0.66047700  0.78312000  1
  B  B21  1  0.66047700  0.78312000  0.21669200  1
  O  O22  1  0.35941000  0.73028200  0.70985500  1
  O  O23  1  0.20985500  0.23028200  0.85941000  1
  O  O24  1  0.85941000  0.20985500  0.23028200  1
  O  O25  1  0.23028200  0.85941000  0.20985500  1
  O  O26  1  0.49332500  0.76113200  0.25711500  1
  O  O27  1  0.70985500  0.35941000  0.73028200  1
  O  O28  1  0.76113200  0.25711500  0.49332500  1
  O  O29  1  0.26113200  0.99332500  0.75711500  1
  O  O30  1  0.75711500  0.26113200  0.99332500  1
  O  O31  1  0.99332500  0.75711500  0.26113200  1
  O  O32  1  0.72598200  0.71231100  0.07389600  1
  O  O33  1  0.07389600  0.72598200  0.71231100  1
  O  O34  1  0.71231100  0.07389600  0.72598200  1
  O  O35  1  0.21231100  0.22598200  0.57389600  1
  O  O36  1  0.57389600  0.21231100  0.22598200  1
  O  O37  1  0.22598200  0.57389600  0.21231100  1
  O  O38  1  0.18346200  0.68153400  0.44900200  1
  O  O39  1  0.68153400  0.44900200  0.18346200  1
  O  O40  1  0.44900200  0.18346200  0.68153400  1
  O  O41  1  0.94900200  0.18153400  0.68346200  1
  O  O42  1  0.18153400  0.68346200  0.94900200  1
  O  O43  1  0.68346200  0.94900200  0.18153400  1
  O  O44  1  0.90600200  0.71421100  0.53528100  1
  O  O45  1  0.71421100  0.53528100  0.90600200  1
  O  O46  1  0.53528100  0.90600200  0.71421100  1
  O  O47  1  0.03528100  0.21421100  0.40600200  1
  O  O48  1  0.21421100  0.40600200  0.03528100  1
  O  O49  1  0.40600200  0.03528100  0.21421100  1
  O  O50  1  0.25711500  0.49332500  0.76113200  1
  O  O51  1  0.73028200  0.70985500  0.35941000  1
