# generated using pymatgen
data_Ce4(ErS2)11
_symmetry_space_group_name_H-M   'P 1'
_cell_length_a   19.67517795
_cell_length_b   19.67517795
_cell_length_c   11.36113921
_cell_angle_alpha   88.54929336
_cell_angle_beta   88.54929336
_cell_angle_gamma   11.46306460
_symmetry_Int_Tables_number   1
_chemical_formula_structural   Ce4(ErS2)11
_chemical_formula_sum   'Ce4 Er11 S22'
_cell_volume   873.76682574
_cell_formula_units_Z   1
loop_
 _symmetry_equiv_pos_site_id
 _symmetry_equiv_pos_as_xyz
  1  'x, y, z'
loop_
 _atom_site_type_symbol
 _atom_site_label
 _atom_site_symmetry_multiplicity
 _atom_site_fract_x
 _atom_site_fract_y
 _atom_site_fract_z
 _atom_site_occupancy
  Ce  Ce0  1  0.63297700  0.63297700  0.34841900  1
  Ce  Ce1  1  0.36702300  0.36702300  0.65158100  1
  Ce  Ce2  1  0.89554600  0.89554600  0.01155200  1
  Ce  Ce3  1  0.10445400  0.10445400  0.98844800  1
  Er  Er4  1  0.53804500  0.53804500  0.27081700  1
  Er  Er5  1  0.46195500  0.46195500  0.72918300  1
  Er  Er6  1  0.93038900  0.93038900  0.36140000  1
  Er  Er7  1  0.06961100  0.06961100  0.63860000  1
  Er  Er8  1  0.73677200  0.73677200  0.35224000  1
  Er  Er9  1  0.26322800  0.26322800  0.64776000  1
  Er  Er10  1  0.20248300  0.20248300  0.05871200  1
  Er  Er11  1  0.79751700  0.79751700  0.94128800  1
  Er  Er12  1  0.00000000  0.00000000  0.00000000  1
  Er  Er13  1  0.34248200  0.34248200  0.30055400  1
  Er  Er14  1  0.65751800  0.65751800  0.69944600  1
  S  S15  1  0.40732800  0.40732800  0.21165900  1
  S  S16  1  0.59267200  0.59267200  0.78834100  1
  S  S17  1  0.91213300  0.91213300  0.75125100  1
  S  S18  1  0.08786700  0.08786700  0.24874900  1
  S  S19  1  0.99201600  0.99201600  0.24054500  1
  S  S20  1  0.00798400  0.00798400  0.75945500  1
  S  S21  1  0.64954100  0.64954100  0.09179300  1
  S  S22  1  0.35045900  0.35045900  0.90820700  1
  S  S23  1  0.54690000  0.54690000  0.03084500  1
  S  S24  1  0.45310000  0.45310000  0.96915500  1
  S  S25  1  0.83100300  0.83100300  0.15069500  1
  S  S26  1  0.16899700  0.16899700  0.84930500  1
  S  S27  1  0.74517800  0.74517800  0.11900100  1
  S  S28  1  0.25482200  0.25482200  0.88099900  1
  S  S29  1  0.81089900  0.81089900  0.69035300  1
  S  S30  1  0.18910100  0.18910100  0.30964700  1
  S  S31  1  0.55512100  0.55512100  0.49280000  1
  S  S32  1  0.44487900  0.44487900  0.50720000  1
  S  S33  1  0.86515600  0.86515600  0.45352400  1
  S  S34  1  0.13484400  0.13484400  0.54647600  1
  S  S35  1  0.71957600  0.71957600  0.58900500  1
  S  S36  1  0.28042400  0.28042400  0.41099500  1
