# generated using pymatgen
data_Cs2TiO3
_symmetry_space_group_name_H-M   'P 1'
_cell_length_a   6.84873186
_cell_length_b   6.84873186
_cell_length_c   5.60448900
_cell_angle_alpha   90.00000000
_cell_angle_beta   90.00000000
_cell_angle_gamma   111.01426072
_symmetry_Int_Tables_number   1
_chemical_formula_structural   Cs2TiO3
_chemical_formula_sum   'Cs4 Ti2 O6'
_cell_volume   245.39548995
_cell_formula_units_Z   2
loop_
 _symmetry_equiv_pos_site_id
 _symmetry_equiv_pos_as_xyz
  1  'x, y, z'
loop_
 _atom_site_type_symbol
 _atom_site_label
 _atom_site_symmetry_multiplicity
 _atom_site_fract_x
 _atom_site_fract_y
 _atom_site_fract_z
 _atom_site_occupancy
  Cs  Cs0  1  0.50509300  0.18219300  0.75000000  1
  Cs  Cs1  1  0.81780700  0.49490700  0.25000000  1
  Cs  Cs2  1  0.49490700  0.81780700  0.25000000  1
  Cs  Cs3  1  0.18219300  0.50509300  0.75000000  1
  Ti  Ti4  1  0.07649100  0.07649100  0.25000000  1
  Ti  Ti5  1  0.92350900  0.92350900  0.75000000  1
  O  O6  1  0.88755900  0.11244100  0.00000000  1
  O  O7  1  0.88755900  0.11244100  0.50000000  1
  O  O8  1  0.69325100  0.69325100  0.75000000  1
  O  O9  1  0.30674900  0.30674900  0.25000000  1
  O  O10  1  0.11244100  0.88755900  0.00000000  1
  O  O11  1  0.11244100  0.88755900  0.50000000  1
