# generated using pymatgen
data_GdTe2
_symmetry_space_group_name_H-M   'P 1'
_cell_length_a   4.41607900
_cell_length_b   4.41607900
_cell_length_c   8.93346400
_cell_angle_alpha   90.00000000
_cell_angle_beta   90.00000000
_cell_angle_gamma   90.00000000
_symmetry_Int_Tables_number   1
_chemical_formula_structural   GdTe2
_chemical_formula_sum   'Gd2 Te4'
_cell_volume   174.21821492
_cell_formula_units_Z   2
loop_
 _symmetry_equiv_pos_site_id
 _symmetry_equiv_pos_as_xyz
  1  'x, y, z'
loop_
 _atom_site_type_symbol
 _atom_site_label
 _atom_site_symmetry_multiplicity
 _atom_site_fract_x
 _atom_site_fract_y
 _atom_site_fract_z
 _atom_site_occupancy
  Gd  Gd0  1  0.00000000  0.50000000  0.72611800  1
  Gd  Gd1  1  0.50000000  0.00000000  0.27388200  1
  Te  Te2  1  0.00000000  0.00000000  0.00000000  1
  Te  Te3  1  0.50000000  0.50000000  0.00000000  1
  Te  Te4  1  0.00000000  0.50000000  0.36875800  1
  Te  Te5  1  0.50000000  0.00000000  0.63124200  1
