# generated using pymatgen
data_K2NiO2
_symmetry_space_group_name_H-M   'P 1'
_cell_length_a   3.97964221
_cell_length_b   3.97964191
_cell_length_c   7.12662327
_cell_angle_alpha   106.21303441
_cell_angle_beta   106.21303432
_cell_angle_gamma   90.00001006
_symmetry_Int_Tables_number   1
_chemical_formula_structural   K2NiO2
_chemical_formula_sum   'K2 Ni1 O2'
_cell_volume   103.69663505
_cell_formula_units_Z   1
loop_
 _symmetry_equiv_pos_site_id
 _symmetry_equiv_pos_as_xyz
  1  'x, y, z'
loop_
 _atom_site_type_symbol
 _atom_site_label
 _atom_site_symmetry_multiplicity
 _atom_site_fract_x
 _atom_site_fract_y
 _atom_site_fract_z
 _atom_site_occupancy
  K  K0  1  0.65954700  0.65954700  0.31909500  1
  K  K1  1  0.34045200  0.34045300  0.68090500  1
  Ni  Ni2  1  0.00000000  0.00000000  0.00000000  1
  O  O3  1  0.13160500  0.13160400  0.26320700  1
  O  O4  1  0.86839700  0.86839500  0.73679200  1
