# generated using pymatgen
data_Ca5VN5
_symmetry_space_group_name_H-M   'P 1'
_cell_length_a   6.04192000
_cell_length_b   6.80927600
_cell_length_c   16.65470900
_cell_angle_alpha   90.00000000
_cell_angle_beta   90.00000000
_cell_angle_gamma   90.00000000
_symmetry_Int_Tables_number   1
_chemical_formula_structural   Ca5VN5
_chemical_formula_sum   'Ca20 V4 N20'
_cell_volume   685.19306260
_cell_formula_units_Z   4
loop_
 _symmetry_equiv_pos_site_id
 _symmetry_equiv_pos_as_xyz
  1  'x, y, z'
loop_
 _atom_site_type_symbol
 _atom_site_label
 _atom_site_symmetry_multiplicity
 _atom_site_fract_x
 _atom_site_fract_y
 _atom_site_fract_z
 _atom_site_occupancy
  Ca  Ca0  1  0.70984600  0.99242100  0.92538700  1
  Ca  Ca1  1  0.29015400  0.49242100  0.07461300  1
  Ca  Ca2  1  0.70984600  0.00757900  0.57461300  1
  Ca  Ca3  1  0.29015400  0.50757900  0.42538700  1
  Ca  Ca4  1  0.29015400  0.00757900  0.07461300  1
  Ca  Ca5  1  0.70984600  0.50757900  0.92538700  1
  Ca  Ca6  1  0.29015400  0.99242100  0.42538700  1
  Ca  Ca7  1  0.70984600  0.49242100  0.57461300  1
  Ca  Ca8  1  0.81033700  0.25000000  0.08197300  1
  Ca  Ca9  1  0.18966300  0.75000000  0.91802700  1
  Ca  Ca10  1  0.81033700  0.75000000  0.41802700  1
  Ca  Ca11  1  0.18966300  0.25000000  0.58197300  1
  Ca  Ca12  1  0.48622300  0.25000000  0.23698500  1
  Ca  Ca13  1  0.51377700  0.75000000  0.76301500  1
  Ca  Ca14  1  0.48622300  0.75000000  0.26301500  1
  Ca  Ca15  1  0.51377700  0.25000000  0.73698500  1
  Ca  Ca16  1  0.95309300  0.50000000  0.25000000  1
  Ca  Ca17  1  0.04690700  0.00000000  0.75000000  1
  Ca  Ca18  1  0.04690700  0.50000000  0.75000000  1
  Ca  Ca19  1  0.95309300  0.00000000  0.25000000  1
  V  V20  1  0.71197600  0.25000000  0.40676700  1
  V  V21  1  0.28802400  0.75000000  0.59323300  1
  V  V22  1  0.71197600  0.75000000  0.09323300  1
  V  V23  1  0.28802400  0.25000000  0.90676700  1
  N  N24  1  0.63898100  0.46895600  0.34528900  1
  N  N25  1  0.36101900  0.96895600  0.65471100  1
  N  N26  1  0.63898100  0.53104400  0.15471100  1
  N  N27  1  0.36101900  0.03104400  0.84528900  1
  N  N28  1  0.36101900  0.53104400  0.65471100  1
  N  N29  1  0.63898100  0.03104400  0.34528900  1
  N  N30  1  0.36101900  0.46895600  0.84528900  1
  N  N31  1  0.63898100  0.96895600  0.15471100  1
  N  N32  1  0.99262700  0.25000000  0.44791000  1
  N  N33  1  0.00737300  0.75000000  0.55209000  1
  N  N34  1  0.99262700  0.75000000  0.05209000  1
  N  N35  1  0.00737300  0.25000000  0.94791000  1
  N  N36  1  0.51717500  0.25000000  0.48995100  1
  N  N37  1  0.48282500  0.75000000  0.51004900  1
  N  N38  1  0.51717500  0.75000000  0.01004900  1
  N  N39  1  0.48282500  0.25000000  0.98995100  1
  N  N40  1  0.86610700  0.25000000  0.67490400  1
  N  N41  1  0.13389300  0.75000000  0.32509600  1
  N  N42  1  0.86610700  0.75000000  0.82509600  1
  N  N43  1  0.13389300  0.25000000  0.17490400  1
