# generated using pymatgen
data_MnCd2TeO6
_symmetry_space_group_name_H-M   'P 1'
_cell_length_a   6.49680595
_cell_length_b   13.00810111
_cell_length_c   6.47878141
_cell_angle_alpha   90.23968821
_cell_angle_beta   90.78760363
_cell_angle_gamma   90.13322011
_symmetry_Int_Tables_number   1
_chemical_formula_structural   MnCd2TeO6
_chemical_formula_sum   'Mn4 Cd8 Te4 O24'
_cell_volume   547.47092482
_cell_formula_units_Z   4
loop_
 _symmetry_equiv_pos_site_id
 _symmetry_equiv_pos_as_xyz
  1  'x, y, z'
loop_
 _atom_site_type_symbol
 _atom_site_label
 _atom_site_symmetry_multiplicity
 _atom_site_fract_x
 _atom_site_fract_y
 _atom_site_fract_z
 _atom_site_occupancy
  Mn  Mn0  1  0.56442500  0.52595200  0.74658500  1
  Mn  Mn1  1  0.04861300  0.87471800  0.56222400  1
  Mn  Mn2  1  0.56444200  0.02605600  0.74647700  1
  Mn  Mn3  1  0.04873800  0.37463600  0.56223900  1
  Cd  Cd4  1  0.74909100  0.28285800  0.05201300  1
  Cd  Cd5  1  0.74909700  0.78285700  0.05200800  1
  Cd  Cd6  1  0.43794600  0.47531300  0.25373500  1
  Cd  Cd7  1  0.43793500  0.97530000  0.25371200  1
  Cd  Cd8  1  0.95140100  0.12584100  0.43797300  1
  Cd  Cd9  1  0.95137300  0.62583400  0.43799900  1
  Cd  Cd10  1  0.25275400  0.21780000  0.95064500  1
  Cd  Cd11  1  0.25274400  0.71780900  0.95062100  1
  Te  Te12  1  0.50191300  0.25259000  0.50681300  1
  Te  Te13  1  0.50191100  0.75259800  0.50683100  1
  Te  Te14  1  0.00043200  0.49807100  0.99458300  1
  Te  Te15  1  0.00042100  0.99809100  0.99457700  1
  O  O16  1  0.91578000  0.01777700  0.70431600  1
  O  O17  1  0.91576700  0.51769900  0.70422400  1
  O  O18  1  0.04168500  0.35476200  0.90826200  1
  O  O19  1  0.04167200  0.85477300  0.90825900  1
  O  O20  1  0.70835600  0.46429300  0.03275900  1
  O  O21  1  0.70835600  0.96431600  0.03274100  1
  O  O22  1  0.07458300  0.47004000  0.28484900  1
  O  O23  1  0.07457800  0.97005700  0.28483600  1
  O  O24  1  0.95801500  0.14200400  0.07785300  1
  O  O25  1  0.95799600  0.64198300  0.07785500  1
  O  O26  1  0.28854200  0.03550900  0.94445300  1
  O  O27  1  0.28854400  0.53550400  0.94445600  1
  O  O28  1  0.43742500  0.39624000  0.57836200  1
  O  O29  1  0.43739500  0.89626900  0.57852000  1
  O  O30  1  0.79096100  0.28562800  0.44455300  1
  O  O31  1  0.79092200  0.78562300  0.44446400  1
  O  O32  1  0.56524300  0.20999600  0.79207400  1
  O  O33  1  0.56524100  0.70999900  0.79208200  1
  O  O34  1  0.56410100  0.10739800  0.44504300  1
  O  O35  1  0.56411200  0.60739600  0.44504900  1
  O  O36  1  0.21004200  0.22628600  0.56583100  1
  O  O37  1  0.21003900  0.72629200  0.56583700  1
  O  O38  1  0.43868100  0.28691500  0.21718200  1
  O  O39  1  0.43872700  0.78691500  0.21710600  1
