# generated using pymatgen
data_SrMoO4
_symmetry_space_group_name_H-M   'P 1'
_cell_length_a   7.23921114
_cell_length_b   7.23921114
_cell_length_c   7.23921114
_cell_angle_alpha   135.44395360
_cell_angle_beta   135.44395360
_cell_angle_gamma   64.84117323
_symmetry_Int_Tables_number   1
_chemical_formula_structural   SrMoO4
_chemical_formula_sum   'Sr2 Mo2 O8'
_cell_volume   184.10104038
_cell_formula_units_Z   2
loop_
 _symmetry_equiv_pos_site_id
 _symmetry_equiv_pos_as_xyz
  1  'x, y, z'
loop_
 _atom_site_type_symbol
 _atom_site_label
 _atom_site_symmetry_multiplicity
 _atom_site_fract_x
 _atom_site_fract_y
 _atom_site_fract_z
 _atom_site_occupancy
  Sr  Sr0  1  0.50000000  0.50000000  0.00000000  1
  Sr  Sr1  1  0.25000000  0.75000000  0.50000000  1
  Mo  Mo2  1  0.00000000  0.00000000  0.00000000  1
  Mo  Mo3  1  0.75000000  0.25000000  0.50000000  1
  O  O4  1  0.53301100  0.93038300  0.12745100  1
  O  O5  1  0.94706700  0.84444000  0.62745100  1
  O  O6  1  0.59444000  0.46698900  0.39737300  1
  O  O7  1  0.06961700  0.19706700  0.60262700  1
  O  O8  1  0.68038300  0.05293300  0.89737300  1
  O  O9  1  0.21698900  0.31961700  0.37254900  1
  O  O10  1  0.80293300  0.40556000  0.87254900  1
  O  O11  1  0.15556000  0.78301100  0.10262700  1
