# generated using pymatgen
data_CrHSe3O8
_symmetry_space_group_name_H-M   'P 1'
_cell_length_a   7.55305700
_cell_length_b   13.00198900
_cell_length_c   10.69642496
_cell_angle_alpha   90.00000000
_cell_angle_beta   133.07236643
_cell_angle_gamma   90.00000000
_symmetry_Int_Tables_number   1
_chemical_formula_structural   CrHSe3O8
_chemical_formula_sum   'Cr4 H4 Se12 O32'
_cell_volume   767.33765447
_cell_formula_units_Z   4
loop_
 _symmetry_equiv_pos_site_id
 _symmetry_equiv_pos_as_xyz
  1  'x, y, z'
loop_
 _atom_site_type_symbol
 _atom_site_label
 _atom_site_symmetry_multiplicity
 _atom_site_fract_x
 _atom_site_fract_y
 _atom_site_fract_z
 _atom_site_occupancy
  Cr  Cr0  1  0.12587000  0.17833600  0.94414700  1
  Cr  Cr1  1  0.12587000  0.32166400  0.44414700  1
  Cr  Cr2  1  0.87413000  0.82166400  0.05585300  1
  Cr  Cr3  1  0.87413000  0.67833600  0.55585300  1
  H  H4  1  0.43009700  0.38921300  0.08088400  1
  H  H5  1  0.43009700  0.11078700  0.58088400  1
  H  H6  1  0.56990300  0.61078700  0.91911600  1
  H  H7  1  0.56990300  0.88921300  0.41911600  1
  Se  Se8  1  0.65439000  0.29904300  0.56366400  1
  Se  Se9  1  0.65439000  0.20095700  0.06366400  1
  Se  Se10  1  0.34561000  0.70095700  0.43633600  1
  Se  Se11  1  0.34561000  0.79904300  0.93633600  1
  Se  Se12  1  0.99661400  0.13730500  0.57881500  1
  Se  Se13  1  0.99661400  0.36269500  0.07881500  1
  Se  Se14  1  0.00338600  0.86269500  0.42118500  1
  Se  Se15  1  0.00338600  0.63730500  0.92118500  1
  Se  Se16  1  0.28708900  0.01049100  0.22223100  1
  Se  Se17  1  0.28708900  0.48950900  0.72223100  1
  Se  Se18  1  0.71291100  0.98950900  0.77776900  1
  Se  Se19  1  0.71291100  0.51049100  0.27776900  1
  O  O20  1  0.42548400  0.26068100  0.03450800  1
  O  O21  1  0.42548400  0.23931900  0.53450800  1
  O  O22  1  0.57451600  0.73931900  0.96549200  1
  O  O23  1  0.57451600  0.76068100  0.46549200  1
  O  O24  1  0.90811500  0.29327500  0.77638700  1
  O  O25  1  0.90811500  0.20672500  0.27638700  1
  O  O26  1  0.09188500  0.70672500  0.22361300  1
  O  O27  1  0.09188500  0.79327500  0.72361300  1
  O  O28  1  0.11162500  0.09969700  0.77467800  1
  O  O29  1  0.11162500  0.40030300  0.27467800  1
  O  O30  1  0.88837500  0.90030300  0.22532200  1
  O  O31  1  0.88837500  0.59969700  0.72532200  1
  O  O32  1  0.15529800  0.25339200  0.12377900  1
  O  O33  1  0.15529800  0.24660800  0.62377900  1
  O  O34  1  0.84470200  0.74660800  0.87622100  1
  O  O35  1  0.84470200  0.75339200  0.37622100  1
  O  O36  1  0.64614400  0.56806200  0.38499900  1
  O  O37  1  0.64614400  0.93193800  0.88499900  1
  O  O38  1  0.35385600  0.43193800  0.61500100  1
  O  O39  1  0.35385600  0.06806200  0.11500100  1
  O  O40  1  0.15266000  0.89722200  0.10966100  1
  O  O41  1  0.15266000  0.60277800  0.60966100  1
  O  O42  1  0.84734000  0.10277800  0.89033900  1
  O  O43  1  0.84734000  0.39722200  0.39033900  1
  O  O44  1  0.41192300  0.46160000  0.10456000  1
  O  O45  1  0.41192300  0.03840000  0.60456000  1
  O  O46  1  0.58807700  0.53840000  0.89544000  1
  O  O47  1  0.58807700  0.96160000  0.39544000  1
  O  O48  1  0.30318100  0.68823600  0.02004500  1
  O  O49  1  0.30318100  0.81176400  0.52004500  1
  O  O50  1  0.69681900  0.31176400  0.97995500  1
  O  O51  1  0.69681900  0.18823600  0.47995500  1
