# generated using pymatgen
data_RbNbTeO6
_symmetry_space_group_name_H-M   'P 1'
_cell_length_a   7.38500786
_cell_length_b   7.38500786
_cell_length_c   7.38500786
_cell_angle_alpha   120.61804421
_cell_angle_beta   119.49293663
_cell_angle_gamma   89.90668092
_symmetry_Int_Tables_number   1
_chemical_formula_structural   RbNbTeO6
_chemical_formula_sum   'Rb2 Nb2 Te2 O12'
_cell_volume   284.52498528
_cell_formula_units_Z   2
loop_
 _symmetry_equiv_pos_site_id
 _symmetry_equiv_pos_as_xyz
  1  'x, y, z'
loop_
 _atom_site_type_symbol
 _atom_site_label
 _atom_site_symmetry_multiplicity
 _atom_site_fract_x
 _atom_site_fract_y
 _atom_site_fract_z
 _atom_site_occupancy
  Rb  Rb0  1  0.62456500  0.87456500  0.75000000  1
  Rb  Rb1  1  0.37543500  0.12543500  0.25000000  1
  Nb  Nb2  1  0.50000000  0.50000000  0.00000000  1
  Nb  Nb3  1  0.00000000  0.50000000  0.50000000  1
  Te  Te4  1  0.00000000  0.50000000  0.00000000  1
  Te  Te5  1  0.00000000  0.00000000  0.50000000  1
  O  O6  1  0.07232000  0.82232000  0.25000000  1
  O  O7  1  0.68655700  0.43655700  0.25000000  1
  O  O8  1  0.06475400  0.82392300  0.63303000  1
  O  O9  1  0.69089300  0.43172400  0.86697000  1
  O  O10  1  0.69089300  0.82392300  0.25917000  1
  O  O11  1  0.06475400  0.43172400  0.24083000  1
  O  O12  1  0.92768000  0.17768000  0.75000000  1
  O  O13  1  0.31344300  0.56344300  0.75000000  1
  O  O14  1  0.93524600  0.17607700  0.36697000  1
  O  O15  1  0.30910700  0.56827600  0.13303000  1
  O  O16  1  0.30910700  0.17607700  0.74083000  1
  O  O17  1  0.93524600  0.56827600  0.75917000  1
