# generated using pymatgen
data_Nd4Zn3Au5
_symmetry_space_group_name_H-M   'P 1'
_cell_length_a   4.64907400
_cell_length_b   7.20214900
_cell_length_c   8.08896242
_cell_angle_alpha   89.73515802
_cell_angle_beta   90.00000000
_cell_angle_gamma   90.00000000
_symmetry_Int_Tables_number   1
_chemical_formula_structural   Nd4Zn3Au5
_chemical_formula_sum   'Nd4 Zn3 Au5'
_cell_volume   270.84245315
_cell_formula_units_Z   1
loop_
 _symmetry_equiv_pos_site_id
 _symmetry_equiv_pos_as_xyz
  1  'x, y, z'
loop_
 _atom_site_type_symbol
 _atom_site_label
 _atom_site_symmetry_multiplicity
 _atom_site_fract_x
 _atom_site_fract_y
 _atom_site_fract_z
 _atom_site_occupancy
  Nd  Nd0  1  0.50000000  0.50382600  0.78971500  1
  Nd  Nd1  1  0.50000000  0.00314000  0.71629400  1
  Nd  Nd2  1  0.00000000  0.48813500  0.21053700  1
  Nd  Nd3  1  0.00000000  0.99424900  0.28265300  1
  Zn  Zn4  1  0.50000000  0.69707600  0.41985200  1
  Zn  Zn5  1  0.00000000  0.79805300  0.91894500  1
  Zn  Zn6  1  0.00000000  0.30832500  0.57578300  1
  Au  Au7  1  0.50000000  0.77269000  0.08911200  1
  Au  Au8  1  0.50000000  0.28801300  0.42761900  1
  Au  Au9  1  0.00000000  0.21728700  0.89339700  1
  Au  Au10  1  0.00000000  0.71976200  0.58761500  1
  Au  Au11  1  0.50000000  0.20944400  0.08847900  1
