# generated using pymatgen
data_Li3La3(MoO6)2
_symmetry_space_group_name_H-M   'P 1'
_cell_length_a   11.04098385
_cell_length_b   11.04098385
_cell_length_c   11.04098385
_cell_angle_alpha   109.47122063
_cell_angle_beta   109.47122063
_cell_angle_gamma   109.47122063
_symmetry_Int_Tables_number   1
_chemical_formula_structural   Li3La3(MoO6)2
_chemical_formula_sum   'Li12 La12 Mo8 O48'
_cell_volume   1036.09942706
_cell_formula_units_Z   4
loop_
 _symmetry_equiv_pos_site_id
 _symmetry_equiv_pos_as_xyz
  1  'x, y, z'
loop_
 _atom_site_type_symbol
 _atom_site_label
 _atom_site_symmetry_multiplicity
 _atom_site_fract_x
 _atom_site_fract_y
 _atom_site_fract_z
 _atom_site_occupancy
  Li  Li0  1  0.75000000  0.37500000  0.62500000  1
  Li  Li1  1  0.87500000  0.12500000  0.75000000  1
  Li  Li2  1  0.12500000  0.75000000  0.87500000  1
  Li  Li3  1  0.62500000  0.75000000  0.37500000  1
  Li  Li4  1  0.25000000  0.12500000  0.87500000  1
  Li  Li5  1  0.62500000  0.37500000  0.25000000  1
  Li  Li6  1  0.37500000  0.62500000  0.75000000  1
  Li  Li7  1  0.75000000  0.87500000  0.12500000  1
  Li  Li8  1  0.37500000  0.25000000  0.62500000  1
  Li  Li9  1  0.87500000  0.25000000  0.12500000  1
  Li  Li10  1  0.12500000  0.87500000  0.25000000  1
  Li  Li11  1  0.25000000  0.62500000  0.37500000  1
  La  La12  1  0.25000000  0.37500000  0.12500000  1
  La  La13  1  0.37500000  0.12500000  0.25000000  1
  La  La14  1  0.37500000  0.75000000  0.12500000  1
  La  La15  1  0.87500000  0.75000000  0.62500000  1
  La  La16  1  0.12500000  0.37500000  0.75000000  1
  La  La17  1  0.75000000  0.12500000  0.37500000  1
  La  La18  1  0.25000000  0.87500000  0.62500000  1
  La  La19  1  0.87500000  0.62500000  0.25000000  1
  La  La20  1  0.12500000  0.25000000  0.37500000  1
  La  La21  1  0.62500000  0.25000000  0.87500000  1
  La  La22  1  0.75000000  0.62500000  0.87500000  1
  La  La23  1  0.62500000  0.87500000  0.75000000  1
  Mo  Mo24  1  0.00000000  0.00000000  0.00000000  1
  Mo  Mo25  1  0.00000000  0.50000000  0.00000000  1
  Mo  Mo26  1  0.50000000  0.00000000  0.50000000  1
  Mo  Mo27  1  0.50000000  0.50000000  0.50000000  1
  Mo  Mo28  1  0.00000000  0.50000000  0.50000000  1
  Mo  Mo29  1  0.00000000  0.00000000  0.50000000  1
  Mo  Mo30  1  0.50000000  0.50000000  0.00000000  1
  Mo  Mo31  1  0.50000000  0.00000000  0.00000000  1
  O  O32  1  0.19351000  0.58012200  0.17087800  1
  O  O33  1  0.32912200  0.91987800  0.30649000  1
  O  O34  1  0.69351000  0.52263100  0.61338800  1
  O  O35  1  0.88661200  0.97736900  0.80649000  1
  O  O36  1  0.61338800  0.69351000  0.52263100  1
  O  O37  1  0.97736900  0.80649000  0.88661200  1
  O  O38  1  0.02263100  0.32912200  0.90924300  1
  O  O39  1  0.59075700  0.17087800  0.47736900  1
  O  O40  1  0.19351000  0.11338800  0.02263100  1
  O  O41  1  0.47736900  0.38661200  0.30649000  1
  O  O42  1  0.11338800  0.59075700  0.91987800  1
  O  O43  1  0.58012200  0.90924300  0.38661200  1
  O  O44  1  0.32912200  0.90924300  0.02263100  1
  O  O45  1  0.47736900  0.59075700  0.17087800  1
  O  O46  1  0.91987800  0.11338800  0.59075700  1
  O  O47  1  0.90924300  0.38661200  0.58012200  1
  O  O48  1  0.30649000  0.32912200  0.91987800  1
  O  O49  1  0.58012200  0.17087800  0.19351000  1
  O  O50  1  0.82912200  0.80649000  0.41987800  1
  O  O51  1  0.08012200  0.69351000  0.67087800  1
  O  O52  1  0.82912200  0.52263100  0.40924300  1
  O  O53  1  0.09075700  0.97736900  0.67087800  1
  O  O54  1  0.38661200  0.58012200  0.90924300  1
  O  O55  1  0.59075700  0.91987800  0.11338800  1
  O  O56  1  0.61338800  0.41987800  0.09075700  1
  O  O57  1  0.40924300  0.08012200  0.88661200  1
  O  O58  1  0.17087800  0.47736900  0.59075700  1
  O  O59  1  0.90924300  0.02263100  0.32912200  1
  O  O60  1  0.91987800  0.30649000  0.32912200  1
  O  O61  1  0.17087800  0.19351000  0.58012200  1
  O  O62  1  0.69351000  0.67087800  0.08012200  1
  O  O63  1  0.41987800  0.82912200  0.80649000  1
  O  O64  1  0.08012200  0.88661200  0.40924300  1
  O  O65  1  0.09075700  0.61338800  0.41987800  1
  O  O66  1  0.52263100  0.40924300  0.82912200  1
  O  O67  1  0.67087800  0.09075700  0.97736900  1
  O  O68  1  0.88661200  0.40924300  0.08012200  1
  O  O69  1  0.41987800  0.09075700  0.61338800  1
  O  O70  1  0.52263100  0.61338800  0.69351000  1
  O  O71  1  0.80649000  0.88661200  0.97736900  1
  O  O72  1  0.97736900  0.67087800  0.09075700  1
  O  O73  1  0.40924300  0.82912200  0.52263100  1
  O  O74  1  0.38661200  0.30649000  0.47736900  1
  O  O75  1  0.02263100  0.19351000  0.11338800  1
  O  O76  1  0.11338800  0.02263100  0.19351000  1
  O  O77  1  0.30649000  0.47736900  0.38661200  1
  O  O78  1  0.67087800  0.08012200  0.69351000  1
  O  O79  1  0.80649000  0.41987800  0.82912200  1
