# generated using pymatgen
data_Ca2TaCrO6
_symmetry_space_group_name_H-M   'P 1'
_cell_length_a   5.47048558
_cell_length_b   9.59803422
_cell_length_c   9.59684319
_cell_angle_alpha   71.23605376
_cell_angle_beta   89.89733532
_cell_angle_gamma   89.88637973
_symmetry_Int_Tables_number   1
_chemical_formula_structural   Ca2TaCrO6
_chemical_formula_sum   'Ca8 Ta4 Cr4 O24'
_cell_volume   477.10880441
_cell_formula_units_Z   4
loop_
 _symmetry_equiv_pos_site_id
 _symmetry_equiv_pos_as_xyz
  1  'x, y, z'
loop_
 _atom_site_type_symbol
 _atom_site_label
 _atom_site_symmetry_multiplicity
 _atom_site_fract_x
 _atom_site_fract_y
 _atom_site_fract_z
 _atom_site_occupancy
  Ca  Ca0  1  0.01045500  0.35325100  0.89834000  1
  Ca  Ca1  1  0.01045200  0.85324300  0.39835100  1
  Ca  Ca2  1  0.98955200  0.64675800  0.10165700  1
  Ca  Ca3  1  0.98955400  0.14674900  0.60165500  1
  Ca  Ca4  1  0.48953300  0.60167300  0.64674400  1
  Ca  Ca5  1  0.48953900  0.10166300  0.14674600  1
  Ca  Ca6  1  0.51047600  0.39833200  0.35326400  1
  Ca  Ca7  1  0.51047100  0.89832100  0.85327000  1
  Ta  Ta8  1  0.00000300  0.99999200  0.00000900  1
  Ta  Ta9  1  0.00000300  0.49999700  0.50000200  1
  Ta  Ta10  1  0.49999900  0.50001000  0.99999300  1
  Ta  Ta11  1  0.50000600  0.00000000  0.50000000  1
  Cr  Cr12  1  0.00000600  0.75001000  0.74999800  1
  Cr  Cr13  1  0.49995400  0.75003400  0.24991900  1
  Cr  Cr14  1  0.99990700  0.25000000  0.24998400  1
  Cr  Cr15  1  0.50005200  0.24997600  0.74999800  1
  O  O16  1  0.91347600  0.13696700  0.11174100  1
  O  O17  1  0.91348600  0.63697000  0.61174500  1
  O  O18  1  0.08652400  0.86303600  0.88827100  1
  O  O19  1  0.08652700  0.36302400  0.38825700  1
  O  O20  1  0.58652400  0.38827100  0.86301000  1
  O  O21  1  0.58653500  0.88828100  0.36301500  1
  O  O22  1  0.41347800  0.61171800  0.13698900  1
  O  O23  1  0.41346400  0.11171000  0.63699100  1
  O  O24  1  0.20458500  0.37824200  0.66845200  1
  O  O25  1  0.20457400  0.87825000  0.16843900  1
  O  O26  1  0.79541900  0.62175800  0.33155600  1
  O  O27  1  0.79542200  0.12175700  0.83155500  1
  O  O28  1  0.29545500  0.33158800  0.12175000  1
  O  O29  1  0.29545400  0.83159000  0.62175000  1
  O  O30  1  0.70455100  0.66841100  0.87825600  1
  O  O31  1  0.70457100  0.16841500  0.37825200  1
  O  O32  1  0.29247900  0.12477800  0.91893000  1
  O  O33  1  0.29246500  0.62477400  0.41893800  1
  O  O34  1  0.70753500  0.87521600  0.08108100  1
  O  O35  1  0.70752400  0.37521600  0.58108000  1
  O  O36  1  0.20750300  0.58106900  0.87519400  1
  O  O37  1  0.20749000  0.08108600  0.37518000  1
  O  O38  1  0.79249900  0.41893300  0.12481900  1
  O  O39  1  0.79249800  0.91892700  0.62481900  1
