# generated using pymatgen
data_Rb2CdSi5O12
_symmetry_space_group_name_H-M   'P 1'
_cell_length_a   13.62208400
_cell_length_b   13.89255900
_cell_length_c   14.12549600
_cell_angle_alpha   90.00000000
_cell_angle_beta   90.00000000
_cell_angle_gamma   90.00000000
_symmetry_Int_Tables_number   1
_chemical_formula_structural   Rb2CdSi5O12
_chemical_formula_sum   'Rb16 Cd8 Si40 O96'
_cell_volume   2673.18804595
_cell_formula_units_Z   8
loop_
 _symmetry_equiv_pos_site_id
 _symmetry_equiv_pos_as_xyz
  1  'x, y, z'
loop_
 _atom_site_type_symbol
 _atom_site_label
 _atom_site_symmetry_multiplicity
 _atom_site_fract_x
 _atom_site_fract_y
 _atom_site_fract_z
 _atom_site_occupancy
  Rb  Rb0  1  0.12494000  0.12787800  0.14519100  1
  Rb  Rb1  1  0.62494000  0.37212200  0.85480900  1
  Rb  Rb2  1  0.87506000  0.62787800  0.35480900  1
  Rb  Rb3  1  0.37506000  0.87212200  0.64519100  1
  Rb  Rb4  1  0.87506000  0.87212200  0.85480900  1
  Rb  Rb5  1  0.37506000  0.62787800  0.14519100  1
  Rb  Rb6  1  0.12494000  0.37212200  0.64519100  1
  Rb  Rb7  1  0.62494000  0.12787800  0.35480900  1
  Rb  Rb8  1  0.86620100  0.37747900  0.12143000  1
  Rb  Rb9  1  0.36620100  0.12252100  0.87857000  1
  Rb  Rb10  1  0.13379900  0.87747900  0.37857000  1
  Rb  Rb11  1  0.63379900  0.62252100  0.62143000  1
  Rb  Rb12  1  0.13379900  0.62252100  0.87857000  1
  Rb  Rb13  1  0.63379900  0.87747900  0.12143000  1
  Rb  Rb14  1  0.86620100  0.12252100  0.62143000  1
  Rb  Rb15  1  0.36620100  0.37747900  0.37857000  1
  Cd  Cd16  1  0.38706700  0.83794800  0.93929700  1
  Cd  Cd17  1  0.88706700  0.66205200  0.06070300  1
  Cd  Cd18  1  0.61293300  0.33794800  0.56070300  1
  Cd  Cd19  1  0.11293300  0.16205200  0.43929700  1
  Cd  Cd20  1  0.61293300  0.16205200  0.06070300  1
  Cd  Cd21  1  0.11293300  0.33794800  0.93929700  1
  Cd  Cd22  1  0.38706700  0.66205200  0.43929700  1
  Cd  Cd23  1  0.88706700  0.83794800  0.56070300  1
  Si  Si24  1  0.34252500  0.91310000  0.16038500  1
  Si  Si25  1  0.84252500  0.58690000  0.83961500  1
  Si  Si26  1  0.65747500  0.41310000  0.33961500  1
  Si  Si27  1  0.15747500  0.08690000  0.66038500  1
  Si  Si28  1  0.65747500  0.08690000  0.83961500  1
  Si  Si29  1  0.15747500  0.41310000  0.16038500  1
  Si  Si30  1  0.34252500  0.58690000  0.66038500  1
  Si  Si31  1  0.84252500  0.91310000  0.33961500  1
  Si  Si32  1  0.40210800  0.37186600  0.68994700  1
  Si  Si33  1  0.90210800  0.12813400  0.31005300  1
  Si  Si34  1  0.59789200  0.87186600  0.81005300  1
  Si  Si35  1  0.09789200  0.62813400  0.18994700  1
  Si  Si36  1  0.59789200  0.62813400  0.31005300  1
  Si  Si37  1  0.09789200  0.87186600  0.68994700  1
  Si  Si38  1  0.40210800  0.12813400  0.18994700  1
  Si  Si39  1  0.90210800  0.37186600  0.81005300  1
  Si  Si40  1  0.15798900  0.59416700  0.39394500  1
  Si  Si41  1  0.65798900  0.90583300  0.60605500  1
  Si  Si42  1  0.84201100  0.09416700  0.10605500  1
  Si  Si43  1  0.34201100  0.40583300  0.89394500  1
  Si  Si44  1  0.84201100  0.40583300  0.60605500  1
  Si  Si45  1  0.34201100  0.09416700  0.39394500  1
  Si  Si46  1  0.15798900  0.90583300  0.89394500  1
  Si  Si47  1  0.65798900  0.59416700  0.10605500  1
  Si  Si48  1  0.08041400  0.11274800  0.86963700  1
  Si  Si49  1  0.58041400  0.38725200  0.13036300  1
  Si  Si50  1  0.91958600  0.61274800  0.63036300  1
  Si  Si51  1  0.41958600  0.88725200  0.36963700  1
  Si  Si52  1  0.91958600  0.88725200  0.13036300  1
  Si  Si53  1  0.41958600  0.61274800  0.86963700  1
  Si  Si54  1  0.08041400  0.38725200  0.36963700  1
  Si  Si55  1  0.58041400  0.11274800  0.63036300  1
  Si  Si56  1  0.63500000  0.67579000  0.90299600  1
  Si  Si57  1  0.13500000  0.82421000  0.09700400  1
  Si  Si58  1  0.36500000  0.17579000  0.59700400  1
  Si  Si59  1  0.86500000  0.32421000  0.40299600  1
  Si  Si60  1  0.36500000  0.32421000  0.09700400  1
  Si  Si61  1  0.86500000  0.17579000  0.90299600  1
  Si  Si62  1  0.63500000  0.82421000  0.40299600  1
  Si  Si63  1  0.13500000  0.67579000  0.59700400  1
  O  O64  1  0.37295500  0.15932700  0.29997100  1
  O  O65  1  0.87295500  0.34067300  0.70002900  1
  O  O66  1  0.62704500  0.65932700  0.20002900  1
  O  O67  1  0.12704500  0.84067300  0.79997100  1
  O  O68  1  0.62704500  0.84067300  0.70002900  1
  O  O69  1  0.12704500  0.65932700  0.29997100  1
  O  O70  1  0.37295500  0.34067300  0.79997100  1
  O  O71  1  0.87295500  0.15932700  0.20002900  1
  O  O72  1  0.62848600  0.18013400  0.55106000  1
  O  O73  1  0.12848600  0.31986600  0.44894000  1
  O  O74  1  0.37151400  0.68013400  0.94894000  1
  O  O75  1  0.87151400  0.81986600  0.05106000  1
  O  O76  1  0.37151400  0.81986600  0.44894000  1
  O  O77  1  0.87151400  0.68013400  0.55106000  1
  O  O78  1  0.62848600  0.31986600  0.05106000  1
  O  O79  1  0.12848600  0.18013400  0.94894000  1
  O  O80  1  0.72663600  0.88548900  0.36175100  1
  O  O81  1  0.22663600  0.61451100  0.63824900  1
  O  O82  1  0.27336400  0.38548900  0.13824900  1
  O  O83  1  0.77336400  0.11451100  0.86175100  1
  O  O84  1  0.27336400  0.11451100  0.63824900  1
  O  O85  1  0.77336400  0.38548900  0.36175100  1
  O  O86  1  0.72663600  0.61451100  0.86175100  1
  O  O87  1  0.22663600  0.88548900  0.13824900  1
  O  O88  1  0.42032200  0.63262100  0.58860700  1
  O  O89  1  0.92032200  0.86737900  0.41139300  1
  O  O90  1  0.57967800  0.13262100  0.91139300  1
  O  O91  1  0.07967800  0.36737900  0.08860700  1
  O  O92  1  0.57967800  0.36737900  0.41139300  1
  O  O93  1  0.07967800  0.13262100  0.58860700  1
  O  O94  1  0.42032200  0.86737900  0.08860700  1
  O  O95  1  0.92032200  0.63262100  0.91139300  1
  O  O96  1  0.16178300  0.96846500  0.66278600  1
  O  O97  1  0.66178300  0.53153500  0.33721400  1
  O  O98  1  0.83821700  0.46846500  0.83721400  1
  O  O99  1  0.33821700  0.03153500  0.16278600  1
  O  O100  1  0.83821700  0.03153500  0.33721400  1
  O  O101  1  0.33821700  0.46846500  0.66278600  1
  O  O102  1  0.16178300  0.53153500  0.16278600  1
  O  O103  1  0.22970700  0.43792100  0.89640800  1
  O  O104  1  0.66178300  0.96846500  0.83721400  1
  O  O105  1  0.98221100  0.61763800  0.17740600  1
  O  O106  1  0.51778900  0.38236200  0.67740600  1
  O  O107  1  0.01778900  0.11763800  0.32259400  1
  O  O108  1  0.51778900  0.11763800  0.17740600  1
  O  O109  1  0.01778900  0.38236200  0.82259400  1
  O  O110  1  0.48221100  0.61763800  0.32259400  1
  O  O111  1  0.98221100  0.88236200  0.67740600  1
  O  O112  1  0.86140700  0.62661000  0.73134300  1
  O  O113  1  0.36140700  0.87339000  0.26865700  1
  O  O114  1  0.13859300  0.12661000  0.76865700  1
  O  O115  1  0.63859300  0.37339000  0.23134300  1
  O  O116  1  0.13859300  0.37339000  0.26865700  1
  O  O117  1  0.63859300  0.12661000  0.73134300  1
  O  O118  1  0.86140700  0.87339000  0.23134300  1
  O  O119  1  0.36140700  0.62661000  0.76865700  1
  O  O120  1  0.14987400  0.70994700  0.12029300  1
  O  O121  1  0.64987400  0.79005300  0.87970700  1
  O  O122  1  0.85012600  0.20994700  0.37970700  1
  O  O123  1  0.35012600  0.29005300  0.62029300  1
  O  O124  1  0.85012600  0.29005300  0.87970700  1
  O  O125  1  0.35012600  0.20994700  0.12029300  1
  O  O126  1  0.14987400  0.79005300  0.62029300  1
  O  O127  1  0.64987400  0.70994700  0.37970700  1
  O  O128  1  0.46235400  0.36512800  0.15107400  1
  O  O129  1  0.96235400  0.13487200  0.84892600  1
  O  O130  1  0.53764600  0.86512800  0.34892600  1
  O  O131  1  0.03764600  0.63487200  0.65107400  1
  O  O132  1  0.53764600  0.63487200  0.84892600  1
  O  O133  1  0.03764600  0.86512800  0.15107400  1
  O  O134  1  0.46235400  0.13487200  0.65107400  1
  O  O135  1  0.96235400  0.36512800  0.34892600  1
  O  O136  1  0.08108400  0.50251300  0.39876600  1
  O  O137  1  0.58108400  0.99748700  0.60123400  1
  O  O138  1  0.91891600  0.00251300  0.10123400  1
  O  O139  1  0.41891600  0.49748700  0.89876600  1
  O  O140  1  0.91891600  0.49748700  0.60123400  1
  O  O141  1  0.41891600  0.00251300  0.39876600  1
  O  O142  1  0.08108400  0.99748700  0.89876600  1
  O  O143  1  0.58108400  0.50251300  0.10123400  1
  O  O144  1  0.37336000  0.16731000  0.48208300  1
  O  O145  1  0.87336000  0.33269000  0.51791700  1
  O  O146  1  0.62664000  0.66731000  0.01791700  1
  O  O147  1  0.12664000  0.83269000  0.98208300  1
  O  O148  1  0.62664000  0.83269000  0.51791700  1
  O  O149  1  0.12664000  0.66731000  0.48208300  1
  O  O150  1  0.37336000  0.33269000  0.98208300  1
  O  O151  1  0.87336000  0.16731000  0.01791700  1
  O  O152  1  0.72970700  0.43792100  0.60359200  1
  O  O153  1  0.22970700  0.06207900  0.39640800  1
  O  O154  1  0.27029300  0.93792100  0.89640800  1
  O  O155  1  0.77029300  0.56207900  0.10359200  1
  O  O156  1  0.27029300  0.56207900  0.39640800  1
  O  O157  1  0.77029300  0.93792100  0.60359200  1
  O  O158  1  0.72970700  0.06207900  0.10359200  1
  O  O159  1  0.48221100  0.88236200  0.82259400  1
