# generated using pymatgen
data_SmFeSi2
_symmetry_space_group_name_H-M   'P 1'
_cell_length_a   3.98264300
_cell_length_b   4.31845300
_cell_length_c   8.03498468
_cell_angle_alpha   76.83857219
_cell_angle_beta   90.00000000
_cell_angle_gamma   90.00000000
_symmetry_Int_Tables_number   1
_chemical_formula_structural   SmFeSi2
_chemical_formula_sum   'Sm2 Fe2 Si4'
_cell_volume   134.56256421
_cell_formula_units_Z   2
loop_
 _symmetry_equiv_pos_site_id
 _symmetry_equiv_pos_as_xyz
  1  'x, y, z'
loop_
 _atom_site_type_symbol
 _atom_site_label
 _atom_site_symmetry_multiplicity
 _atom_site_fract_x
 _atom_site_fract_y
 _atom_site_fract_z
 _atom_site_occupancy
  Sm  Sm0  1  0.25000000  0.59552200  0.79527900  1
  Sm  Sm1  1  0.75000000  0.40447800  0.20472100  1
  Fe  Fe2  1  0.25000000  0.88155200  0.39124400  1
  Fe  Fe3  1  0.75000000  0.11844800  0.60875600  1
  Si  Si4  1  0.25000000  0.95978900  0.09775200  1
  Si  Si5  1  0.75000000  0.04021100  0.90224800  1
  Si  Si6  1  0.25000000  0.32745800  0.49293000  1
  Si  Si7  1  0.75000000  0.67254200  0.50707000  1
