# generated using pymatgen
data_K3Al2(AsO4)3
_symmetry_space_group_name_H-M   'P 1'
_cell_length_a   8.84571100
_cell_length_b   9.00781000
_cell_length_c   17.74218700
_cell_angle_alpha   90.00000000
_cell_angle_beta   90.00000000
_cell_angle_gamma   90.00000000
_symmetry_Int_Tables_number   1
_chemical_formula_structural   K3Al2(AsO4)3
_chemical_formula_sum   'K12 Al8 As12 O48'
_cell_volume   1413.70604743
_cell_formula_units_Z   4
loop_
 _symmetry_equiv_pos_site_id
 _symmetry_equiv_pos_as_xyz
  1  'x, y, z'
loop_
 _atom_site_type_symbol
 _atom_site_label
 _atom_site_symmetry_multiplicity
 _atom_site_fract_x
 _atom_site_fract_y
 _atom_site_fract_z
 _atom_site_occupancy
  K  K0  1  0.84007100  0.51037100  0.09792600  1
  K  K1  1  0.34007100  0.48962900  0.90207400  1
  K  K2  1  0.34007100  0.98962900  0.59792600  1
  K  K3  1  0.84007100  0.01037100  0.40207400  1
  K  K4  1  0.30891500  0.45098700  0.14439500  1
  K  K5  1  0.80891500  0.54901300  0.85560500  1
  K  K6  1  0.80891500  0.04901300  0.64439500  1
  K  K7  1  0.30891500  0.95098700  0.35560500  1
  K  K8  1  0.11717400  0.18056600  0.01112400  1
  K  K9  1  0.61717400  0.81943400  0.98887600  1
  K  K10  1  0.61717400  0.31943400  0.51112400  1
  K  K11  1  0.11717400  0.68056600  0.48887600  1
  Al  Al12  1  0.14636400  0.84799200  0.16029900  1
  Al  Al13  1  0.64636400  0.15200800  0.83970100  1
  Al  Al14  1  0.64636400  0.65200800  0.66029900  1
  Al  Al15  1  0.14636400  0.34799200  0.33970100  1
  Al  Al16  1  0.65557400  0.63223800  0.33194600  1
  Al  Al17  1  0.15557400  0.36776200  0.66805400  1
  Al  Al18  1  0.15557400  0.86776200  0.83194600  1
  Al  Al19  1  0.65557400  0.13223800  0.16805400  1
  As  As20  1  0.00096300  0.65746600  0.28539100  1
  As  As21  1  0.50096300  0.34253400  0.71460900  1
  As  As22  1  0.50096300  0.84253400  0.78539100  1
  As  As23  1  0.00096300  0.15746600  0.21460900  1
  As  As24  1  0.51255800  0.79373100  0.18624400  1
  As  As25  1  0.01255800  0.20626900  0.81375600  1
  As  As26  1  0.01255800  0.70626900  0.68624400  1
  As  As27  1  0.51255800  0.29373100  0.31375600  1
  As  As28  1  0.08405800  0.73621200  0.99720700  1
  As  As29  1  0.58405800  0.26378800  0.00279300  1
  As  As30  1  0.58405800  0.76378800  0.49720700  1
  As  As31  1  0.08405800  0.23621200  0.50279300  1
  O  O32  1  0.03251900  0.79077100  0.34934500  1
  O  O33  1  0.53251900  0.20922900  0.65065500  1
  O  O34  1  0.53251900  0.70922900  0.84934500  1
  O  O35  1  0.03251900  0.29077100  0.15065500  1
  O  O36  1  0.13506100  0.51848100  0.29132900  1
  O  O37  1  0.63506100  0.48151900  0.70867100  1
  O  O38  1  0.63506100  0.98151900  0.79132900  1
  O  O39  1  0.13506100  0.01848100  0.20867100  1
  O  O40  1  0.01008700  0.71684100  0.19237600  1
  O  O41  1  0.51008700  0.28315900  0.80762400  1
  O  O42  1  0.51008700  0.78315900  0.69237600  1
  O  O43  1  0.01008700  0.21684100  0.30762400  1
  O  O44  1  0.82652000  0.57119500  0.29040700  1
  O  O45  1  0.32652000  0.42880500  0.70959300  1
  O  O46  1  0.32652000  0.92880500  0.79040700  1
  O  O47  1  0.82652000  0.07119500  0.20959300  1
  O  O48  1  0.58728400  0.67109600  0.12627500  1
  O  O49  1  0.08728400  0.32890400  0.87372500  1
  O  O50  1  0.08728400  0.82890400  0.62627500  1
  O  O51  1  0.58728400  0.17109600  0.37372500  1
  O  O52  1  0.53723600  0.97588600  0.15909000  1
  O  O53  1  0.03723600  0.02411400  0.84091000  1
  O  O54  1  0.03723600  0.52411400  0.65909000  1
  O  O55  1  0.53723600  0.47588600  0.34091000  1
  O  O56  1  0.56929100  0.77803600  0.27942800  1
  O  O57  1  0.06929100  0.22196400  0.72057200  1
  O  O58  1  0.06929100  0.72196400  0.77942800  1
  O  O59  1  0.56929100  0.27803600  0.22057200  1
  O  O60  1  0.31899500  0.76903200  0.19060100  1
  O  O61  1  0.81899500  0.23096800  0.80939900  1
  O  O62  1  0.81899500  0.73096800  0.69060100  1
  O  O63  1  0.31899500  0.26903200  0.30939900  1
  O  O64  1  0.15405300  0.57425900  0.03066600  1
  O  O65  1  0.65405300  0.42574100  0.96933400  1
  O  O66  1  0.65405300  0.92574100  0.53066600  1
  O  O67  1  0.15405300  0.07425900  0.46933400  1
  O  O68  1  0.19704800  0.79176900  0.92086800  1
  O  O69  1  0.69704800  0.20823100  0.07913200  1
  O  O70  1  0.69704800  0.70823100  0.42086800  1
  O  O71  1  0.19704800  0.29176900  0.57913200  1
  O  O72  1  0.89956000  0.73402600  0.97350100  1
  O  O73  1  0.39956000  0.26597400  0.02649900  1
  O  O74  1  0.39956000  0.76597400  0.47350100  1
  O  O75  1  0.89956000  0.23402600  0.52649900  1
  O  O76  1  0.12067100  0.87984000  0.06305300  1
  O  O77  1  0.62067100  0.12016000  0.93694700  1
  O  O78  1  0.62067100  0.62016000  0.56305300  1
  O  O79  1  0.12067100  0.37984000  0.43694700  1
