# generated using pymatgen
data_KSmF4
_symmetry_space_group_name_H-M   'P 1'
_cell_length_a   3.72132900
_cell_length_b   6.23498900
_cell_length_c   15.72907100
_cell_angle_alpha   90.00000000
_cell_angle_beta   90.00000000
_cell_angle_gamma   90.00000000
_symmetry_Int_Tables_number   1
_chemical_formula_structural   KSmF4
_chemical_formula_sum   'K4 Sm4 F16'
_cell_volume   364.95291076
_cell_formula_units_Z   4
loop_
 _symmetry_equiv_pos_site_id
 _symmetry_equiv_pos_as_xyz
  1  'x, y, z'
loop_
 _atom_site_type_symbol
 _atom_site_label
 _atom_site_symmetry_multiplicity
 _atom_site_fract_x
 _atom_site_fract_y
 _atom_site_fract_z
 _atom_site_occupancy
  K  K0  1  0.75000000  0.72228400  0.79790600  1
  K  K1  1  0.25000000  0.27771600  0.20209400  1
  K  K2  1  0.75000000  0.22228400  0.70209400  1
  K  K3  1  0.25000000  0.77771600  0.29790600  1
  Sm  Sm4  1  0.25000000  0.74865600  0.55985500  1
  Sm  Sm5  1  0.75000000  0.25134400  0.44014500  1
  Sm  Sm6  1  0.25000000  0.24865600  0.94014500  1
  Sm  Sm7  1  0.75000000  0.75134400  0.05985500  1
  F  F8  1  0.25000000  0.90809900  0.69037900  1
  F  F9  1  0.75000000  0.09190100  0.30962100  1
  F  F10  1  0.25000000  0.40809900  0.80962100  1
  F  F11  1  0.75000000  0.59190100  0.19037900  1
  F  F12  1  0.75000000  0.60574500  0.63263600  1
  F  F13  1  0.25000000  0.39425500  0.36736400  1
  F  F14  1  0.75000000  0.10574500  0.86736400  1
  F  F15  1  0.25000000  0.89425500  0.13263600  1
  F  F16  1  0.75000000  0.63372100  0.46416900  1
  F  F17  1  0.25000000  0.36627900  0.53583100  1
  F  F18  1  0.75000000  0.13372100  0.03583100  1
  F  F19  1  0.25000000  0.86627900  0.96416900  1
  F  F20  1  0.25000000  0.49515200  0.05724500  1
  F  F21  1  0.75000000  0.50484800  0.94275500  1
  F  F22  1  0.25000000  0.99515200  0.44275500  1
  F  F23  1  0.75000000  0.00484800  0.55724500  1
