# generated using pymatgen
data_CePIr
_symmetry_space_group_name_H-M   'P 1'
_cell_length_a   7.75447423
_cell_length_b   7.75447423
_cell_length_c   7.75447423
_cell_angle_alpha   149.86978174
_cell_angle_beta   149.86978174
_cell_angle_gamma   43.13258260
_symmetry_Int_Tables_number   1
_chemical_formula_structural   CePIr
_chemical_formula_sum   'Ce2 P2 Ir2'
_cell_volume   117.18296513
_cell_formula_units_Z   2
loop_
 _symmetry_equiv_pos_site_id
 _symmetry_equiv_pos_as_xyz
  1  'x, y, z'
loop_
 _atom_site_type_symbol
 _atom_site_label
 _atom_site_symmetry_multiplicity
 _atom_site_fract_x
 _atom_site_fract_y
 _atom_site_fract_z
 _atom_site_occupancy
  Ce  Ce0  1  0.75065500  0.75065500  0.00000000  1
  Ce  Ce1  1  0.50065500  0.00065500  0.50000000  1
  P  P2  1  0.16995500  0.16995500  0.00000000  1
  P  P3  1  0.91995500  0.41995500  0.50000000  1
  Ir  Ir4  1  0.08492000  0.58492000  0.50000000  1
  Ir  Ir5  1  0.33492000  0.33492000  0.00000000  1
