# generated using pymatgen
data_Cs2LaCl5
_symmetry_space_group_name_H-M   'P 1'
_cell_length_a   8.70109400
_cell_length_b   9.28100100
_cell_length_c   14.19024100
_cell_angle_alpha   90.00000000
_cell_angle_beta   90.00000000
_cell_angle_gamma   90.00000000
_symmetry_Int_Tables_number   1
_chemical_formula_structural   Cs2LaCl5
_chemical_formula_sum   'Cs8 La4 Cl20'
_cell_volume   1145.93095533
_cell_formula_units_Z   4
loop_
 _symmetry_equiv_pos_site_id
 _symmetry_equiv_pos_as_xyz
  1  'x, y, z'
loop_
 _atom_site_type_symbol
 _atom_site_label
 _atom_site_symmetry_multiplicity
 _atom_site_fract_x
 _atom_site_fract_y
 _atom_site_fract_z
 _atom_site_occupancy
  Cs  Cs0  1  0.94785800  0.00636700  0.82829700  1
  Cs  Cs1  1  0.05214200  0.99363300  0.17170300  1
  Cs  Cs2  1  0.44785800  0.99363300  0.67170300  1
  Cs  Cs3  1  0.05214200  0.50636700  0.17170300  1
  Cs  Cs4  1  0.55214200  0.00636700  0.32829700  1
  Cs  Cs5  1  0.94785800  0.49363300  0.82829700  1
  Cs  Cs6  1  0.55214200  0.49363300  0.32829700  1
  Cs  Cs7  1  0.44785800  0.50636700  0.67170300  1
  La  La8  1  0.93426300  0.75000000  0.50230500  1
  La  La9  1  0.06573700  0.25000000  0.49769500  1
  La  La10  1  0.43426300  0.25000000  0.99769500  1
  La  La11  1  0.56573700  0.75000000  0.00230500  1
  Cl  Cl12  1  0.11219300  0.75000000  0.66749000  1
  Cl  Cl13  1  0.88780700  0.25000000  0.33251000  1
  Cl  Cl14  1  0.61219300  0.25000000  0.83251000  1
  Cl  Cl15  1  0.38780700  0.75000000  0.16749000  1
  Cl  Cl16  1  0.84554000  0.03896100  0.57011900  1
  Cl  Cl17  1  0.15446000  0.96103900  0.42988100  1
  Cl  Cl18  1  0.34554000  0.96103900  0.92988100  1
  Cl  Cl19  1  0.15446000  0.53896100  0.42988100  1
  Cl  Cl20  1  0.65446000  0.03896100  0.07011900  1
  Cl  Cl21  1  0.84554000  0.46103900  0.57011900  1
  Cl  Cl22  1  0.65446000  0.46103900  0.07011900  1
  Cl  Cl23  1  0.34554000  0.53896100  0.92988100  1
  Cl  Cl24  1  0.60720700  0.75000000  0.51182800  1
  Cl  Cl25  1  0.39279300  0.25000000  0.48817200  1
  Cl  Cl26  1  0.10720700  0.25000000  0.98817200  1
  Cl  Cl27  1  0.89279300  0.75000000  0.01182800  1
  Cl  Cl28  1  0.65185400  0.75000000  0.80989600  1
  Cl  Cl29  1  0.34814600  0.25000000  0.19010400  1
  Cl  Cl30  1  0.15185400  0.25000000  0.69010400  1
  Cl  Cl31  1  0.84814600  0.75000000  0.30989600  1
