# generated using pymatgen
data_MnB4O7
_symmetry_space_group_name_H-M   'P 1'
_cell_length_a   8.23395100
_cell_length_b   8.81024400
_cell_length_c   14.18691000
_cell_angle_alpha   90.00000000
_cell_angle_beta   90.00000000
_cell_angle_gamma   90.00000000
_symmetry_Int_Tables_number   1
_chemical_formula_structural   MnB4O7
_chemical_formula_sum   'Mn8 B32 O56'
_cell_volume   1029.16267759
_cell_formula_units_Z   8
loop_
 _symmetry_equiv_pos_site_id
 _symmetry_equiv_pos_as_xyz
  1  'x, y, z'
loop_
 _atom_site_type_symbol
 _atom_site_label
 _atom_site_symmetry_multiplicity
 _atom_site_fract_x
 _atom_site_fract_y
 _atom_site_fract_z
 _atom_site_occupancy
  Mn  Mn0  1  0.61860600  0.10784200  0.38674300  1
  Mn  Mn1  1  0.11860600  0.39215700  0.61325700  1
  Mn  Mn2  1  0.38139300  0.60784200  0.11325700  1
  Mn  Mn3  1  0.88139400  0.89215700  0.88674300  1
  Mn  Mn4  1  0.38139300  0.89215700  0.61325700  1
  Mn  Mn5  1  0.88139400  0.60784200  0.38674300  1
  Mn  Mn6  1  0.61860600  0.39215700  0.88674300  1
  Mn  Mn7  1  0.11860600  0.10784200  0.11325700  1
  B  B8  1  0.18705100  0.13985700  0.46161200  1
  B  B9  1  0.68705200  0.36014300  0.53838800  1
  B  B10  1  0.81294800  0.63985600  0.03838800  1
  B  B11  1  0.31294800  0.86014400  0.96161200  1
  B  B12  1  0.81294800  0.86014400  0.53838800  1
  B  B13  1  0.31294800  0.63985600  0.46161200  1
  B  B14  1  0.18705100  0.36014300  0.96161200  1
  B  B15  1  0.68705200  0.13985700  0.03838800  1
  B  B16  1  0.99371900  0.07267700  0.33573800  1
  B  B17  1  0.49371900  0.42732400  0.66426300  1
  B  B18  1  0.00628100  0.57267700  0.16426300  1
  B  B19  1  0.50628100  0.92732300  0.83573800  1
  B  B20  1  0.00628100  0.92732300  0.66426300  1
  B  B21  1  0.50628100  0.57267700  0.33573800  1
  B  B22  1  0.99371900  0.42732400  0.83573800  1
  B  B23  1  0.49371900  0.07267700  0.16426300  1
  B  B24  1  0.02860400  0.33538600  0.26576300  1
  B  B25  1  0.52860500  0.16461300  0.73423600  1
  B  B26  1  0.97139500  0.83538600  0.23423700  1
  B  B27  1  0.47139600  0.66461400  0.76576300  1
  B  B28  1  0.97139500  0.66461400  0.73423600  1
  B  B29  1  0.47139600  0.83538600  0.26576300  1
  B  B30  1  0.02860400  0.16461300  0.76576300  1
  B  B31  1  0.52860500  0.33538600  0.23423700  1
  B  B32  1  0.93564300  0.29081500  0.43332300  1
  B  B33  1  0.43564200  0.20918400  0.56667700  1
  B  B34  1  0.06435700  0.79081600  0.06667700  1
  B  B35  1  0.56435700  0.70918400  0.93332300  1
  B  B36  1  0.06435700  0.70918400  0.56667700  1
  B  B37  1  0.56435700  0.79081600  0.43332300  1
  B  B38  1  0.93564300  0.20918400  0.93332300  1
  B  B39  1  0.43564200  0.29081500  0.06667700  1
  O  O40  1  0.14551600  0.05107000  0.38766400  1
  O  O41  1  0.64551500  0.44893100  0.61233700  1
  O  O42  1  0.85448500  0.55107000  0.11233600  1
  O  O43  1  0.35448500  0.94893000  0.88766400  1
  O  O44  1  0.85448500  0.94893000  0.61233700  1
  O  O45  1  0.35448500  0.55107000  0.38766400  1
  O  O46  1  0.14551600  0.44893100  0.88766400  1
  O  O47  1  0.64551500  0.05107000  0.11233600  1
  O  O48  1  0.08468800  0.25704800  0.49107200  1
  O  O49  1  0.58468900  0.24295100  0.50892900  1
  O  O50  1  0.91531100  0.75704900  0.00892800  1
  O  O51  1  0.41531100  0.74295100  0.99107100  1
  O  O52  1  0.91531100  0.74295100  0.50892900  1
  O  O53  1  0.41531100  0.75704900  0.49107200  1
  O  O54  1  0.08468800  0.24295100  0.99107100  1
  O  O55  1  0.58468900  0.25704800  0.00892800  1
  O  O56  1  0.03300100  0.17908800  0.25150400  1
  O  O57  1  0.53300200  0.32091300  0.74849600  1
  O  O58  1  0.96699800  0.67908800  0.24849600  1
  O  O59  1  0.46699900  0.82091200  0.75150400  1
  O  O60  1  0.96699800  0.82091200  0.74849600  1
  O  O61  1  0.46699900  0.67908800  0.25150400  1
  O  O62  1  0.03300100  0.32091300  0.75150400  1
  O  O63  1  0.53300200  0.17908800  0.24849600  1
  O  O64  1  0.98253900  0.39297600  0.35260100  1
  O  O65  1  0.48253900  0.10702300  0.64739900  1
  O  O66  1  0.01746100  0.89297600  0.14739900  1
  O  O67  1  0.51746100  0.60702400  0.85260100  1
  O  O68  1  0.01746100  0.60702400  0.64739900  1
  O  O69  1  0.51746100  0.89297600  0.35260100  1
  O  O70  1  0.98253900  0.10702300  0.85260100  1
  O  O71  1  0.48253900  0.39297600  0.14739900  1
  O  O72  1  0.83237200  0.38533100  0.49213800  1
  O  O73  1  0.33237200  0.11466900  0.50786200  1
  O  O74  1  0.16762700  0.88533100  0.00786200  1
  O  O75  1  0.66762700  0.61466900  0.99213800  1
  O  O76  1  0.16762700  0.61466900  0.50786200  1
  O  O77  1  0.66762700  0.88533100  0.49213800  1
  O  O78  1  0.83237200  0.11466900  0.99213800  1
  O  O79  1  0.33237200  0.38533100  0.00786200  1
  O  O80  1  0.86983200  0.15132200  0.39450400  1
  O  O81  1  0.36983300  0.34867800  0.60549600  1
  O  O82  1  0.13016700  0.65132300  0.10549600  1
  O  O83  1  0.63016700  0.84867700  0.89450400  1
  O  O84  1  0.13016700  0.84867700  0.60549600  1
  O  O85  1  0.63016700  0.65132300  0.39450400  1
  O  O86  1  0.86983200  0.34867800  0.89450400  1
  O  O87  1  0.36983300  0.15132200  0.10549600  1
  O  O88  1  0.57168900  0.42815700  0.30639500  1
  O  O89  1  0.07168900  0.07184200  0.69360400  1
  O  O90  1  0.42831000  0.92815800  0.19360400  1
  O  O91  1  0.92831000  0.57184200  0.80639600  1
  O  O92  1  0.42831000  0.57184200  0.69360400  1
  O  O93  1  0.92831000  0.92815800  0.30639500  1
  O  O94  1  0.57168900  0.07184200  0.80639600  1
  O  O95  1  0.07168900  0.42815700  0.19360400  1
