# generated using pymatgen
data_K3Er7S12
_symmetry_space_group_name_H-M   'P 1'
_cell_length_a   3.96379700
_cell_length_b   11.89950000
_cell_length_c   24.73478900
_cell_angle_alpha   90.00000000
_cell_angle_beta   90.00000000
_cell_angle_gamma   90.00000000
_symmetry_Int_Tables_number   1
_chemical_formula_structural   K3Er7S12
_chemical_formula_sum   'K6 Er14 S24'
_cell_volume   1166.67079912
_cell_formula_units_Z   2
loop_
 _symmetry_equiv_pos_site_id
 _symmetry_equiv_pos_as_xyz
  1  'x, y, z'
loop_
 _atom_site_type_symbol
 _atom_site_label
 _atom_site_symmetry_multiplicity
 _atom_site_fract_x
 _atom_site_fract_y
 _atom_site_fract_z
 _atom_site_occupancy
  K  K0  1  0.50000000  0.55191100  0.13487200  1
  K  K1  1  0.50000000  0.94536400  0.86413300  1
  K  K2  1  0.00000000  0.05463600  0.36413300  1
  K  K3  1  0.00000000  0.44808900  0.63487200  1
  K  K4  1  0.50000000  0.81720500  0.46847300  1
  K  K5  1  0.00000000  0.18279500  0.96847300  1
  Er  Er6  1  0.50000000  0.31079300  0.82031800  1
  Er  Er7  1  0.50000000  0.19218300  0.17851500  1
  Er  Er8  1  0.00000000  0.80781700  0.67851500  1
  Er  Er9  1  0.00000000  0.68920700  0.32031800  1
  Er  Er10  1  0.00000000  0.25135500  0.50018600  1
  Er  Er11  1  0.50000000  0.74864500  0.00018600  1
  Er  Er12  1  0.50000000  0.47989200  0.42156200  1
  Er  Er13  1  0.50000000  0.02023700  0.58030000  1
  Er  Er14  1  0.00000000  0.97976300  0.08030000  1
  Er  Er15  1  0.00000000  0.52010800  0.92156200  1
  Er  Er16  1  0.50000000  0.64507700  0.78843100  1
  Er  Er17  1  0.50000000  0.85548100  0.21088000  1
  Er  Er18  1  0.00000000  0.14451900  0.71088000  1
  Er  Er19  1  0.00000000  0.35492300  0.28843100  1
  S  S20  1  0.50000000  0.52026400  0.30763500  1
  S  S21  1  0.50000000  0.98012700  0.69259700  1
  S  S22  1  0.00000000  0.01987300  0.19259700  1
  S  S23  1  0.00000000  0.47973600  0.80763500  1
  S  S24  1  0.50000000  0.65592500  0.67841500  1
  S  S25  1  0.50000000  0.84443900  0.32307000  1
  S  S26  1  0.00000000  0.15556100  0.82307000  1
  S  S27  1  0.00000000  0.34407500  0.17841500  1
  S  S28  1  0.50000000  0.40208000  0.52231500  1
  S  S29  1  0.50000000  0.09440800  0.47711700  1
  S  S30  1  0.00000000  0.90559200  0.97711700  1
  S  S31  1  0.00000000  0.59792000  0.02231500  1
  S  S32  1  0.50000000  0.36409300  0.92624100  1
  S  S33  1  0.50000000  0.13504300  0.07260400  1
  S  S34  1  0.00000000  0.86495700  0.57260400  1
  S  S35  1  0.00000000  0.63590700  0.42624100  1
  S  S36  1  0.50000000  0.29434800  0.71274600  1
  S  S37  1  0.50000000  0.20512800  0.28730800  1
  S  S38  1  0.00000000  0.79487200  0.78730800  1
  S  S39  1  0.00000000  0.70565200  0.21274600  1
  S  S40  1  0.50000000  0.67074700  0.89787300  1
  S  S41  1  0.50000000  0.82833700  0.10230800  1
  S  S42  1  0.00000000  0.17166300  0.60230800  1
  S  S43  1  0.00000000  0.32925300  0.39787300  1
