# generated using pymatgen
data_Al9Ir2
_symmetry_space_group_name_H-M   'P 1'
_cell_length_a   6.46291900
_cell_length_b   6.40484600
_cell_length_c   8.77897743
_cell_angle_alpha   85.01013690
_cell_angle_beta   90.00000000
_cell_angle_gamma   90.00000000
_symmetry_Int_Tables_number   1
_chemical_formula_structural   Al9Ir2
_chemical_formula_sum   'Al18 Ir4'
_cell_volume   362.01976208
_cell_formula_units_Z   2
loop_
 _symmetry_equiv_pos_site_id
 _symmetry_equiv_pos_as_xyz
  1  'x, y, z'
loop_
 _atom_site_type_symbol
 _atom_site_label
 _atom_site_symmetry_multiplicity
 _atom_site_fract_x
 _atom_site_fract_y
 _atom_site_fract_z
 _atom_site_occupancy
  Al  Al0  1  0.50000000  0.00000000  0.50000000  1
  Al  Al1  1  0.00000000  0.00000000  0.00000000  1
  Al  Al2  1  0.60384100  0.21315600  0.96045000  1
  Al  Al3  1  0.10384100  0.78684400  0.53955000  1
  Al  Al4  1  0.51984800  0.40042100  0.22991700  1
  Al  Al5  1  0.01984800  0.59957900  0.27008300  1
  Al  Al6  1  0.48015200  0.59957900  0.77008300  1
  Al  Al7  1  0.98015200  0.40042100  0.72991700  1
  Al  Al8  1  0.30536900  0.38809100  0.50149400  1
  Al  Al9  1  0.80536900  0.61190900  0.99850600  1
  Al  Al10  1  0.69463100  0.61190900  0.49850600  1
  Al  Al11  1  0.19463100  0.38809100  0.00149400  1
  Al  Al12  1  0.21541100  0.09809400  0.27299700  1
  Al  Al13  1  0.71541100  0.90190600  0.22700300  1
  Al  Al14  1  0.78458900  0.90190600  0.72700300  1
  Al  Al15  1  0.28458900  0.09809400  0.77299700  1
  Al  Al16  1  0.89615900  0.21315600  0.46045000  1
  Al  Al17  1  0.39615900  0.78684400  0.03955000  1
  Ir  Ir18  1  0.62284800  0.26418200  0.66843100  1
  Ir  Ir19  1  0.12284800  0.73581800  0.83156900  1
  Ir  Ir20  1  0.37715200  0.73581800  0.33156900  1
  Ir  Ir21  1  0.87715200  0.26418200  0.16843100  1
