# generated using pymatgen
data_TmNi3Ge2
_symmetry_space_group_name_H-M   'P 1'
_cell_length_a   17.99570862
_cell_length_b   17.99570862
_cell_length_c   3.79342400
_cell_angle_alpha   90.00000000
_cell_angle_beta   90.00000000
_cell_angle_gamma   120.00000227
_symmetry_Int_Tables_number   1
_chemical_formula_structural   TmNi3Ge2
_chemical_formula_sum   'Tm12 Ni36 Ge24'
_cell_volume   1063.89780875
_cell_formula_units_Z   12
loop_
 _symmetry_equiv_pos_site_id
 _symmetry_equiv_pos_as_xyz
  1  'x, y, z'
loop_
 _atom_site_type_symbol
 _atom_site_label
 _atom_site_symmetry_multiplicity
 _atom_site_fract_x
 _atom_site_fract_y
 _atom_site_fract_z
 _atom_site_occupancy
  Tm  Tm0  1  0.66223400  0.90262800  0.50000000  1
  Tm  Tm1  1  0.24039400  0.33776600  0.50000000  1
  Tm  Tm2  1  0.09737200  0.75960600  0.50000000  1
  Tm  Tm3  1  0.42492800  0.99247100  0.50000000  1
  Tm  Tm4  1  0.56754300  0.57507200  0.50000000  1
  Tm  Tm5  1  0.00752900  0.43245700  0.50000000  1
  Tm  Tm6  1  0.66666700  0.33333300  0.00000000  1
  Tm  Tm7  1  0.83292400  0.66669800  0.50000000  1
  Tm  Tm8  1  0.83377400  0.16707600  0.50000000  1
  Tm  Tm9  1  0.33330200  0.16622600  0.50000000  1
  Tm  Tm10  1  0.33333300  0.66666700  0.50000000  1
  Tm  Tm11  1  0.00000000  0.00000000  0.00000000  1
  Ni  Ni12  1  0.49559000  0.78129100  0.00000000  1
  Ni  Ni13  1  0.28570100  0.50441000  0.00000000  1
  Ni  Ni14  1  0.21870900  0.71429900  0.00000000  1
  Ni  Ni15  1  0.82059900  0.53268000  0.00000000  1
  Ni  Ni16  1  0.71208100  0.17940100  0.00000000  1
  Ni  Ni17  1  0.46732000  0.28791900  0.00000000  1
  Ni  Ni18  1  0.67388200  0.52642100  0.00000000  1
  Ni  Ni19  1  0.85253800  0.32611800  0.00000000  1
  Ni  Ni20  1  0.47357900  0.14746200  0.00000000  1
  Ni  Ni21  1  0.84577700  0.91315000  0.50000000  1
  Ni  Ni22  1  0.06737300  0.15422300  0.50000000  1
  Ni  Ni23  1  0.08685000  0.93262700  0.50000000  1
  Ni  Ni24  1  0.61019900  0.73371200  0.00000000  1
  Ni  Ni25  1  0.12351400  0.38980100  0.00000000  1
  Ni  Ni26  1  0.26628800  0.87648600  0.00000000  1
  Ni  Ni27  1  0.54447300  0.94393100  0.00000000  1
  Ni  Ni28  1  0.39945800  0.45552700  0.00000000  1
  Ni  Ni29  1  0.05606900  0.60054200  0.00000000  1
  Ni  Ni30  1  0.72434500  0.75760400  0.50000000  1
  Ni  Ni31  1  0.03325800  0.27565500  0.50000000  1
  Ni  Ni32  1  0.24239600  0.96674200  0.50000000  1
  Ni  Ni33  1  0.38075200  0.82586900  0.00000000  1
  Ni  Ni34  1  0.44511700  0.61924800  0.00000000  1
  Ni  Ni35  1  0.17413100  0.55488300  0.00000000  1
  Ni  Ni36  1  0.99129900  0.80711300  0.00000000  1
  Ni  Ni37  1  0.81581300  0.00870100  0.00000000  1
  Ni  Ni38  1  0.19288700  0.18418700  0.00000000  1
  Ni  Ni39  1  0.84628100  0.80132700  0.00000000  1
  Ni  Ni40  1  0.95504600  0.15371900  0.00000000  1
  Ni  Ni41  1  0.19867300  0.04495400  0.00000000  1
  Ni  Ni42  1  0.94647100  0.57604600  0.50000000  1
  Ni  Ni43  1  0.62957500  0.05352900  0.50000000  1
  Ni  Ni44  1  0.42395400  0.37042500  0.50000000  1
  Ni  Ni45  1  0.82109900  0.42228800  0.50000000  1
  Ni  Ni46  1  0.60118900  0.17890100  0.50000000  1
  Ni  Ni47  1  0.57771200  0.39881100  0.50000000  1
  Ge  Ge48  1  0.95976000  0.66279200  0.00000000  1
  Ge  Ge49  1  0.70303300  0.04024000  0.00000000  1
  Ge  Ge50  1  0.33720800  0.29696700  0.00000000  1
  Ge  Ge51  1  0.93860000  0.85409300  0.50000000  1
  Ge  Ge52  1  0.91549200  0.06140000  0.50000000  1
  Ge  Ge53  1  0.14590700  0.08450800  0.50000000  1
  Ge  Ge54  1  0.91519800  0.47746400  0.00000000  1
  Ge  Ge55  1  0.56226700  0.08480200  0.00000000  1
  Ge  Ge56  1  0.52253600  0.43773300  0.00000000  1
  Ge  Ge57  1  0.72572300  0.47876400  0.50000000  1
  Ge  Ge58  1  0.75304100  0.27427700  0.50000000  1
  Ge  Ge59  1  0.52123600  0.24695900  0.50000000  1
  Ge  Ge60  1  0.75255900  0.85602900  0.00000000  1
  Ge  Ge61  1  0.10347000  0.24744100  0.00000000  1
  Ge  Ge62  1  0.14397100  0.89653000  0.00000000  1
  Ge  Ge63  1  0.47852600  0.85815600  0.50000000  1
  Ge  Ge64  1  0.37963000  0.52147400  0.50000000  1
  Ge  Ge65  1  0.14184400  0.62037000  0.50000000  1
  Ge  Ge66  1  0.52370200  0.71396300  0.50000000  1
  Ge  Ge67  1  0.19026100  0.47629800  0.50000000  1
  Ge  Ge68  1  0.28603700  0.80973900  0.50000000  1
  Ge  Ge69  1  0.70564100  0.67051400  0.00000000  1
  Ge  Ge70  1  0.96487300  0.29435900  0.00000000  1
  Ge  Ge71  1  0.32948600  0.03512700  0.00000000  1
