# generated using pymatgen
data_CeSi2Rh3
_symmetry_space_group_name_H-M   'P 1'
_cell_length_a   6.64750182
_cell_length_b   6.64750182
_cell_length_c   6.64750182
_cell_angle_alpha   129.96371912
_cell_angle_beta   114.81888082
_cell_angle_gamma   86.44230446
_symmetry_Int_Tables_number   1
_chemical_formula_structural   CeSi2Rh3
_chemical_formula_sum   'Ce2 Si4 Rh6'
_cell_volume   195.04227142
_cell_formula_units_Z   2
loop_
 _symmetry_equiv_pos_site_id
 _symmetry_equiv_pos_as_xyz
  1  'x, y, z'
loop_
 _atom_site_type_symbol
 _atom_site_label
 _atom_site_symmetry_multiplicity
 _atom_site_fract_x
 _atom_site_fract_y
 _atom_site_fract_z
 _atom_site_occupancy
  Ce  Ce0  1  0.25000000  0.96246100  0.71246100  1
  Ce  Ce1  1  0.75000000  0.03753900  0.28753900  1
  Si  Si2  1  0.07856700  0.27228000  0.19371300  1
  Si  Si3  1  0.92143300  0.72772000  0.80628700  1
  Si  Si4  1  0.42143300  0.61514600  0.19371300  1
  Si  Si5  1  0.57856700  0.38485400  0.80628700  1
  Rh  Rh6  1  0.50000000  0.50000000  0.50000000  1
  Rh  Rh7  1  0.00000000  0.50000000  0.00000000  1
  Rh  Rh8  1  0.28575200  0.00000000  0.28575200  1
  Rh  Rh9  1  0.71424800  0.00000000  0.71424800  1
  Rh  Rh10  1  0.21424800  0.50000000  0.71424800  1
  Rh  Rh11  1  0.78575200  0.50000000  0.28575200  1
