# generated using pymatgen
data_Rb3Zr6BeCl15
_symmetry_space_group_name_H-M   'P 1'
_cell_length_a   10.23541585
_cell_length_b   10.23541585
_cell_length_c   14.37871315
_cell_angle_alpha   87.54005522
_cell_angle_beta   87.54005522
_cell_angle_gamma   69.60324908
_symmetry_Int_Tables_number   1
_chemical_formula_structural   Rb3Zr6BeCl15
_chemical_formula_sum   'Rb6 Zr12 Be2 Cl30'
_cell_volume   1409.99097762
_cell_formula_units_Z   2
loop_
 _symmetry_equiv_pos_site_id
 _symmetry_equiv_pos_as_xyz
  1  'x, y, z'
loop_
 _atom_site_type_symbol
 _atom_site_label
 _atom_site_symmetry_multiplicity
 _atom_site_fract_x
 _atom_site_fract_y
 _atom_site_fract_z
 _atom_site_occupancy
  Rb  Rb0  1  0.93873800  0.06126200  0.25000000  1
  Rb  Rb1  1  0.06126200  0.93873800  0.75000000  1
  Rb  Rb2  1  0.64124500  0.13010300  0.56636300  1
  Rb  Rb3  1  0.35875500  0.86989700  0.43363700  1
  Rb  Rb4  1  0.86989700  0.35875500  0.93363700  1
  Rb  Rb5  1  0.13010300  0.64124500  0.06636300  1
  Zr  Zr6  1  0.54647600  0.84963300  0.13373800  1
  Zr  Zr7  1  0.45352400  0.15036700  0.86626200  1
  Zr  Zr8  1  0.15036700  0.45352400  0.36626200  1
  Zr  Zr9  1  0.84963300  0.54647600  0.63373800  1
  Zr  Zr10  1  0.27225000  0.99890300  0.00139700  1
  Zr  Zr11  1  0.72775000  0.00109700  0.99860300  1
  Zr  Zr12  1  0.00109700  0.72775000  0.49860300  1
  Zr  Zr13  1  0.99890300  0.27225000  0.50139700  1
  Zr  Zr14  1  0.42554400  0.19563600  0.09663200  1
  Zr  Zr15  1  0.57445600  0.80436400  0.90336800  1
  Zr  Zr16  1  0.80436400  0.57445600  0.40336800  1
  Zr  Zr17  1  0.19563600  0.42554400  0.59663200  1
  Be  Be18  1  0.50000000  0.00000000  0.00000000  1
  Be  Be19  1  0.00000000  0.50000000  0.50000000  1
  Cl  Cl20  1  0.29265300  0.84402800  0.15071100  1
  Cl  Cl21  1  0.70734700  0.15597200  0.84928900  1
  Cl  Cl22  1  0.15597200  0.70734700  0.34928900  1
  Cl  Cl23  1  0.84402800  0.29265300  0.65071100  1
  Cl  Cl24  1  0.58300300  0.67060400  0.28786800  1
  Cl  Cl25  1  0.41699700  0.32939600  0.71213200  1
  Cl  Cl26  1  0.32939600  0.41699700  0.21213200  1
  Cl  Cl27  1  0.67060400  0.58300300  0.78786800  1
  Cl  Cl28  1  0.67284100  0.21898600  0.10090100  1
  Cl  Cl29  1  0.32715900  0.78101400  0.89909900  1
  Cl  Cl30  1  0.78101400  0.32715900  0.39909900  1
  Cl  Cl31  1  0.21898600  0.67284100  0.60090100  1
  Cl  Cl32  1  0.48126400  0.04802500  0.25036500  1
  Cl  Cl33  1  0.51873600  0.95197500  0.74963500  1
  Cl  Cl34  1  0.95197500  0.51873600  0.24963500  1
  Cl  Cl35  1  0.04802500  0.48126400  0.75036500  1
  Cl  Cl36  1  0.62241700  0.62996900  0.54077800  1
  Cl  Cl37  1  0.37758300  0.37003100  0.45922200  1
  Cl  Cl38  1  0.37003100  0.37758300  0.95922200  1
  Cl  Cl39  1  0.62996900  0.62241700  0.04077800  1
  Cl  Cl40  1  0.80279100  0.84233600  0.14492700  1
  Cl  Cl41  1  0.19720900  0.15766400  0.85507300  1
  Cl  Cl42  1  0.15766400  0.19720900  0.35507300  1
  Cl  Cl43  1  0.84233600  0.80279100  0.64492700  1
  Cl  Cl44  1  0.78268600  0.83742500  0.39942200  1
  Cl  Cl45  1  0.21731400  0.16257500  0.60057800  1
  Cl  Cl46  1  0.16257500  0.21731400  0.10057800  1
  Cl  Cl47  1  0.83742500  0.78268600  0.89942200  1
  Cl  Cl48  1  0.00000000  0.00000000  0.00000000  1
  Cl  Cl49  1  0.00000000  0.00000000  0.50000000  1
