# generated using pymatgen
data_ErAgTe2
_symmetry_space_group_name_H-M   'P 1'
_cell_length_a   7.08493700
_cell_length_b   7.08493700
_cell_length_c   4.70479100
_cell_angle_alpha   90.00000000
_cell_angle_beta   90.00000000
_cell_angle_gamma   90.00000000
_symmetry_Int_Tables_number   1
_chemical_formula_structural   ErAgTe2
_chemical_formula_sum   'Er2 Ag2 Te4'
_cell_volume   236.16325241
_cell_formula_units_Z   2
loop_
 _symmetry_equiv_pos_site_id
 _symmetry_equiv_pos_as_xyz
  1  'x, y, z'
loop_
 _atom_site_type_symbol
 _atom_site_label
 _atom_site_symmetry_multiplicity
 _atom_site_fract_x
 _atom_site_fract_y
 _atom_site_fract_z
 _atom_site_occupancy
  Er  Er0  1  0.50000000  0.00000000  0.19207900  1
  Er  Er1  1  0.00000000  0.50000000  0.80792100  1
  Ag  Ag2  1  0.00000000  0.00000000  0.00000000  1
  Ag  Ag3  1  0.50000000  0.50000000  0.00000000  1
  Te  Te4  1  0.20149500  0.29850500  0.29100800  1
  Te  Te5  1  0.70149500  0.20149500  0.70899200  1
  Te  Te6  1  0.79850500  0.70149500  0.29100800  1
  Te  Te7  1  0.29850500  0.79850500  0.70899200  1
