# generated using pymatgen
data_ErTl(MoO4)2
_symmetry_space_group_name_H-M   'P 1'
_cell_length_a   5.11248200
_cell_length_b   8.09790900
_cell_length_c   18.75491500
_cell_angle_alpha   90.00000000
_cell_angle_beta   90.00000000
_cell_angle_gamma   90.00000000
_symmetry_Int_Tables_number   1
_chemical_formula_structural   ErTl(MoO4)2
_chemical_formula_sum   'Er4 Tl4 Mo8 O32'
_cell_volume   776.46124554
_cell_formula_units_Z   4
loop_
 _symmetry_equiv_pos_site_id
 _symmetry_equiv_pos_as_xyz
  1  'x, y, z'
loop_
 _atom_site_type_symbol
 _atom_site_label
 _atom_site_symmetry_multiplicity
 _atom_site_fract_x
 _atom_site_fract_y
 _atom_site_fract_z
 _atom_site_occupancy
  Er  Er0  1  0.00000000  0.75000000  0.00613400  1
  Er  Er1  1  0.00000000  0.25000000  0.99386600  1
  Er  Er2  1  0.50000000  0.25000000  0.49386600  1
  Er  Er3  1  0.50000000  0.75000000  0.50613400  1
  Tl  Tl4  1  0.00000000  0.75000000  0.76980900  1
  Tl  Tl5  1  0.00000000  0.25000000  0.23019100  1
  Tl  Tl6  1  0.50000000  0.25000000  0.73019100  1
  Tl  Tl7  1  0.50000000  0.75000000  0.26980900  1
  Mo  Mo8  1  0.02246500  0.51588000  0.40044500  1
  Mo  Mo9  1  0.97753500  0.48412000  0.59955500  1
  Mo  Mo10  1  0.47753500  0.01588000  0.09955500  1
  Mo  Mo11  1  0.97753500  0.98412000  0.40044500  1
  Mo  Mo12  1  0.52246500  0.98412000  0.90044500  1
  Mo  Mo13  1  0.02246500  0.01588000  0.59955500  1
  Mo  Mo14  1  0.52246500  0.48412000  0.09955500  1
  Mo  Mo15  1  0.47753500  0.51588000  0.90044500  1
  O  O16  1  0.09966400  0.97530700  0.31296300  1
  O  O17  1  0.90033600  0.02469300  0.68703700  1
  O  O18  1  0.40033600  0.47530700  0.18703700  1
  O  O19  1  0.90033600  0.52469300  0.31296300  1
  O  O20  1  0.59966400  0.52469300  0.81296300  1
  O  O21  1  0.09966400  0.47530700  0.68703700  1
  O  O22  1  0.59966400  0.02469300  0.18703700  1
  O  O23  1  0.40033600  0.97530700  0.81296300  1
  O  O24  1  0.26718100  0.83833500  0.09712000  1
  O  O25  1  0.73281900  0.16166500  0.90288000  1
  O  O26  1  0.23281900  0.33833500  0.40288000  1
  O  O27  1  0.73281900  0.66166500  0.09712000  1
  O  O28  1  0.76718100  0.66166500  0.59712000  1
  O  O29  1  0.26718100  0.33833500  0.90288000  1
  O  O30  1  0.76718100  0.16166500  0.40288000  1
  O  O31  1  0.23281900  0.83833500  0.59712000  1
  O  O32  1  0.24559100  0.50562700  0.03507200  1
  O  O33  1  0.75440900  0.49437300  0.96492800  1
  O  O34  1  0.25440900  0.00562700  0.46492800  1
  O  O35  1  0.75440900  0.99437300  0.03507200  1
  O  O36  1  0.74559100  0.99437300  0.53507200  1
  O  O37  1  0.24559100  0.00562700  0.96492800  1
  O  O38  1  0.74559100  0.49437300  0.46492800  1
  O  O39  1  0.25440900  0.50562700  0.53507200  1
  O  O40  1  0.24356000  0.69067400  0.41008100  1
  O  O41  1  0.75644000  0.30932600  0.58991900  1
  O  O42  1  0.25644000  0.19067400  0.08991900  1
  O  O43  1  0.75644000  0.80932600  0.41008100  1
  O  O44  1  0.74356000  0.80932600  0.91008100  1
  O  O45  1  0.24356000  0.19067400  0.58991900  1
  O  O46  1  0.74356000  0.30932600  0.08991900  1
  O  O47  1  0.25644000  0.69067400  0.91008100  1
