# generated using pymatgen
data_Eu2Si3Ni8
_symmetry_space_group_name_H-M   'P 1'
_cell_length_a   9.98871300
_cell_length_b   9.98871300
_cell_length_c   7.48750100
_cell_angle_alpha   90.00000000
_cell_angle_beta   90.00000000
_cell_angle_gamma   90.00000000
_symmetry_Int_Tables_number   1
_chemical_formula_structural   Eu2Si3Ni8
_chemical_formula_sum   'Eu8 Si12 Ni32'
_cell_volume   747.06082540
_cell_formula_units_Z   4
loop_
 _symmetry_equiv_pos_site_id
 _symmetry_equiv_pos_as_xyz
  1  'x, y, z'
loop_
 _atom_site_type_symbol
 _atom_site_label
 _atom_site_symmetry_multiplicity
 _atom_site_fract_x
 _atom_site_fract_y
 _atom_site_fract_z
 _atom_site_occupancy
  Eu  Eu0  1  0.50000000  0.70609300  0.64153500  1
  Eu  Eu1  1  0.50000000  0.29390700  0.64153500  1
  Eu  Eu2  1  0.20609300  0.00000000  0.14153500  1
  Eu  Eu3  1  0.79390700  0.00000000  0.14153500  1
  Eu  Eu4  1  0.00000000  0.79390700  0.85846500  1
  Eu  Eu5  1  0.00000000  0.20609300  0.85846500  1
  Eu  Eu6  1  0.29390700  0.50000000  0.35846500  1
  Eu  Eu7  1  0.70609300  0.50000000  0.35846500  1
  Si  Si8  1  0.50000000  0.00000000  0.26494200  1
  Si  Si9  1  0.50000000  0.00000000  0.76494200  1
  Si  Si10  1  0.00000000  0.50000000  0.23505800  1
  Si  Si11  1  0.00000000  0.50000000  0.73505800  1
  Si  Si12  1  0.29244200  0.70755800  0.00000000  1
  Si  Si13  1  0.29244200  0.29244200  0.00000000  1
  Si  Si14  1  0.70755800  0.70755800  0.00000000  1
  Si  Si15  1  0.70755800  0.29244200  0.00000000  1
  Si  Si16  1  0.20755800  0.79244200  0.50000000  1
  Si  Si17  1  0.20755800  0.20755800  0.50000000  1
  Si  Si18  1  0.79244200  0.79244200  0.50000000  1
  Si  Si19  1  0.79244200  0.20755800  0.50000000  1
  Ni  Ni20  1  0.50000000  0.86254200  0.00749900  1
  Ni  Ni21  1  0.50000000  0.13745800  0.00749900  1
  Ni  Ni22  1  0.36254200  0.00000000  0.50749900  1
  Ni  Ni23  1  0.63745800  0.00000000  0.50749900  1
  Ni  Ni24  1  0.00000000  0.63745800  0.49250100  1
  Ni  Ni25  1  0.00000000  0.36254200  0.49250100  1
  Ni  Ni26  1  0.13745800  0.50000000  0.99250100  1
  Ni  Ni27  1  0.86254200  0.50000000  0.99250100  1
  Ni  Ni28  1  0.37298100  0.79273400  0.28185700  1
  Ni  Ni29  1  0.37298100  0.20726600  0.28185700  1
  Ni  Ni30  1  0.62701900  0.79273400  0.28185700  1
  Ni  Ni31  1  0.62701900  0.20726600  0.28185700  1
  Ni  Ni32  1  0.29273400  0.87298100  0.78185700  1
  Ni  Ni33  1  0.29273400  0.12701900  0.78185700  1
  Ni  Ni34  1  0.70726600  0.87298100  0.78185700  1
  Ni  Ni35  1  0.70726600  0.12701900  0.78185700  1
  Ni  Ni36  1  0.12701900  0.70726600  0.21814300  1
  Ni  Ni37  1  0.12701900  0.29273400  0.21814300  1
  Ni  Ni38  1  0.87298100  0.70726600  0.21814300  1
  Ni  Ni39  1  0.87298100  0.29273400  0.21814300  1
  Ni  Ni40  1  0.20726600  0.62701900  0.71814300  1
  Ni  Ni41  1  0.20726600  0.37298100  0.71814300  1
  Ni  Ni42  1  0.79273400  0.62701900  0.71814300  1
  Ni  Ni43  1  0.79273400  0.37298100  0.71814300  1
  Ni  Ni44  1  0.50000000  0.62752900  0.10228600  1
  Ni  Ni45  1  0.50000000  0.37247100  0.10228600  1
  Ni  Ni46  1  0.12752900  0.00000000  0.60228600  1
  Ni  Ni47  1  0.87247100  0.00000000  0.60228600  1
  Ni  Ni48  1  0.00000000  0.87247100  0.39771400  1
  Ni  Ni49  1  0.00000000  0.12752900  0.39771400  1
  Ni  Ni50  1  0.37247100  0.50000000  0.89771400  1
  Ni  Ni51  1  0.62752900  0.50000000  0.89771400  1
