# generated using pymatgen
data_TbMg(BO2)5
_symmetry_space_group_name_H-M   'P 1'
_cell_length_a   7.65979000
_cell_length_b   8.64242200
_cell_length_c   12.38435164
_cell_angle_alpha   49.29240774
_cell_angle_beta   90.00000000
_cell_angle_gamma   90.00000000
_symmetry_Int_Tables_number   1
_chemical_formula_structural   TbMg(BO2)5
_chemical_formula_sum   'Tb4 Mg4 B20 O40'
_cell_volume   621.47300235
_cell_formula_units_Z   4
loop_
 _symmetry_equiv_pos_site_id
 _symmetry_equiv_pos_as_xyz
  1  'x, y, z'
loop_
 _atom_site_type_symbol
 _atom_site_label
 _atom_site_symmetry_multiplicity
 _atom_site_fract_x
 _atom_site_fract_y
 _atom_site_fract_z
 _atom_site_occupancy
  Tb  Tb0  1  0.19069900  0.94649500  0.24053000  1
  Tb  Tb1  1  0.80930100  0.05350500  0.75947000  1
  Tb  Tb2  1  0.69069900  0.05350500  0.25947000  1
  Tb  Tb3  1  0.30930100  0.94649500  0.74053000  1
  Mg  Mg4  1  0.90917700  0.52619700  0.37225600  1
  Mg  Mg5  1  0.09082300  0.47380300  0.62774400  1
  Mg  Mg6  1  0.40917700  0.47380300  0.12774400  1
  Mg  Mg7  1  0.59082300  0.52619700  0.87225600  1
  B  B8  1  0.82666400  0.91232000  0.10412600  1
  B  B9  1  0.17333600  0.08768000  0.89587400  1
  B  B10  1  0.32666400  0.08768000  0.39587400  1
  B  B11  1  0.67333600  0.91232000  0.60412600  1
  B  B12  1  0.57635300  0.65828800  0.25870400  1
  B  B13  1  0.42364700  0.34171200  0.74129600  1
  B  B14  1  0.07635300  0.34171200  0.24129600  1
  B  B15  1  0.92364700  0.65828800  0.75870400  1
  B  B16  1  0.81257900  0.47788200  0.08808100  1
  B  B17  1  0.18742100  0.52211800  0.91191900  1
  B  B18  1  0.31257900  0.52211800  0.41191900  1
  B  B19  1  0.68742100  0.47788200  0.58808100  1
  B  B20  1  0.46827600  0.72234400  0.55558300  1
  B  B21  1  0.53172400  0.27765600  0.44441700  1
  B  B22  1  0.96827600  0.27765600  0.94441700  1
  B  B23  1  0.03172400  0.72234400  0.05558300  1
  B  B24  1  0.59807700  0.84638900  0.99552000  1
  B  B25  1  0.40192300  0.15361100  0.00448000  1
  B  B26  1  0.09807700  0.15361100  0.50448000  1
  B  B27  1  0.90192300  0.84638900  0.49552000  1
  O  O28  1  0.91327600  0.31282300  0.19395500  1
  O  O29  1  0.08672400  0.68717700  0.80604500  1
  O  O30  1  0.41327600  0.68717700  0.30604500  1
  O  O31  1  0.58672400  0.31282300  0.69395500  1
  O  O32  1  0.87371200  0.67370800  0.00940600  1
  O  O33  1  0.12628800  0.32629200  0.99059400  1
  O  O34  1  0.37371200  0.32629200  0.49059400  1
  O  O35  1  0.62628800  0.67370800  0.50940600  1
  O  O36  1  0.39094400  0.90669200  0.41874200  1
  O  O37  1  0.60905600  0.09330800  0.58125800  1
  O  O38  1  0.89094400  0.09330800  0.08125800  1
  O  O39  1  0.10905600  0.90669200  0.91874200  1
  O  O40  1  0.71096600  0.80324700  0.23120700  1
  O  O41  1  0.28903400  0.19675300  0.76879300  1
  O  O42  1  0.21096600  0.19675300  0.26879300  1
  O  O43  1  0.78903400  0.80324700  0.73120700  1
  O  O44  1  0.65121400  0.42385900  0.07333200  1
  O  O45  1  0.34878600  0.57614100  0.92666800  1
  O  O46  1  0.15121400  0.57614100  0.42666800  1
  O  O47  1  0.84878600  0.42385900  0.57333200  1
  O  O48  1  0.77152700  0.97332500  0.47962100  1
  O  O49  1  0.22847300  0.02667500  0.52037900  1
  O  O50  1  0.27152700  0.02667500  0.02037900  1
  O  O51  1  0.72847300  0.97332500  0.97962100  1
  O  O52  1  0.64999000  0.45269600  0.36543700  1
  O  O53  1  0.35001000  0.54730400  0.63456300  1
  O  O54  1  0.14999000  0.54730400  0.13456300  1
  O  O55  1  0.85001000  0.45269600  0.86543700  1
  O  O56  1  0.53086200  0.68946000  0.12774400  1
  O  O57  1  0.46913800  0.31054000  0.87225600  1
  O  O58  1  0.03086200  0.31054000  0.37225600  1
  O  O59  1  0.96913800  0.68946000  0.62774400  1
  O  O60  1  0.95267700  0.88245400  0.37633000  1
  O  O61  1  0.04732300  0.11754600  0.62367000  1
  O  O62  1  0.45267700  0.11754600  0.12367000  1
  O  O63  1  0.54732300  0.88245400  0.87633000  1
  O  O64  1  0.97187300  0.76653100  0.14811600  1
  O  O65  1  0.02812700  0.23346900  0.85188400  1
  O  O66  1  0.47187300  0.23346900  0.35188400  1
  O  O67  1  0.52812700  0.76653100  0.64811600  1
