# generated using pymatgen
data_Eu(SnPd)2
_symmetry_space_group_name_H-M   'P 1'
_cell_length_a   4.71259100
_cell_length_b   4.71259100
_cell_length_c   10.68769300
_cell_angle_alpha   90.00000000
_cell_angle_beta   90.00000000
_cell_angle_gamma   90.00000000
_symmetry_Int_Tables_number   1
_chemical_formula_structural   Eu(SnPd)2
_chemical_formula_sum   'Eu2 Sn4 Pd4'
_cell_volume   237.35777891
_cell_formula_units_Z   2
loop_
 _symmetry_equiv_pos_site_id
 _symmetry_equiv_pos_as_xyz
  1  'x, y, z'
loop_
 _atom_site_type_symbol
 _atom_site_label
 _atom_site_symmetry_multiplicity
 _atom_site_fract_x
 _atom_site_fract_y
 _atom_site_fract_z
 _atom_site_occupancy
  Eu  Eu0  1  0.00000000  0.50000000  0.24530800  1
  Eu  Eu1  1  0.50000000  0.00000000  0.75469200  1
  Sn  Sn2  1  0.00000000  0.00000000  0.50000000  1
  Sn  Sn3  1  0.50000000  0.50000000  0.50000000  1
  Sn  Sn4  1  0.00000000  0.50000000  0.87975400  1
  Sn  Sn5  1  0.50000000  0.00000000  0.12024600  1
  Pd  Pd6  1  0.00000000  0.50000000  0.63174800  1
  Pd  Pd7  1  0.50000000  0.00000000  0.36825200  1
  Pd  Pd8  1  0.00000000  0.00000000  0.00000000  1
  Pd  Pd9  1  0.50000000  0.50000000  0.00000000  1
