# generated using pymatgen
data_BaMgP2O7
_symmetry_space_group_name_H-M   'P 1'
_cell_length_a   8.65081100
_cell_length_b   5.55309800
_cell_length_c   13.96031124
_cell_angle_alpha   68.02658153
_cell_angle_beta   90.00000000
_cell_angle_gamma   90.00000000
_symmetry_Int_Tables_number   1
_chemical_formula_structural   BaMgP2O7
_chemical_formula_sum   'Ba4 Mg4 P8 O28'
_cell_volume   621.91992890
_cell_formula_units_Z   4
loop_
 _symmetry_equiv_pos_site_id
 _symmetry_equiv_pos_as_xyz
  1  'x, y, z'
loop_
 _atom_site_type_symbol
 _atom_site_label
 _atom_site_symmetry_multiplicity
 _atom_site_fract_x
 _atom_site_fract_y
 _atom_site_fract_z
 _atom_site_occupancy
  Ba  Ba0  1  0.12679200  0.05763100  0.70295900  1
  Ba  Ba1  1  0.62679200  0.94236900  0.79704100  1
  Ba  Ba2  1  0.87320800  0.94236900  0.29704100  1
  Ba  Ba3  1  0.37320800  0.05763100  0.20295900  1
  Mg  Mg4  1  0.33365800  0.33354200  0.87847000  1
  Mg  Mg5  1  0.83365800  0.66645800  0.62153000  1
  Mg  Mg6  1  0.66634200  0.66645800  0.12153000  1
  Mg  Mg7  1  0.16634200  0.33354200  0.37847000  1
  P  P8  1  0.18585800  0.69752600  0.51844000  1
  P  P9  1  0.68585800  0.30247400  0.98156000  1
  P  P10  1  0.81414200  0.30247400  0.48156000  1
  P  P11  1  0.31414200  0.69752600  0.01844000  1
  P  P12  1  0.93834400  0.40214300  0.83035700  1
  P  P13  1  0.43834400  0.59785700  0.66964300  1
  P  P14  1  0.06165600  0.59785700  0.16964300  1
  P  P15  1  0.56165600  0.40214300  0.33035700  1
  O  O16  1  0.90433100  0.69403900  0.79324000  1
  O  O17  1  0.40433100  0.30596100  0.70676000  1
  O  O18  1  0.09566900  0.30596100  0.20676000  1
  O  O19  1  0.59566900  0.69403900  0.29324000  1
  O  O20  1  0.18972200  0.43987000  0.50175300  1
  O  O21  1  0.68972200  0.56013000  0.99824700  1
  O  O22  1  0.81027800  0.56013000  0.49824700  1
  O  O23  1  0.31027800  0.43987000  0.00175300  1
  O  O24  1  0.10743700  0.32517400  0.84568700  1
  O  O25  1  0.60743700  0.67482600  0.65431300  1
  O  O26  1  0.89256300  0.67482600  0.15431300  1
  O  O27  1  0.39256300  0.32517400  0.34568700  1
  O  O28  1  0.16042000  0.93360500  0.41901100  1
  O  O29  1  0.66042000  0.06639500  0.08098900  1
  O  O30  1  0.83958000  0.06639500  0.58098900  1
  O  O31  1  0.33958000  0.93360500  0.91901100  1
  O  O32  1  0.64263100  0.25499800  0.44201800  1
  O  O33  1  0.14263100  0.74500200  0.05798200  1
  O  O34  1  0.35736900  0.74500200  0.55798200  1
  O  O35  1  0.85736900  0.25499800  0.94201800  1
  O  O36  1  0.63586000  0.30115100  0.25115100  1
  O  O37  1  0.13586000  0.69884900  0.24884900  1
  O  O38  1  0.36414000  0.69884900  0.74884900  1
  O  O39  1  0.86414000  0.30115100  0.75115100  1
  O  O40  1  0.42466900  0.68183400  0.10667500  1
  O  O41  1  0.92466900  0.31816600  0.39332500  1
  O  O42  1  0.57533100  0.31816600  0.89332500  1
  O  O43  1  0.07533100  0.68183400  0.60667500  1
