# generated using pymatgen
data_Ba3Ho(BO3)3
_symmetry_space_group_name_H-M   'P 1'
_cell_length_a   9.49391922
_cell_length_b   9.49391922
_cell_length_c   18.04160900
_cell_angle_alpha   90.00000000
_cell_angle_beta   90.00000000
_cell_angle_gamma   119.99999456
_symmetry_Int_Tables_number   1
_chemical_formula_structural   Ba3Ho(BO3)3
_chemical_formula_sum   'Ba18 Ho6 B18 O54'
_cell_volume   1408.30585954
_cell_formula_units_Z   6
loop_
 _symmetry_equiv_pos_site_id
 _symmetry_equiv_pos_as_xyz
  1  'x, y, z'
loop_
 _atom_site_type_symbol
 _atom_site_label
 _atom_site_symmetry_multiplicity
 _atom_site_fract_x
 _atom_site_fract_y
 _atom_site_fract_z
 _atom_site_occupancy
  Ba  Ba0  1  0.68265000  0.68265000  0.86865500  1
  Ba  Ba1  1  0.00000000  0.68265000  0.36865500  1
  Ba  Ba2  1  0.68265000  0.00000000  0.36865500  1
  Ba  Ba3  1  0.31735000  0.00000000  0.86865500  1
  Ba  Ba4  1  0.00000000  0.31735000  0.86865500  1
  Ba  Ba5  1  0.31735000  0.31735000  0.36865500  1
  Ba  Ba6  1  0.65163900  0.65163900  0.63008200  1
  Ba  Ba7  1  0.00000000  0.65163900  0.13008200  1
  Ba  Ba8  1  0.65163900  0.00000000  0.13008200  1
  Ba  Ba9  1  0.34836100  0.00000000  0.63008200  1
  Ba  Ba10  1  0.00000000  0.34836100  0.63008200  1
  Ba  Ba11  1  0.34836100  0.34836100  0.13008200  1
  Ba  Ba12  1  0.33333300  0.66666700  0.27665700  1
  Ba  Ba13  1  0.66666700  0.33333300  0.77665700  1
  Ba  Ba14  1  0.33333300  0.66666700  0.77665700  1
  Ba  Ba15  1  0.66666700  0.33333300  0.27665700  1
  Ba  Ba16  1  0.00000000  0.00000000  0.71598900  1
  Ba  Ba17  1  0.00000000  0.00000000  0.21598900  1
  Ho  Ho18  1  0.33333300  0.66666700  0.99634600  1
  Ho  Ho19  1  0.66666700  0.33333300  0.49634600  1
  Ho  Ho20  1  0.33333300  0.66666700  0.49634600  1
  Ho  Ho21  1  0.66666700  0.33333300  0.99634600  1
  Ho  Ho22  1  0.00000000  0.00000000  0.50227000  1
  Ho  Ho23  1  0.00000000  0.00000000  0.00227000  1
  B  B24  1  0.65985500  0.65985500  0.42049600  1
  B  B25  1  0.00000000  0.65985500  0.92049600  1
  B  B26  1  0.65985500  0.00000000  0.92049600  1
  B  B27  1  0.34014500  0.00000000  0.42049600  1
  B  B28  1  0.00000000  0.34014500  0.42049600  1
  B  B29  1  0.34014500  0.34014500  0.92049600  1
  B  B30  1  0.66738900  0.66738900  0.24846400  1
  B  B31  1  0.00000000  0.66738900  0.74846400  1
  B  B32  1  0.66738900  0.00000000  0.74846400  1
  B  B33  1  0.33261100  0.00000000  0.24846400  1
  B  B34  1  0.00000000  0.33261100  0.24846400  1
  B  B35  1  0.33261100  0.33261100  0.74846400  1
  B  B36  1  0.67374300  0.67374300  0.07301500  1
  B  B37  1  0.00000000  0.67374300  0.57301500  1
  B  B38  1  0.67374300  0.00000000  0.57301500  1
  B  B39  1  0.32625700  0.00000000  0.07301500  1
  B  B40  1  0.00000000  0.32625700  0.07301500  1
  B  B41  1  0.32625700  0.32625700  0.57301500  1
  O  O42  1  0.80581900  0.80581900  0.43035100  1
  O  O43  1  0.00000000  0.80581900  0.93035100  1
  O  O44  1  0.80581900  0.00000000  0.93035100  1
  O  O45  1  0.19418100  0.00000000  0.43035100  1
  O  O46  1  0.00000000  0.19418100  0.43035100  1
  O  O47  1  0.19418100  0.19418100  0.93035100  1
  O  O48  1  0.66099400  0.14685300  0.91523800  1
  O  O49  1  0.85314700  0.51414100  0.91523800  1
  O  O50  1  0.48585900  0.33900600  0.91523800  1
  O  O51  1  0.51414100  0.66099400  0.41523800  1
  O  O52  1  0.33900600  0.85314700  0.41523800  1
  O  O53  1  0.14685300  0.48585900  0.41523800  1
  O  O54  1  0.66099400  0.51414100  0.41523800  1
  O  O55  1  0.14685300  0.66099400  0.91523800  1
  O  O56  1  0.51414100  0.85314700  0.91523800  1
  O  O57  1  0.48585900  0.14685300  0.41523800  1
  O  O58  1  0.85314700  0.33900600  0.41523800  1
  O  O59  1  0.33900600  0.48585900  0.91523800  1
  O  O60  1  0.52036100  0.52036100  0.24820600  1
  O  O61  1  0.00000000  0.52036100  0.74820600  1
  O  O62  1  0.52036100  0.00000000  0.74820600  1
  O  O63  1  0.47963900  0.00000000  0.24820600  1
  O  O64  1  0.00000000  0.47963900  0.24820600  1
  O  O65  1  0.47963900  0.47963900  0.74820600  1
  O  O66  1  0.81431200  0.14702900  0.74893500  1
  O  O67  1  0.85297100  0.66728300  0.74893500  1
  O  O68  1  0.33271700  0.18568800  0.74893500  1
  O  O69  1  0.66728300  0.81431200  0.24893500  1
  O  O70  1  0.18568800  0.85297100  0.24893500  1
  O  O71  1  0.14702900  0.33271700  0.24893500  1
  O  O72  1  0.81431200  0.66728300  0.24893500  1
  O  O73  1  0.14702900  0.81431200  0.74893500  1
  O  O74  1  0.66728300  0.85297100  0.74893500  1
  O  O75  1  0.33271700  0.14702900  0.24893500  1
  O  O76  1  0.85297100  0.18568800  0.24893500  1
  O  O77  1  0.18568800  0.33271700  0.74893500  1
  O  O78  1  0.67390100  0.14624800  0.56826200  1
  O  O79  1  0.85375200  0.52765300  0.56826200  1
  O  O80  1  0.47234700  0.32609900  0.56826200  1
  O  O81  1  0.52765300  0.67390100  0.06826200  1
  O  O82  1  0.32609900  0.85375200  0.06826200  1
  O  O83  1  0.14624800  0.47234700  0.06826200  1
  O  O84  1  0.67390100  0.52765300  0.06826200  1
  O  O85  1  0.14624800  0.67390100  0.56826200  1
  O  O86  1  0.52765300  0.85375200  0.56826200  1
  O  O87  1  0.47234700  0.14624800  0.06826200  1
  O  O88  1  0.85375200  0.32609900  0.06826200  1
  O  O89  1  0.32609900  0.47234700  0.56826200  1
  O  O90  1  0.81896800  0.81896800  0.08283900  1
  O  O91  1  0.00000000  0.81896800  0.58283900  1
  O  O92  1  0.81896800  0.00000000  0.58283900  1
  O  O93  1  0.18103200  0.00000000  0.08283900  1
  O  O94  1  0.00000000  0.18103200  0.08283900  1
  O  O95  1  0.18103200  0.18103200  0.58283900  1
