# generated using pymatgen
data_Ti5TlS8
_symmetry_space_group_name_H-M   'P 1'
_cell_length_a   3.51277490
_cell_length_b   8.83031792
_cell_length_c   9.10345657
_cell_angle_alpha   104.05356426
_cell_angle_beta   101.04141887
_cell_angle_gamma   90.25229279
_symmetry_Int_Tables_number   1
_chemical_formula_structural   Ti5TlS8
_chemical_formula_sum   'Ti5 Tl1 S8'
_cell_volume   268.47223675
_cell_formula_units_Z   1
loop_
 _symmetry_equiv_pos_site_id
 _symmetry_equiv_pos_as_xyz
  1  'x, y, z'
loop_
 _atom_site_type_symbol
 _atom_site_label
 _atom_site_symmetry_multiplicity
 _atom_site_fract_x
 _atom_site_fract_y
 _atom_site_fract_z
 _atom_site_occupancy
  Ti  Ti0  1  0.20686600  0.84646400  0.41879200  1
  Ti  Ti1  1  0.84419000  0.50462000  0.67931500  1
  Ti  Ti2  1  0.15581000  0.49538000  0.32068500  1
  Ti  Ti3  1  0.79313400  0.15353600  0.58120800  1
  Ti  Ti4  1  0.50000000  0.50000000  0.00000000  1
  Tl  Tl5  1  0.00000000  0.00000000  0.00000000  1
  S  S6  1  0.07545400  0.66610700  0.15137800  1
  S  S7  1  0.33719900  0.00850000  0.67519500  1
  S  S8  1  0.41767500  0.67045400  0.82323200  1
  S  S9  1  0.73717100  0.66674700  0.48077600  1
  S  S10  1  0.26282900  0.33325300  0.51922400  1
  S  S11  1  0.58232500  0.32954600  0.17676800  1
  S  S12  1  0.66280100  0.99150000  0.32480500  1
  S  S13  1  0.92454600  0.33389300  0.84862200  1
