# generated using pymatgen
data_Gd2Nb2S7O30
_symmetry_space_group_name_H-M   'P 1'
_cell_length_a   12.90517800
_cell_length_b   12.90517800
_cell_length_c   7.19319100
_cell_angle_alpha   90.00000000
_cell_angle_beta   90.00000000
_cell_angle_gamma   90.00000000
_symmetry_Int_Tables_number   1
_chemical_formula_structural   Gd2Nb2S7O30
_chemical_formula_sum   'Gd4 Nb4 S14 O60'
_cell_volume   1197.98006282
_cell_formula_units_Z   2
loop_
 _symmetry_equiv_pos_site_id
 _symmetry_equiv_pos_as_xyz
  1  'x, y, z'
loop_
 _atom_site_type_symbol
 _atom_site_label
 _atom_site_symmetry_multiplicity
 _atom_site_fract_x
 _atom_site_fract_y
 _atom_site_fract_z
 _atom_site_occupancy
  Gd  Gd0  1  0.80116900  0.69883100  0.59219900  1
  Gd  Gd1  1  0.69883100  0.19883100  0.40780100  1
  Gd  Gd2  1  0.19883100  0.30116900  0.59219900  1
  Gd  Gd3  1  0.30116900  0.80116900  0.40780100  1
  Nb  Nb4  1  0.63820000  0.86180000  0.98241800  1
  Nb  Nb5  1  0.86180000  0.36180000  0.01758200  1
  Nb  Nb6  1  0.36180000  0.13820000  0.98241800  1
  Nb  Nb7  1  0.13820000  0.63820000  0.01758200  1
  S  S8  1  0.50000000  0.00000000  0.34548500  1
  S  S9  1  0.00000000  0.50000000  0.65451500  1
  S  S10  1  0.37678900  0.87678900  0.89563000  1
  S  S11  1  0.12321100  0.37678900  0.10437000  1
  S  S12  1  0.62321100  0.12321100  0.89563000  1
  S  S13  1  0.87678900  0.62321100  0.10437000  1
  S  S14  1  0.56458500  0.67636600  0.29660600  1
  S  S15  1  0.93541500  0.17636600  0.70339400  1
  S  S16  1  0.43541500  0.32363400  0.29660600  1
  S  S17  1  0.06458500  0.82363400  0.70339400  1
  S  S18  1  0.67636600  0.43541500  0.70339400  1
  S  S19  1  0.82363400  0.93541500  0.29660600  1
  S  S20  1  0.32363400  0.56458500  0.70339400  1
  S  S21  1  0.17636600  0.06458500  0.29660600  1
  O  O22  1  0.70049700  0.79950300  0.79239600  1
  O  O23  1  0.79950300  0.29950300  0.20760400  1
  O  O24  1  0.29950300  0.20049700  0.79239600  1
  O  O25  1  0.20049700  0.70049700  0.20760400  1
  O  O26  1  0.56714000  0.06714000  0.45995200  1
  O  O27  1  0.93286000  0.56714000  0.54004800  1
  O  O28  1  0.43286000  0.93286000  0.45995200  1
  O  O29  1  0.06714000  0.43286000  0.54004800  1
  O  O30  1  0.56609400  0.93390600  0.22488400  1
  O  O31  1  0.93390600  0.43390600  0.77511600  1
  O  O32  1  0.43390600  0.06609400  0.22488400  1
  O  O33  1  0.06609400  0.56609400  0.77511600  1
  O  O34  1  0.34359800  0.84359800  0.07931900  1
  O  O35  1  0.15640200  0.34359800  0.92068100  1
  O  O36  1  0.65640200  0.15640200  0.07931900  1
  O  O37  1  0.84359800  0.65640200  0.92068100  1
  O  O38  1  0.32398600  0.82398600  0.74272700  1
  O  O39  1  0.17601400  0.32398600  0.25727300  1
  O  O40  1  0.67601400  0.17601400  0.74272700  1
  O  O41  1  0.82398600  0.67601400  0.25727300  1
  O  O42  1  0.49139600  0.85823400  0.87220600  1
  O  O43  1  0.00860400  0.35823400  0.12779400  1
  O  O44  1  0.50860400  0.14176600  0.87220600  1
  O  O45  1  0.99139600  0.64176600  0.12779400  1
  O  O46  1  0.85823400  0.50860400  0.12779400  1
  O  O47  1  0.64176600  0.00860400  0.87220600  1
  O  O48  1  0.14176600  0.49139600  0.12779400  1
  O  O49  1  0.35823400  0.99139600  0.87220600  1
  O  O50  1  0.63103100  0.71055600  0.45157700  1
  O  O51  1  0.86896900  0.21055600  0.54842300  1
  O  O52  1  0.36896900  0.28944400  0.45157700  1
  O  O53  1  0.13103100  0.78944400  0.54842300  1
  O  O54  1  0.71055600  0.36896900  0.54842300  1
  O  O55  1  0.78944400  0.86896900  0.45157700  1
  O  O56  1  0.28944400  0.63103100  0.54842300  1
  O  O57  1  0.21055600  0.13103100  0.45157700  1
  O  O58  1  0.45682500  0.70849500  0.32417500  1
  O  O59  1  0.04317500  0.20849500  0.67582500  1
  O  O60  1  0.54317500  0.29150500  0.32417500  1
  O  O61  1  0.95682500  0.79150500  0.67582500  1
  O  O62  1  0.70849500  0.54317500  0.67582500  1
  O  O63  1  0.79150500  0.04317500  0.32417500  1
  O  O64  1  0.29150500  0.45682500  0.67582500  1
  O  O65  1  0.20849500  0.95682500  0.32417500  1
  O  O66  1  0.57536100  0.56486800  0.26716800  1
  O  O67  1  0.92463900  0.06486800  0.73283200  1
  O  O68  1  0.42463900  0.43513200  0.26716800  1
  O  O69  1  0.07536100  0.93513200  0.73283200  1
  O  O70  1  0.56486800  0.42463900  0.73283200  1
  O  O71  1  0.93513200  0.92463900  0.26716800  1
  O  O72  1  0.43513200  0.57536100  0.73283200  1
  O  O73  1  0.06486800  0.07536100  0.26716800  1
  O  O74  1  0.60527700  0.73056200  0.11977300  1
  O  O75  1  0.89472300  0.23056200  0.88022700  1
  O  O76  1  0.39472300  0.26943800  0.11977300  1
  O  O77  1  0.10527700  0.76943800  0.88022700  1
  O  O78  1  0.73056200  0.39472300  0.88022700  1
  O  O79  1  0.76943800  0.89472300  0.11977300  1
  O  O80  1  0.26943800  0.60527700  0.88022700  1
  O  O81  1  0.23056200  0.10527700  0.11977300  1
