# generated using pymatgen
data_Nd3Tl5
_symmetry_space_group_name_H-M   'P 1'
_cell_length_a   6.72850886
_cell_length_b   6.72850886
_cell_length_c   10.61972800
_cell_angle_alpha   90.00000000
_cell_angle_beta   90.00000000
_cell_angle_gamma   102.81595929
_symmetry_Int_Tables_number   1
_chemical_formula_structural   Nd3Tl5
_chemical_formula_sum   'Nd6 Tl10'
_cell_volume   468.80764660
_cell_formula_units_Z   2
loop_
 _symmetry_equiv_pos_site_id
 _symmetry_equiv_pos_as_xyz
  1  'x, y, z'
loop_
 _atom_site_type_symbol
 _atom_site_label
 _atom_site_symmetry_multiplicity
 _atom_site_fract_x
 _atom_site_fract_y
 _atom_site_fract_z
 _atom_site_occupancy
  Nd  Nd0  1  0.62858200  0.62858200  0.25000000  1
  Nd  Nd1  1  0.37141800  0.37141800  0.75000000  1
  Nd  Nd2  1  0.79863700  0.20136300  0.50000000  1
  Nd  Nd3  1  0.79863700  0.20136300  0.00000000  1
  Nd  Nd4  1  0.20136300  0.79863700  0.50000000  1
  Nd  Nd5  1  0.20136300  0.79863700  0.00000000  1
  Tl  Tl6  1  0.00370500  0.00370500  0.25000000  1
  Tl  Tl7  1  0.99629500  0.99629500  0.75000000  1
  Tl  Tl8  1  0.30674200  0.30674200  0.05131200  1
  Tl  Tl9  1  0.69325800  0.69325800  0.94868800  1
  Tl  Tl10  1  0.30674200  0.30674200  0.44868800  1
  Tl  Tl11  1  0.69325800  0.69325800  0.55131200  1
  Tl  Tl12  1  0.06017700  0.51001200  0.25000000  1
  Tl  Tl13  1  0.48998800  0.93982300  0.75000000  1
  Tl  Tl14  1  0.93982300  0.48998800  0.75000000  1
  Tl  Tl15  1  0.51001200  0.06017700  0.25000000  1
