# generated using pymatgen
data_SbRhS
_symmetry_space_group_name_H-M   'P 1'
_cell_length_a   6.10150600
_cell_length_b   6.10150600
_cell_length_c   6.10150600
_cell_angle_alpha   90.00000000
_cell_angle_beta   90.00000000
_cell_angle_gamma   90.00000000
_symmetry_Int_Tables_number   1
_chemical_formula_structural   SbRhS
_chemical_formula_sum   'Sb4 Rh4 S4'
_cell_volume   227.14915629
_cell_formula_units_Z   4
loop_
 _symmetry_equiv_pos_site_id
 _symmetry_equiv_pos_as_xyz
  1  'x, y, z'
loop_
 _atom_site_type_symbol
 _atom_site_label
 _atom_site_symmetry_multiplicity
 _atom_site_fract_x
 _atom_site_fract_y
 _atom_site_fract_z
 _atom_site_occupancy
  Sb  Sb0  1  0.87867800  0.37867800  0.12132200  1
  Sb  Sb1  1  0.37867800  0.12132200  0.87867800  1
  Sb  Sb2  1  0.12132200  0.87867800  0.37867800  1
  Sb  Sb3  1  0.62132200  0.62132200  0.62132200  1
  Rh  Rh4  1  0.51273200  0.01273200  0.48726800  1
  Rh  Rh5  1  0.01273200  0.48726800  0.51273200  1
  Rh  Rh6  1  0.48726800  0.51273200  0.01273200  1
  Rh  Rh7  1  0.98726800  0.98726800  0.98726800  1
  S  S8  1  0.11765200  0.61765200  0.88234800  1
  S  S9  1  0.61765200  0.88234800  0.11765200  1
  S  S10  1  0.88234800  0.11765200  0.61765200  1
  S  S11  1  0.38234800  0.38234800  0.38234800  1
