# generated using pymatgen
data_Cs4Co3F10
_symmetry_space_group_name_H-M   'P 1'
_cell_length_a   7.98636710
_cell_length_b   7.98636710
_cell_length_c   14.07332100
_cell_angle_alpha   90.00000000
_cell_angle_beta   90.00000000
_cell_angle_gamma   133.56252696
_symmetry_Int_Tables_number   1
_chemical_formula_structural   Cs4Co3F10
_chemical_formula_sum   'Cs8 Co6 F20'
_cell_volume   650.43977145
_cell_formula_units_Z   2
loop_
 _symmetry_equiv_pos_site_id
 _symmetry_equiv_pos_as_xyz
  1  'x, y, z'
loop_
 _atom_site_type_symbol
 _atom_site_label
 _atom_site_symmetry_multiplicity
 _atom_site_fract_x
 _atom_site_fract_y
 _atom_site_fract_z
 _atom_site_occupancy
  Cs  Cs0  1  0.04458900  0.95541100  0.63924000  1
  Cs  Cs1  1  0.95541100  0.04458900  0.36076000  1
  Cs  Cs2  1  0.45541100  0.54458900  0.13924000  1
  Cs  Cs3  1  0.54458900  0.45541100  0.86076000  1
  Cs  Cs4  1  0.74413300  0.25586700  0.60916200  1
  Cs  Cs5  1  0.25586700  0.74413300  0.39083800  1
  Cs  Cs6  1  0.75586700  0.24413300  0.10916200  1
  Cs  Cs7  1  0.24413300  0.75586700  0.89083800  1
  Co  Co8  1  0.50000000  0.50000000  0.50000000  1
  Co  Co9  1  0.00000000  0.00000000  0.00000000  1
  Co  Co10  1  0.37914900  0.62085100  0.65319900  1
  Co  Co11  1  0.62085100  0.37914900  0.34680100  1
  Co  Co12  1  0.12085100  0.87914900  0.15319900  1
  Co  Co13  1  0.87914900  0.12085100  0.84680100  1
  F  F14  1  0.63513500  0.86486500  0.75000000  1
  F  F15  1  0.86486500  0.63513500  0.25000000  1
  F  F16  1  0.36486500  0.13513500  0.25000000  1
  F  F17  1  0.13513500  0.36486500  0.75000000  1
  F  F18  1  0.24515500  0.75484500  0.64719300  1
  F  F19  1  0.75484500  0.24515500  0.35280700  1
  F  F20  1  0.25484500  0.74515500  0.14719300  1
  F  F21  1  0.74515500  0.25484500  0.85280700  1
  F  F22  1  0.52553500  0.47446500  0.64557500  1
  F  F23  1  0.47446500  0.52553500  0.35442500  1
  F  F24  1  0.97446500  0.02553500  0.14557500  1
  F  F25  1  0.02553500  0.97446500  0.85442500  1
  F  F26  1  0.61569600  0.81575500  0.53739400  1
  F  F27  1  0.81575500  0.61569600  0.46260600  1
  F  F28  1  0.31575500  0.11569600  0.03739400  1
  F  F29  1  0.11569600  0.31575500  0.96260600  1
  F  F30  1  0.38430400  0.18424500  0.46260600  1
  F  F31  1  0.18424500  0.38430400  0.53739400  1
  F  F32  1  0.68424500  0.88430400  0.96260600  1
  F  F33  1  0.88430400  0.68424500  0.03739400  1
