# generated using pymatgen
data_C6N7Cl3
_symmetry_space_group_name_H-M   'P 1'
_cell_length_a   13.84853034
_cell_length_b   13.84853034
_cell_length_c   19.83295737
_cell_angle_alpha   95.43568802
_cell_angle_beta   104.93722558
_cell_angle_gamma   119.68217121
_symmetry_Int_Tables_number   1
_chemical_formula_structural   C6N7Cl3
_chemical_formula_sum   'C72 N84 Cl36'
_cell_volume   3078.78398478
_cell_formula_units_Z   12
loop_
 _symmetry_equiv_pos_site_id
 _symmetry_equiv_pos_as_xyz
  1  'x, y, z'
loop_
 _atom_site_type_symbol
 _atom_site_label
 _atom_site_symmetry_multiplicity
 _atom_site_fract_x
 _atom_site_fract_y
 _atom_site_fract_z
 _atom_site_occupancy
  C  C0  1  0.38647461  0.09799605  0.61920389  1
  C  C1  1  0.61352539  0.90200395  0.38079611  1
  C  C2  1  0.97879216  0.76727072  0.88079611  1
  C  C3  1  0.02120784  0.23272928  0.11920389  1
  C  C4  1  0.59142425  0.46094079  0.13653926  1
  C  C5  1  0.40857575  0.53905921  0.86346074  1
  C  C6  1  0.82440152  0.45488499  0.36346074  1
  C  C7  1  0.17559848  0.54511501  0.63653926  1
  C  C8  1  0.69945266  0.17967005  0.02417487  1
  C  C9  1  0.30054734  0.82032995  0.97582513  1
  C  C10  1  0.65549519  0.67527779  0.47582513  1
  C  C11  1  0.34450481  0.32472221  0.52417487  1
  C  C12  1  0.91881973  0.84682982  0.37149384  1
  C  C13  1  0.08118027  0.15317018  0.62850616  1
  C  C14  1  0.97533598  0.54732589  0.12850616  1
  C  C15  1  0.02466402  0.45267411  0.87149384  1
  C  C16  1  0.91376287  0.21583314  0.42358871  1
  C  C17  1  0.08623713  0.78416686  0.57641129  1
  C  C18  1  0.29224443  0.49017415  0.07641129  1
  C  C19  1  0.70775557  0.50982585  0.92358871  1
  C  C20  1  0.84491377  0.18872302  0.12820247  1
  C  C21  1  0.15508623  0.81127698  0.87179753  1
  C  C22  1  0.56052055  0.71671131  0.37179753  1
  C  C23  1  0.43947945  0.28328869  0.62820247  1
  C  C24  1  0.29097623  0.12839175  0.52039092  1
  C  C25  1  0.70902377  0.87160825  0.47960908  1
  C  C26  1  0.10800083  0.77058531  0.97960908  1
  C  C27  1  0.89199917  0.22941469  0.02039092  1
  C  C28  1  0.58181076  0.81788234  0.07177583  1
  C  C29  1  0.41818924  0.18211766  0.92822417  1
  C  C30  1  0.24610650  0.51003492  0.42822417  1
  C  C31  1  0.75389350  0.48996508  0.57177583  1
  C  C32  1  0.35725314  0.13209401  0.02186451  1
  C  C33  1  0.64274686  0.86790599  0.97813549  1
  C  C34  1  0.61022950  0.33538863  0.47813549  1
  C  C35  1  0.38977050  0.66461137  0.52186451  1
  C  C36  1  0.88440093  0.81805679  0.11521474  1
  C  C37  1  0.11559907  0.18194321  0.88478526  1
  C  C38  1  0.20284205  0.76918619  0.38478526  1
  C  C39  1  0.79715795  0.23081381  0.61521474  1
  C  C40  1  0.14310912  0.76633621  0.48114386  1
  C  C41  1  0.85689088  0.23366379  0.51885614  1
  C  C42  1  0.78519236  0.66196526  0.01885614  1
  C  C43  1  0.21480764  0.33803474  0.98114386  1
  C  C44  1  0.44367037  0.28378182  0.13176691  1
  C  C45  1  0.55632963  0.71621818  0.86823309  1
  C  C46  1  0.65201491  0.31190346  0.36823309  1
  C  C47  1  0.34798509  0.68809654  0.63176691  1
  C  C48  1  0.99888181  0.81861175  0.47664535  1
  C  C49  1  0.00111819  0.18138825  0.52335465  1
  C  C50  1  0.84196640  0.52223646  0.02335465  1
  C  C51  1  0.15803360  0.47776354  0.97664535  1
  C  C52  1  0.66641858  0.15112192  0.12884362  1
  C  C53  1  0.33358142  0.84887808  0.87115638  1
  C  C54  1  0.52227830  0.53757496  0.37115638  1
  C  C55  1  0.47772170  0.46242504  0.62884362  1
  C  C56  1  0.21279246  0.17629077  0.42447154  1
  C  C57  1  0.78720754  0.82370923  0.57552846  1
  C  C58  1  0.25181923  0.78832091  0.07552846  1
  C  C59  1  0.74818077  0.21167909  0.92447154  1
  C  C60  1  0.50742194  0.32792457  0.02945443  1
  C  C61  1  0.49257806  0.67207543  0.97054557  1
  C  C62  1  0.79847014  0.47796751  0.47054557  1
  C  C63  1  0.20152986  0.52203249  0.52945443  1
  C  C64  1  0.29615263  0.10027867  0.11775975  1
  C  C65  1  0.70384737  0.89972133  0.88224025  1
  C  C66  1  0.48251892  0.17839288  0.38224025  1
  C  C67  1  0.51748108  0.82160712  0.61775975  1
  C  C68  1  0.06228472  0.81157801  0.37380017  1
  C  C69  1  0.93771528  0.18842199  0.62619983  1
  C  C70  1  0.93777784  0.68848455  0.12619983  1
  C  C71  1  0.06222216  0.31151545  0.87380017  1
  N  N72  1  0.52505691  0.39274978  0.17028819  1
  N  N73  1  0.47494309  0.60725022  0.82971181  1
  N  N74  1  0.72246160  0.35476873  0.32971181  1
  N  N75  1  0.27753840  0.64523127  0.67028819  1
  N  N76  1  0.30508233  0.05307632  0.55287588  1
  N  N77  1  0.69491767  0.94692368  0.44712412  1
  N  N78  1  0.00020044  0.75220645  0.94712412  1
  N  N79  1  0.99979956  0.24779355  0.05287588  1
  N  N80  1  0.98839431  0.18543430  0.45508927  1
  N  N81  1  0.01160569  0.81456570  0.54491073  1
  N  N82  1  0.23034503  0.53330504  0.04491073  1
  N  N83  1  0.76965497  0.46669496  0.95508927  1
  N  N84  1  0.50562698  0.70585209  0.03927336  1
  N  N85  1  0.49437302  0.29414791  0.96072664  1
  N  N86  1  0.16657874  0.46635362  0.46072664  1
  N  N87  1  0.83342126  0.53364638  0.53927336  1
  N  N88  1  0.43582585  0.24793375  0.06104252  1
  N  N89  1  0.56417415  0.75206625  0.93895748  1
  N  N90  1  0.68689123  0.37478333  0.43895748  1
  N  N91  1  0.31310877  0.62521667  0.56104252  1
  N  N92  1  0.95157665  0.20444282  0.15880229  1
  N  N93  1  0.04842335  0.79555718  0.84119771  1
  N  N94  1  0.54564053  0.79277436  0.34119771  1
  N  N95  1  0.45435947  0.20722564  0.65880229  1
  N  N96  1  0.79873581  0.76019620  0.05048708  1
  N  N97  1  0.20126419  0.23980380  0.94951292  1
  N  N98  1  0.20970913  0.74824874  0.44951292  1
  N  N99  1  0.79029087  0.25175126  0.55048708  1
  N  N100  1  0.81216324  0.19889606  0.05763159  1
  N  N101  1  0.18783676  0.80110394  0.94236841  1
  N  N102  1  0.64126447  0.75453164  0.44236841  1
  N  N103  1  0.35873553  0.24546836  0.55763159  1
  N  N104  1  0.77001693  0.16470382  0.16418932  1
  N  N105  1  0.22998307  0.83529618  0.83581068  1
  N  N106  1  0.50051449  0.60582761  0.33581068  1
  N  N107  1  0.49948551  0.39417239  0.66418932  1
  N  N108  1  0.33329973  0.81673249  0.04437536  1
  N  N109  1  0.66670027  0.18326751  0.95562464  1
  N  N110  1  0.27235713  0.28892437  0.45562464  1
  N  N111  1  0.72764287  0.71107563  0.54437536  1
  N  N112  1  0.21413721  0.09338474  0.45329457  1
  N  N113  1  0.78586279  0.90661526  0.54670543  1
  N  N114  1  0.14009017  0.76084265  0.04670543  1
  N  N115  1  0.85990983  0.23915735  0.95329457  1
  N  N116  1  0.28716508  0.05655010  0.05190991  1
  N  N117  1  0.71283492  0.94344990  0.94809009  1
  N  N118  1  0.50464019  0.23525517  0.44809009  1
  N  N119  1  0.49535981  0.76474483  0.55190991  1
  N  N120  1  0.98351802  0.83399748  0.33680402  1
  N  N121  1  0.01648198  0.16600252  0.66319598  1
  N  N122  1  0.99719347  0.64671401  0.16319598  1
  N  N123  1  0.00280653  0.35328599  0.83680402  1
  N  N124  1  0.06818477  0.79908808  0.44375390  1
  N  N125  1  0.93181523  0.20091192  0.55624610  1
  N  N126  1  0.85533417  0.62443087  0.05624610  1
  N  N127  1  0.14466583  0.37556913  0.94375390  1
  N  N128  1  0.29276155  0.39919770  0.04780632  1
  N  N129  1  0.70723845  0.60080230  0.95219368  1
  N  N130  1  0.85139138  0.24495524  0.45219368  1
  N  N131  1  0.14860862  0.75504476  0.54780632  1
  N  N132  1  0.13454765  0.79997601  0.34526751  1
  N  N133  1  0.86545235  0.20002399  0.65473249  1
  N  N134  1  0.95470851  0.78928015  0.15473249  1
  N  N135  1  0.04529149  0.21071985  0.84526751  1
  N  N136  1  0.92067582  0.84160480  0.43840717  1
  N  N137  1  0.07932418  0.15839520  0.56159283  1
  N  N138  1  0.90319763  0.48226865  0.06159283  1
  N  N139  1  0.09680237  0.51773135  0.93840717  1
  N  N140  1  0.64775367  0.90155323  0.04493488  1
  N  N141  1  0.35224633  0.09844677  0.95506512  1
  N  N142  1  0.35661835  0.60281879  0.45506512  1
  N  N143  1  0.64338165  0.39718121  0.54493488  1
  N  N144  1  0.62629501  0.15765036  0.06183150  1
  N  N145  1  0.37370499  0.84234964  0.93816850  1
  N  N146  1  0.59581886  0.56446351  0.43816850  1
  N  N147  1  0.40418114  0.43553649  0.56183150  1
  N  N148  1  0.58834320  0.43720569  0.06907662  1
  N  N149  1  0.41165680  0.56279431  0.93092338  1
  N  N150  1  0.86812907  0.51926658  0.43092338  1
  N  N151  1  0.13187093  0.48073342  0.56907662  1
  N  N152  1  0.36978936  0.20791196  0.15959794  1
  N  N153  1  0.63021064  0.79208804  0.84040206  1
  N  N154  1  0.54831402  0.21019142  0.34040206  1
  N  N155  1  0.45168598  0.78980858  0.65959794  1
  Cl  Cl156  1  0.20037246  0.00505832  0.15374522  1
  Cl  Cl157  1  0.79962754  0.99494168  0.84625478  1
  Cl  Cl158  1  0.35131310  0.04662724  0.34625478  1
  Cl  Cl159  1  0.64868690  0.95337276  0.65374522  1
  Cl  Cl160  1  0.81691602  0.87435775  0.32196718  1
  Cl  Cl161  1  0.18308398  0.12564225  0.67803282  1
  Cl  Cl162  1  0.05239058  0.49494884  0.17803282  1
  Cl  Cl163  1  0.94760942  0.50505116  0.82196718  1
  Cl  Cl164  1  0.89202452  0.21364566  0.33456600  1
  Cl  Cl165  1  0.10797548  0.78635434  0.66543400  1
  Cl  Cl166  1  0.37907966  0.55745852  0.16543400  1
  Cl  Cl167  1  0.62092034  0.44254148  0.83456600  1
  Cl  Cl168  1  0.59339429  0.99789981  0.33992339  1
  Cl  Cl169  1  0.40660571  0.00210019  0.66007661  1
  Cl  Cl170  1  0.15797642  0.25347090  0.16007661  1
  Cl  Cl171  1  0.84202358  0.74652910  0.83992339  1
  Cl  Cl172  1  0.57256158  0.12220607  0.17683139  1
  Cl  Cl173  1  0.42743842  0.87779393  0.82316861  1
  Cl  Cl174  1  0.44537468  0.39573020  0.32316861  1
  Cl  Cl175  1  0.55462532  0.60426980  0.67683139  1
  Cl  Cl176  1  0.12483466  0.13228020  0.33551663  1
  Cl  Cl177  1  0.87516534  0.86771980  0.66448337  1
  Cl  Cl178  1  0.29676357  0.78931803  0.16448337  1
  Cl  Cl179  1  0.70323643  0.21068197  0.83551663  1
  Cl  Cl180  1  0.69733886  0.60086428  0.18778847  1
  Cl  Cl181  1  0.30266114  0.39913572  0.81221153  1
  Cl  Cl182  1  0.91307581  0.50955039  0.31221153  1
  Cl  Cl183  1  0.08692419  0.49044961  0.68778847  1
  Cl  Cl184  1  0.59820543  0.85971900  0.16015403  1
  Cl  Cl185  1  0.40179457  0.14028100  0.83984597  1
  Cl  Cl186  1  0.19956497  0.43805139  0.33984597  1
  Cl  Cl187  1  0.80043503  0.56194861  0.66015403  1
  Cl  Cl188  1  0.90731900  0.94804742  0.15307790  1
  Cl  Cl189  1  0.09268100  0.05195258  0.84692210  1
  Cl  Cl190  1  0.29496952  0.75424110  0.34692210  1
  Cl  Cl191  1  0.70503048  0.24575890  0.65307790  1
