# generated using pymatgen
data_Sm6U3O17
_symmetry_space_group_name_H-M   'P 1'
_cell_length_a   6.70515653
_cell_length_b   6.70515653
_cell_length_c   11.55372395
_cell_angle_alpha   73.02351283
_cell_angle_beta   73.02351283
_cell_angle_gamma   47.98543001
_symmetry_Int_Tables_number   1
_chemical_formula_structural   Sm6U3O17
_chemical_formula_sum   'Sm6 U3 O17'
_cell_volume   365.69431889
_cell_formula_units_Z   1
loop_
 _symmetry_equiv_pos_site_id
 _symmetry_equiv_pos_as_xyz
  1  'x, y, z'
loop_
 _atom_site_type_symbol
 _atom_site_label
 _atom_site_symmetry_multiplicity
 _atom_site_fract_x
 _atom_site_fract_y
 _atom_site_fract_z
 _atom_site_occupancy
  Sm  Sm0  1  0.00746400  0.65623400  0.38708600  1
  Sm  Sm1  1  0.68300800  0.31046600  0.17669200  1
  Sm  Sm2  1  0.32042600  0.03870600  0.94079800  1
  Sm  Sm3  1  0.96129400  0.67957400  0.05920200  1
  Sm  Sm4  1  0.68953400  0.31699200  0.82330800  1
  Sm  Sm5  1  0.34376600  0.99253600  0.61291400  1
  U  U6  1  0.99676600  0.67010600  0.72211500  1
  U  U7  1  0.65845100  0.34154900  0.50000000  1
  U  U8  1  0.32989400  0.00323400  0.27788500  1
  O  O9  1  0.70798500  0.91717100  0.23160400  1
  O  O10  1  0.25584300  0.43736400  0.89094400  1
  O  O11  1  0.76547900  0.90153700  0.87092100  1
  O  O12  1  0.08282900  0.29201500  0.76839600  1
  O  O13  1  0.41107400  0.57234900  0.65882200  1
  O  O14  1  0.76032400  0.91211900  0.56557200  1
  O  O15  1  0.26520500  0.41719500  0.55303200  1
  O  O16  1  0.08788100  0.23967600  0.43442800  1
  O  O17  1  0.92002000  0.08129700  0.34237000  1
  O  O18  1  0.42765100  0.58892600  0.34117800  1
  O  O19  1  0.25652300  0.42346600  0.21378400  1
  O  O20  1  0.56263600  0.74415700  0.10905600  1
  O  O21  1  0.09846300  0.23452100  0.12907900  1
  O  O22  1  0.91278800  0.08721200  0.00000000  1
  O  O23  1  0.57653400  0.74347700  0.78621600  1
  O  O24  1  0.91870300  0.07998000  0.65763000  1
  O  O25  1  0.58280500  0.73479500  0.44696800  1
