# generated using pymatgen
data_NaB3SeO7
_symmetry_space_group_name_H-M   'P 1'
_cell_length_a   16.07875800
_cell_length_b   4.58891400
_cell_length_c   8.75954551
_cell_angle_alpha   81.24649063
_cell_angle_beta   90.00000000
_cell_angle_gamma   90.00000000
_symmetry_Int_Tables_number   1
_chemical_formula_structural   NaB3SeO7
_chemical_formula_sum   'Na4 B12 Se4 O28'
_cell_volume   638.78648684
_cell_formula_units_Z   4
loop_
 _symmetry_equiv_pos_site_id
 _symmetry_equiv_pos_as_xyz
  1  'x, y, z'
loop_
 _atom_site_type_symbol
 _atom_site_label
 _atom_site_symmetry_multiplicity
 _atom_site_fract_x
 _atom_site_fract_y
 _atom_site_fract_z
 _atom_site_occupancy
  Na  Na0  1  0.60815800  0.67624400  0.04164600  1
  Na  Na1  1  0.10815800  0.32375600  0.45835400  1
  Na  Na2  1  0.39184200  0.32375600  0.95835400  1
  Na  Na3  1  0.89184200  0.67624400  0.54164600  1
  B  B4  1  0.59466900  0.32876700  0.74262200  1
  B  B5  1  0.09466900  0.67123300  0.75737800  1
  B  B6  1  0.40533100  0.67123300  0.25737800  1
  B  B7  1  0.90533100  0.32876700  0.24262200  1
  B  B8  1  0.73825300  0.51343100  0.76937000  1
  B  B9  1  0.23825300  0.48656900  0.73063000  1
  B  B10  1  0.26174700  0.48656900  0.23063000  1
  B  B11  1  0.76174700  0.51343100  0.26937000  1
  B  B12  1  0.68228600  0.51603000  0.51476400  1
  B  B13  1  0.18228600  0.48397000  0.98523600  1
  B  B14  1  0.31771400  0.48397000  0.48523600  1
  B  B15  1  0.81771400  0.51603000  0.01476400  1
  Se  Se16  1  0.48827500  0.84340700  0.71569900  1
  Se  Se17  1  0.98827500  0.15659300  0.78430100  1
  Se  Se18  1  0.51172500  0.15659300  0.28430100  1
  Se  Se19  1  0.01172500  0.84340700  0.21569900  1
  O  O20  1  0.51784300  0.47510800  0.79320200  1
  O  O21  1  0.01784300  0.52489200  0.70679800  1
  O  O22  1  0.48215700  0.52489200  0.20679800  1
  O  O23  1  0.98215700  0.47510800  0.29320200  1
  O  O24  1  0.58022100  0.00619200  0.78632400  1
  O  O25  1  0.08022100  0.99380800  0.71367600  1
  O  O26  1  0.41977900  0.99380800  0.21367600  1
  O  O27  1  0.91977900  0.00619200  0.28632400  1
  O  O28  1  0.41494700  0.88073700  0.84352600  1
  O  O29  1  0.91494700  0.11926300  0.65647400  1
  O  O30  1  0.58505300  0.11926300  0.15647400  1
  O  O31  1  0.08505300  0.88073700  0.34352600  1
  O  O32  1  0.66649600  0.39837200  0.83382900  1
  O  O33  1  0.16649600  0.60162800  0.66617100  1
  O  O34  1  0.33350400  0.60162800  0.16617100  1
  O  O35  1  0.83350400  0.39837200  0.33382900  1
  O  O36  1  0.80712700  0.55869700  0.85644100  1
  O  O37  1  0.30712700  0.44130300  0.64355900  1
  O  O38  1  0.19287300  0.44130300  0.14355900  1
  O  O39  1  0.69287300  0.55869700  0.35644100  1
  O  O40  1  0.74734900  0.58470000  0.60910200  1
  O  O41  1  0.24734900  0.41530000  0.89089800  1
  O  O42  1  0.25265100  0.41530000  0.39089800  1
  O  O43  1  0.75265100  0.58470000  0.10910200  1
  O  O44  1  0.60804400  0.41328000  0.57508400  1
  O  O45  1  0.10804400  0.58672000  0.92491600  1
  O  O46  1  0.39195600  0.58672000  0.42491600  1
  O  O47  1  0.89195600  0.41328000  0.07508400  1
