# generated using pymatgen
data_Tl2Mo3SeO12
_symmetry_space_group_name_H-M   'P 1'
_cell_length_a   7.37871110
_cell_length_b   7.37871110
_cell_length_c   12.18883600
_cell_angle_alpha   90.00000000
_cell_angle_beta   90.00000000
_cell_angle_gamma   119.99999193
_symmetry_Int_Tables_number   1
_chemical_formula_structural   Tl2Mo3SeO12
_chemical_formula_sum   'Tl4 Mo6 Se2 O24'
_cell_volume   574.71682846
_cell_formula_units_Z   2
loop_
 _symmetry_equiv_pos_site_id
 _symmetry_equiv_pos_as_xyz
  1  'x, y, z'
loop_
 _atom_site_type_symbol
 _atom_site_label
 _atom_site_symmetry_multiplicity
 _atom_site_fract_x
 _atom_site_fract_y
 _atom_site_fract_z
 _atom_site_occupancy
  Tl  Tl0  1  0.33333300  0.66666700  0.15832000  1
  Tl  Tl1  1  0.66666700  0.33333300  0.65832000  1
  Tl  Tl2  1  0.66666700  0.33333300  0.26673600  1
  Tl  Tl3  1  0.33333300  0.66666700  0.76673600  1
  Mo  Mo4  1  0.33948300  0.14019900  0.93398800  1
  Mo  Mo5  1  0.80071500  0.66051700  0.93398800  1
  Mo  Mo6  1  0.85980100  0.19928500  0.93398800  1
  Mo  Mo7  1  0.19928500  0.85980100  0.43398800  1
  Mo  Mo8  1  0.14019900  0.33948300  0.43398800  1
  Mo  Mo9  1  0.66051700  0.80071500  0.43398800  1
  Se  Se10  1  0.00000000  0.00000000  0.20111700  1
  Se  Se11  1  0.00000000  0.00000000  0.70111700  1
  O  O12  1  0.40833100  0.20148500  0.07134800  1
  O  O13  1  0.79315300  0.59166900  0.07134800  1
  O  O14  1  0.79851500  0.20684700  0.07134800  1
  O  O15  1  0.20684700  0.79851500  0.57134800  1
  O  O16  1  0.20148500  0.40833100  0.57134800  1
  O  O17  1  0.59166900  0.79315300  0.57134800  1
  O  O18  1  0.24733400  0.12647900  0.76144500  1
  O  O19  1  0.87914500  0.75266600  0.76144500  1
  O  O20  1  0.87352100  0.12085500  0.76144500  1
  O  O21  1  0.12085500  0.87352100  0.26144500  1
  O  O22  1  0.12647900  0.24733400  0.26144500  1
  O  O23  1  0.75266600  0.87914500  0.26144500  1
  O  O24  1  0.54739600  0.08674500  0.88531800  1
  O  O25  1  0.53934800  0.45260400  0.88531800  1
  O  O26  1  0.91325500  0.46065200  0.88531800  1
  O  O27  1  0.46065200  0.91325500  0.38531800  1
  O  O28  1  0.08674500  0.54739600  0.38531800  1
  O  O29  1  0.45260400  0.53934800  0.38531800  1
  O  O30  1  0.12154400  0.87091800  0.94767400  1
  O  O31  1  0.74937400  0.87845600  0.94767400  1
  O  O32  1  0.12908200  0.25062600  0.94767400  1
  O  O33  1  0.25062600  0.12908200  0.44767400  1
  O  O34  1  0.87091800  0.12154400  0.44767400  1
  O  O35  1  0.87845600  0.74937400  0.44767400  1
