# generated using pymatgen
data_OF2
_symmetry_space_group_name_H-M   'P 1'
_cell_length_a   3.01923300
_cell_length_b   5.97058900
_cell_length_c   9.03141000
_cell_angle_alpha   90.00000000
_cell_angle_beta   90.00000000
_cell_angle_gamma   90.00000000
_symmetry_Int_Tables_number   1
_chemical_formula_structural   OF2
_chemical_formula_sum   'O4 F8'
_cell_volume   162.80560953
_cell_formula_units_Z   4
loop_
 _symmetry_equiv_pos_site_id
 _symmetry_equiv_pos_as_xyz
  1  'x, y, z'
loop_
 _atom_site_type_symbol
 _atom_site_label
 _atom_site_symmetry_multiplicity
 _atom_site_fract_x
 _atom_site_fract_y
 _atom_site_fract_z
 _atom_site_occupancy
  O  O0  1  0.25000000  0.91030900  0.38229800  1
  O  O1  1  0.25000000  0.58969100  0.88229800  1
  O  O2  1  0.75000000  0.08969100  0.61770200  1
  O  O3  1  0.75000000  0.41030900  0.11770200  1
  F  F4  1  0.25000000  0.80920500  0.94579400  1
  F  F5  1  0.25000000  0.69079500  0.44579400  1
  F  F6  1  0.75000000  0.19079500  0.05420600  1
  F  F7  1  0.75000000  0.30920500  0.55420600  1
  F  F8  1  0.25000000  0.86987600  0.22652000  1
  F  F9  1  0.25000000  0.63012400  0.72652000  1
  F  F10  1  0.75000000  0.13012400  0.77348000  1
  F  F11  1  0.75000000  0.36987600  0.27348000  1
