# generated using pymatgen
data_BaSrV4(NiO4)4
_symmetry_space_group_name_H-M   'P 1'
_cell_length_a   9.75833522
_cell_length_b   9.75833522
_cell_length_c   9.75833522
_cell_angle_alpha   100.89521945
_cell_angle_beta   100.89521945
_cell_angle_gamma   128.46035533
_symmetry_Int_Tables_number   1
_chemical_formula_structural   BaSrV4(NiO4)4
_chemical_formula_sum   'Ba2 Sr2 V8 Ni8 O32'
_cell_volume   655.26540366
_cell_formula_units_Z   2
loop_
 _symmetry_equiv_pos_site_id
 _symmetry_equiv_pos_as_xyz
  1  'x, y, z'
loop_
 _atom_site_type_symbol
 _atom_site_label
 _atom_site_symmetry_multiplicity
 _atom_site_fract_x
 _atom_site_fract_y
 _atom_site_fract_z
 _atom_site_occupancy
  Ba  Ba0  1  0.25000000  0.75000000  0.50000000  1
  Ba  Ba1  1  0.75000000  0.25000000  0.50000000  1
  Sr  Sr2  1  0.50000000  0.50000000  0.00000000  1
  Sr  Sr3  1  0.00000000  0.00000000  0.00000000  1
  V  V4  1  0.04450800  0.87662300  0.67192200  1
  V  V5  1  0.70470100  0.37662300  0.83211500  1
  V  V6  1  0.54450800  0.87258600  0.16788500  1
  V  V7  1  0.20470100  0.37258600  0.32807800  1
  V  V8  1  0.12337700  0.79529900  0.16788500  1
  V  V9  1  0.62337700  0.45549200  0.32807800  1
  V  V10  1  0.12741400  0.29529900  0.67192200  1
  V  V11  1  0.62741400  0.95549200  0.83211500  1
  Ni  Ni12  1  0.66891000  0.83109000  0.50000000  1
  Ni  Ni13  1  0.83109000  0.33109000  0.16218000  1
  Ni  Ni14  1  0.41831100  0.08168900  0.00000000  1
  Ni  Ni15  1  0.58168900  0.58168900  0.66337800  1
  Ni  Ni16  1  0.33109000  0.16891000  0.50000000  1
  Ni  Ni17  1  0.16891000  0.66891000  0.83782000  1
  Ni  Ni18  1  0.08168900  0.41831100  0.00000000  1
  Ni  Ni19  1  0.91831100  0.91831100  0.33662200  1
  O  O20  1  0.68399900  0.66917900  0.33342500  1
  O  O21  1  0.83575400  0.16917900  0.98517900  1
  O  O22  1  0.41832100  0.90097400  0.83634400  1
  O  O23  1  0.56462900  0.40097400  0.48265200  1
  O  O24  1  0.33575400  0.35057400  0.66657500  1
  O  O25  1  0.18399900  0.85057400  0.01482100  1
  O  O26  1  0.06462900  0.58197700  0.16365600  1
  O  O27  1  0.91832100  0.08197700  0.51734800  1
  O  O28  1  0.33082100  0.66424600  0.01482100  1
  O  O29  1  0.83082100  0.81600100  0.66657500  1
  O  O30  1  0.09902600  0.93537100  0.51734800  1
  O  O31  1  0.59902600  0.08167900  0.16365600  1
  O  O32  1  0.64942600  0.31600100  0.98517900  1
  O  O33  1  0.14942600  0.16424600  0.33342500  1
  O  O34  1  0.41802300  0.58167900  0.48265200  1
  O  O35  1  0.91802300  0.43537100  0.83634400  1
  O  O36  1  0.43742700  0.27694900  0.15449700  1
  O  O37  1  0.62245200  0.77694900  0.83952200  1
  O  O38  1  0.63694800  0.97065900  0.66007900  1
  O  O39  1  0.81058000  0.47065900  0.33371100  1
  O  O40  1  0.12245200  0.28293000  0.84550300  1
  O  O41  1  0.93742700  0.78293000  0.16047800  1
  O  O42  1  0.31058000  0.97687000  0.33992100  1
  O  O43  1  0.13694800  0.47687000  0.66628900  1
  O  O44  1  0.72305100  0.87754800  0.16047800  1
  O  O45  1  0.22305100  0.06257300  0.84550300  1
  O  O46  1  0.02934100  0.68942000  0.66628900  1
  O  O47  1  0.52934100  0.86305200  0.33992100  1
  O  O48  1  0.71707000  0.56257300  0.83952200  1
  O  O49  1  0.21707000  0.37754800  0.15449700  1
  O  O50  1  0.02313000  0.36305200  0.33371100  1
  O  O51  1  0.52313000  0.18942000  0.66007900  1
