# generated using pymatgen
data_CsBaVS4
_symmetry_space_group_name_H-M   'P 1'
_cell_length_a   6.95890300
_cell_length_b   10.15613000
_cell_length_c   12.15479600
_cell_angle_alpha   90.00000000
_cell_angle_beta   90.00000000
_cell_angle_gamma   90.00000000
_symmetry_Int_Tables_number   1
_chemical_formula_structural   CsBaVS4
_chemical_formula_sum   'Cs4 Ba4 V4 S16'
_cell_volume   859.04657064
_cell_formula_units_Z   4
loop_
 _symmetry_equiv_pos_site_id
 _symmetry_equiv_pos_as_xyz
  1  'x, y, z'
loop_
 _atom_site_type_symbol
 _atom_site_label
 _atom_site_symmetry_multiplicity
 _atom_site_fract_x
 _atom_site_fract_y
 _atom_site_fract_z
 _atom_site_occupancy
  Cs  Cs0  1  0.25000000  0.86687300  0.93354900  1
  Cs  Cs1  1  0.25000000  0.63312700  0.43354900  1
  Cs  Cs2  1  0.75000000  0.13312700  0.06645100  1
  Cs  Cs3  1  0.75000000  0.36687300  0.56645100  1
  Ba  Ba4  1  0.25000000  0.40520400  0.85049500  1
  Ba  Ba5  1  0.25000000  0.09479600  0.35049500  1
  Ba  Ba6  1  0.75000000  0.59479600  0.14950500  1
  Ba  Ba7  1  0.75000000  0.90520400  0.64950500  1
  V  V8  1  0.25000000  0.11908600  0.66942000  1
  V  V9  1  0.25000000  0.38091400  0.16942000  1
  V  V10  1  0.75000000  0.88091400  0.33058000  1
  V  V11  1  0.75000000  0.61908600  0.83058000  1
  S  S12  1  0.49878900  0.13195500  0.77429200  1
  S  S13  1  0.00121100  0.36804500  0.27429200  1
  S  S14  1  0.99878900  0.86804500  0.22570800  1
  S  S15  1  0.50121100  0.63195500  0.72570800  1
  S  S16  1  0.50121100  0.86804500  0.22570800  1
  S  S17  1  0.99878900  0.63195500  0.72570800  1
  S  S18  1  0.00121100  0.13195500  0.77429200  1
  S  S19  1  0.49878900  0.36804500  0.27429200  1
  S  S20  1  0.25000000  0.28761700  0.56075500  1
  S  S21  1  0.25000000  0.21238300  0.06075500  1
  S  S22  1  0.75000000  0.71238300  0.43924500  1
  S  S23  1  0.75000000  0.78761700  0.93924500  1
  S  S24  1  0.25000000  0.93725800  0.57757200  1
  S  S25  1  0.25000000  0.56274200  0.07757200  1
  S  S26  1  0.75000000  0.06274200  0.42242800  1
  S  S27  1  0.75000000  0.43725800  0.92242800  1
