# generated using pymatgen
data_Nd5Pb4
_symmetry_space_group_name_H-M   'P 1'
_cell_length_a   8.42571800
_cell_length_b   8.57559500
_cell_length_c   16.21661400
_cell_angle_alpha   90.00000000
_cell_angle_beta   90.00000000
_cell_angle_gamma   90.00000000
_symmetry_Int_Tables_number   1
_chemical_formula_structural   Nd5Pb4
_chemical_formula_sum   'Nd20 Pb16'
_cell_volume   1171.74028509
_cell_formula_units_Z   4
loop_
 _symmetry_equiv_pos_site_id
 _symmetry_equiv_pos_as_xyz
  1  'x, y, z'
loop_
 _atom_site_type_symbol
 _atom_site_label
 _atom_site_symmetry_multiplicity
 _atom_site_fract_x
 _atom_site_fract_y
 _atom_site_fract_z
 _atom_site_occupancy
  Nd  Nd0  1  0.62512000  0.16061200  0.61903600  1
  Nd  Nd1  1  0.12512000  0.33938800  0.88096400  1
  Nd  Nd2  1  0.37488000  0.83938800  0.11903600  1
  Nd  Nd3  1  0.87488000  0.66061200  0.38096400  1
  Nd  Nd4  1  0.37488000  0.83938800  0.38096400  1
  Nd  Nd5  1  0.87488000  0.66061200  0.11903600  1
  Nd  Nd6  1  0.62512000  0.16061200  0.88096400  1
  Nd  Nd7  1  0.12512000  0.33938800  0.61903600  1
  Nd  Nd8  1  0.47025600  0.67925800  0.60077500  1
  Nd  Nd9  1  0.97025600  0.82074200  0.89922500  1
  Nd  Nd10  1  0.52974400  0.32074200  0.10077500  1
  Nd  Nd11  1  0.02974400  0.17925800  0.39922500  1
  Nd  Nd12  1  0.52974400  0.32074200  0.39922500  1
  Nd  Nd13  1  0.02974400  0.17925800  0.10077500  1
  Nd  Nd14  1  0.47025600  0.67925800  0.89922500  1
  Nd  Nd15  1  0.97025600  0.82074200  0.60077500  1
  Nd  Nd16  1  0.79319200  0.49762600  0.75000000  1
  Nd  Nd17  1  0.29319200  0.00237400  0.75000000  1
  Nd  Nd18  1  0.20680800  0.50237400  0.25000000  1
  Nd  Nd19  1  0.70680800  0.99762600  0.25000000  1
  Pb  Pb20  1  0.71727400  0.96789600  0.45670400  1
  Pb  Pb21  1  0.21727400  0.53210400  0.04329600  1
  Pb  Pb22  1  0.28272600  0.03210400  0.95670400  1
  Pb  Pb23  1  0.78272600  0.46789600  0.54329600  1
  Pb  Pb24  1  0.28272600  0.03210400  0.54329600  1
  Pb  Pb25  1  0.78272600  0.46789600  0.95670400  1
  Pb  Pb26  1  0.71727400  0.96789600  0.04329600  1
  Pb  Pb27  1  0.21727400  0.53210400  0.45670400  1
  Pb  Pb28  1  0.42787000  0.37521500  0.75000000  1
  Pb  Pb29  1  0.92787000  0.12478500  0.75000000  1
  Pb  Pb30  1  0.57213000  0.62478500  0.25000000  1
  Pb  Pb31  1  0.07213000  0.87521500  0.25000000  1
  Pb  Pb32  1  0.66249800  0.85222200  0.75000000  1
  Pb  Pb33  1  0.16249800  0.64777800  0.75000000  1
  Pb  Pb34  1  0.33750200  0.14777800  0.25000000  1
  Pb  Pb35  1  0.83750200  0.35222200  0.25000000  1
