# generated using pymatgen
data_LaN2Cl5
_symmetry_space_group_name_H-M   'P 1'
_cell_length_a   8.36671500
_cell_length_b   8.68307700
_cell_length_c   12.95208000
_cell_angle_alpha   90.00000000
_cell_angle_beta   90.00000000
_cell_angle_gamma   90.00000000
_symmetry_Int_Tables_number   1
_chemical_formula_structural   LaN2Cl5
_chemical_formula_sum   'La4 N8 Cl20'
_cell_volume   940.95346561
_cell_formula_units_Z   4
loop_
 _symmetry_equiv_pos_site_id
 _symmetry_equiv_pos_as_xyz
  1  'x, y, z'
loop_
 _atom_site_type_symbol
 _atom_site_label
 _atom_site_symmetry_multiplicity
 _atom_site_fract_x
 _atom_site_fract_y
 _atom_site_fract_z
 _atom_site_occupancy
  La  La0  1  0.25000000  0.48775800  0.92400100  1
  La  La1  1  0.75000000  0.51224200  0.07599900  1
  La  La2  1  0.75000000  0.01224200  0.42400100  1
  La  La3  1  0.25000000  0.98775800  0.57599900  1
  N  N4  1  0.53880900  0.96707700  0.02700200  1
  N  N5  1  0.46119100  0.03292300  0.97299800  1
  N  N6  1  0.46119100  0.53292300  0.52700200  1
  N  N7  1  0.03880900  0.03292300  0.97299800  1
  N  N8  1  0.53880900  0.46707700  0.47299800  1
  N  N9  1  0.96119100  0.96707700  0.02700200  1
  N  N10  1  0.96119100  0.46707700  0.47299800  1
  N  N11  1  0.03880900  0.53292300  0.52700200  1
  Cl  Cl12  1  0.25000000  0.73931800  0.17430200  1
  Cl  Cl13  1  0.75000000  0.26068200  0.82569800  1
  Cl  Cl14  1  0.75000000  0.76068200  0.67430200  1
  Cl  Cl15  1  0.25000000  0.23931800  0.32569800  1
  Cl  Cl16  1  0.54597000  0.63515400  0.91717800  1
  Cl  Cl17  1  0.45403000  0.36484600  0.08282200  1
  Cl  Cl18  1  0.45403000  0.86484600  0.41717800  1
  Cl  Cl19  1  0.04597000  0.36484600  0.08282200  1
  Cl  Cl20  1  0.54597000  0.13515400  0.58282200  1
  Cl  Cl21  1  0.95403000  0.63515400  0.91717800  1
  Cl  Cl22  1  0.95403000  0.13515400  0.58282200  1
  Cl  Cl23  1  0.04597000  0.86484600  0.41717800  1
  Cl  Cl24  1  0.25000000  0.47074200  0.30920300  1
  Cl  Cl25  1  0.75000000  0.52925800  0.69079700  1
  Cl  Cl26  1  0.75000000  0.02925800  0.80920300  1
  Cl  Cl27  1  0.25000000  0.97074200  0.19079700  1
  Cl  Cl28  1  0.25000000  0.78980200  0.72986400  1
  Cl  Cl29  1  0.75000000  0.21019800  0.27013600  1
  Cl  Cl30  1  0.75000000  0.71019800  0.22986400  1
  Cl  Cl31  1  0.25000000  0.28980200  0.77013600  1
