# generated using pymatgen
data_Er3(In2Co)2
_symmetry_space_group_name_H-M   'P 1'
_cell_length_a   7.91365588
_cell_length_b   7.91365588
_cell_length_c   3.52386800
_cell_angle_alpha   90.00000000
_cell_angle_beta   90.00000000
_cell_angle_gamma   119.99999904
_symmetry_Int_Tables_number   1
_chemical_formula_structural   Er3(In2Co)2
_chemical_formula_sum   'Er3 In4 Co2'
_cell_volume   191.11931977
_cell_formula_units_Z   1
loop_
 _symmetry_equiv_pos_site_id
 _symmetry_equiv_pos_as_xyz
  1  'x, y, z'
loop_
 _atom_site_type_symbol
 _atom_site_label
 _atom_site_symmetry_multiplicity
 _atom_site_fract_x
 _atom_site_fract_y
 _atom_site_fract_z
 _atom_site_occupancy
  Er  Er0  1  0.70962500  0.95723100  0.50000000  1
  Er  Er1  1  0.24760600  0.29037500  0.50000000  1
  Er  Er2  1  0.04276900  0.75239400  0.50000000  1
  In  In3  1  0.92447300  0.33610800  0.00000000  1
  In  In4  1  0.41163600  0.07552700  0.00000000  1
  In  In5  1  0.66389200  0.58836400  0.00000000  1
  In  In6  1  0.33333300  0.66666700  0.00000000  1
  Co  Co7  1  0.66666700  0.33333300  0.50000000  1
  Co  Co8  1  0.00000000  0.00000000  0.00000000  1
