# generated using pymatgen
data_EuGePt
_symmetry_space_group_name_H-M   'P 1'
_cell_length_a   6.58927800
_cell_length_b   6.58927800
_cell_length_c   6.58927800
_cell_angle_alpha   90.00000000
_cell_angle_beta   90.00000000
_cell_angle_gamma   90.00000000
_symmetry_Int_Tables_number   1
_chemical_formula_structural   EuGePt
_chemical_formula_sum   'Eu4 Ge4 Pt4'
_cell_volume   286.09712404
_cell_formula_units_Z   4
loop_
 _symmetry_equiv_pos_site_id
 _symmetry_equiv_pos_as_xyz
  1  'x, y, z'
loop_
 _atom_site_type_symbol
 _atom_site_label
 _atom_site_symmetry_multiplicity
 _atom_site_fract_x
 _atom_site_fract_y
 _atom_site_fract_z
 _atom_site_occupancy
  Eu  Eu0  1  0.12848500  0.12848500  0.12848500  1
  Eu  Eu1  1  0.62848500  0.37151500  0.87151500  1
  Eu  Eu2  1  0.37151500  0.87151500  0.62848500  1
  Eu  Eu3  1  0.87151500  0.62848500  0.37151500  1
  Ge  Ge4  1  0.32602600  0.67397400  0.17397400  1
  Ge  Ge5  1  0.17397400  0.32602600  0.67397400  1
  Ge  Ge6  1  0.67397400  0.17397400  0.32602600  1
  Ge  Ge7  1  0.82602600  0.82602600  0.82602600  1
  Pt  Pt8  1  0.42377800  0.42377800  0.42377800  1
  Pt  Pt9  1  0.07622200  0.57622200  0.92377800  1
  Pt  Pt10  1  0.92377800  0.07622200  0.57622200  1
  Pt  Pt11  1  0.57622200  0.92377800  0.07622200  1
