# generated using pymatgen
data_Yb(Al5Re)2
_symmetry_space_group_name_H-M   'P 1'
_cell_length_a   6.98731669
_cell_length_b   6.98731669
_cell_length_c   27.01470500
_cell_angle_alpha   90.00000000
_cell_angle_beta   90.00000000
_cell_angle_gamma   95.61346998
_symmetry_Int_Tables_number   1
_chemical_formula_structural   Yb(Al5Re)2
_chemical_formula_sum   'Yb6 Al60 Re12'
_cell_volume   1312.60297997
_cell_formula_units_Z   6
loop_
 _symmetry_equiv_pos_site_id
 _symmetry_equiv_pos_as_xyz
  1  'x, y, z'
loop_
 _atom_site_type_symbol
 _atom_site_label
 _atom_site_symmetry_multiplicity
 _atom_site_fract_x
 _atom_site_fract_y
 _atom_site_fract_z
 _atom_site_occupancy
  Yb  Yb0  1  0.87430600  0.12569400  0.58435200  1
  Yb  Yb1  1  0.12569400  0.87430600  0.41564800  1
  Yb  Yb2  1  0.12569400  0.87430600  0.08435200  1
  Yb  Yb3  1  0.87430600  0.12569400  0.91564800  1
  Yb  Yb4  1  0.62078000  0.37922000  0.75000000  1
  Yb  Yb5  1  0.37922000  0.62078000  0.25000000  1
  Al  Al6  1  0.59446800  0.40553200  0.63347100  1
  Al  Al7  1  0.40553200  0.59446800  0.36652900  1
  Al  Al8  1  0.40553200  0.59446800  0.13347100  1
  Al  Al9  1  0.59446800  0.40553200  0.86652900  1
  Al  Al10  1  0.17886800  0.40155600  0.75000000  1
  Al  Al11  1  0.82113200  0.59844400  0.25000000  1
  Al  Al12  1  0.59844400  0.82113200  0.75000000  1
  Al  Al13  1  0.40155600  0.17886800  0.25000000  1
  Al  Al14  1  0.87757100  0.12242900  0.14494600  1
  Al  Al15  1  0.12242900  0.87757100  0.85505400  1
  Al  Al16  1  0.12242900  0.87757100  0.64494600  1
  Al  Al17  1  0.87757100  0.12242900  0.35505400  1
  Al  Al18  1  0.37016500  0.62983500  0.67630400  1
  Al  Al19  1  0.62983500  0.37016500  0.32369600  1
  Al  Al20  1  0.62983500  0.37016500  0.17630400  1
  Al  Al21  1  0.37016500  0.62983500  0.82369600  1
  Al  Al22  1  0.22717300  0.47123300  0.58073100  1
  Al  Al23  1  0.77282700  0.52876700  0.41926900  1
  Al  Al24  1  0.77282700  0.52876700  0.08073100  1
  Al  Al25  1  0.52876700  0.77282700  0.91926900  1
  Al  Al26  1  0.22717300  0.47123300  0.91926900  1
  Al  Al27  1  0.47123300  0.22717300  0.08073100  1
  Al  Al28  1  0.47123300  0.22717300  0.41926900  1
  Al  Al29  1  0.52876700  0.77282700  0.58073100  1
  Al  Al30  1  0.96304900  0.73886200  0.75000000  1
  Al  Al31  1  0.03695100  0.26113800  0.25000000  1
  Al  Al32  1  0.26113800  0.03695100  0.75000000  1
  Al  Al33  1  0.73886200  0.96304900  0.25000000  1
  Al  Al34  1  0.62362800  0.37637200  0.52252000  1
  Al  Al35  1  0.37637200  0.62362800  0.47748000  1
  Al  Al36  1  0.37637200  0.62362800  0.02252000  1
  Al  Al37  1  0.62362800  0.37637200  0.97748000  1
  Al  Al38  1  0.96975900  0.47489900  0.67144900  1
  Al  Al39  1  0.03024100  0.52510100  0.32855100  1
  Al  Al40  1  0.03024100  0.52510100  0.17144900  1
  Al  Al41  1  0.52510100  0.03024100  0.82855100  1
  Al  Al42  1  0.96975900  0.47489900  0.82855100  1
  Al  Al43  1  0.47489900  0.96975900  0.17144900  1
  Al  Al44  1  0.47489900  0.96975900  0.32855100  1
  Al  Al45  1  0.52510100  0.03024100  0.67144900  1
  Al  Al46  1  0.91022800  0.08977200  0.69989400  1
  Al  Al47  1  0.08977200  0.91022800  0.30010600  1
  Al  Al48  1  0.08977200  0.91022800  0.19989400  1
  Al  Al49  1  0.91022800  0.08977200  0.80010600  1
  Al  Al50  1  0.87605900  0.61900700  0.58308200  1
  Al  Al51  1  0.12394100  0.38099300  0.41691800  1
  Al  Al52  1  0.12394100  0.38099300  0.08308200  1
  Al  Al53  1  0.38099300  0.12394100  0.91691800  1
  Al  Al54  1  0.87605900  0.61900700  0.91691800  1
  Al  Al55  1  0.61900700  0.87605900  0.08308200  1
  Al  Al56  1  0.61900700  0.87605900  0.41691800  1
  Al  Al57  1  0.38099300  0.12394100  0.58308200  1
  Al  Al58  1  0.20675000  0.20675000  0.50000000  1
  Al  Al59  1  0.79325000  0.79325000  0.50000000  1
  Al  Al60  1  0.79325000  0.79325000  0.00000000  1
  Al  Al61  1  0.20675000  0.20675000  0.00000000  1
  Al  Al62  1  0.83300000  0.16700000  0.03369500  1
  Al  Al63  1  0.16700000  0.83300000  0.96630500  1
  Al  Al64  1  0.16700000  0.83300000  0.53369500  1
  Al  Al65  1  0.83300000  0.16700000  0.46630500  1
  Re  Re66  1  0.25008200  0.25454100  0.66349000  1
  Re  Re67  1  0.74991800  0.74545900  0.33651000  1
  Re  Re68  1  0.74991800  0.74545900  0.16349000  1
  Re  Re69  1  0.74545900  0.74991800  0.83651000  1
  Re  Re70  1  0.25008200  0.25454100  0.83651000  1
  Re  Re71  1  0.25454100  0.25008200  0.16349000  1
  Re  Re72  1  0.25454100  0.25008200  0.33651000  1
  Re  Re73  1  0.74545900  0.74991800  0.66349000  1
  Re  Re74  1  0.00000000  0.50000000  0.50000000  1
  Re  Re75  1  0.00000000  0.50000000  0.00000000  1
  Re  Re76  1  0.50000000  0.00000000  0.00000000  1
  Re  Re77  1  0.50000000  0.00000000  0.50000000  1
