# generated using pymatgen
data_Rb3SbS4
_symmetry_space_group_name_H-M   'P 1'
_cell_length_a   9.73719000
_cell_length_b   10.13671200
_cell_length_c   11.32125900
_cell_angle_alpha   90.00000000
_cell_angle_beta   90.00000000
_cell_angle_gamma   90.00000000
_symmetry_Int_Tables_number   1
_chemical_formula_structural   Rb3SbS4
_chemical_formula_sum   'Rb12 Sb4 S16'
_cell_volume   1117.44325413
_cell_formula_units_Z   4
loop_
 _symmetry_equiv_pos_site_id
 _symmetry_equiv_pos_as_xyz
  1  'x, y, z'
loop_
 _atom_site_type_symbol
 _atom_site_label
 _atom_site_symmetry_multiplicity
 _atom_site_fract_x
 _atom_site_fract_y
 _atom_site_fract_z
 _atom_site_occupancy
  Rb  Rb0  1  0.36354500  0.57134500  0.75000000  1
  Rb  Rb1  1  0.93543400  0.70520600  0.04384200  1
  Rb  Rb2  1  0.06456600  0.29479400  0.54384200  1
  Rb  Rb3  1  0.56456600  0.20520600  0.95615800  1
  Rb  Rb4  1  0.56456600  0.20520600  0.54384200  1
  Rb  Rb5  1  0.06456600  0.29479400  0.95615800  1
  Rb  Rb6  1  0.93543400  0.70520600  0.45615800  1
  Rb  Rb7  1  0.43543400  0.79479400  0.04384200  1
  Rb  Rb8  1  0.63645500  0.42865500  0.25000000  1
  Rb  Rb9  1  0.86354500  0.92865500  0.75000000  1
  Rb  Rb10  1  0.13645500  0.07134500  0.25000000  1
  Rb  Rb11  1  0.43543400  0.79479400  0.45615800  1
  Sb  Sb12  1  0.27945700  0.01573700  0.75000000  1
  Sb  Sb13  1  0.77945700  0.48426300  0.75000000  1
  Sb  Sb14  1  0.22054300  0.51573700  0.25000000  1
  Sb  Sb15  1  0.72054300  0.98426300  0.25000000  1
  S  S16  1  0.84429600  0.03659600  0.42300500  1
  S  S17  1  0.34429600  0.46340400  0.07699500  1
  S  S18  1  0.65570400  0.53659600  0.57699500  1
  S  S19  1  0.15570400  0.96340400  0.92300500  1
  S  S20  1  0.15570400  0.96340400  0.57699500  1
  S  S21  1  0.65570400  0.53659600  0.92300500  1
  S  S22  1  0.34429600  0.46340400  0.42300500  1
  S  S23  1  0.84429600  0.03659600  0.07699500  1
  S  S24  1  0.49365400  0.90446700  0.75000000  1
  S  S25  1  0.99365400  0.59553300  0.75000000  1
  S  S26  1  0.00634600  0.40446700  0.25000000  1
  S  S27  1  0.50634600  0.09553300  0.25000000  1
  S  S28  1  0.31812200  0.24648900  0.75000000  1
  S  S29  1  0.68187800  0.75351100  0.25000000  1
  S  S30  1  0.18187800  0.74648900  0.25000000  1
  S  S31  1  0.81812200  0.25351100  0.75000000  1
