# generated using pymatgen
data_Dy2Co17
_symmetry_space_group_name_H-M   'P 1'
_cell_length_a   6.27319531
_cell_length_b   6.27319531
_cell_length_c   6.27319514
_cell_angle_alpha   82.88501218
_cell_angle_beta   82.88501218
_cell_angle_gamma   82.88500499
_symmetry_Int_Tables_number   1
_chemical_formula_structural   Dy2Co17
_chemical_formula_sum   'Dy2 Co17'
_cell_volume   241.60077922
_cell_formula_units_Z   1
loop_
 _symmetry_equiv_pos_site_id
 _symmetry_equiv_pos_as_xyz
  1  'x, y, z'
loop_
 _atom_site_type_symbol
 _atom_site_label
 _atom_site_symmetry_multiplicity
 _atom_site_fract_x
 _atom_site_fract_y
 _atom_site_fract_z
 _atom_site_occupancy
  Dy  Dy0  1  0.65610400  0.65610400  0.65610400  1
  Dy  Dy1  1  0.34389600  0.34389600  0.34389600  1
  Co  Co2  1  0.00000000  0.00000000  0.50000000  1
  Co  Co3  1  0.00000000  0.50000000  0.00000000  1
  Co  Co4  1  0.50000000  0.00000000  0.00000000  1
  Co  Co5  1  0.28850000  0.71150000  0.00000000  1
  Co  Co6  1  0.71150000  0.00000000  0.28850000  1
  Co  Co7  1  0.00000000  0.28850000  0.71150000  1
  Co  Co8  1  0.28850000  0.00000000  0.71150000  1
  Co  Co9  1  0.00000000  0.71150000  0.28850000  1
  Co  Co10  1  0.71150000  0.28850000  0.00000000  1
  Co  Co11  1  0.34596500  0.34596500  0.84957900  1
  Co  Co12  1  0.34596500  0.84957900  0.34596500  1
  Co  Co13  1  0.84957900  0.34596500  0.34596500  1
  Co  Co14  1  0.65403500  0.65403500  0.15042100  1
  Co  Co15  1  0.65403500  0.15042100  0.65403500  1
  Co  Co16  1  0.15042100  0.65403500  0.65403500  1
  Co  Co17  1  0.90325900  0.90325900  0.90325900  1
  Co  Co18  1  0.09674100  0.09674100  0.09674100  1
