# generated using pymatgen
data_GdCrO3
_symmetry_space_group_name_H-M   'P 1'
_cell_length_a   5.37869800
_cell_length_b   5.62763100
_cell_length_c   7.72483200
_cell_angle_alpha   90.00000000
_cell_angle_beta   90.00000000
_cell_angle_gamma   90.00000000
_symmetry_Int_Tables_number   1
_chemical_formula_structural   GdCrO3
_chemical_formula_sum   'Gd4 Cr4 O12'
_cell_volume   233.82547050
_cell_formula_units_Z   4
loop_
 _symmetry_equiv_pos_site_id
 _symmetry_equiv_pos_as_xyz
  1  'x, y, z'
loop_
 _atom_site_type_symbol
 _atom_site_label
 _atom_site_symmetry_multiplicity
 _atom_site_fract_x
 _atom_site_fract_y
 _atom_site_fract_z
 _atom_site_occupancy
  Gd  Gd0  1  0.01674800  0.93781100  0.75000000  1
  Gd  Gd1  1  0.51674800  0.56218900  0.25000000  1
  Gd  Gd2  1  0.48325200  0.43781100  0.75000000  1
  Gd  Gd3  1  0.98325200  0.06218900  0.25000000  1
  Cr  Cr4  1  0.00000000  0.50000000  0.50000000  1
  Cr  Cr5  1  0.50000000  0.00000000  0.50000000  1
  Cr  Cr6  1  0.50000000  0.00000000  0.00000000  1
  Cr  Cr7  1  0.00000000  0.50000000  0.00000000  1
  O  O8  1  0.69651900  0.30020800  0.44563700  1
  O  O9  1  0.19651900  0.19979200  0.55436300  1
  O  O10  1  0.80348100  0.80020800  0.05436300  1
  O  O11  1  0.30348100  0.69979200  0.94563700  1
  O  O12  1  0.30348100  0.69979200  0.55436300  1
  O  O13  1  0.80348100  0.80020800  0.44563700  1
  O  O14  1  0.19651900  0.19979200  0.94563700  1
  O  O15  1  0.69651900  0.30020800  0.05436300  1
  O  O16  1  0.10476300  0.46415500  0.25000000  1
  O  O17  1  0.60476300  0.03584500  0.75000000  1
  O  O18  1  0.39523700  0.96415500  0.25000000  1
  O  O19  1  0.89523700  0.53584500  0.75000000  1
