# generated using pymatgen
data_KFe3As4(HO8)2
_symmetry_space_group_name_H-M   'P 1'
_cell_length_a   10.26574457
_cell_length_b   10.26574457
_cell_length_c   11.13827601
_cell_angle_alpha   80.14294745
_cell_angle_beta   80.14294745
_cell_angle_gamma   38.02410208
_symmetry_Int_Tables_number   1
_chemical_formula_structural   KFe3As4(HO8)2
_chemical_formula_sum   'K2 Fe6 As8 H4 O32'
_cell_volume   711.10867394
_cell_formula_units_Z   2
loop_
 _symmetry_equiv_pos_site_id
 _symmetry_equiv_pos_as_xyz
  1  'x, y, z'
loop_
 _atom_site_type_symbol
 _atom_site_label
 _atom_site_symmetry_multiplicity
 _atom_site_fract_x
 _atom_site_fract_y
 _atom_site_fract_z
 _atom_site_occupancy
  K  K0  1  0.16221600  0.83778400  0.25000000  1
  K  K1  1  0.83778400  0.16221600  0.75000000  1
  Fe  Fe2  1  0.50000000  0.00000000  0.50000000  1
  Fe  Fe3  1  0.00000000  0.50000000  0.00000000  1
  Fe  Fe4  1  0.33149800  0.36788600  0.22501900  1
  Fe  Fe5  1  0.63211400  0.66850200  0.27498100  1
  Fe  Fe6  1  0.66850200  0.63211400  0.77498100  1
  Fe  Fe7  1  0.36788600  0.33149800  0.72501900  1
  As  As8  1  0.58247800  0.25876600  0.44825700  1
  As  As9  1  0.74123400  0.41752200  0.05174300  1
  As  As10  1  0.41752200  0.74123400  0.55174300  1
  As  As11  1  0.25876600  0.58247800  0.94825700  1
  As  As12  1  0.17908000  0.21536600  0.27015600  1
  As  As13  1  0.78463400  0.82092000  0.22984400  1
  As  As14  1  0.82092000  0.78463400  0.72984400  1
  As  As15  1  0.21536600  0.17908000  0.77015600  1
  H  H16  1  0.79583200  0.27659000  0.40344500  1
  H  H17  1  0.72341000  0.20416800  0.09655500  1
  H  H18  1  0.20416800  0.72341000  0.59655500  1
  H  H19  1  0.27659000  0.79583200  0.90344500  1
  O  O20  1  0.41207600  0.42570400  0.33427100  1
  O  O21  1  0.57429600  0.58792400  0.16572900  1
  O  O22  1  0.58792400  0.57429600  0.66572900  1
  O  O23  1  0.42570400  0.41207600  0.83427100  1
  O  O24  1  0.66908100  0.03151900  0.46531300  1
  O  O25  1  0.96848100  0.33091900  0.03468700  1
  O  O26  1  0.33091900  0.96848100  0.53468700  1
  O  O27  1  0.03151900  0.66908100  0.96531300  1
  O  O28  1  0.47003600  0.38591000  0.58103300  1
  O  O29  1  0.61409000  0.52996400  0.91896700  1
  O  O30  1  0.52996400  0.61409000  0.41896700  1
  O  O31  1  0.38591000  0.47003600  0.08103300  1
  O  O32  1  0.82186700  0.15988200  0.41002400  1
  O  O33  1  0.84011800  0.17813300  0.08997600  1
  O  O34  1  0.17813300  0.84011800  0.58997600  1
  O  O35  1  0.15988200  0.82186700  0.91002400  1
  O  O36  1  0.32615400  0.96556700  0.25159600  1
  O  O37  1  0.03443300  0.67384600  0.24840400  1
  O  O38  1  0.67384600  0.03443300  0.74840400  1
  O  O39  1  0.96556700  0.32615400  0.75159600  1
  O  O40  1  0.92530200  0.36655500  0.31486300  1
  O  O41  1  0.63344500  0.07469800  0.18513700  1
  O  O42  1  0.07469800  0.63344500  0.68513700  1
  O  O43  1  0.36655500  0.92530200  0.81486300  1
  O  O44  1  0.28719100  0.23379600  0.36275400  1
  O  O45  1  0.76620400  0.71280900  0.13724600  1
  O  O46  1  0.71280900  0.76620400  0.63724600  1
  O  O47  1  0.23379600  0.28719100  0.86275400  1
  O  O48  1  0.20505500  0.32012400  0.13892600  1
  O  O49  1  0.67987600  0.79494500  0.36107400  1
  O  O50  1  0.79494500  0.67987600  0.86107400  1
  O  O51  1  0.32012400  0.20505500  0.63892600  1
