# generated using pymatgen
data_MgSi7Ir3
_symmetry_space_group_name_H-M   'P 1'
_cell_length_a   7.99258169
_cell_length_b   7.99258169
_cell_length_c   7.99258168
_cell_angle_alpha   56.53913083
_cell_angle_beta   56.53913083
_cell_angle_gamma   56.53912898
_symmetry_Int_Tables_number   1
_chemical_formula_structural   MgSi7Ir3
_chemical_formula_sum   'Mg2 Si14 Ir6'
_cell_volume   332.15773173
_cell_formula_units_Z   2
loop_
 _symmetry_equiv_pos_site_id
 _symmetry_equiv_pos_as_xyz
  1  'x, y, z'
loop_
 _atom_site_type_symbol
 _atom_site_label
 _atom_site_symmetry_multiplicity
 _atom_site_fract_x
 _atom_site_fract_y
 _atom_site_fract_z
 _atom_site_occupancy
  Mg  Mg0  1  0.50000000  0.50000000  0.50000000  1
  Mg  Mg1  1  0.00000000  0.00000000  0.00000000  1
  Si  Si2  1  0.85011000  0.06468700  0.67295800  1
  Si  Si3  1  0.67295800  0.85011000  0.06468700  1
  Si  Si4  1  0.06468700  0.67295800  0.85011000  1
  Si  Si5  1  0.64989000  0.82704200  0.43531300  1
  Si  Si6  1  0.25000000  0.25000000  0.25000000  1
  Si  Si7  1  0.75000000  0.75000000  0.75000000  1
  Si  Si8  1  0.17295800  0.56468700  0.35011000  1
  Si  Si9  1  0.56468700  0.35011000  0.17295800  1
  Si  Si10  1  0.35011000  0.17295800  0.56468700  1
  Si  Si11  1  0.93531300  0.32704200  0.14989000  1
  Si  Si12  1  0.32704200  0.14989000  0.93531300  1
  Si  Si13  1  0.14989000  0.93531300  0.32704200  1
  Si  Si14  1  0.82704200  0.43531300  0.64989000  1
  Si  Si15  1  0.43531300  0.64989000  0.82704200  1
  Ir  Ir16  1  0.75000000  0.07380700  0.42619300  1
  Ir  Ir17  1  0.42619300  0.75000000  0.07380700  1
  Ir  Ir18  1  0.07380700  0.42619300  0.75000000  1
  Ir  Ir19  1  0.25000000  0.92619300  0.57380700  1
  Ir  Ir20  1  0.57380700  0.25000000  0.92619300  1
  Ir  Ir21  1  0.92619300  0.57380700  0.25000000  1
