# generated using pymatgen
data_Rb3SbS3
_symmetry_space_group_name_H-M   'P 1'
_cell_length_a   10.01442000
_cell_length_b   10.01442000
_cell_length_c   10.01442000
_cell_angle_alpha   90.00000000
_cell_angle_beta   90.00000000
_cell_angle_gamma   90.00000000
_symmetry_Int_Tables_number   1
_chemical_formula_structural   Rb3SbS3
_chemical_formula_sum   'Rb12 Sb4 S12'
_cell_volume   1004.33224109
_cell_formula_units_Z   4
loop_
 _symmetry_equiv_pos_site_id
 _symmetry_equiv_pos_as_xyz
  1  'x, y, z'
loop_
 _atom_site_type_symbol
 _atom_site_label
 _atom_site_symmetry_multiplicity
 _atom_site_fract_x
 _atom_site_fract_y
 _atom_site_fract_z
 _atom_site_occupancy
  Rb  Rb0  1  0.44132800  0.94132800  0.55867200  1
  Rb  Rb1  1  0.94132800  0.55867200  0.44132800  1
  Rb  Rb2  1  0.55867200  0.44132800  0.94132800  1
  Rb  Rb3  1  0.05867200  0.05867200  0.05867200  1
  Rb  Rb4  1  0.93737700  0.43737700  0.06262300  1
  Rb  Rb5  1  0.43737700  0.06262300  0.93737700  1
  Rb  Rb6  1  0.06262300  0.93737700  0.43737700  1
  Rb  Rb7  1  0.56262300  0.56262300  0.56262300  1
  Rb  Rb8  1  0.67874900  0.17874900  0.32125100  1
  Rb  Rb9  1  0.17874900  0.32125100  0.67874900  1
  Rb  Rb10  1  0.32125100  0.67874900  0.17874900  1
  Rb  Rb11  1  0.82125100  0.82125100  0.82125100  1
  Sb  Sb12  1  0.22400300  0.72400300  0.77599700  1
  Sb  Sb13  1  0.72400300  0.77599700  0.22400300  1
  Sb  Sb14  1  0.77599700  0.22400300  0.72400300  1
  Sb  Sb15  1  0.27599700  0.27599700  0.27599700  1
  S  S16  1  0.15448600  0.95845800  0.75585900  1
  S  S17  1  0.24414100  0.65448600  0.54154200  1
  S  S18  1  0.45845800  0.74414100  0.84551400  1
  S  S19  1  0.65448600  0.54154200  0.24414100  1
  S  S20  1  0.74414100  0.84551400  0.45845800  1
  S  S21  1  0.95845800  0.75585900  0.15448600  1
  S  S22  1  0.84551400  0.45845800  0.74414100  1
  S  S23  1  0.75585900  0.15448600  0.95845800  1
  S  S24  1  0.54154200  0.24414100  0.65448600  1
  S  S25  1  0.34551400  0.04154200  0.25585900  1
  S  S26  1  0.25585900  0.34551400  0.04154200  1
  S  S27  1  0.04154200  0.25585900  0.34551400  1
