# generated using pymatgen
data_Lu2Se3
_symmetry_space_group_name_H-M   'P 1'
_cell_length_a   13.31727015
_cell_length_b   12.71351055
_cell_length_c   6.95325029
_cell_angle_alpha   79.36416789
_cell_angle_beta   69.76176787
_cell_angle_gamma   30.87406424
_symmetry_Int_Tables_number   1
_chemical_formula_structural   Lu2Se3
_chemical_formula_sum   'Lu8 Se12'
_cell_volume   551.16785505
_cell_formula_units_Z   4
loop_
 _symmetry_equiv_pos_site_id
 _symmetry_equiv_pos_as_xyz
  1  'x, y, z'
loop_
 _atom_site_type_symbol
 _atom_site_label
 _atom_site_symmetry_multiplicity
 _atom_site_fract_x
 _atom_site_fract_y
 _atom_site_fract_z
 _atom_site_occupancy
  Lu  Lu0  1  0.33387200  0.33387200  0.16612800  1
  Lu  Lu1  1  0.16612800  0.16612800  0.33387200  1
  Lu  Lu2  1  0.91612800  0.91612800  0.08387200  1
  Lu  Lu3  1  0.08387200  0.08387200  0.91612800  1
  Lu  Lu4  1  0.99718800  0.99718800  0.50281200  1
  Lu  Lu5  1  0.50281200  0.50281200  0.99718800  1
  Lu  Lu6  1  0.25281200  0.25281200  0.74718800  1
  Lu  Lu7  1  0.74718800  0.74718800  0.25281200  1
  Se  Se8  1  0.00513400  0.49486600  0.49486600  1
  Se  Se9  1  0.49486600  0.00513400  0.00513400  1
  Se  Se10  1  0.24486600  0.75513400  0.75513400  1
  Se  Se11  1  0.75513400  0.24486600  0.24486600  1
  Se  Se12  1  0.66357200  0.17375300  0.83967300  1
  Se  Se13  1  0.83967300  0.32300200  0.66357200  1
  Se  Se14  1  0.32300200  0.83967300  0.17375300  1
  Se  Se15  1  0.17375300  0.66357200  0.32300200  1
  Se  Se16  1  0.58642800  0.07624700  0.41032700  1
  Se  Se17  1  0.41032700  0.92699800  0.58642800  1
  Se  Se18  1  0.92699800  0.41032700  0.07624700  1
  Se  Se19  1  0.07624700  0.58642800  0.92699800  1
