# generated using pymatgen
data_Ti2Be17
_symmetry_space_group_name_H-M   'P 1'
_cell_length_a   7.33006928
_cell_length_b   7.33006928
_cell_length_c   7.15707800
_cell_angle_alpha   90.00000000
_cell_angle_beta   90.00000000
_cell_angle_gamma   119.99999350
_symmetry_Int_Tables_number   1
_chemical_formula_structural   Ti2Be17
_chemical_formula_sum   'Ti4 Be34'
_cell_volume   333.02939561
_cell_formula_units_Z   2
loop_
 _symmetry_equiv_pos_site_id
 _symmetry_equiv_pos_as_xyz
  1  'x, y, z'
loop_
 _atom_site_type_symbol
 _atom_site_label
 _atom_site_symmetry_multiplicity
 _atom_site_fract_x
 _atom_site_fract_y
 _atom_site_fract_z
 _atom_site_occupancy
  Ti  Ti0  1  0.00000000  0.00000000  0.25000000  1
  Ti  Ti1  1  0.00000000  0.00000000  0.75000000  1
  Ti  Ti2  1  0.33333300  0.66666700  0.75000000  1
  Ti  Ti3  1  0.66666700  0.33333300  0.25000000  1
  Be  Be4  1  0.33333300  0.66666700  0.39798300  1
  Be  Be5  1  0.66666700  0.33333300  0.60201700  1
  Be  Be6  1  0.66666700  0.33333300  0.89798300  1
  Be  Be7  1  0.33333300  0.66666700  0.10201700  1
  Be  Be8  1  0.50000000  0.50000000  0.50000000  1
  Be  Be9  1  0.50000000  0.00000000  0.50000000  1
  Be  Be10  1  0.00000000  0.50000000  0.50000000  1
  Be  Be11  1  0.50000000  0.50000000  0.00000000  1
  Be  Be12  1  0.50000000  0.00000000  0.00000000  1
  Be  Be13  1  0.00000000  0.50000000  0.00000000  1
  Be  Be14  1  0.33072300  0.36963500  0.25000000  1
  Be  Be15  1  0.63036500  0.96108800  0.25000000  1
  Be  Be16  1  0.03891200  0.66927700  0.25000000  1
  Be  Be17  1  0.63036500  0.66927700  0.25000000  1
  Be  Be18  1  0.03891200  0.36963500  0.25000000  1
  Be  Be19  1  0.33072300  0.96108800  0.25000000  1
  Be  Be20  1  0.66927700  0.63036500  0.75000000  1
  Be  Be21  1  0.36963500  0.03891200  0.75000000  1
  Be  Be22  1  0.96108800  0.33072300  0.75000000  1
  Be  Be23  1  0.36963500  0.33072300  0.75000000  1
  Be  Be24  1  0.96108800  0.63036500  0.75000000  1
  Be  Be25  1  0.66927700  0.03891200  0.75000000  1
  Be  Be26  1  0.16442000  0.83558000  0.51486000  1
  Be  Be27  1  0.16442000  0.32884000  0.51486000  1
  Be  Be28  1  0.67116000  0.83558000  0.51486000  1
  Be  Be29  1  0.83558000  0.16442000  0.48514000  1
  Be  Be30  1  0.83558000  0.67116000  0.48514000  1
  Be  Be31  1  0.32884000  0.16442000  0.48514000  1
  Be  Be32  1  0.83558000  0.16442000  0.01486000  1
  Be  Be33  1  0.83558000  0.67116000  0.01486000  1
  Be  Be34  1  0.32884000  0.16442000  0.01486000  1
  Be  Be35  1  0.16442000  0.83558000  0.98514000  1
  Be  Be36  1  0.16442000  0.32884000  0.98514000  1
  Be  Be37  1  0.67116000  0.83558000  0.98514000  1
