# generated using pymatgen
data_LaNiO3
_symmetry_space_group_name_H-M   'P 1'
_cell_length_a   5.44033618
_cell_length_b   5.44052788
_cell_length_c   5.44044150
_cell_angle_alpha   61.46680016
_cell_angle_beta   61.46916972
_cell_angle_gamma   61.46807755
_symmetry_Int_Tables_number   1
_chemical_formula_structural   LaNiO3
_chemical_formula_sum   'La2 Ni2 O6'
_cell_volume   117.61688370
_cell_formula_units_Z   2
loop_
 _symmetry_equiv_pos_site_id
 _symmetry_equiv_pos_as_xyz
  1  'x, y, z'
loop_
 _atom_site_type_symbol
 _atom_site_label
 _atom_site_symmetry_multiplicity
 _atom_site_fract_x
 _atom_site_fract_y
 _atom_site_fract_z
 _atom_site_occupancy
  La  La0  1  0.74999700  0.74999800  0.75000500  1
  La  La1  1  0.25000300  0.25000200  0.24999500  1
  Ni  Ni2  1  0.50000100  0.50000100  0.50000000  1
  Ni  Ni3  1  0.00000000  0.99999800  0.00000000  1
  O  O4  1  0.31344200  0.75000800  0.18656200  1
  O  O5  1  0.75000400  0.18659800  0.31340200  1
  O  O6  1  0.18656500  0.31342600  0.74999000  1
  O  O7  1  0.68655800  0.24999100  0.81343800  1
  O  O8  1  0.81343500  0.68657400  0.25000900  1
  O  O9  1  0.24999600  0.81340300  0.68659800  1
