# generated using pymatgen
data_Ca5V3ClO12
_symmetry_space_group_name_H-M   'P 1'
_cell_length_a   10.32578961
_cell_length_b   10.32578961
_cell_length_c   6.76018800
_cell_angle_alpha   90.00000000
_cell_angle_beta   90.00000000
_cell_angle_gamma   119.99999748
_symmetry_Int_Tables_number   1
_chemical_formula_structural   Ca5V3ClO12
_chemical_formula_sum   'Ca10 V6 Cl2 O24'
_cell_volume   624.21752900
_cell_formula_units_Z   2
loop_
 _symmetry_equiv_pos_site_id
 _symmetry_equiv_pos_as_xyz
  1  'x, y, z'
loop_
 _atom_site_type_symbol
 _atom_site_label
 _atom_site_symmetry_multiplicity
 _atom_site_fract_x
 _atom_site_fract_y
 _atom_site_fract_z
 _atom_site_occupancy
  Ca  Ca0  1  0.66666700  0.33333300  0.50383400  1
  Ca  Ca1  1  0.33333300  0.66666700  0.00383400  1
  Ca  Ca2  1  0.33333300  0.66666700  0.49616600  1
  Ca  Ca3  1  0.66666700  0.33333300  0.99616600  1
  Ca  Ca4  1  0.03239800  0.26709900  0.75000000  1
  Ca  Ca5  1  0.73290100  0.76529900  0.75000000  1
  Ca  Ca6  1  0.23470100  0.96760200  0.75000000  1
  Ca  Ca7  1  0.96760200  0.73290100  0.25000000  1
  Ca  Ca8  1  0.26709900  0.23470100  0.25000000  1
  Ca  Ca9  1  0.76529900  0.03239800  0.25000000  1
  V  V10  1  0.38164900  0.41176600  0.75000000  1
  V  V11  1  0.58823400  0.96988300  0.75000000  1
  V  V12  1  0.03011700  0.61835100  0.75000000  1
  V  V13  1  0.61835100  0.58823400  0.25000000  1
  V  V14  1  0.41176600  0.03011700  0.25000000  1
  V  V15  1  0.96988300  0.38164900  0.25000000  1
  Cl  Cl16  1  0.00000000  0.00000000  0.50000000  1
  Cl  Cl17  1  0.00000000  0.00000000  0.00000000  1
  O  O18  1  0.51063100  0.35177500  0.75000000  1
  O  O19  1  0.64822500  0.15885600  0.75000000  1
  O  O20  1  0.84114400  0.48936900  0.75000000  1
  O  O21  1  0.48936900  0.64822500  0.25000000  1
  O  O22  1  0.35177500  0.84114400  0.25000000  1
  O  O23  1  0.15885600  0.51063100  0.25000000  1
  O  O24  1  0.46813100  0.60886800  0.75000000  1
  O  O25  1  0.39113200  0.85926200  0.75000000  1
  O  O26  1  0.14073800  0.53186900  0.75000000  1
  O  O27  1  0.53186900  0.39113200  0.25000000  1
  O  O28  1  0.60886800  0.14073800  0.25000000  1
  O  O29  1  0.85926200  0.46813100  0.25000000  1
  O  O30  1  0.26088000  0.34788100  0.54825600  1
  O  O31  1  0.65211900  0.91300000  0.54825600  1
  O  O32  1  0.08700000  0.73912000  0.54825600  1
  O  O33  1  0.73912000  0.65211900  0.04825600  1
  O  O34  1  0.34788100  0.08700000  0.04825600  1
  O  O35  1  0.91300000  0.26088000  0.04825600  1
  O  O36  1  0.73912000  0.65211900  0.45174400  1
  O  O37  1  0.34788100  0.08700000  0.45174400  1
  O  O38  1  0.91300000  0.26088000  0.45174400  1
  O  O39  1  0.26088000  0.34788100  0.95174400  1
  O  O40  1  0.65211900  0.91300000  0.95174400  1
  O  O41  1  0.08700000  0.73912000  0.95174400  1
