# generated using pymatgen
data_Dy2S3
_symmetry_space_group_name_H-M   'P 1'
_cell_length_a   3.87381800
_cell_length_b   10.47498400
_cell_length_c   10.65308900
_cell_angle_alpha   90.00000000
_cell_angle_beta   90.00000000
_cell_angle_gamma   90.00000000
_symmetry_Int_Tables_number   1
_chemical_formula_structural   Dy2S3
_chemical_formula_sum   'Dy8 S12'
_cell_volume   432.28297971
_cell_formula_units_Z   4
loop_
 _symmetry_equiv_pos_site_id
 _symmetry_equiv_pos_as_xyz
  1  'x, y, z'
loop_
 _atom_site_type_symbol
 _atom_site_label
 _atom_site_symmetry_multiplicity
 _atom_site_fract_x
 _atom_site_fract_y
 _atom_site_fract_z
 _atom_site_occupancy
  Dy  Dy0  1  0.25000000  0.99629800  0.80795400  1
  Dy  Dy1  1  0.75000000  0.00370200  0.19204600  1
  Dy  Dy2  1  0.75000000  0.49629800  0.69204600  1
  Dy  Dy3  1  0.25000000  0.50370200  0.30795400  1
  Dy  Dy4  1  0.25000000  0.18672200  0.49000700  1
  Dy  Dy5  1  0.75000000  0.81327800  0.50999300  1
  Dy  Dy6  1  0.75000000  0.68672200  0.00999300  1
  Dy  Dy7  1  0.25000000  0.31327800  0.99000700  1
  S  S8  1  0.25000000  0.30409500  0.72773900  1
  S  S9  1  0.75000000  0.69590500  0.27226100  1
  S  S10  1  0.75000000  0.80409500  0.77226100  1
  S  S11  1  0.25000000  0.19590500  0.22773900  1
  S  S12  1  0.25000000  0.94449800  0.38055200  1
  S  S13  1  0.75000000  0.05550200  0.61944800  1
  S  S14  1  0.75000000  0.44449800  0.11944800  1
  S  S15  1  0.25000000  0.55550200  0.88055200  1
  S  S16  1  0.25000000  0.87330700  0.04577700  1
  S  S17  1  0.75000000  0.12669300  0.95422300  1
  S  S18  1  0.75000000  0.37330700  0.45422300  1
  S  S19  1  0.25000000  0.62669300  0.54577700  1
