# generated using pymatgen
data_NbNi11(BO5)4
_symmetry_space_group_name_H-M   'P 1'
_cell_length_a   6.12837901
_cell_length_b   6.12837901
_cell_length_c   21.82545839
_cell_angle_alpha   79.95856272
_cell_angle_beta   79.95856272
_cell_angle_gamma   60.67012689
_symmetry_Int_Tables_number   1
_chemical_formula_structural   NbNi11(BO5)4
_chemical_formula_sum   'Nb2 Ni22 B8 O40'
_cell_volume   699.89088433
_cell_formula_units_Z   2
loop_
 _symmetry_equiv_pos_site_id
 _symmetry_equiv_pos_as_xyz
  1  'x, y, z'
loop_
 _atom_site_type_symbol
 _atom_site_label
 _atom_site_symmetry_multiplicity
 _atom_site_fract_x
 _atom_site_fract_y
 _atom_site_fract_z
 _atom_site_occupancy
  Nb  Nb0  1  0.72026500  0.27973500  0.75000000  1
  Nb  Nb1  1  0.27973500  0.72026500  0.25000000  1
  Ni  Ni2  1  0.57569500  0.20653800  0.60895300  1
  Ni  Ni3  1  0.42430500  0.79346200  0.39104700  1
  Ni  Ni4  1  0.79346200  0.42430500  0.89104700  1
  Ni  Ni5  1  0.20653800  0.57569500  0.10895300  1
  Ni  Ni6  1  0.68107300  0.81722000  0.74964900  1
  Ni  Ni7  1  0.31892700  0.18278000  0.25035100  1
  Ni  Ni8  1  0.18278000  0.31892700  0.75035100  1
  Ni  Ni9  1  0.81722000  0.68107300  0.24964900  1
  Ni  Ni10  1  0.79685300  0.91736600  0.89335400  1
  Ni  Ni11  1  0.20314700  0.08263400  0.10664600  1
  Ni  Ni12  1  0.08263400  0.20314700  0.60664600  1
  Ni  Ni13  1  0.91736600  0.79685300  0.39335400  1
  Ni  Ni14  1  0.49645200  0.75183400  0.99931900  1
  Ni  Ni15  1  0.50354800  0.24816600  0.00068100  1
  Ni  Ni16  1  0.24816600  0.50354800  0.50068100  1
  Ni  Ni17  1  0.75183400  0.49645200  0.49931900  1
  Ni  Ni18  1  0.19292200  0.80707800  0.75000000  1
  Ni  Ni19  1  0.80707800  0.19292200  0.25000000  1
  Ni  Ni20  1  0.50000000  0.00000000  0.50000000  1
  Ni  Ni21  1  0.00000000  0.50000000  0.00000000  1
  Ni  Ni22  1  0.00000000  0.00000000  0.50000000  1
  Ni  Ni23  1  0.00000000  0.00000000  0.00000000  1
  B  B24  1  0.30406100  0.93188600  0.86798500  1
  B  B25  1  0.69593900  0.06811400  0.13201500  1
  B  B26  1  0.06811400  0.69593900  0.63201500  1
  B  B27  1  0.93188600  0.30406100  0.36798500  1
  B  B28  1  0.56930800  0.69380900  0.63005100  1
  B  B29  1  0.43069200  0.30619100  0.36994900  1
  B  B30  1  0.30619100  0.43069200  0.86994900  1
  B  B31  1  0.69380900  0.56930800  0.13005100  1
  O  O32  1  0.46858500  0.93423700  0.60024200  1
  O  O33  1  0.53141500  0.06576300  0.39975800  1
  O  O34  1  0.06576300  0.53141500  0.89975800  1
  O  O35  1  0.93423700  0.46858500  0.10024200  1
  O  O36  1  0.51580700  0.80584200  0.90015300  1
  O  O37  1  0.48419300  0.19415800  0.09984700  1
  O  O38  1  0.19415800  0.48419300  0.59984700  1
  O  O39  1  0.80584200  0.51580700  0.40015300  1
  O  O40  1  0.83347600  0.96195700  0.80025200  1
  O  O41  1  0.16652400  0.03804300  0.19974800  1
  O  O42  1  0.03804300  0.16652400  0.69974800  1
  O  O43  1  0.96195700  0.83347600  0.30025200  1
  O  O44  1  0.93519300  0.96683600  0.10025300  1
  O  O45  1  0.06480700  0.03316400  0.89974700  1
  O  O46  1  0.03316400  0.06480700  0.39974700  1
  O  O47  1  0.96683600  0.93519300  0.60025300  1
  O  O48  1  0.33332300  0.95800200  0.80199400  1
  O  O49  1  0.66667700  0.04199800  0.19800600  1
  O  O50  1  0.04199800  0.66667700  0.69800600  1
  O  O51  1  0.95800200  0.33332300  0.30199400  1
  O  O52  1  0.54366600  0.65884400  0.69651200  1
  O  O53  1  0.45633400  0.34115600  0.30348800  1
  O  O54  1  0.34115600  0.45633400  0.80348800  1
  O  O55  1  0.65884400  0.54366600  0.19651200  1
  O  O56  1  0.61452900  0.24345500  0.51424600  1
  O  O57  1  0.38547100  0.75654500  0.48575400  1
  O  O58  1  0.75654500  0.38547100  0.98575400  1
  O  O59  1  0.24345500  0.61452900  0.01424600  1
  O  O60  1  0.51793600  0.30235000  0.90151600  1
  O  O61  1  0.48206400  0.69765000  0.09848400  1
  O  O62  1  0.69765000  0.48206400  0.59848400  1
  O  O63  1  0.30235000  0.51793600  0.40151600  1
  O  O64  1  0.53616300  0.18439800  0.70336100  1
  O  O65  1  0.46383700  0.81560200  0.29663900  1
  O  O66  1  0.81560200  0.46383700  0.79663900  1
  O  O67  1  0.18439800  0.53616300  0.20336100  1
  O  O68  1  0.75733100  0.87666800  0.98682900  1
  O  O69  1  0.24266900  0.12333200  0.01317100  1
  O  O70  1  0.12333200  0.24266900  0.51317100  1
  O  O71  1  0.87666800  0.75733100  0.48682900  1
