# generated using pymatgen
data_CdCu2GeSe4
_symmetry_space_group_name_H-M   'P 1'
_cell_length_a   6.96966700
_cell_length_b   6.96966700
_cell_length_c   6.96966700
_cell_angle_alpha   130.51312460
_cell_angle_beta   130.51312460
_cell_angle_gamma   72.58777243
_symmetry_Int_Tables_number   1
_chemical_formula_structural   CdCu2GeSe4
_chemical_formula_sum   'Cd1 Cu2 Ge1 Se4'
_cell_volume   191.21989581
_cell_formula_units_Z   1
loop_
 _symmetry_equiv_pos_site_id
 _symmetry_equiv_pos_as_xyz
  1  'x, y, z'
loop_
 _atom_site_type_symbol
 _atom_site_label
 _atom_site_symmetry_multiplicity
 _atom_site_fract_x
 _atom_site_fract_y
 _atom_site_fract_z
 _atom_site_occupancy
  Cd  Cd0  1  0.00000000  0.00000000  0.00000000  1
  Cu  Cu1  1  0.75000000  0.25000000  0.50000000  1
  Cu  Cu2  1  0.25000000  0.75000000  0.50000000  1
  Ge  Ge3  1  0.50000000  0.50000000  0.00000000  1
  Se  Se4  1  0.40461500  0.86769500  0.00000000  1
  Se  Se5  1  0.59538500  0.59538500  0.46308100  1
  Se  Se6  1  0.13230500  0.13230500  0.53691900  1
  Se  Se7  1  0.86769500  0.40461500  0.00000000  1
