# generated using pymatgen
data_Sc12Ir3Br16
_symmetry_space_group_name_H-M   'P 1'
_cell_length_a   8.93648595
_cell_length_b   10.88885796
_cell_length_c   11.55924392
_cell_angle_alpha   116.80906730
_cell_angle_beta   101.82861758
_cell_angle_gamma   101.53632186
_symmetry_Int_Tables_number   1
_chemical_formula_structural   Sc12Ir3Br16
_chemical_formula_sum   'Sc12 Ir3 Br16'
_cell_volume   925.89478664
_cell_formula_units_Z   1
loop_
 _symmetry_equiv_pos_site_id
 _symmetry_equiv_pos_as_xyz
  1  'x, y, z'
loop_
 _atom_site_type_symbol
 _atom_site_label
 _atom_site_symmetry_multiplicity
 _atom_site_fract_x
 _atom_site_fract_y
 _atom_site_fract_z
 _atom_site_occupancy
  Sc  Sc0  1  0.08031400  0.25113800  0.34589000  1
  Sc  Sc1  1  0.91968600  0.74886200  0.65411000  1
  Sc  Sc2  1  0.77631700  0.53670400  0.31551600  1
  Sc  Sc3  1  0.22368300  0.46329600  0.68448400  1
  Sc  Sc4  1  0.28477300  0.74976000  0.65407400  1
  Sc  Sc5  1  0.71522700  0.25024000  0.34592600  1
  Sc  Sc6  1  0.14097800  0.53663200  0.31564700  1
  Sc  Sc7  1  0.85902200  0.46336800  0.68435300  1
  Sc  Sc8  1  0.39782700  0.34566500  0.25440800  1
  Sc  Sc9  1  0.60217300  0.65433500  0.74559200  1
  Sc  Sc10  1  0.45527300  0.29524900  0.52169400  1
  Sc  Sc11  1  0.54472700  0.70475100  0.47830600  1
  Ir  Ir12  1  0.00000000  0.50000000  0.50000000  1
  Ir  Ir13  1  0.33989800  0.50028700  0.49936900  1
  Ir  Ir14  1  0.66010300  0.49971300  0.50063100  1
  Br  Br15  1  0.39854800  0.74914000  0.89622200  1
  Br  Br16  1  0.60145200  0.25086000  0.10377800  1
  Br  Br17  1  0.19468400  0.98248000  0.79151100  1
  Br  Br18  1  0.80531600  0.01752000  0.20848900  1
  Br  Br19  1  0.33273600  0.08031100  0.24317300  1
  Br  Br20  1  0.66726400  0.91968900  0.75682700  1
  Br  Br21  1  0.55619000  0.43480200  0.80755700  1
  Br  Br22  1  0.44381000  0.56519800  0.19244300  1
  Br  Br23  1  0.31052800  0.83572100  0.46152200  1
  Br  Br24  1  0.68947200  0.16427900  0.53847800  1
  Br  Br25  1  0.16362500  0.16379000  0.53438500  1
  Br  Br26  1  0.83637500  0.83621000  0.46561500  1
  Br  Br27  1  0.92577700  0.58293900  0.15270300  1
  Br  Br28  1  0.07422300  0.41706100  0.84729700  1
  Br  Br29  1  0.93068600  0.74780700  0.89628600  1
  Br  Br30  1  0.06931400  0.25219300  0.10371400  1
