# generated using pymatgen
data_Cs5Ga3Se7
_symmetry_space_group_name_H-M   'P 1'
_cell_length_a   11.40907095
_cell_length_b   11.40907095
_cell_length_c   9.84791847
_cell_angle_alpha   75.47760393
_cell_angle_beta   75.47760393
_cell_angle_gamma   71.13936930
_symmetry_Int_Tables_number   1
_chemical_formula_structural   Cs5Ga3Se7
_chemical_formula_sum   'Cs10 Ga6 Se14'
_cell_volume   1153.96531433
_cell_formula_units_Z   2
loop_
 _symmetry_equiv_pos_site_id
 _symmetry_equiv_pos_as_xyz
  1  'x, y, z'
loop_
 _atom_site_type_symbol
 _atom_site_label
 _atom_site_symmetry_multiplicity
 _atom_site_fract_x
 _atom_site_fract_y
 _atom_site_fract_z
 _atom_site_occupancy
  Cs  Cs0  1  0.02530800  0.43797100  0.71863800  1
  Cs  Cs1  1  0.43797100  0.02530800  0.71863800  1
  Cs  Cs2  1  0.97469200  0.56202900  0.28136200  1
  Cs  Cs3  1  0.56202900  0.97469200  0.28136200  1
  Cs  Cs4  1  0.28769700  0.71230300  0.00000000  1
  Cs  Cs5  1  0.71230300  0.28769700  0.00000000  1
  Cs  Cs6  1  0.84816900  0.15183100  0.50000000  1
  Cs  Cs7  1  0.15183100  0.84816900  0.50000000  1
  Cs  Cs8  1  0.42579100  0.42579100  0.69188400  1
  Cs  Cs9  1  0.57420900  0.57420900  0.30811600  1
  Ga  Ga10  1  0.21324200  0.21324200  0.18278000  1
  Ga  Ga11  1  0.78675800  0.78675800  0.81722000  1
  Ga  Ga12  1  0.07167800  0.07167800  0.05777200  1
  Ga  Ga13  1  0.92832200  0.92832200  0.94222800  1
  Ga  Ga14  1  0.34718700  0.34718700  0.33554100  1
  Ga  Ga15  1  0.65281300  0.65281300  0.66445900  1
  Se  Se16  1  0.00317800  0.28411000  0.11374400  1
  Se  Se17  1  0.28411000  0.00317800  0.11374400  1
  Se  Se18  1  0.99682200  0.71589000  0.88625600  1
  Se  Se19  1  0.71589000  0.99682200  0.88625600  1
  Se  Se20  1  0.20463800  0.20463800  0.43325900  1
  Se  Se21  1  0.79536200  0.79536200  0.56674100  1
  Se  Se22  1  0.06431800  0.06431800  0.81327600  1
  Se  Se23  1  0.93568200  0.93568200  0.18672400  1
  Se  Se24  1  0.35027700  0.35027700  0.07621700  1
  Se  Se25  1  0.64972300  0.64972300  0.92378300  1
  Se  Se26  1  0.25035700  0.55335200  0.39466200  1
  Se  Se27  1  0.55335200  0.25035700  0.39466200  1
  Se  Se28  1  0.74964300  0.44664800  0.60533800  1
  Se  Se29  1  0.44664800  0.74964300  0.60533800  1
