# generated using pymatgen
data_Eu(Ga4Rh)2
_symmetry_space_group_name_H-M   'P 1'
_cell_length_a   4.16743600
_cell_length_b   12.73888900
_cell_length_c   14.71329200
_cell_angle_alpha   90.00000000
_cell_angle_beta   90.00000000
_cell_angle_gamma   90.00000000
_symmetry_Int_Tables_number   1
_chemical_formula_structural   Eu(Ga4Rh)2
_chemical_formula_sum   'Eu4 Ga32 Rh8'
_cell_volume   781.10667030
_cell_formula_units_Z   4
loop_
 _symmetry_equiv_pos_site_id
 _symmetry_equiv_pos_as_xyz
  1  'x, y, z'
loop_
 _atom_site_type_symbol
 _atom_site_label
 _atom_site_symmetry_multiplicity
 _atom_site_fract_x
 _atom_site_fract_y
 _atom_site_fract_z
 _atom_site_occupancy
  Eu  Eu0  1  0.50000000  0.15774600  0.31883400  1
  Eu  Eu1  1  0.50000000  0.84225400  0.68116600  1
  Eu  Eu2  1  0.50000000  0.65774600  0.18116600  1
  Eu  Eu3  1  0.50000000  0.34225400  0.81883400  1
  Ga  Ga4  1  0.00000000  0.50000000  0.50000000  1
  Ga  Ga5  1  0.00000000  0.00000000  0.00000000  1
  Ga  Ga6  1  0.50000000  0.50000000  0.00000000  1
  Ga  Ga7  1  0.50000000  0.00000000  0.50000000  1
  Ga  Ga8  1  0.50000000  0.65958500  0.45704600  1
  Ga  Ga9  1  0.50000000  0.34041500  0.54295400  1
  Ga  Ga10  1  0.50000000  0.15958500  0.04295400  1
  Ga  Ga11  1  0.50000000  0.84041500  0.95704600  1
  Ga  Ga12  1  0.50000000  0.40135900  0.25132700  1
  Ga  Ga13  1  0.50000000  0.59864100  0.74867300  1
  Ga  Ga14  1  0.50000000  0.90135900  0.24867300  1
  Ga  Ga15  1  0.50000000  0.09864100  0.75132700  1
  Ga  Ga16  1  0.00000000  0.55011200  0.31535900  1
  Ga  Ga17  1  0.00000000  0.44988800  0.68464100  1
  Ga  Ga18  1  0.00000000  0.05011200  0.18464100  1
  Ga  Ga19  1  0.00000000  0.94988800  0.81535900  1
  Ga  Ga20  1  0.00000000  0.33433500  0.37676000  1
  Ga  Ga21  1  0.00000000  0.66566500  0.62323900  1
  Ga  Ga22  1  0.00000000  0.83433500  0.12324000  1
  Ga  Ga23  1  0.00000000  0.16566500  0.87676100  1
  Ga  Ga24  1  0.00000000  0.16965900  0.48689700  1
  Ga  Ga25  1  0.00000000  0.83034100  0.51310300  1
  Ga  Ga26  1  0.00000000  0.66965900  0.01310300  1
  Ga  Ga27  1  0.00000000  0.33034100  0.98689700  1
  Ga  Ga28  1  0.00000000  0.75900100  0.32380800  1
  Ga  Ga29  1  0.00000000  0.24099900  0.67619200  1
  Ga  Ga30  1  0.00000000  0.25900100  0.17619200  1
  Ga  Ga31  1  0.00000000  0.74099900  0.82380800  1
  Ga  Ga32  1  0.00000000  0.97860400  0.36727300  1
  Ga  Ga33  1  0.00000000  0.02139600  0.63272700  1
  Ga  Ga34  1  0.00000000  0.47860400  0.13272700  1
  Ga  Ga35  1  0.00000000  0.52139600  0.86727300  1
  Rh  Rh36  1  0.50000000  0.84458200  0.40523800  1
  Rh  Rh37  1  0.50000000  0.15541800  0.59476200  1
  Rh  Rh38  1  0.50000000  0.34458200  0.09476200  1
  Rh  Rh39  1  0.50000000  0.65541800  0.90523800  1
  Rh  Rh40  1  0.50000000  0.46464300  0.40352700  1
  Rh  Rh41  1  0.50000000  0.53535700  0.59647300  1
  Rh  Rh42  1  0.50000000  0.96464300  0.09647300  1
  Rh  Rh43  1  0.50000000  0.03535700  0.90352700  1
