# generated using pymatgen
data_Nb2CrB2
_symmetry_space_group_name_H-M   'P 1'
_cell_length_a   5.96169900
_cell_length_b   5.96169900
_cell_length_c   3.26413000
_cell_angle_alpha   90.00000000
_cell_angle_beta   90.00000000
_cell_angle_gamma   90.00000000
_symmetry_Int_Tables_number   1
_chemical_formula_structural   Nb2CrB2
_chemical_formula_sum   'Nb4 Cr2 B4'
_cell_volume   116.01323505
_cell_formula_units_Z   2
loop_
 _symmetry_equiv_pos_site_id
 _symmetry_equiv_pos_as_xyz
  1  'x, y, z'
loop_
 _atom_site_type_symbol
 _atom_site_label
 _atom_site_symmetry_multiplicity
 _atom_site_fract_x
 _atom_site_fract_y
 _atom_site_fract_z
 _atom_site_occupancy
  Nb  Nb0  1  0.68072700  0.18072700  0.50000000  1
  Nb  Nb1  1  0.31927300  0.81927300  0.50000000  1
  Nb  Nb2  1  0.18072700  0.31927300  0.50000000  1
  Nb  Nb3  1  0.81927300  0.68072700  0.50000000  1
  Cr  Cr4  1  0.50000000  0.50000000  0.00000000  1
  Cr  Cr5  1  0.00000000  0.00000000  0.00000000  1
  B  B6  1  0.11021200  0.61021200  0.00000000  1
  B  B7  1  0.88978800  0.38978800  0.00000000  1
  B  B8  1  0.61021200  0.88978800  0.00000000  1
  B  B9  1  0.38978800  0.11021200  0.00000000  1
