# generated using pymatgen
data_SmCr2Si2C
_symmetry_space_group_name_H-M   'P 1'
_cell_length_a   3.98208600
_cell_length_b   3.98208600
_cell_length_c   5.31070300
_cell_angle_alpha   90.00000000
_cell_angle_beta   90.00000000
_cell_angle_gamma   90.00000000
_symmetry_Int_Tables_number   1
_chemical_formula_structural   SmCr2Si2C
_chemical_formula_sum   'Sm1 Cr2 Si2 C1'
_cell_volume   84.21186480
_cell_formula_units_Z   1
loop_
 _symmetry_equiv_pos_site_id
 _symmetry_equiv_pos_as_xyz
  1  'x, y, z'
loop_
 _atom_site_type_symbol
 _atom_site_label
 _atom_site_symmetry_multiplicity
 _atom_site_fract_x
 _atom_site_fract_y
 _atom_site_fract_z
 _atom_site_occupancy
  Sm  Sm0  1  0.00000000  0.00000000  0.50000000  1
  Cr  Cr1  1  0.00000000  0.50000000  0.00000000  1
  Cr  Cr2  1  0.50000000  0.00000000  0.00000000  1
  Si  Si3  1  0.50000000  0.50000000  0.26793100  1
  Si  Si4  1  0.50000000  0.50000000  0.73206900  1
  C  C5  1  0.00000000  0.00000000  0.00000000  1
