# generated using pymatgen
data_Ag2PSe3
_symmetry_space_group_name_H-M   'P 1'
_cell_length_a   6.63126200
_cell_length_b   11.75556500
_cell_length_c   14.70132400
_cell_angle_alpha   90.00000000
_cell_angle_beta   90.00000000
_cell_angle_gamma   90.00000000
_symmetry_Int_Tables_number   1
_chemical_formula_structural   Ag2PSe3
_chemical_formula_sum   'Ag16 P8 Se24'
_cell_volume   1146.03041406
_cell_formula_units_Z   8
loop_
 _symmetry_equiv_pos_site_id
 _symmetry_equiv_pos_as_xyz
  1  'x, y, z'
loop_
 _atom_site_type_symbol
 _atom_site_label
 _atom_site_symmetry_multiplicity
 _atom_site_fract_x
 _atom_site_fract_y
 _atom_site_fract_z
 _atom_site_occupancy
  Ag  Ag0  1  0.78008200  0.28674600  0.62889500  1
  Ag  Ag1  1  0.28008200  0.21325400  0.37110500  1
  Ag  Ag2  1  0.21991800  0.78674600  0.87110500  1
  Ag  Ag3  1  0.71991800  0.71325400  0.12889500  1
  Ag  Ag4  1  0.46426000  0.30464100  0.10711400  1
  Ag  Ag5  1  0.96426000  0.19535900  0.89288600  1
  Ag  Ag6  1  0.53574000  0.80464100  0.39288600  1
  Ag  Ag7  1  0.03574000  0.69535900  0.60711400  1
  Ag  Ag8  1  0.57537800  0.61591200  0.87527200  1
  Ag  Ag9  1  0.07537800  0.88408800  0.12472800  1
  Ag  Ag10  1  0.42462200  0.11591200  0.62472800  1
  Ag  Ag11  1  0.92462200  0.38408800  0.37527200  1
  Ag  Ag12  1  0.58333000  0.36100000  0.88778100  1
  Ag  Ag13  1  0.08333000  0.13900000  0.11221900  1
  Ag  Ag14  1  0.41667000  0.86100000  0.61221900  1
  Ag  Ag15  1  0.91667000  0.63900000  0.38778100  1
  P  P16  1  0.10751300  0.46926500  0.80064500  1
  P  P17  1  0.60751300  0.03073500  0.19935500  1
  P  P18  1  0.89248700  0.96926500  0.69935500  1
  P  P19  1  0.39248700  0.53073500  0.30064500  1
  P  P20  1  0.06264100  0.50501600  0.95568600  1
  P  P21  1  0.56264100  0.99498400  0.04431400  1
  P  P22  1  0.93735900  0.00501600  0.54431400  1
  P  P23  1  0.43735900  0.49498400  0.45568600  1
  Se  Se24  1  0.25941600  0.30114500  0.79008500  1
  Se  Se25  1  0.75941600  0.19885500  0.20991500  1
  Se  Se26  1  0.74058400  0.80114500  0.70991500  1
  Se  Se27  1  0.24058400  0.69885500  0.29008500  1
  Se  Se28  1  0.80281000  0.47033400  0.73895100  1
  Se  Se29  1  0.30281000  0.02966600  0.26104900  1
  Se  Se30  1  0.19719000  0.97033400  0.76104900  1
  Se  Se31  1  0.69719000  0.52966600  0.23895100  1
  Se  Se32  1  0.13562800  0.48646900  0.51909700  1
  Se  Se33  1  0.63562800  0.01353100  0.48090300  1
  Se  Se34  1  0.86437200  0.98646900  0.98090300  1
  Se  Se35  1  0.36437200  0.51353100  0.01909700  1
  Se  Se36  1  0.61904100  0.63720300  0.51390900  1
  Se  Se37  1  0.11904100  0.86279700  0.48609100  1
  Se  Se38  1  0.38095900  0.13720300  0.98609100  1
  Se  Se39  1  0.88095900  0.36279700  0.01390900  1
  Se  Se40  1  0.59088500  0.32361500  0.46300200  1
  Se  Se41  1  0.09088500  0.17638500  0.53699800  1
  Se  Se42  1  0.40911500  0.82361500  0.03699800  1
  Se  Se43  1  0.90911500  0.67638500  0.96300200  1
  Se  Se44  1  0.20763900  0.38445200  0.24611300  1
  Se  Se45  1  0.70763900  0.11554800  0.75388700  1
  Se  Se46  1  0.79236100  0.88445200  0.25388700  1
  Se  Se47  1  0.29236100  0.61554800  0.74611300  1
