# generated using pymatgen
data_Li7PSe6
_symmetry_space_group_name_H-M   'P 1'
_cell_length_a   7.52262400
_cell_length_b   10.37697200
_cell_length_c   15.02399500
_cell_angle_alpha   90.00000000
_cell_angle_beta   90.00000000
_cell_angle_gamma   90.00000000
_symmetry_Int_Tables_number   1
_chemical_formula_structural   Li7PSe6
_chemical_formula_sum   'Li28 P4 Se24'
_cell_volume   1172.80397831
_cell_formula_units_Z   4
loop_
 _symmetry_equiv_pos_site_id
 _symmetry_equiv_pos_as_xyz
  1  'x, y, z'
loop_
 _atom_site_type_symbol
 _atom_site_label
 _atom_site_symmetry_multiplicity
 _atom_site_fract_x
 _atom_site_fract_y
 _atom_site_fract_z
 _atom_site_occupancy
  Li  Li0  1  0.23850700  0.19266000  0.31759200  1
  Li  Li1  1  0.76149300  0.69266000  0.68240800  1
  Li  Li2  1  0.26149300  0.19266000  0.81759200  1
  Li  Li3  1  0.73850700  0.69266000  0.18240800  1
  Li  Li4  1  0.97421600  0.47731800  0.26933100  1
  Li  Li5  1  0.02578400  0.97731800  0.73066900  1
  Li  Li6  1  0.52578400  0.47731800  0.76933100  1
  Li  Li7  1  0.47421600  0.97731800  0.23066900  1
  Li  Li8  1  0.16992200  0.32953000  0.02696200  1
  Li  Li9  1  0.83007800  0.82953000  0.97303800  1
  Li  Li10  1  0.33007800  0.32953000  0.52696200  1
  Li  Li11  1  0.66992200  0.82953000  0.47303800  1
  Li  Li12  1  0.05894500  0.00546100  0.10883800  1
  Li  Li13  1  0.94105500  0.50546100  0.89116200  1
  Li  Li14  1  0.44105500  0.00546100  0.60883800  1
  Li  Li15  1  0.55894500  0.50546100  0.39116200  1
  Li  Li16  1  0.44844400  0.98504200  0.04477900  1
  Li  Li17  1  0.55155600  0.48504200  0.95522100  1
  Li  Li18  1  0.05155600  0.98504200  0.54477900  1
  Li  Li19  1  0.94844400  0.48504200  0.45522100  1
  Li  Li20  1  0.38577100  0.38374800  0.21831400  1
  Li  Li21  1  0.61422900  0.88374800  0.78168600  1
  Li  Li22  1  0.11422900  0.38374800  0.71831400  1
  Li  Li23  1  0.88577100  0.88374800  0.28168600  1
  Li  Li24  1  0.65157300  0.17124600  0.12847900  1
  Li  Li25  1  0.34842700  0.67124600  0.87152100  1
  Li  Li26  1  0.84842700  0.17124600  0.62847900  1
  Li  Li27  1  0.15157300  0.67124600  0.37152100  1
  P  P28  1  0.23218000  0.68476900  0.11558400  1
  P  P29  1  0.76782000  0.18476900  0.88441600  1
  P  P30  1  0.26782000  0.68476900  0.61558400  1
  P  P31  1  0.73218000  0.18476900  0.38441600  1
  Se  Se32  1  0.23781700  0.42933100  0.37031300  1
  Se  Se33  1  0.76218300  0.92933100  0.62968700  1
  Se  Se34  1  0.26218300  0.42933100  0.87031300  1
  Se  Se35  1  0.73781700  0.92933100  0.12968700  1
  Se  Se36  1  0.72200000  0.31115000  0.26508100  1
  Se  Se37  1  0.27800000  0.81115000  0.73491900  1
  Se  Se38  1  0.77800000  0.31115000  0.76508100  1
  Se  Se39  1  0.22200000  0.81115000  0.23491900  1
  Se  Se40  1  0.30257600  0.16870200  0.14362500  1
  Se  Se41  1  0.69742400  0.66870200  0.85637500  1
  Se  Se42  1  0.19742400  0.16870200  0.64362500  1
  Se  Se43  1  0.80257600  0.66870200  0.35637500  1
  Se  Se44  1  0.50379000  0.04930900  0.39419500  1
  Se  Se45  1  0.49621000  0.54930900  0.60580500  1
  Se  Se46  1  0.99621000  0.04930900  0.89419500  1
  Se  Se47  1  0.00379000  0.54930900  0.10580500  1
  Se  Se48  1  0.97982800  0.06629500  0.38641500  1
  Se  Se49  1  0.02017200  0.56629500  0.61358500  1
  Se  Se50  1  0.52017200  0.06629500  0.88641500  1
  Se  Se51  1  0.47982800  0.56629500  0.11358500  1
  Se  Se52  1  0.21083200  0.81493800  0.99798000  1
  Se  Se53  1  0.78916800  0.31493800  0.00202000  1
  Se  Se54  1  0.28916800  0.81493800  0.49798000  1
  Se  Se55  1  0.71083200  0.31493800  0.50202000  1
