# generated using pymatgen
data_NdMgNi4
_symmetry_space_group_name_H-M   'P 1'
_cell_length_a   5.01493000
_cell_length_b   5.01897000
_cell_length_c   5.02120782
_cell_angle_alpha   60.01474170
_cell_angle_beta   60.04134971
_cell_angle_gamma   90.00000000
_symmetry_Int_Tables_number   1
_chemical_formula_structural   NdMgNi4
_chemical_formula_sum   'Nd1 Mg1 Ni4'
_cell_volume   89.44178113
_cell_formula_units_Z   1
loop_
 _symmetry_equiv_pos_site_id
 _symmetry_equiv_pos_as_xyz
  1  'x, y, z'
loop_
 _atom_site_type_symbol
 _atom_site_label
 _atom_site_symmetry_multiplicity
 _atom_site_fract_x
 _atom_site_fract_y
 _atom_site_fract_z
 _atom_site_occupancy
  Nd  Nd0  1  0.00386400  0.25386400  0.99227100  1
  Mg  Mg1  1  0.75289300  0.50289300  0.49421500  1
  Ni  Ni2  1  0.38028100  0.38377000  0.23943900  1
  Ni  Ni3  1  0.38028100  0.87679100  0.23943900  1
  Ni  Ni4  1  0.38086700  0.87784100  0.74431800  1
  Ni  Ni5  1  0.87481500  0.87784100  0.74431800  1
