# generated using pymatgen
data_Cs8Ga11Cl
_symmetry_space_group_name_H-M   'P 1'
_cell_length_a   18.07532647
_cell_length_b   18.07532647
_cell_length_c   18.07532675
_cell_angle_alpha   32.66778631
_cell_angle_beta   32.66778631
_cell_angle_gamma   32.66778542
_symmetry_Int_Tables_number   1
_chemical_formula_structural   Cs8Ga11Cl
_chemical_formula_sum   'Cs16 Ga22 Cl2'
_cell_volume   1530.33545871
_cell_formula_units_Z   2
loop_
 _symmetry_equiv_pos_site_id
 _symmetry_equiv_pos_as_xyz
  1  'x, y, z'
loop_
 _atom_site_type_symbol
 _atom_site_label
 _atom_site_symmetry_multiplicity
 _atom_site_fract_x
 _atom_site_fract_y
 _atom_site_fract_z
 _atom_site_occupancy
  Cs  Cs0  1  0.90172600  0.69097000  0.33945700  1
  Cs  Cs1  1  0.33945700  0.90172600  0.69097000  1
  Cs  Cs2  1  0.69097000  0.33945700  0.90172600  1
  Cs  Cs3  1  0.83945700  0.19097000  0.40172600  1
  Cs  Cs4  1  0.40172600  0.83945700  0.19097000  1
  Cs  Cs5  1  0.19097000  0.40172600  0.83945700  1
  Cs  Cs6  1  0.09827400  0.30903000  0.66054300  1
  Cs  Cs7  1  0.66054300  0.09827400  0.30903000  1
  Cs  Cs8  1  0.30903000  0.66054300  0.09827400  1
  Cs  Cs9  1  0.16054300  0.80903000  0.59827400  1
  Cs  Cs10  1  0.59827400  0.16054300  0.80903000  1
  Cs  Cs11  1  0.80903000  0.59827400  0.16054300  1
  Cs  Cs12  1  0.92546200  0.92546200  0.92546200  1
  Cs  Cs13  1  0.42546200  0.42546200  0.42546200  1
  Cs  Cs14  1  0.07453800  0.07453800  0.07453800  1
  Cs  Cs15  1  0.57453800  0.57453800  0.57453800  1
  Ga  Ga16  1  0.93777100  0.56222900  0.75000000  1
  Ga  Ga17  1  0.75000000  0.93777100  0.56222900  1
  Ga  Ga18  1  0.56222900  0.75000000  0.93777100  1
  Ga  Ga19  1  0.25000000  0.06222900  0.43777100  1
  Ga  Ga20  1  0.43777100  0.25000000  0.06222900  1
  Ga  Ga21  1  0.06222900  0.43777100  0.25000000  1
  Ga  Ga22  1  0.29435300  0.29435300  0.29435300  1
  Ga  Ga23  1  0.79435300  0.79435300  0.79435300  1
  Ga  Ga24  1  0.70564700  0.70564700  0.70564700  1
  Ga  Ga25  1  0.20564700  0.20564700  0.20564700  1
  Ga  Ga26  1  0.52919500  0.02593100  0.27616600  1
  Ga  Ga27  1  0.27616600  0.52919500  0.02593100  1
  Ga  Ga28  1  0.02593100  0.27616600  0.52919500  1
  Ga  Ga29  1  0.77616600  0.52593100  0.02919500  1
  Ga  Ga30  1  0.02919500  0.77616600  0.52593100  1
  Ga  Ga31  1  0.52593100  0.02919500  0.77616600  1
  Ga  Ga32  1  0.47080500  0.97406900  0.72383400  1
  Ga  Ga33  1  0.72383400  0.47080500  0.97406900  1
  Ga  Ga34  1  0.97406900  0.72383400  0.47080500  1
  Ga  Ga35  1  0.22383400  0.47406900  0.97080500  1
  Ga  Ga36  1  0.97080500  0.22383400  0.47406900  1
  Ga  Ga37  1  0.47406900  0.97080500  0.22383400  1
  Cl  Cl38  1  0.00000000  0.00000000  0.00000000  1
  Cl  Cl39  1  0.50000000  0.50000000  0.50000000  1
