# generated using pymatgen
data_Ba3Rh(CN)3
_symmetry_space_group_name_H-M   'P 1'
_cell_length_a   9.29294127
_cell_length_b   9.29294127
_cell_length_c   5.90090800
_cell_angle_alpha   90.00000000
_cell_angle_beta   90.00000000
_cell_angle_gamma   119.99999477
_symmetry_Int_Tables_number   1
_chemical_formula_structural   Ba3Rh(CN)3
_chemical_formula_sum   'Ba6 Rh2 C6 N6'
_cell_volume   441.32231010
_cell_formula_units_Z   2
loop_
 _symmetry_equiv_pos_site_id
 _symmetry_equiv_pos_as_xyz
  1  'x, y, z'
loop_
 _atom_site_type_symbol
 _atom_site_label
 _atom_site_symmetry_multiplicity
 _atom_site_fract_x
 _atom_site_fract_y
 _atom_site_fract_z
 _atom_site_occupancy
  Ba  Ba0  1  0.37859200  0.07012600  0.75000000  1
  Ba  Ba1  1  0.92987400  0.30846600  0.75000000  1
  Ba  Ba2  1  0.69153400  0.62140800  0.75000000  1
  Ba  Ba3  1  0.62140800  0.92987400  0.25000000  1
  Ba  Ba4  1  0.07012600  0.69153400  0.25000000  1
  Ba  Ba5  1  0.30846600  0.37859200  0.25000000  1
  Rh  Rh6  1  0.33333300  0.66666700  0.75000000  1
  Rh  Rh7  1  0.66666700  0.33333300  0.25000000  1
  C  C8  1  0.14443500  0.70000200  0.75000000  1
  C  C9  1  0.29999800  0.44443300  0.75000000  1
  C  C10  1  0.55556700  0.85556500  0.75000000  1
  C  C11  1  0.85556500  0.29999800  0.25000000  1
  C  C12  1  0.70000200  0.55556700  0.25000000  1
  C  C13  1  0.44443300  0.14443500  0.25000000  1
  N  N14  1  0.02956000  0.73044700  0.75000000  1
  N  N15  1  0.26955300  0.29911300  0.75000000  1
  N  N16  1  0.70088700  0.97044000  0.75000000  1
  N  N17  1  0.97044000  0.26955300  0.25000000  1
  N  N18  1  0.73044700  0.70088700  0.25000000  1
  N  N19  1  0.29911300  0.02956000  0.25000000  1
