# generated using pymatgen
data_Sn4As3
_symmetry_space_group_name_H-M   'P 1'
_cell_length_a   12.44076886
_cell_length_b   12.44076886
_cell_length_c   12.44076874
_cell_angle_alpha   19.24004472
_cell_angle_beta   19.24004472
_cell_angle_gamma   19.24004543
_symmetry_Int_Tables_number   1
_chemical_formula_structural   Sn4As3
_chemical_formula_sum   'Sn4 As3'
_cell_volume   182.77394368
_cell_formula_units_Z   1
loop_
 _symmetry_equiv_pos_site_id
 _symmetry_equiv_pos_as_xyz
  1  'x, y, z'
loop_
 _atom_site_type_symbol
 _atom_site_label
 _atom_site_symmetry_multiplicity
 _atom_site_fract_x
 _atom_site_fract_y
 _atom_site_fract_z
 _atom_site_occupancy
  Sn  Sn0  1  0.36497100  0.36497100  0.36497100  1
  Sn  Sn1  1  0.63502900  0.63502900  0.63502900  1
  Sn  Sn2  1  0.21056200  0.21056200  0.21056200  1
  Sn  Sn3  1  0.78943800  0.78943800  0.78943800  1
  As  As4  1  0.92971600  0.92971600  0.92971600  1
  As  As5  1  0.50000000  0.50000000  0.50000000  1
  As  As6  1  0.07028400  0.07028400  0.07028400  1
