# generated using pymatgen
data_SrFeNi2(PO4)3
_symmetry_space_group_name_H-M   'P 1'
_cell_length_a   9.08678744
_cell_length_b   9.08678744
_cell_length_c   9.08678744
_cell_angle_alpha   137.54206978
_cell_angle_beta   109.44697286
_cell_angle_gamma   85.94537545
_symmetry_Int_Tables_number   1
_chemical_formula_structural   SrFeNi2(PO4)3
_chemical_formula_sum   'Sr2 Fe2 Ni4 P6 O24'
_cell_volume   459.20263682
_cell_formula_units_Z   2
loop_
 _symmetry_equiv_pos_site_id
 _symmetry_equiv_pos_as_xyz
  1  'x, y, z'
loop_
 _atom_site_type_symbol
 _atom_site_label
 _atom_site_symmetry_multiplicity
 _atom_site_fract_x
 _atom_site_fract_y
 _atom_site_fract_z
 _atom_site_occupancy
  Sr  Sr0  1  0.25000000  0.34331800  0.09331800  1
  Sr  Sr1  1  0.75000000  0.65668200  0.90668200  1
  Fe  Fe2  1  0.00000000  0.50000000  0.50000000  1
  Fe  Fe3  1  0.50000000  0.00000000  0.50000000  1
  Ni  Ni4  1  0.11645000  0.11645000  0.50000000  1
  Ni  Ni5  1  0.38355000  0.88355000  0.00000000  1
  Ni  Ni6  1  0.61645000  0.11645000  0.00000000  1
  Ni  Ni7  1  0.88355000  0.88355000  0.50000000  1
  P  P8  1  0.25000000  0.83794100  0.58794100  1
  P  P9  1  0.75000000  0.16205900  0.41205900  1
  P  P10  1  0.32180700  0.32180700  0.50000000  1
  P  P11  1  0.17819300  0.67819300  0.00000000  1
  P  P12  1  0.82180700  0.32180700  0.00000000  1
  P  P13  1  0.67819300  0.67819300  0.50000000  1
  O  O14  1  0.34404000  0.79514300  0.45110400  1
  O  O15  1  0.65596000  0.20485700  0.54889600  1
  O  O16  1  0.84404000  0.39293600  0.54889600  1
  O  O17  1  0.15596000  0.60706400  0.45110400  1
  O  O18  1  0.13213300  0.98330400  0.61543600  1
  O  O19  1  0.63213300  0.01669600  0.14882900  1
  O  O20  1  0.86786700  0.01669600  0.38456400  1
  O  O21  1  0.36786700  0.98330400  0.85117100  1
  O  O22  1  0.34729900  0.20249000  0.27766700  1
  O  O23  1  0.07517700  0.79751000  0.14480900  1
  O  O24  1  0.84729900  0.56963200  0.14480900  1
  O  O25  1  0.57517700  0.43036800  0.27766700  1
  O  O26  1  0.65270100  0.79751000  0.72233300  1
  O  O27  1  0.92482300  0.20249000  0.85519100  1
  O  O28  1  0.15270100  0.43036800  0.85519100  1
  O  O29  1  0.42482300  0.56963200  0.72233300  1
  O  O30  1  0.13235400  0.28703200  0.43105600  1
  O  O31  1  0.14402500  0.71296800  0.84532300  1
  O  O32  1  0.63235400  0.20129800  0.84532300  1
  O  O33  1  0.64402500  0.79870200  0.43105600  1
  O  O34  1  0.86764600  0.71296800  0.56894400  1
  O  O35  1  0.85597500  0.28703200  0.15467700  1
  O  O36  1  0.36764600  0.79870200  0.15467700  1
  O  O37  1  0.35597500  0.20129800  0.56894400  1
