# generated using pymatgen
data_Ba3Er(BO3)3
_symmetry_space_group_name_H-M   'P 1'
_cell_length_a   9.47977887
_cell_length_b   9.47977887
_cell_length_c   18.00277600
_cell_angle_alpha   90.00000000
_cell_angle_beta   90.00000000
_cell_angle_gamma   119.99999213
_symmetry_Int_Tables_number   1
_chemical_formula_structural   Ba3Er(BO3)3
_chemical_formula_sum   'Ba18 Er6 B18 O54'
_cell_volume   1401.09169219
_cell_formula_units_Z   6
loop_
 _symmetry_equiv_pos_site_id
 _symmetry_equiv_pos_as_xyz
  1  'x, y, z'
loop_
 _atom_site_type_symbol
 _atom_site_label
 _atom_site_symmetry_multiplicity
 _atom_site_fract_x
 _atom_site_fract_y
 _atom_site_fract_z
 _atom_site_occupancy
  Ba  Ba0  1  0.00000000  0.00000000  0.72129200  1
  Ba  Ba1  1  0.00000000  0.00000000  0.22129200  1
  Ba  Ba2  1  0.34405700  0.34405700  0.62920000  1
  Ba  Ba3  1  0.00000000  0.65594300  0.62920000  1
  Ba  Ba4  1  0.65594300  0.65594300  0.12920000  1
  Ba  Ba5  1  0.00000000  0.34405700  0.12920000  1
  Ba  Ba6  1  0.65594300  0.00000000  0.62920000  1
  Ba  Ba7  1  0.34405700  0.00000000  0.12920000  1
  Ba  Ba8  1  0.32135800  0.32135800  0.87026100  1
  Ba  Ba9  1  0.00000000  0.67864200  0.87026100  1
  Ba  Ba10  1  0.67864200  0.67864200  0.37026100  1
  Ba  Ba11  1  0.00000000  0.32135800  0.37026100  1
  Ba  Ba12  1  0.67864200  0.00000000  0.87026100  1
  Ba  Ba13  1  0.32135800  0.00000000  0.37026100  1
  Ba  Ba14  1  0.66666700  0.33333300  0.77212600  1
  Ba  Ba15  1  0.33333300  0.66666700  0.27212600  1
  Ba  Ba16  1  0.66666700  0.33333300  0.27212600  1
  Ba  Ba17  1  0.33333300  0.66666700  0.77212600  1
  Er  Er18  1  0.00000000  0.00000000  0.00366300  1
  Er  Er19  1  0.00000000  0.00000000  0.50366300  1
  Er  Er20  1  0.66666700  0.33333300  0.99821300  1
  Er  Er21  1  0.33333300  0.66666700  0.49821300  1
  Er  Er22  1  0.66666700  0.33333300  0.49821300  1
  Er  Er23  1  0.33333300  0.66666700  0.99821300  1
  B  B24  1  0.66638200  0.66638200  0.74827300  1
  B  B25  1  0.00000000  0.33361800  0.74827300  1
  B  B26  1  0.33361800  0.33361800  0.24827300  1
  B  B27  1  0.00000000  0.66638200  0.24827300  1
  B  B28  1  0.33361800  0.00000000  0.74827300  1
  B  B29  1  0.66638200  0.00000000  0.24827300  1
  B  B30  1  0.67220100  0.67220100  0.57405600  1
  B  B31  1  0.00000000  0.32779900  0.57405600  1
  B  B32  1  0.32779900  0.32779900  0.07405600  1
  B  B33  1  0.00000000  0.67220100  0.07405600  1
  B  B34  1  0.32779900  0.00000000  0.57405600  1
  B  B35  1  0.67220100  0.00000000  0.07405600  1
  B  B36  1  0.66176800  0.66176800  0.92384800  1
  B  B37  1  0.00000000  0.33823200  0.92384800  1
  B  B38  1  0.33823200  0.33823200  0.42384700  1
  B  B39  1  0.00000000  0.66176800  0.42384700  1
  B  B40  1  0.33823200  0.00000000  0.92384800  1
  B  B41  1  0.66176800  0.00000000  0.42384700  1
  O  O42  1  0.85278000  0.18656200  0.74874900  1
  O  O43  1  0.33378100  0.14722000  0.74874900  1
  O  O44  1  0.14722000  0.81343800  0.24874900  1
  O  O45  1  0.33378100  0.18656200  0.24874900  1
  O  O46  1  0.81343800  0.66621900  0.74874900  1
  O  O47  1  0.66621900  0.85278000  0.24874900  1
  O  O48  1  0.81343800  0.14722000  0.24874900  1
  O  O49  1  0.66621900  0.81343800  0.74874900  1
  O  O50  1  0.18656200  0.33378100  0.24874900  1
  O  O51  1  0.18656200  0.85278000  0.74874900  1
  O  O52  1  0.85278000  0.66621900  0.24874900  1
  O  O53  1  0.14722000  0.33378100  0.74874900  1
  O  O54  1  0.80789900  0.80789900  0.93165800  1
  O  O55  1  0.00000000  0.19210100  0.93165800  1
  O  O56  1  0.19210100  0.19210100  0.43165800  1
  O  O57  1  0.00000000  0.80789900  0.43165800  1
  O  O58  1  0.19210100  0.00000000  0.93165800  1
  O  O59  1  0.80789900  0.00000000  0.43165800  1
  O  O60  1  0.51917100  0.51917100  0.74821200  1
  O  O61  1  0.00000000  0.48082900  0.74821200  1
  O  O62  1  0.48082900  0.48082900  0.24821200  1
  O  O63  1  0.00000000  0.51917100  0.24821200  1
  O  O64  1  0.48082900  0.00000000  0.74821200  1
  O  O65  1  0.51917100  0.00000000  0.24821200  1
  O  O66  1  0.85310900  0.33751200  0.91928800  1
  O  O67  1  0.48440300  0.14689100  0.91928800  1
  O  O68  1  0.14689100  0.66248800  0.41928800  1
  O  O69  1  0.48440300  0.33751200  0.41928800  1
  O  O70  1  0.66248800  0.51559700  0.91928800  1
  O  O71  1  0.51559700  0.85310900  0.41928800  1
  O  O72  1  0.66248800  0.14689100  0.41928800  1
  O  O73  1  0.51559700  0.66248800  0.91928800  1
  O  O74  1  0.33751200  0.48440300  0.41928800  1
  O  O75  1  0.33751200  0.85310900  0.91928800  1
  O  O76  1  0.85310900  0.51559700  0.41928800  1
  O  O77  1  0.14689100  0.48440300  0.91928800  1
  O  O78  1  0.81785100  0.81785100  0.58303800  1
  O  O79  1  0.00000000  0.18214900  0.58303800  1
  O  O80  1  0.18214900  0.18214900  0.08303800  1
  O  O81  1  0.00000000  0.81785100  0.08303800  1
  O  O82  1  0.18214900  0.00000000  0.58303800  1
  O  O83  1  0.81785100  0.00000000  0.08303800  1
  O  O84  1  0.85373600  0.32785200  0.56981800  1
  O  O85  1  0.47411600  0.14626400  0.56981800  1
  O  O86  1  0.14626400  0.67214800  0.06981800  1
  O  O87  1  0.47411600  0.32785200  0.06981800  1
  O  O88  1  0.67214800  0.52588400  0.56981800  1
  O  O89  1  0.52588400  0.85373600  0.06981800  1
  O  O90  1  0.67214800  0.14626400  0.06981800  1
  O  O91  1  0.52588400  0.67214800  0.56981800  1
  O  O92  1  0.32785200  0.47411600  0.06981800  1
  O  O93  1  0.32785200  0.85373600  0.56981800  1
  O  O94  1  0.85373600  0.52588400  0.06981800  1
  O  O95  1  0.14626400  0.47411600  0.56981800  1
