# generated using pymatgen
data_U(Zn10Ru)2
_symmetry_space_group_name_H-M   'P 1'
_cell_length_a   10.06978888
_cell_length_b   10.06978888
_cell_length_c   10.06978888
_cell_angle_alpha   60.00000000
_cell_angle_beta   60.00000000
_cell_angle_gamma   60.00000000
_symmetry_Int_Tables_number   1
_chemical_formula_structural   U(Zn10Ru)2
_chemical_formula_sum   'U2 Zn40 Ru4'
_cell_volume   722.01479662
_cell_formula_units_Z   2
loop_
 _symmetry_equiv_pos_site_id
 _symmetry_equiv_pos_as_xyz
  1  'x, y, z'
loop_
 _atom_site_type_symbol
 _atom_site_label
 _atom_site_symmetry_multiplicity
 _atom_site_fract_x
 _atom_site_fract_y
 _atom_site_fract_z
 _atom_site_occupancy
  U  U0  1  0.50000000  0.50000000  0.50000000  1
  U  U1  1  0.75000000  0.75000000  0.75000000  1
  Zn  Zn2  1  0.12500000  0.62500000  0.62500000  1
  Zn  Zn3  1  0.62500000  0.12500000  0.62500000  1
  Zn  Zn4  1  0.62500000  0.62500000  0.12500000  1
  Zn  Zn5  1  0.62500000  0.62500000  0.62500000  1
  Zn  Zn6  1  0.86351500  0.86351500  0.13648500  1
  Zn  Zn7  1  0.13648500  0.13648500  0.86351500  1
  Zn  Zn8  1  0.86351500  0.13648500  0.86351500  1
  Zn  Zn9  1  0.13648500  0.86351500  0.13648500  1
  Zn  Zn10  1  0.13648500  0.86351500  0.86351500  1
  Zn  Zn11  1  0.86351500  0.13648500  0.13648500  1
  Zn  Zn12  1  0.38648500  0.38648500  0.11351500  1
  Zn  Zn13  1  0.11351500  0.11351500  0.38648500  1
  Zn  Zn14  1  0.38648500  0.11351500  0.38648500  1
  Zn  Zn15  1  0.11351500  0.38648500  0.11351500  1
  Zn  Zn16  1  0.11351500  0.38648500  0.38648500  1
  Zn  Zn17  1  0.38648500  0.11351500  0.11351500  1
  Zn  Zn18  1  0.56852900  0.30051800  0.30051800  1
  Zn  Zn19  1  0.30051800  0.56852900  0.83043600  1
  Zn  Zn20  1  0.30051800  0.83043600  0.56852900  1
  Zn  Zn21  1  0.83043600  0.30051800  0.30051800  1
  Zn  Zn22  1  0.30051800  0.30051800  0.56852900  1
  Zn  Zn23  1  0.56852900  0.83043600  0.30051800  1
  Zn  Zn24  1  0.83043600  0.56852900  0.30051800  1
  Zn  Zn25  1  0.30051800  0.30051800  0.83043600  1
  Zn  Zn26  1  0.30051800  0.56852900  0.30051800  1
  Zn  Zn27  1  0.83043600  0.30051800  0.56852900  1
  Zn  Zn28  1  0.56852900  0.30051800  0.83043600  1
  Zn  Zn29  1  0.30051800  0.83043600  0.30051800  1
  Zn  Zn30  1  0.68147100  0.94948200  0.94948200  1
  Zn  Zn31  1  0.94948200  0.68147100  0.41956400  1
  Zn  Zn32  1  0.94948200  0.41956400  0.68147100  1
  Zn  Zn33  1  0.41956400  0.94948200  0.94948200  1
  Zn  Zn34  1  0.94948200  0.94948200  0.68147100  1
  Zn  Zn35  1  0.68147100  0.41956400  0.94948200  1
  Zn  Zn36  1  0.41956400  0.68147100  0.94948200  1
  Zn  Zn37  1  0.94948200  0.94948200  0.41956400  1
  Zn  Zn38  1  0.94948200  0.68147100  0.94948200  1
  Zn  Zn39  1  0.41956400  0.94948200  0.68147100  1
  Zn  Zn40  1  0.68147100  0.94948200  0.41956400  1
  Zn  Zn41  1  0.94948200  0.41956400  0.94948200  1
  Ru  Ru42  1  0.62500000  0.12500000  0.12500000  1
  Ru  Ru43  1  0.12500000  0.62500000  0.12500000  1
  Ru  Ru44  1  0.12500000  0.12500000  0.62500000  1
  Ru  Ru45  1  0.12500000  0.12500000  0.12500000  1
