# generated using pymatgen
data_YbRu2
_symmetry_space_group_name_H-M   'P 1'
_cell_length_a   5.21618443
_cell_length_b   5.21618443
_cell_length_c   8.87281800
_cell_angle_alpha   90.00000000
_cell_angle_beta   90.00000000
_cell_angle_gamma   119.94403798
_symmetry_Int_Tables_number   1
_chemical_formula_structural   YbRu2
_chemical_formula_sum   'Yb4 Ru8'
_cell_volume   209.19086187
_cell_formula_units_Z   4
loop_
 _symmetry_equiv_pos_site_id
 _symmetry_equiv_pos_as_xyz
  1  'x, y, z'
loop_
 _atom_site_type_symbol
 _atom_site_label
 _atom_site_symmetry_multiplicity
 _atom_site_fract_x
 _atom_site_fract_y
 _atom_site_fract_z
 _atom_site_occupancy
  Yb  Yb0  1  0.66666800  0.33333200  0.56453800  1
  Yb  Yb1  1  0.33333200  0.66666800  0.43546200  1
  Yb  Yb2  1  0.33333200  0.66666800  0.06453800  1
  Yb  Yb3  1  0.66666800  0.33333200  0.93546200  1
  Ru  Ru4  1  0.00000000  0.00000000  0.50000000  1
  Ru  Ru5  1  0.00000000  0.00000000  0.00000000  1
  Ru  Ru6  1  0.17172800  0.34356600  0.75000000  1
  Ru  Ru7  1  0.17180800  0.82819200  0.75000000  1
  Ru  Ru8  1  0.65643400  0.82827200  0.75000000  1
  Ru  Ru9  1  0.82827200  0.65643400  0.25000000  1
  Ru  Ru10  1  0.82819200  0.17180800  0.25000000  1
  Ru  Ru11  1  0.34356600  0.17172800  0.25000000  1
