# generated using pymatgen
data_BaGe(PO4)2
_symmetry_space_group_name_H-M   'P 1'
_cell_length_a   4.80889670
_cell_length_b   4.80889670
_cell_length_c   7.88144248
_cell_angle_alpha   86.07746718
_cell_angle_beta   86.07746718
_cell_angle_gamma   64.62875045
_symmetry_Int_Tables_number   1
_chemical_formula_structural   BaGe(PO4)2
_chemical_formula_sum   'Ba1 Ge1 P2 O8'
_cell_volume   164.14270888
_cell_formula_units_Z   1
loop_
 _symmetry_equiv_pos_site_id
 _symmetry_equiv_pos_as_xyz
  1  'x, y, z'
loop_
 _atom_site_type_symbol
 _atom_site_label
 _atom_site_symmetry_multiplicity
 _atom_site_fract_x
 _atom_site_fract_y
 _atom_site_fract_z
 _atom_site_occupancy
  Ba  Ba0  1  0.00000000  0.00000000  0.50000000  1
  Ge  Ge1  1  0.00000000  0.00000000  0.00000000  1
  P  P2  1  0.36701200  0.36701200  0.80569300  1
  P  P3  1  0.63298800  0.63298800  0.19430700  1
  O  O4  1  0.22783200  0.22783200  0.94864000  1
  O  O5  1  0.77216800  0.77216800  0.05136000  1
  O  O6  1  0.31831500  0.31831500  0.62263700  1
  O  O7  1  0.68168500  0.68168500  0.37736300  1
  O  O8  1  0.23034700  0.72478000  0.82591100  1
  O  O9  1  0.72478000  0.23034700  0.82591100  1
  O  O10  1  0.76965300  0.27522000  0.17408900  1
  O  O11  1  0.27522000  0.76965300  0.17408900  1
