# generated using pymatgen
data_K5Y2Si4O13F
_symmetry_space_group_name_H-M   'P 1'
_cell_length_a   5.83772700
_cell_length_b   7.25317100
_cell_length_c   18.31944174
_cell_angle_alpha   87.86006859
_cell_angle_beta   90.00000000
_cell_angle_gamma   90.00000000
_symmetry_Int_Tables_number   1
_chemical_formula_structural   K5Y2Si4O13F
_chemical_formula_sum   'K10 Y4 Si8 O26 F2'
_cell_volume   775.14144092
_cell_formula_units_Z   2
loop_
 _symmetry_equiv_pos_site_id
 _symmetry_equiv_pos_as_xyz
  1  'x, y, z'
loop_
 _atom_site_type_symbol
 _atom_site_label
 _atom_site_symmetry_multiplicity
 _atom_site_fract_x
 _atom_site_fract_y
 _atom_site_fract_z
 _atom_site_occupancy
  K  K0  1  0.25000000  0.52406500  0.24953600  1
  K  K1  1  0.75000000  0.47593500  0.75046400  1
  K  K2  1  0.25000000  0.13194400  0.69408400  1
  K  K3  1  0.75000000  0.86805600  0.30591600  1
  K  K4  1  0.25000000  0.79505000  0.81449600  1
  K  K5  1  0.75000000  0.20495000  0.18550400  1
  K  K6  1  0.25000000  0.80332300  0.00363300  1
  K  K7  1  0.75000000  0.19667700  0.99636700  1
  K  K8  1  0.25000000  0.25944200  0.49022600  1
  K  K9  1  0.75000000  0.74055800  0.50977400  1
  Y  Y10  1  0.25000000  0.33355300  0.89025800  1
  Y  Y11  1  0.75000000  0.66644700  0.10974200  1
  Y  Y12  1  0.25000000  0.59715100  0.62888100  1
  Y  Y13  1  0.75000000  0.40284900  0.37111900  1
  Si  Si14  1  0.25000000  0.33605900  0.08330700  1
  Si  Si15  1  0.75000000  0.66394100  0.91669300  1
  Si  Si16  1  0.25000000  0.95861800  0.17297600  1
  Si  Si17  1  0.75000000  0.04138200  0.82702400  1
  Si  Si18  1  0.25000000  0.08297900  0.33173900  1
  Si  Si19  1  0.75000000  0.91702100  0.66826100  1
  Si  Si20  1  0.25000000  0.71059800  0.42335600  1
  Si  Si21  1  0.75000000  0.28940200  0.57664400  1
  O  O22  1  0.01567000  0.45338500  0.09449000  1
  O  O23  1  0.51567000  0.54661500  0.90551000  1
  O  O24  1  0.98433000  0.54661500  0.90551000  1
  O  O25  1  0.48433000  0.45338500  0.09449000  1
  O  O26  1  0.25000000  0.22652800  0.00643300  1
  O  O27  1  0.75000000  0.77347200  0.99356700  1
  O  O28  1  0.25000000  0.18385400  0.15551300  1
  O  O29  1  0.75000000  0.81614600  0.84448700  1
  O  O30  1  0.01462900  0.86872900  0.14461000  1
  O  O31  1  0.51462900  0.13127100  0.85539000  1
  O  O32  1  0.98537100  0.13127100  0.85539000  1
  O  O33  1  0.48537100  0.86872900  0.14461000  1
  O  O34  1  0.25000000  0.93611200  0.26420300  1
  O  O35  1  0.75000000  0.06388800  0.73579700  1
  O  O36  1  0.01686300  0.20563500  0.32983000  1
  O  O37  1  0.51686300  0.79436500  0.67017000  1
  O  O38  1  0.98313700  0.79436500  0.67017000  1
  O  O39  1  0.48313700  0.20563500  0.32983000  1
  O  O40  1  0.25000000  0.94167000  0.40590600  1
  O  O41  1  0.75000000  0.05833000  0.59409400  1
  O  O42  1  0.01711300  0.62357400  0.38858400  1
  O  O43  1  0.51711300  0.37642600  0.61141600  1
  O  O44  1  0.98288700  0.37642600  0.61141600  1
  O  O45  1  0.48288700  0.62357400  0.38858400  1
  O  O46  1  0.25000000  0.68566600  0.51297300  1
  O  O47  1  0.75000000  0.31433400  0.48702700  1
  F  F48  1  0.25000000  0.46180800  0.75675600  1
  F  F49  1  0.75000000  0.53819200  0.24324400  1
