# generated using pymatgen
data_EuGaAu
_symmetry_space_group_name_H-M   'P 1'
_cell_length_a   5.84914056
_cell_length_b   5.84914056
_cell_length_c   7.58003085
_cell_angle_alpha   52.13088917
_cell_angle_beta   52.13088917
_cell_angle_gamma   47.28348303
_symmetry_Int_Tables_number   1
_chemical_formula_structural   EuGaAu
_chemical_formula_sum   'Eu2 Ga2 Au2'
_cell_volume   141.42898502
_cell_formula_units_Z   2
loop_
 _symmetry_equiv_pos_site_id
 _symmetry_equiv_pos_as_xyz
  1  'x, y, z'
loop_
 _atom_site_type_symbol
 _atom_site_label
 _atom_site_symmetry_multiplicity
 _atom_site_fract_x
 _atom_site_fract_y
 _atom_site_fract_z
 _atom_site_occupancy
  Eu  Eu0  1  0.54120400  0.54120400  0.70379600  1
  Eu  Eu1  1  0.45879600  0.45879600  0.29620400  1
  Ga  Ga2  1  0.83541900  0.83541900  0.11180500  1
  Ga  Ga3  1  0.16458100  0.16458100  0.88819500  1
  Au  Au4  1  0.17696700  0.17696700  0.27270600  1
  Au  Au5  1  0.82303300  0.82303300  0.72729400  1
