# generated using pymatgen
data_CsHo(WO4)2
_symmetry_space_group_name_H-M   'P 1'
_cell_length_a   7.65484452
_cell_length_b   7.65484452
_cell_length_c   7.56996638
_cell_angle_alpha   62.58810552
_cell_angle_beta   62.58810552
_cell_angle_gamma   88.58618711
_symmetry_Int_Tables_number   1
_chemical_formula_structural   CsHo(WO4)2
_chemical_formula_sum   'Cs2 Ho2 W4 O16'
_cell_volume   339.54279401
_cell_formula_units_Z   2
loop_
 _symmetry_equiv_pos_site_id
 _symmetry_equiv_pos_as_xyz
  1  'x, y, z'
loop_
 _atom_site_type_symbol
 _atom_site_label
 _atom_site_symmetry_multiplicity
 _atom_site_fract_x
 _atom_site_fract_y
 _atom_site_fract_z
 _atom_site_occupancy
  Cs  Cs0  1  0.19780500  0.80219500  0.75000000  1
  Cs  Cs1  1  0.80219500  0.19780500  0.25000000  1
  Ho  Ho2  1  0.77664600  0.22335400  0.75000000  1
  Ho  Ho3  1  0.22335400  0.77664600  0.25000000  1
  W  W4  1  0.69863600  0.68729000  0.78259200  1
  W  W5  1  0.30136400  0.31271000  0.21740800  1
  W  W6  1  0.31271000  0.30136400  0.71740800  1
  W  W7  1  0.68729000  0.69863600  0.28259200  1
  O  O8  1  0.62019700  0.75032900  0.56468300  1
  O  O9  1  0.37980300  0.24967100  0.43531700  1
  O  O10  1  0.24967100  0.37980300  0.93531700  1
  O  O11  1  0.75032900  0.62019700  0.06468300  1
  O  O12  1  0.37173900  0.06075000  0.87628200  1
  O  O13  1  0.62826100  0.93925000  0.12371800  1
  O  O14  1  0.93925000  0.62826100  0.62371800  1
  O  O15  1  0.06075000  0.37173900  0.37628200  1
  O  O16  1  0.59087800  0.37133600  0.96386500  1
  O  O17  1  0.40912200  0.62866400  0.03613500  1
  O  O18  1  0.62866400  0.40912200  0.53613500  1
  O  O19  1  0.37133600  0.59087800  0.46386500  1
  O  O20  1  0.78087500  0.95095300  0.70071000  1
  O  O21  1  0.21912500  0.04904700  0.29929000  1
  O  O22  1  0.04904700  0.21912500  0.79929000  1
  O  O23  1  0.95095300  0.78087500  0.20071000  1
