# generated using pymatgen
data_Tb2Se3
_symmetry_space_group_name_H-M   'P 1'
_cell_length_a   4.04996500
_cell_length_b   11.02419300
_cell_length_c   11.21161500
_cell_angle_alpha   90.00000000
_cell_angle_beta   90.00000000
_cell_angle_gamma   90.00000000
_symmetry_Int_Tables_number   1
_chemical_formula_structural   Tb2Se3
_chemical_formula_sum   'Tb8 Se12'
_cell_volume   500.57165482
_cell_formula_units_Z   4
loop_
 _symmetry_equiv_pos_site_id
 _symmetry_equiv_pos_as_xyz
  1  'x, y, z'
loop_
 _atom_site_type_symbol
 _atom_site_label
 _atom_site_symmetry_multiplicity
 _atom_site_fract_x
 _atom_site_fract_y
 _atom_site_fract_z
 _atom_site_occupancy
  Tb  Tb0  1  0.25000000  0.18737400  0.48738000  1
  Tb  Tb1  1  0.75000000  0.81262600  0.51262000  1
  Tb  Tb2  1  0.75000000  0.68737400  0.01262000  1
  Tb  Tb3  1  0.25000000  0.31262600  0.98738000  1
  Tb  Tb4  1  0.25000000  0.99863100  0.80621000  1
  Tb  Tb5  1  0.75000000  0.00136900  0.19379000  1
  Tb  Tb6  1  0.75000000  0.49863100  0.69379000  1
  Tb  Tb7  1  0.25000000  0.50136900  0.30621000  1
  Se  Se8  1  0.25000000  0.30414800  0.72681800  1
  Se  Se9  1  0.75000000  0.69585200  0.27318200  1
  Se  Se10  1  0.75000000  0.80414800  0.77318200  1
  Se  Se11  1  0.25000000  0.19585200  0.22681800  1
  Se  Se12  1  0.25000000  0.62538600  0.54446700  1
  Se  Se13  1  0.75000000  0.37461400  0.45553300  1
  Se  Se14  1  0.75000000  0.12538600  0.95553300  1
  Se  Se15  1  0.25000000  0.87461400  0.04446700  1
  Se  Se16  1  0.25000000  0.55601800  0.88095800  1
  Se  Se17  1  0.75000000  0.44398200  0.11904200  1
  Se  Se18  1  0.75000000  0.05601800  0.61904200  1
  Se  Se19  1  0.25000000  0.94398200  0.38095800  1
