# generated using pymatgen
data_CsCu2AsS3
_symmetry_space_group_name_H-M   'P 1'
_cell_length_a   9.54435600
_cell_length_b   10.42611600
_cell_length_c   13.76025500
_cell_angle_alpha   90.00000000
_cell_angle_beta   90.00000000
_cell_angle_gamma   90.00000000
_symmetry_Int_Tables_number   1
_chemical_formula_structural   CsCu2AsS3
_chemical_formula_sum   'Cs8 Cu16 As8 S24'
_cell_volume   1369.29071934
_cell_formula_units_Z   8
loop_
 _symmetry_equiv_pos_site_id
 _symmetry_equiv_pos_as_xyz
  1  'x, y, z'
loop_
 _atom_site_type_symbol
 _atom_site_label
 _atom_site_symmetry_multiplicity
 _atom_site_fract_x
 _atom_site_fract_y
 _atom_site_fract_z
 _atom_site_occupancy
  Cs  Cs0  1  0.81808900  0.10425700  0.44095800  1
  Cs  Cs1  1  0.31808900  0.39574300  0.55904200  1
  Cs  Cs2  1  0.18191100  0.60425700  0.05904200  1
  Cs  Cs3  1  0.68191100  0.89574300  0.94095800  1
  Cs  Cs4  1  0.18191100  0.89574300  0.55904200  1
  Cs  Cs5  1  0.68191100  0.60425700  0.44095800  1
  Cs  Cs6  1  0.81808900  0.39574300  0.94095800  1
  Cs  Cs7  1  0.31808900  0.10425700  0.05904200  1
  Cu  Cu8  1  0.57499000  0.60471100  0.13692500  1
  Cu  Cu9  1  0.07499000  0.89528900  0.86307500  1
  Cu  Cu10  1  0.42501000  0.10471100  0.36307500  1
  Cu  Cu11  1  0.92501000  0.39528900  0.63692500  1
  Cu  Cu12  1  0.42501000  0.39528900  0.86307500  1
  Cu  Cu13  1  0.92501000  0.10471100  0.13692500  1
  Cu  Cu14  1  0.57499000  0.89528900  0.63692500  1
  Cu  Cu15  1  0.07499000  0.60471100  0.36307500  1
  Cu  Cu16  1  0.38441600  0.44116900  0.27156900  1
  Cu  Cu17  1  0.88441600  0.05883100  0.72843100  1
  Cu  Cu18  1  0.61558400  0.94116900  0.22843100  1
  Cu  Cu19  1  0.11558400  0.55883100  0.77156900  1
  Cu  Cu20  1  0.61558400  0.55883100  0.72843100  1
  Cu  Cu21  1  0.11558400  0.94116900  0.27156900  1
  Cu  Cu22  1  0.38441600  0.05883100  0.77156900  1
  Cu  Cu23  1  0.88441600  0.44116900  0.22843100  1
  As  As24  1  0.66253200  0.31598500  0.21472500  1
  As  As25  1  0.16253200  0.18401500  0.78527500  1
  As  As26  1  0.33746800  0.81598500  0.28527500  1
  As  As27  1  0.83746800  0.68401500  0.71472500  1
  As  As28  1  0.33746800  0.68401500  0.78527500  1
  As  As29  1  0.83746800  0.81598500  0.21472500  1
  As  As30  1  0.66253200  0.18401500  0.71472500  1
  As  As31  1  0.16253200  0.31598500  0.28527500  1
  S  S32  1  0.31096700  0.61576600  0.35189400  1
  S  S33  1  0.81096700  0.88423400  0.64810600  1
  S  S34  1  0.68903300  0.11576600  0.14810600  1
  S  S35  1  0.18903300  0.38423400  0.85189400  1
  S  S36  1  0.68903300  0.38423400  0.64810600  1
  S  S37  1  0.18903300  0.11576600  0.35189400  1
  S  S38  1  0.31096700  0.88423400  0.85189400  1
  S  S39  1  0.81096700  0.61576600  0.14810600  1
  S  S40  1  0.53760900  0.29355900  0.35529900  1
  S  S41  1  0.03760900  0.20644100  0.64470100  1
  S  S42  1  0.46239100  0.79355900  0.14470100  1
  S  S43  1  0.96239100  0.70644100  0.85529900  1
  S  S44  1  0.46239100  0.70644100  0.64470100  1
  S  S45  1  0.96239100  0.79355900  0.35529900  1
  S  S46  1  0.53760900  0.20644100  0.85529900  1
  S  S47  1  0.03760900  0.29355900  0.14470100  1
  S  S48  1  0.48820600  0.40825500  0.12109900  1
  S  S49  1  0.98820600  0.09174500  0.87890100  1
  S  S50  1  0.51179400  0.90825500  0.37890100  1
  S  S51  1  0.01179400  0.59174500  0.62109900  1
  S  S52  1  0.51179400  0.59174500  0.87890100  1
  S  S53  1  0.01179400  0.90825500  0.12109900  1
  S  S54  1  0.48820600  0.09174500  0.62109900  1
  S  S55  1  0.98820600  0.40825500  0.37890100  1
