# generated using pymatgen
data_Lu5Sn3
_symmetry_space_group_name_H-M   'P 1'
_cell_length_a   8.78872242
_cell_length_b   8.78872242
_cell_length_c   6.39547000
_cell_angle_alpha   90.00000000
_cell_angle_beta   90.00000000
_cell_angle_gamma   120.00000314
_symmetry_Int_Tables_number   1
_chemical_formula_structural   Lu5Sn3
_chemical_formula_sum   'Lu10 Sn6'
_cell_volume   427.81359350
_cell_formula_units_Z   2
loop_
 _symmetry_equiv_pos_site_id
 _symmetry_equiv_pos_as_xyz
  1  'x, y, z'
loop_
 _atom_site_type_symbol
 _atom_site_label
 _atom_site_symmetry_multiplicity
 _atom_site_fract_x
 _atom_site_fract_y
 _atom_site_fract_z
 _atom_site_occupancy
  Lu  Lu0  1  0.66666700  0.33333300  0.00000000  1
  Lu  Lu1  1  0.33333300  0.66666700  0.00000000  1
  Lu  Lu2  1  0.33333300  0.66666700  0.50000000  1
  Lu  Lu3  1  0.66666700  0.33333300  0.50000000  1
  Lu  Lu4  1  0.76062800  0.76062800  0.75000000  1
  Lu  Lu5  1  0.23937200  0.00000000  0.75000000  1
  Lu  Lu6  1  0.00000000  0.23937200  0.75000000  1
  Lu  Lu7  1  0.23937200  0.23937200  0.25000000  1
  Lu  Lu8  1  0.76062800  0.00000000  0.25000000  1
  Lu  Lu9  1  0.00000000  0.76062800  0.25000000  1
  Sn  Sn10  1  0.39364100  0.39364100  0.75000000  1
  Sn  Sn11  1  0.60635900  0.00000000  0.75000000  1
  Sn  Sn12  1  0.00000000  0.60635900  0.75000000  1
  Sn  Sn13  1  0.60635900  0.60635900  0.25000000  1
  Sn  Sn14  1  0.39364100  0.00000000  0.25000000  1
  Sn  Sn15  1  0.00000000  0.39364100  0.25000000  1
