# generated using pymatgen
data_K2UTe3
_symmetry_space_group_name_H-M   'P 1'
_cell_length_a   8.08409825
_cell_length_b   8.08409825
_cell_length_c   8.67535966
_cell_angle_alpha   80.94061262
_cell_angle_beta   80.94061262
_cell_angle_gamma   120.03446964
_symmetry_Int_Tables_number   1
_chemical_formula_structural   K2UTe3
_chemical_formula_sum   'K4 U2 Te6'
_cell_volume   465.82874104
_cell_formula_units_Z   2
loop_
 _symmetry_equiv_pos_site_id
 _symmetry_equiv_pos_as_xyz
  1  'x, y, z'
loop_
 _atom_site_type_symbol
 _atom_site_label
 _atom_site_symmetry_multiplicity
 _atom_site_fract_x
 _atom_site_fract_y
 _atom_site_fract_z
 _atom_site_occupancy
  K  K0  1  0.34525800  0.65474200  0.50000000  1
  K  K1  1  0.65474200  0.34525800  0.50000000  1
  K  K2  1  0.00000000  0.00000000  0.50000000  1
  K  K3  1  0.50000000  0.50000000  0.00000000  1
  U  U4  1  0.16798400  0.83201600  0.00000000  1
  U  U5  1  0.83201600  0.16798400  0.00000000  1
  Te  Te6  1  0.79909000  0.79909000  0.20996900  1
  Te  Te7  1  0.42713200  0.05510000  0.21328900  1
  Te  Te8  1  0.05510000  0.42713200  0.21328900  1
  Te  Te9  1  0.57286800  0.94490000  0.78671100  1
  Te  Te10  1  0.94490000  0.57286800  0.78671100  1
  Te  Te11  1  0.20091000  0.20091000  0.79003100  1
