# generated using pymatgen
data_Li3Al2
_symmetry_space_group_name_H-M   'P 1'
_cell_length_a   5.37204939
_cell_length_b   5.37204939
_cell_length_c   5.37204939
_cell_angle_alpha   48.86113274
_cell_angle_beta   48.86113274
_cell_angle_gamma   48.86113240
_symmetry_Int_Tables_number   1
_chemical_formula_structural   Li3Al2
_chemical_formula_sum   'Li3 Al2'
_cell_volume   80.71205955
_cell_formula_units_Z   1
loop_
 _symmetry_equiv_pos_site_id
 _symmetry_equiv_pos_as_xyz
  1  'x, y, z'
loop_
 _atom_site_type_symbol
 _atom_site_label
 _atom_site_symmetry_multiplicity
 _atom_site_fract_x
 _atom_site_fract_y
 _atom_site_fract_z
 _atom_site_occupancy
  Li  Li0  1  0.59721600  0.59721600  0.59721600  1
  Li  Li1  1  0.40278400  0.40278400  0.40278400  1
  Li  Li2  1  0.00000000  0.00000000  0.00000000  1
  Al  Al3  1  0.19826000  0.19826000  0.19826000  1
  Al  Al4  1  0.80174000  0.80174000  0.80174000  1
