# generated using pymatgen
data_PmS2
_symmetry_space_group_name_H-M   'P 1'
_cell_length_a   4.01516900
_cell_length_b   8.00669600
_cell_length_c   8.10080846
_cell_angle_alpha   89.89950186
_cell_angle_beta   90.00000000
_cell_angle_gamma   90.00000000
_symmetry_Int_Tables_number   1
_chemical_formula_structural   PmS2
_chemical_formula_sum   'Pm4 S8'
_cell_volume   260.42631433
_cell_formula_units_Z   4
loop_
 _symmetry_equiv_pos_site_id
 _symmetry_equiv_pos_as_xyz
  1  'x, y, z'
loop_
 _atom_site_type_symbol
 _atom_site_label
 _atom_site_symmetry_multiplicity
 _atom_site_fract_x
 _atom_site_fract_y
 _atom_site_fract_z
 _atom_site_occupancy
  Pm  Pm0  1  0.28555100  0.12909800  0.22460100  1
  Pm  Pm1  1  0.78555100  0.37090200  0.77539900  1
  Pm  Pm2  1  0.71444900  0.87090200  0.77539900  1
  Pm  Pm3  1  0.21444900  0.62909800  0.22460100  1
  S  S4  1  0.84089700  0.10886700  0.49749100  1
  S  S5  1  0.34089700  0.39113300  0.50250900  1
  S  S6  1  0.15910300  0.89113300  0.50250900  1
  S  S7  1  0.65910300  0.60886700  0.49749100  1
  S  S8  1  0.25994200  0.12517500  0.86749700  1
  S  S9  1  0.75994200  0.37482500  0.13250300  1
  S  S10  1  0.74005800  0.87482500  0.13250300  1
  S  S11  1  0.24005800  0.62517500  0.86749700  1
