# generated using pymatgen
data_Np2S5
_symmetry_space_group_name_H-M   'P 1'
_cell_length_a   7.32674700
_cell_length_b   7.34035400
_cell_length_c   9.91659900
_cell_angle_alpha   90.00000000
_cell_angle_beta   90.00000000
_cell_angle_gamma   90.00000000
_symmetry_Int_Tables_number   1
_chemical_formula_structural   Np2S5
_chemical_formula_sum   'Np8 S20'
_cell_volume   533.32378425
_cell_formula_units_Z   4
loop_
 _symmetry_equiv_pos_site_id
 _symmetry_equiv_pos_as_xyz
  1  'x, y, z'
loop_
 _atom_site_type_symbol
 _atom_site_label
 _atom_site_symmetry_multiplicity
 _atom_site_fract_x
 _atom_site_fract_y
 _atom_site_fract_z
 _atom_site_occupancy
  Np  Np0  1  0.26162200  0.50748500  0.14932900  1
  Np  Np1  1  0.73837800  0.49251500  0.85067100  1
  Np  Np2  1  0.23837800  0.00748500  0.35067100  1
  Np  Np3  1  0.73837800  0.99251500  0.14932900  1
  Np  Np4  1  0.76162200  0.99251500  0.64932900  1
  Np  Np5  1  0.26162200  0.00748500  0.85067100  1
  Np  Np6  1  0.76162200  0.49251500  0.35067100  1
  Np  Np7  1  0.23837800  0.50748500  0.64932900  1
  S  S8  1  0.39295000  0.64223100  0.39916600  1
  S  S9  1  0.60705000  0.35776900  0.60083400  1
  S  S10  1  0.10705000  0.14223100  0.10083400  1
  S  S11  1  0.60705000  0.85776900  0.39916600  1
  S  S12  1  0.89295000  0.85776900  0.89916600  1
  S  S13  1  0.39295000  0.14223100  0.60083400  1
  S  S14  1  0.89295000  0.35776900  0.10083400  1
  S  S15  1  0.10705000  0.64223100  0.89916600  1
  S  S16  1  0.36870500  0.88111700  0.10564400  1
  S  S17  1  0.63129500  0.11888300  0.89435600  1
  S  S18  1  0.13129500  0.38111700  0.39435600  1
  S  S19  1  0.63129500  0.61888300  0.10564400  1
  S  S20  1  0.86870500  0.61888300  0.60564400  1
  S  S21  1  0.36870500  0.38111700  0.89435600  1
  S  S22  1  0.86870500  0.11888300  0.39435600  1
  S  S23  1  0.13129500  0.88111700  0.60564400  1
  S  S24  1  0.00000000  0.75000000  0.24824200  1
  S  S25  1  0.00000000  0.25000000  0.75175800  1
  S  S26  1  0.50000000  0.25000000  0.25175800  1
  S  S27  1  0.50000000  0.75000000  0.74824200  1
