# generated using pymatgen
data_Y2Be2Fe(SiO5)2
_symmetry_space_group_name_H-M   'P 1'
_cell_length_a   7.57055000
_cell_length_b   4.79307300
_cell_length_c   10.04142312
_cell_angle_alpha   89.45149652
_cell_angle_beta   90.00000000
_cell_angle_gamma   90.00000000
_symmetry_Int_Tables_number   1
_chemical_formula_structural   Y2Be2Fe(SiO5)2
_chemical_formula_sum   'Y4 Be4 Fe2 Si4 O20'
_cell_volume   364.34837956
_cell_formula_units_Z   2
loop_
 _symmetry_equiv_pos_site_id
 _symmetry_equiv_pos_as_xyz
  1  'x, y, z'
loop_
 _atom_site_type_symbol
 _atom_site_label
 _atom_site_symmetry_multiplicity
 _atom_site_fract_x
 _atom_site_fract_y
 _atom_site_fract_z
 _atom_site_occupancy
  Y  Y0  1  0.60625700  0.00137000  0.82879500  1
  Y  Y1  1  0.10625700  0.99863000  0.67120500  1
  Y  Y2  1  0.39374300  0.99863000  0.17120500  1
  Y  Y3  1  0.89374300  0.00137000  0.32879500  1
  Be  Be4  1  0.91302500  0.53417000  0.83451700  1
  Be  Be5  1  0.41302500  0.46583000  0.66548300  1
  Be  Be6  1  0.08697500  0.46583000  0.16548300  1
  Be  Be7  1  0.58697500  0.53417000  0.33451700  1
  Fe  Fe8  1  0.00000000  0.00000000  0.00000000  1
  Fe  Fe9  1  0.50000000  0.00000000  0.50000000  1
  Si  Si10  1  0.77953000  0.48060100  0.57769300  1
  Si  Si11  1  0.27953000  0.51939900  0.92230700  1
  Si  Si12  1  0.22047000  0.51939900  0.42230700  1
  Si  Si13  1  0.72047000  0.48060100  0.07769300  1
  O  O14  1  0.60652400  0.31363600  0.64168600  1
  O  O15  1  0.10652400  0.68636400  0.85831400  1
  O  O16  1  0.39347600  0.68636400  0.35831400  1
  O  O17  1  0.89347600  0.31363600  0.14168600  1
  O  O18  1  0.41250500  0.79828500  0.66846400  1
  O  O19  1  0.91250500  0.20171500  0.83153600  1
  O  O20  1  0.58749500  0.20171500  0.33153600  1
  O  O21  1  0.21333900  0.32411200  0.04946900  1
  O  O22  1  0.58555100  0.23790600  0.02899200  1
  O  O23  1  0.08555100  0.76209400  0.47100800  1
  O  O24  1  0.84821000  0.69059500  0.69550600  1
  O  O25  1  0.91444900  0.23790600  0.52899200  1
  O  O26  1  0.71333900  0.67588800  0.45053100  1
  O  O27  1  0.41444900  0.76209400  0.97100800  1
  O  O28  1  0.28666100  0.32411200  0.54946900  1
  O  O29  1  0.78666100  0.67588800  0.95053100  1
  O  O30  1  0.65179000  0.69059500  0.19550600  1
  O  O31  1  0.15179000  0.30940500  0.30449400  1
  O  O32  1  0.34821000  0.30940500  0.80449400  1
  O  O33  1  0.08749500  0.79828500  0.16846400  1
