# generated using pymatgen
data_CsLi2Gd4(BO3)5
_symmetry_space_group_name_H-M   'P 1'
_cell_length_a   6.51419796
_cell_length_b   10.72872877
_cell_length_c   20.25730933
_cell_angle_alpha   105.22605408
_cell_angle_beta   90.00000000
_cell_angle_gamma   90.00000000
_symmetry_Int_Tables_number   1
_chemical_formula_structural   CsLi2Gd4(BO3)5
_chemical_formula_sum   'Cs4 Li8 Gd16 B20 O60'
_cell_volume   1366.06703297
_cell_formula_units_Z   4
loop_
 _symmetry_equiv_pos_site_id
 _symmetry_equiv_pos_as_xyz
  1  'x, y, z'
loop_
 _atom_site_type_symbol
 _atom_site_label
 _atom_site_symmetry_multiplicity
 _atom_site_fract_x
 _atom_site_fract_y
 _atom_site_fract_z
 _atom_site_occupancy
  Cs  Cs0  1  0.09516101  0.94482500  0.64148256  1
  Cs  Cs1  1  0.90483899  0.05517500  0.35851744  1
  Cs  Cs2  1  0.09516101  0.55517500  0.85851744  1
  Cs  Cs3  1  0.90483899  0.44482500  0.14148256  1
  Li  Li4  1  0.97840203  0.86236521  0.84672515  1
  Li  Li5  1  0.02159797  0.13763479  0.15327485  1
  Li  Li6  1  0.97840203  0.63763479  0.65327485  1
  Li  Li7  1  0.02159797  0.36236521  0.34672515  1
  Li  Li8  1  0.98598471  0.22198727  0.84210660  1
  Li  Li9  1  0.01401529  0.77801273  0.15789340  1
  Li  Li10  1  0.98598471  0.27801273  0.65789340  1
  Li  Li11  1  0.01401529  0.72198727  0.34210660  1
  Gd  Gd12  1  0.34182690  0.04441196  0.84994478  1
  Gd  Gd13  1  0.65817310  0.95558804  0.15005522  1
  Gd  Gd14  1  0.34182690  0.45558804  0.65005522  1
  Gd  Gd15  1  0.65817310  0.54441196  0.34994478  1
  Gd  Gd16  1  0.59713670  0.25000000  0.75000000  1
  Gd  Gd17  1  0.40286330  0.75000000  0.25000000  1
  Gd  Gd18  1  0.59016988  0.75000000  0.75000000  1
  Gd  Gd19  1  0.40983012  0.25000000  0.25000000  1
  Gd  Gd20  1  0.64556922  0.14314550  0.55333724  1
  Gd  Gd21  1  0.35443078  0.85685450  0.44666276  1
  Gd  Gd22  1  0.64556922  0.35685450  0.94666276  1
  Gd  Gd23  1  0.35443078  0.64314550  0.05333724  1
  Gd  Gd24  1  0.64898387  0.65679145  0.54643323  1
  Gd  Gd25  1  0.35101613  0.34320855  0.45356677  1
  Gd  Gd26  1  0.64898387  0.84320855  0.95356677  1
  Gd  Gd27  1  0.35101613  0.15679145  0.04643323  1
  B  B28  1  0.78375674  0.04828842  0.85017297  1
  B  B29  1  0.21624326  0.95171158  0.14982703  1
  B  B30  1  0.78375674  0.45171158  0.64982703  1
  B  B31  1  0.21624326  0.54828842  0.35017297  1
  B  B32  1  0.16578200  0.25000000  0.75000000  1
  B  B33  1  0.83421800  0.75000000  0.25000000  1
  B  B34  1  0.15869716  0.75000000  0.75000000  1
  B  B35  1  0.84130284  0.25000000  0.25000000  1
  B  B36  1  0.19404135  0.15698003  0.54961776  1
  B  B37  1  0.80595865  0.84301997  0.45038224  1
  B  B38  1  0.19404135  0.34301997  0.95038224  1
  B  B39  1  0.80595865  0.65698003  0.04961776  1
  B  B40  1  0.20234721  0.64337628  0.54359065  1
  B  B41  1  0.79765279  0.35662372  0.45640935  1
  B  B42  1  0.20234721  0.85662372  0.95640935  1
  B  B43  1  0.79765279  0.14337628  0.04359065  1
  B  B44  1  0.59337683  0.95699927  0.67663675  1
  B  B45  1  0.40662317  0.04300073  0.32336325  1
  B  B46  1  0.59337683  0.54300073  0.82336325  1
  B  B47  1  0.40662317  0.45699927  0.17663675  1
  O  O48  1  0.98998022  0.04103569  0.83984490  1
  O  O49  1  0.01001978  0.95896431  0.16015510  1
  O  O50  1  0.98998022  0.45896431  0.66015510  1
  O  O51  1  0.01001978  0.54103569  0.33984490  1
  O  O52  1  0.67446537  0.16173585  0.85149959  1
  O  O53  1  0.32553463  0.83826415  0.14850041  1
  O  O54  1  0.67446537  0.33826415  0.64850041  1
  O  O55  1  0.32553463  0.66173585  0.35149959  1
  O  O56  1  0.67450053  0.94165477  0.85960240  1
  O  O57  1  0.32549947  0.05834523  0.14039760  1
  O  O58  1  0.67450053  0.55834523  0.64039760  1
  O  O59  1  0.32549947  0.44165477  0.35960240  1
  O  O60  1  0.95480410  0.25000000  0.75000000  1
  O  O61  1  0.04519590  0.75000000  0.25000000  1
  O  O62  1  0.27702007  0.22195418  0.80260750  1
  O  O63  1  0.72297993  0.77804582  0.19739250  1
  O  O64  1  0.27702007  0.27804582  0.69739250  1
  O  O65  1  0.72297993  0.72195418  0.30260750  1
  O  O66  1  0.94730183  0.75000000  0.75000000  1
  O  O67  1  0.05269817  0.25000000  0.25000000  1
  O  O68  1  0.26867436  0.68221438  0.69304430  1
  O  O69  1  0.73132564  0.31778562  0.30695570  1
  O  O70  1  0.26867436  0.81778562  0.80695570  1
  O  O71  1  0.73132564  0.18221438  0.19304430  1
  O  O72  1  0.99544491  0.15887234  0.56994458  1
  O  O73  1  0.00455509  0.84112766  0.43005542  1
  O  O74  1  0.99544491  0.34112766  0.93005542  1
  O  O75  1  0.00455509  0.65887234  0.06994458  1
  O  O76  1  0.30876902  0.04472836  0.52724852  1
  O  O77  1  0.69123098  0.95527164  0.47275148  1
  O  O78  1  0.30876902  0.45527164  0.97275148  1
  O  O79  1  0.69123098  0.54472836  0.02724852  1
  O  O80  1  0.31063574  0.27017879  0.55307501  1
  O  O81  1  0.68936426  0.72982121  0.44692499  1
  O  O82  1  0.31063574  0.22982121  0.94692499  1
  O  O83  1  0.68936426  0.77017879  0.05307501  1
  O  O84  1  0.00055806  0.65770458  0.56133961  1
  O  O85  1  0.99944194  0.34229542  0.43866039  1
  O  O86  1  0.00055806  0.84229542  0.93866039  1
  O  O87  1  0.99944194  0.15770458  0.06133961  1
  O  O88  1  0.32101150  0.53367966  0.54703139  1
  O  O89  1  0.67898850  0.46632034  0.45296861  1
  O  O90  1  0.32101150  0.96632034  0.95296861  1
  O  O91  1  0.67898850  0.03367966  0.04703139  1
  O  O92  1  0.31847039  0.73744652  0.52467663  1
  O  O93  1  0.68152961  0.26255348  0.47532337  1
  O  O94  1  0.31847039  0.76255348  0.97532337  1
  O  O95  1  0.68152961  0.23744652  0.02467663  1
  O  O96  1  0.49628710  0.97449720  0.73952010  1
  O  O97  1  0.50371290  0.02550280  0.26047990  1
  O  O98  1  0.49628710  0.52550280  0.76047990  1
  O  O99  1  0.50371290  0.47449720  0.23952010  1
  O  O100  1  0.64973721  0.83161255  0.64332053  1
  O  O101  1  0.35026279  0.16838745  0.35667947  1
  O  O102  1  0.64973721  0.66838745  0.85667947  1
  O  O103  1  0.35026279  0.33161255  0.14332053  1
  O  O104  1  0.63585235  0.06467486  0.65282633  1
  O  O105  1  0.36414765  0.93532514  0.34717367  1
  O  O106  1  0.63585235  0.43532514  0.84717367  1
  O  O107  1  0.36414765  0.56467486  0.15282633  1
