# generated using pymatgen
data_CsZn4As3
_symmetry_space_group_name_H-M   'P 1'
_cell_length_a   4.26001800
_cell_length_b   4.26001800
_cell_length_c   10.68799300
_cell_angle_alpha   90.00000000
_cell_angle_beta   90.00000000
_cell_angle_gamma   90.00000000
_symmetry_Int_Tables_number   1
_chemical_formula_structural   CsZn4As3
_chemical_formula_sum   'Cs1 Zn4 As3'
_cell_volume   193.96306088
_cell_formula_units_Z   1
loop_
 _symmetry_equiv_pos_site_id
 _symmetry_equiv_pos_as_xyz
  1  'x, y, z'
loop_
 _atom_site_type_symbol
 _atom_site_label
 _atom_site_symmetry_multiplicity
 _atom_site_fract_x
 _atom_site_fract_y
 _atom_site_fract_z
 _atom_site_occupancy
  Cs  Cs0  1  0.00000000  0.00000000  0.50000000  1
  Zn  Zn1  1  0.50000000  0.00000000  0.84819800  1
  Zn  Zn2  1  0.00000000  0.50000000  0.84819800  1
  Zn  Zn3  1  0.50000000  0.00000000  0.15180200  1
  Zn  Zn4  1  0.00000000  0.50000000  0.15180200  1
  As  As5  1  0.50000000  0.50000000  0.71985500  1
  As  As6  1  0.50000000  0.50000000  0.28014500  1
  As  As7  1  0.00000000  0.00000000  0.00000000  1
