# generated using pymatgen
data_Ca11GaSb9
_symmetry_space_group_name_H-M   'P 1'
_cell_length_a   12.05587480
_cell_length_b   12.05587480
_cell_length_c   12.05587480
_cell_angle_alpha   120.98969904
_cell_angle_beta   117.38862385
_cell_angle_gamma   91.43784761
_symmetry_Int_Tables_number   1
_chemical_formula_structural   Ca11GaSb9
_chemical_formula_sum   'Ca22 Ga2 Sb18'
_cell_volume   1252.28485737
_cell_formula_units_Z   2
loop_
 _symmetry_equiv_pos_site_id
 _symmetry_equiv_pos_as_xyz
  1  'x, y, z'
loop_
 _atom_site_type_symbol
 _atom_site_label
 _atom_site_symmetry_multiplicity
 _atom_site_fract_x
 _atom_site_fract_y
 _atom_site_fract_z
 _atom_site_occupancy
  Ca  Ca0  1  0.29030900  0.08576100  0.35008600  1
  Ca  Ca1  1  0.73567400  0.94022300  0.64991400  1
  Ca  Ca2  1  0.23567400  0.58576100  0.79545200  1
  Ca  Ca3  1  0.79030900  0.44022300  0.20454800  1
  Ca  Ca4  1  0.60449300  0.42358800  0.36435200  1
  Ca  Ca5  1  0.05923700  0.24014100  0.63564800  1
  Ca  Ca6  1  0.55923700  0.92358800  0.81909500  1
  Ca  Ca7  1  0.10449300  0.74014100  0.18090500  1
  Ca  Ca8  1  0.09980700  0.36565200  0.37196800  1
  Ca  Ca9  1  0.99368400  0.72783900  0.62803200  1
  Ca  Ca10  1  0.49368400  0.86565200  0.26584500  1
  Ca  Ca11  1  0.59980700  0.22783900  0.73415500  1
  Ca  Ca12  1  0.50117900  0.51664000  0.66921200  1
  Ca  Ca13  1  0.84742700  0.83196700  0.33078800  1
  Ca  Ca14  1  0.34742700  0.01664000  0.01546100  1
  Ca  Ca15  1  0.00117900  0.33196700  0.98453900  1
  Ca  Ca16  1  0.99856400  0.99856400  0.00000000  1
  Ca  Ca17  1  0.49856400  0.49856400  0.00000000  1
  Ca  Ca18  1  0.35781400  0.61833600  0.37538400  1
  Ca  Ca19  1  0.24295100  0.98243000  0.62461600  1
  Ca  Ca20  1  0.74295100  0.11833600  0.26052100  1
  Ca  Ca21  1  0.85781400  0.48243000  0.73947900  1
  Ga  Ga22  1  0.27948800  0.27948800  0.00000000  1
  Ga  Ga23  1  0.77948800  0.77948800  0.00000000  1
  Sb  Sb24  1  0.72521200  0.71665700  0.71776600  1
  Sb  Sb25  1  0.99889100  0.00744600  0.28223400  1
  Sb  Sb26  1  0.49889100  0.21665700  0.99144600  1
  Sb  Sb27  1  0.22521200  0.50744600  0.00855400  1
  Sb  Sb28  1  0.56529300  0.21179500  0.42611100  1
  Sb  Sb29  1  0.78568400  0.13918200  0.57388900  1
  Sb  Sb30  1  0.28568400  0.71179500  0.64650200  1
  Sb  Sb31  1  0.06529300  0.63918200  0.35349800  1
  Sb  Sb32  1  0.28623000  0.30068900  0.24654800  1
  Sb  Sb33  1  0.05414100  0.03968200  0.75345200  1
  Sb  Sb34  1  0.55414100  0.80068900  0.01445900  1
  Sb  Sb35  1  0.78623000  0.53968200  0.98554100  1
  Sb  Sb36  1  0.92172100  0.42172100  0.50000000  1
  Sb  Sb37  1  0.42172100  0.92172100  0.50000000  1
  Sb  Sb38  1  0.67122700  0.66792800  0.35565500  1
  Sb  Sb39  1  0.31227300  0.31557200  0.64434500  1
  Sb  Sb40  1  0.81227300  0.16792800  0.99670100  1
  Sb  Sb41  1  0.17122700  0.81557200  0.00329900  1
