# generated using pymatgen
data_LiAs(XeF4)3
_symmetry_space_group_name_H-M   'P 1'
_cell_length_a   13.81709100
_cell_length_b   7.22871000
_cell_length_c   7.22905888
_cell_angle_alpha   88.25879938
_cell_angle_beta   90.00000000
_cell_angle_gamma   90.00000000
_symmetry_Int_Tables_number   1
_chemical_formula_structural   LiAs(XeF4)3
_chemical_formula_sum   'Li2 As2 Xe6 F24'
_cell_volume   721.70316285
_cell_formula_units_Z   2
loop_
 _symmetry_equiv_pos_site_id
 _symmetry_equiv_pos_as_xyz
  1  'x, y, z'
loop_
 _atom_site_type_symbol
 _atom_site_label
 _atom_site_symmetry_multiplicity
 _atom_site_fract_x
 _atom_site_fract_y
 _atom_site_fract_z
 _atom_site_occupancy
  Li  Li0  1  0.88678800  0.72747600  0.68800800  1
  Li  Li1  1  0.38678800  0.27252400  0.31199200  1
  As  As2  1  0.62821900  0.78800500  0.79691100  1
  As  As3  1  0.12821900  0.21199500  0.20308900  1
  Xe  Xe4  1  0.89730400  0.22698600  0.69140400  1
  Xe  Xe5  1  0.39730400  0.77301400  0.30859600  1
  Xe  Xe6  1  0.89782500  0.73115100  0.18827200  1
  Xe  Xe7  1  0.39782500  0.26884900  0.81172800  1
  Xe  Xe8  1  0.15571600  0.71197200  0.72340400  1
  Xe  Xe9  1  0.65571600  0.28802800  0.27659600  1
  F  F10  1  0.84282500  0.47919900  0.59026100  1
  F  F11  1  0.34282500  0.52080100  0.40973900  1
  F  F12  1  0.86292200  0.85395100  0.43573200  1
  F  F13  1  0.36292200  0.14604900  0.56426800  1
  F  F14  1  0.02445700  0.65400500  0.59149500  1
  F  F15  1  0.52445700  0.34599500  0.40850500  1
  F  F16  1  0.94816100  0.97098900  0.78573900  1
  F  F17  1  0.44816100  0.02901100  0.21426100  1
  F  F18  1  0.93008300  0.60870400  0.93882200  1
  F  F19  1  0.43008300  0.39129600  0.06117800  1
  F  F20  1  0.28559100  0.76468900  0.84940300  1
  F  F21  1  0.78559100  0.23531100  0.15059700  1
  F  F22  1  0.75946100  0.80405200  0.79567100  1
  F  F23  1  0.25946100  0.19594800  0.20432900  1
  F  F24  1  0.63698100  0.54371600  0.81231900  1
  F  F25  1  0.13698100  0.45628400  0.18768100  1
  F  F26  1  0.63024100  0.78119300  0.55271900  1
  F  F27  1  0.13024100  0.21880700  0.44728100  1
  F  F28  1  0.62366800  0.03291700  0.78398300  1
  F  F29  1  0.12366800  0.96708300  0.21601700  1
  F  F30  1  0.63186100  0.79318500  0.04220300  1
  F  F31  1  0.13186100  0.20681500  0.95779700  1
  F  F32  1  0.50039600  0.77726400  0.79833500  1
  F  F33  1  0.00039600  0.22273600  0.20166500  1
