# generated using pymatgen
data_Ba3(LiAs)4
_symmetry_space_group_name_H-M   'P 1'
_cell_length_a   9.02059651
_cell_length_b   9.02059651
_cell_length_c   9.02059651
_cell_angle_alpha   149.49097337
_cell_angle_beta   132.56232710
_cell_angle_gamma   57.45641531
_symmetry_Int_Tables_number   1
_chemical_formula_structural   Ba3(LiAs)4
_chemical_formula_sum   'Ba3 Li4 As4'
_cell_volume   272.48845166
_cell_formula_units_Z   1
loop_
 _symmetry_equiv_pos_site_id
 _symmetry_equiv_pos_as_xyz
  1  'x, y, z'
loop_
 _atom_site_type_symbol
 _atom_site_label
 _atom_site_symmetry_multiplicity
 _atom_site_fract_x
 _atom_site_fract_y
 _atom_site_fract_z
 _atom_site_occupancy
  Ba  Ba0  1  0.63142800  0.13142800  0.50000000  1
  Ba  Ba1  1  0.36857200  0.86857200  0.50000000  1
  Ba  Ba2  1  0.00000000  0.00000000  0.00000000  1
  Li  Li3  1  0.98319700  0.67761800  0.30557900  1
  Li  Li4  1  0.01680300  0.32238200  0.69442100  1
  Li  Li5  1  0.62796100  0.32238200  0.30557900  1
  Li  Li6  1  0.37203900  0.67761800  0.69442100  1
  As  As7  1  0.32637900  0.50000000  0.82637900  1
  As  As8  1  0.78726200  0.78726200  0.00000000  1
  As  As9  1  0.21273800  0.21273800  0.00000000  1
  As  As10  1  0.67362100  0.50000000  0.17362100  1
