# generated using pymatgen
data_CaGeO3
_symmetry_space_group_name_H-M   'P 1'
_cell_length_a   7.38223300
_cell_length_b   7.63253018
_cell_length_c   8.25030174
_cell_angle_alpha   103.50140158
_cell_angle_beta   95.00802269
_cell_angle_gamma   90.14422805
_symmetry_Int_Tables_number   1
_chemical_formula_structural   CaGeO3
_chemical_formula_sum   'Ca6 Ge6 O18'
_cell_volume   450.16590741
_cell_formula_units_Z   6
loop_
 _symmetry_equiv_pos_site_id
 _symmetry_equiv_pos_as_xyz
  1  'x, y, z'
loop_
 _atom_site_type_symbol
 _atom_site_label
 _atom_site_symmetry_multiplicity
 _atom_site_fract_x
 _atom_site_fract_y
 _atom_site_fract_z
 _atom_site_occupancy
  Ca  Ca0  1  0.96869800  0.24734600  0.98966000  1
  Ca  Ca1  1  0.03130200  0.75265400  0.01034000  1
  Ca  Ca2  1  0.26102700  0.92666800  0.70939300  1
  Ca  Ca3  1  0.73897300  0.07333200  0.29060700  1
  Ca  Ca4  1  0.25786300  0.42727300  0.70493000  1
  Ca  Ca5  1  0.74213700  0.57272700  0.29507000  1
  Ge  Ge6  1  0.22238600  0.05525000  0.32268500  1
  Ge  Ge7  1  0.77761400  0.94475000  0.67731500  1
  Ge  Ge8  1  0.22391500  0.60733600  0.31881400  1
  Ge  Ge9  1  0.77608500  0.39266400  0.68118600  1
  Ge  Ge10  1  0.44534300  0.27474000  0.09669400  1
  Ge  Ge11  1  0.55465700  0.72526000  0.90330600  1
  O  O12  1  0.74256000  0.18128900  0.73362800  1
  O  O13  1  0.25744000  0.81871100  0.26637200  1
  O  O14  1  0.77188800  0.37066900  0.46828100  1
  O  O15  1  0.22811200  0.62933100  0.53171900  1
  O  O16  1  0.77182100  0.86425200  0.46204000  1
  O  O17  1  0.22817900  0.13574800  0.53796000  1
  O  O18  1  0.58032600  0.87116400  0.76003900  1
  O  O19  1  0.41967400  0.12883600  0.23996100  1
  O  O20  1  0.97446400  0.92583800  0.80714500  1
  O  O21  1  0.02553600  0.07416200  0.19285500  1
  O  O22  1  0.57855100  0.50215700  0.77010900  1
  O  O23  1  0.42144900  0.49784300  0.22989100  1
  O  O24  1  0.68244500  0.27283000  0.09955400  1
  O  O25  1  0.31755500  0.72717000  0.90044600  1
  O  O26  1  0.28761800  0.22673800  0.92159900  1
  O  O27  1  0.71238200  0.77326200  0.07840100  1
  O  O28  1  0.02606400  0.52431500  0.18871400  1
  O  O29  1  0.97393600  0.47568500  0.81128600  1
