# generated using pymatgen
data_Ba4NaGa2B8(BrO6)3
_symmetry_space_group_name_H-M   'P 1'
_cell_length_a   12.39014300
_cell_length_b   12.39014300
_cell_length_c   6.98922800
_cell_angle_alpha   90.00000000
_cell_angle_beta   90.00000000
_cell_angle_gamma   90.00000000
_symmetry_Int_Tables_number   1
_chemical_formula_structural   Ba4NaGa2B8(BrO6)3
_chemical_formula_sum   'Ba8 Na2 Ga4 B16 Br6 O36'
_cell_volume   1072.95583441
_cell_formula_units_Z   2
loop_
 _symmetry_equiv_pos_site_id
 _symmetry_equiv_pos_as_xyz
  1  'x, y, z'
loop_
 _atom_site_type_symbol
 _atom_site_label
 _atom_site_symmetry_multiplicity
 _atom_site_fract_x
 _atom_site_fract_y
 _atom_site_fract_z
 _atom_site_occupancy
  Ba  Ba0  1  0.98327100  0.27391700  0.01237700  1
  Ba  Ba1  1  0.01672900  0.72608300  0.01237700  1
  Ba  Ba2  1  0.51672900  0.77391700  0.51237700  1
  Ba  Ba3  1  0.48327100  0.22608300  0.51237700  1
  Ba  Ba4  1  0.72608300  0.01672900  0.01237700  1
  Ba  Ba5  1  0.27391700  0.98327100  0.01237700  1
  Ba  Ba6  1  0.77391700  0.51672900  0.51237700  1
  Ba  Ba7  1  0.22608300  0.48327100  0.51237700  1
  Na  Na8  1  0.00000000  0.00000000  0.35956900  1
  Na  Na9  1  0.50000000  0.50000000  0.85956900  1
  Ga  Ga10  1  0.79817400  0.20182600  0.51760400  1
  Ga  Ga11  1  0.20182600  0.79817400  0.51760400  1
  Ga  Ga12  1  0.70182600  0.70182600  0.01760400  1
  Ga  Ga13  1  0.29817400  0.29817400  0.01760400  1
  B  B14  1  0.03677800  0.23265600  0.55291200  1
  B  B15  1  0.96322200  0.76734400  0.55291200  1
  B  B16  1  0.46322200  0.73265600  0.05291200  1
  B  B17  1  0.53677800  0.26734400  0.05291200  1
  B  B18  1  0.76734400  0.96322200  0.55291200  1
  B  B19  1  0.23265600  0.03677800  0.55291200  1
  B  B20  1  0.73265600  0.46322200  0.05291200  1
  B  B21  1  0.26734400  0.53677800  0.05291200  1
  B  B22  1  0.73301400  0.26698600  0.14292900  1
  B  B23  1  0.26698600  0.73301400  0.14292900  1
  B  B24  1  0.76698600  0.76698600  0.64292900  1
  B  B25  1  0.23301400  0.23301400  0.64292900  1
  B  B26  1  0.68381700  0.31618300  0.81813800  1
  B  B27  1  0.31618300  0.68381700  0.81813800  1
  B  B28  1  0.81618300  0.81618300  0.31813800  1
  B  B29  1  0.18381700  0.18381700  0.31813800  1
  Br  Br30  1  0.00000000  0.00000000  0.93384800  1
  Br  Br31  1  0.50000000  0.50000000  0.43384800  1
  Br  Br32  1  0.00000000  0.50000000  0.78262500  1
  Br  Br33  1  0.50000000  0.00000000  0.28262500  1
  Br  Br34  1  0.50000000  0.00000000  0.78262500  1
  Br  Br35  1  0.00000000  0.50000000  0.28262500  1
  O  O36  1  0.75250200  0.24749800  0.93709200  1
  O  O37  1  0.24749800  0.75250200  0.93709200  1
  O  O38  1  0.74749800  0.74749800  0.43709200  1
  O  O39  1  0.25250200  0.25250200  0.43709200  1
  O  O40  1  0.11660000  0.25639000  0.68564300  1
  O  O41  1  0.88340000  0.74361000  0.68564300  1
  O  O42  1  0.38340000  0.75639000  0.18564300  1
  O  O43  1  0.61660000  0.24361000  0.18564300  1
  O  O44  1  0.74361000  0.88340000  0.68564300  1
  O  O45  1  0.25639000  0.11660000  0.68564300  1
  O  O46  1  0.75639000  0.38340000  0.18564300  1
  O  O47  1  0.24361000  0.61660000  0.18564300  1
  O  O48  1  0.06402800  0.20094700  0.36814400  1
  O  O49  1  0.93597200  0.79905300  0.36814400  1
  O  O50  1  0.43597200  0.70094700  0.86814400  1
  O  O51  1  0.56402800  0.29905300  0.86814400  1
  O  O52  1  0.79905300  0.93597200  0.36814400  1
  O  O53  1  0.20094700  0.06402800  0.36814400  1
  O  O54  1  0.70094700  0.43597200  0.86814400  1
  O  O55  1  0.29905300  0.56402800  0.86814400  1
  O  O56  1  0.69921700  0.30078300  0.61498000  1
  O  O57  1  0.30078300  0.69921700  0.61498000  1
  O  O58  1  0.80078300  0.80078300  0.11498000  1
  O  O59  1  0.19921700  0.19921700  0.11498000  1
  O  O60  1  0.80345800  0.19654200  0.25214500  1
  O  O61  1  0.19654200  0.80345800  0.25214500  1
  O  O62  1  0.69654200  0.69654200  0.75214500  1
  O  O63  1  0.30345800  0.30345800  0.75214500  1
  O  O64  1  0.93279400  0.23766700  0.61681400  1
  O  O65  1  0.06720600  0.76233300  0.61681400  1
  O  O66  1  0.56720600  0.73766700  0.11681400  1
  O  O67  1  0.43279400  0.26233300  0.11681400  1
  O  O68  1  0.76233300  0.06720600  0.61681400  1
  O  O69  1  0.23766700  0.93279400  0.61681400  1
  O  O70  1  0.73766700  0.56720600  0.11681400  1
  O  O71  1  0.26233300  0.43279400  0.11681400  1
