# generated using pymatgen
data_CsGeSbO5
_symmetry_space_group_name_H-M   'P 1'
_cell_length_a   10.41890565
_cell_length_b   10.41890565
_cell_length_c   21.64037867
_cell_angle_alpha   103.92953397
_cell_angle_beta   103.92953397
_cell_angle_gamma   90.00000000
_symmetry_Int_Tables_number   1
_chemical_formula_structural   CsGeSbO5
_chemical_formula_sum   'Cs16 Ge16 Sb16 O80'
_cell_volume   2208.81674697
_cell_formula_units_Z   16
loop_
 _symmetry_equiv_pos_site_id
 _symmetry_equiv_pos_as_xyz
  1  'x, y, z'
loop_
 _atom_site_type_symbol
 _atom_site_label
 _atom_site_symmetry_multiplicity
 _atom_site_fract_x
 _atom_site_fract_y
 _atom_site_fract_z
 _atom_site_occupancy
  Cs  Cs0  1  0.51886673  0.01886673  0.50000000  1
  Cs  Cs1  1  0.98113327  0.48113327  0.50000000  1
  Cs  Cs2  1  0.26886673  0.73113327  -0.00000000  1
  Cs  Cs3  1  0.73113327  0.26886673  -0.00000000  1
  Cs  Cs4  1  0.67839642  0.17839642  0.35679283  1
  Cs  Cs5  1  0.57160358  0.57160358  0.14320717  1
  Cs  Cs6  1  0.82160358  0.32160358  0.64320717  1
  Cs  Cs7  1  0.42839642  0.42839642  0.85679283  1
  Cs  Cs8  1  0.31699831  0.81699831  0.63399662  1
  Cs  Cs9  1  0.93300169  0.93300169  0.86600338  1
  Cs  Cs10  1  0.18300169  0.68300169  0.36600338  1
  Cs  Cs11  1  0.06699831  0.06699831  0.13399662  1
  Cs  Cs12  1  0.12500000  0.12845783  0.75000000  1
  Cs  Cs13  1  0.62500000  0.62154217  0.75000000  1
  Cs  Cs14  1  0.37845783  0.37500000  0.25000000  1
  Cs  Cs15  1  0.87154217  0.87500000  0.25000000  1
  Ge  Ge16  1  0.16159653  0.14993013  0.57854207  1
  Ge  Ge17  1  0.41694554  0.42861194  0.57854207  1
  Ge  Ge18  1  0.83305446  0.60006987  0.92145793  1
  Ge  Ge19  1  0.08840347  0.32138806  0.92145793  1
  Ge  Ge20  1  0.57138806  0.58305446  0.42145793  1
  Ge  Ge21  1  0.85006987  0.83840347  0.42145793  1
  Ge  Ge22  1  0.67861194  0.91159653  0.07854207  1
  Ge  Ge23  1  0.39993013  0.16694554  0.07854207  1
  Ge  Ge24  1  0.65199397  0.66279190  0.58586772  1
  Ge  Ge25  1  0.93387374  0.92307581  0.58586772  1
  Ge  Ge26  1  0.31612626  0.08720810  0.91413228  1
  Ge  Ge27  1  0.59800603  0.82692419  0.91413228  1
  Ge  Ge28  1  0.07692419  0.06612626  0.41413228  1
  Ge  Ge29  1  0.33720810  0.34800603  0.41413228  1
  Ge  Ge30  1  0.17307581  0.40199397  0.08586772  1
  Ge  Ge31  1  0.91279190  0.68387374  0.08586772  1
  Sb  Sb32  1  0.47625810  0.22227993  0.68164476  1
  Sb  Sb33  1  0.20538666  0.45936483  0.68164476  1
  Sb  Sb34  1  0.04461334  0.52772007  0.81835524  1
  Sb  Sb35  1  0.77374190  0.29063517  0.81835524  1
  Sb  Sb36  1  0.54063517  0.79461334  0.31835524  1
  Sb  Sb37  1  0.77772007  0.52374190  0.31835524  1
  Sb  Sb38  1  0.70936483  0.22625810  0.18164476  1
  Sb  Sb39  1  0.47227993  0.95538666  0.18164476  1
  Sb  Sb40  1  0.96303995  0.70965103  0.69032537  1
  Sb  Sb41  1  0.72728543  0.98067434  0.69032537  1
  Sb  Sb42  1  0.52271457  0.04034897  0.80967463  1
  Sb  Sb43  1  0.28696005  0.76932566  0.80967463  1
  Sb  Sb44  1  0.01932566  0.27271457  0.30967463  1
  Sb  Sb45  1  0.29034897  0.03696005  0.30967463  1
  Sb  Sb46  1  0.23067434  0.71303995  0.19032537  1
  Sb  Sb47  1  0.95965103  0.47728543  0.19032537  1
  O  O48  1  0.42026220  0.11642901  0.73730361  1
  O  O49  1  0.31704141  0.62087460  0.73730361  1
  O  O50  1  0.93295859  0.63357099  0.76269639  1
  O  O51  1  0.82973780  0.12912540  0.76269639  1
  O  O52  1  0.37912540  0.68295859  0.26269639  1
  O  O53  1  0.88357099  0.57973780  0.26269639  1
  O  O54  1  0.87087460  0.17026220  0.23730361  1
  O  O55  1  0.36642901  0.06704141  0.23730361  1
  O  O56  1  0.67094079  0.37500000  0.25000000  1
  O  O57  1  0.57905921  0.87500000  0.25000000  1
  O  O58  1  0.12500000  0.42094079  0.75000000  1
  O  O59  1  0.62500000  0.32905921  0.75000000  1
  O  O60  1  0.18311991  0.87500000  0.25000000  1
  O  O61  1  0.06688009  0.37500000  0.25000000  1
  O  O62  1  0.62500000  0.93311991  0.75000000  1
  O  O63  1  0.12500000  0.81688009  0.75000000  1
  O  O64  1  0.84611729  0.02987872  0.63464152  1
  O  O65  1  0.78852423  0.60476280  0.63464152  1
  O  O66  1  0.46147577  0.72012128  0.86535848  1
  O  O67  1  0.40388271  0.14523720  0.86535848  1
  O  O68  1  0.39523720  0.21147577  0.36535848  1
  O  O69  1  0.97012128  0.15388271  0.36535848  1
  O  O70  1  0.85476280  0.59611729  0.13464152  1
  O  O71  1  0.27987872  0.53852423  0.13464152  1
  O  O72  1  0.52401653  0.33496602  0.62350673  1
  O  O73  1  0.09949020  0.28854071  0.62350673  1
  O  O74  1  0.15050980  0.41503398  0.87649327  1
  O  O75  1  0.72598347  0.46145929  0.87649327  1
  O  O76  1  0.71145929  0.90050980  0.37649327  1
  O  O77  1  0.66503398  0.47598347  0.37649327  1
  O  O78  1  0.53854071  0.27401653  0.12350673  1
  O  O79  1  0.58496602  0.84949020  0.12350673  1
  O  O80  1  0.33270531  0.12636397  0.60005013  1
  O  O81  1  0.26734483  0.47368617  0.60005013  1
  O  O82  1  0.98265517  0.62363603  0.89994987  1
  O  O83  1  0.91729469  0.27631383  0.89994987  1
  O  O84  1  0.52631383  0.73265517  0.39994987  1
  O  O85  1  0.87363603  0.66729469  0.39994987  1
  O  O86  1  0.72368617  0.08270531  0.10005013  1
  O  O87  1  0.37636397  0.01734483  0.10005013  1
  O  O88  1  0.62967509  0.83319358  0.61074375  1
  O  O89  1  0.98106866  0.77755018  0.61074375  1
  O  O90  1  0.26893134  0.91680642  0.88925625  1
  O  O91  1  0.62032491  0.97244982  0.88925625  1
  O  O92  1  0.22244982  0.01893134  0.38925625  1
  O  O93  1  0.16680642  0.37032491  0.38925625  1
  O  O94  1  0.02755018  0.37967509  0.11074375  1
  O  O95  1  0.08319358  0.73106866  0.11074375  1
  O  O96  1  0.10818388  0.16384921  0.49616842  1
  O  O97  1  0.38798454  0.33231921  0.49616842  1
  O  O98  1  0.86201546  0.58615079  0.00383158  1
  O  O99  1  0.14181612  0.41768079  0.00383158  1
  O  O100  1  0.66768079  0.61201546  0.50383158  1
  O  O101  1  0.83615079  0.89181612  0.50383158  1
  O  O102  1  0.58231921  0.85818388  0.99616842  1
  O  O103  1  0.41384921  0.13798454  0.99616842  1
  O  O104  1  0.08898487  0.00325394  0.58942046  1
  O  O105  1  0.50043558  0.58616652  0.58942046  1
  O  O106  1  0.74956442  0.74674606  0.91057954  1
  O  O107  1  0.16101513  0.16383348  0.91057954  1
  O  O108  1  0.41383348  0.49956442  0.41057954  1
  O  O109  1  0.99674606  0.91101513  0.41057954  1
  O  O110  1  0.83616652  0.83898487  0.08942046  1
  O  O111  1  0.25325394  0.25043558  0.08942046  1
  O  O112  1  0.86102780  0.86102780  0.72205560  1
  O  O113  1  0.38897220  0.88897220  0.77794440  1
  O  O114  1  0.13897220  0.13897220  0.27794440  1
  O  O115  1  0.11102780  0.61102780  0.22205560  1
  O  O116  1  0.35600432  0.35600432  0.71200864  1
  O  O117  1  0.89399568  0.39399568  0.78799136  1
  O  O118  1  0.64399568  0.64399568  0.28799136  1
  O  O119  1  0.60600432  0.10600432  0.21200864  1
  O  O120  1  0.59629370  0.09103322  0.64726165  1
  O  O121  1  0.05096795  0.55622843  0.64726165  1
  O  O122  1  0.19903205  0.65896678  0.85273835  1
  O  O123  1  0.65370630  0.19377157  0.85273835  1
  O  O124  1  0.44377157  0.94903205  0.35273835  1
  O  O125  1  0.90896678  0.40370630  0.35273835  1
  O  O126  1  0.80622843  0.34629370  0.14726165  1
  O  O127  1  0.34103322  0.80096795  0.14726165  1
