# generated using pymatgen
data_FeSb6Pd
_symmetry_space_group_name_H-M   'P 1'
_cell_length_a   8.04025524
_cell_length_b   8.04025524
_cell_length_c   9.33087066
_cell_angle_alpha   54.94540285
_cell_angle_beta   54.94540285
_cell_angle_gamma   70.53751550
_symmetry_Int_Tables_number   1
_chemical_formula_structural   FeSb6Pd
_chemical_formula_sum   'Fe2 Sb12 Pd2'
_cell_volume   404.20852339
_cell_formula_units_Z   2
loop_
 _symmetry_equiv_pos_site_id
 _symmetry_equiv_pos_as_xyz
  1  'x, y, z'
loop_
 _atom_site_type_symbol
 _atom_site_label
 _atom_site_symmetry_multiplicity
 _atom_site_fract_x
 _atom_site_fract_y
 _atom_site_fract_z
 _atom_site_occupancy
  Fe  Fe0  1  0.50000000  0.00000000  0.50000000  1
  Fe  Fe1  1  0.00000000  0.50000000  0.50000000  1
  Sb  Sb2  1  0.67204800  0.67204800  0.48936800  1
  Sb  Sb3  1  0.32795200  0.32795200  0.51063200  1
  Sb  Sb4  1  0.65215400  0.65215400  0.19673600  1
  Sb  Sb5  1  0.34784600  0.34784600  0.80326400  1
  Sb  Sb6  1  0.16745000  0.85268600  0.65154800  1
  Sb  Sb7  1  0.83255000  0.14731400  0.34845200  1
  Sb  Sb8  1  0.85268600  0.16745000  0.65154800  1
  Sb  Sb9  1  0.14731400  0.83255000  0.34845200  1
  Sb  Sb10  1  0.81896400  0.49352400  0.83332000  1
  Sb  Sb11  1  0.18103600  0.50647600  0.16668000  1
  Sb  Sb12  1  0.50647600  0.18103600  0.16668000  1
  Sb  Sb13  1  0.49352400  0.81896400  0.83332000  1
  Pd  Pd14  1  0.00000000  0.50000000  0.00000000  1
  Pd  Pd15  1  0.50000000  0.00000000  0.00000000  1
