# generated using pymatgen
data_Ce2In8Rh
_symmetry_space_group_name_H-M   'P 1'
_cell_length_a   4.69737700
_cell_length_b   4.69737700
_cell_length_c   12.23286500
_cell_angle_alpha   90.00000000
_cell_angle_beta   90.00000000
_cell_angle_gamma   90.00000000
_symmetry_Int_Tables_number   1
_chemical_formula_structural   Ce2In8Rh
_chemical_formula_sum   'Ce2 In8 Rh1'
_cell_volume   269.92245605
_cell_formula_units_Z   1
loop_
 _symmetry_equiv_pos_site_id
 _symmetry_equiv_pos_as_xyz
  1  'x, y, z'
loop_
 _atom_site_type_symbol
 _atom_site_label
 _atom_site_symmetry_multiplicity
 _atom_site_fract_x
 _atom_site_fract_y
 _atom_site_fract_z
 _atom_site_occupancy
  Ce  Ce0  1  0.00000000  0.00000000  0.30619600  1
  Ce  Ce1  1  0.00000000  0.00000000  0.69380400  1
  In  In2  1  0.00000000  0.50000000  0.12145000  1
  In  In3  1  0.00000000  0.50000000  0.87855000  1
  In  In4  1  0.50000000  0.00000000  0.12145000  1
  In  In5  1  0.50000000  0.00000000  0.87855000  1
  In  In6  1  0.50000000  0.50000000  0.30700400  1
  In  In7  1  0.50000000  0.50000000  0.69299600  1
  In  In8  1  0.00000000  0.50000000  0.50000000  1
  In  In9  1  0.50000000  0.00000000  0.50000000  1
  Rh  Rh10  1  0.00000000  0.00000000  0.00000000  1
