# generated using pymatgen
data_KZr6BI14
_symmetry_space_group_name_H-M   'P 1'
_cell_length_a   10.88467369
_cell_length_b   10.88467369
_cell_length_c   13.13497800
_cell_angle_alpha   90.00000000
_cell_angle_beta   90.00000000
_cell_angle_gamma   95.57567393
_symmetry_Int_Tables_number   1
_chemical_formula_structural   KZr6BI14
_chemical_formula_sum   'K2 Zr12 B2 I28'
_cell_volume   1548.81854944
_cell_formula_units_Z   2
loop_
 _symmetry_equiv_pos_site_id
 _symmetry_equiv_pos_as_xyz
  1  'x, y, z'
loop_
 _atom_site_type_symbol
 _atom_site_label
 _atom_site_symmetry_multiplicity
 _atom_site_fract_x
 _atom_site_fract_y
 _atom_site_fract_z
 _atom_site_occupancy
  K  K0  1  0.50000000  0.50000000  0.00000000  1
  K  K1  1  0.00000000  0.00000000  0.50000000  1
  Zr  Zr2  1  0.36613100  0.36613100  0.40190100  1
  Zr  Zr3  1  0.63386900  0.63386900  0.59809900  1
  Zr  Zr4  1  0.13386900  0.13386900  0.90190100  1
  Zr  Zr5  1  0.86613100  0.86613100  0.09809900  1
  Zr  Zr6  1  0.95787900  0.17065800  0.10841000  1
  Zr  Zr7  1  0.04212100  0.82934200  0.89159000  1
  Zr  Zr8  1  0.54212100  0.32934200  0.60841000  1
  Zr  Zr9  1  0.67065800  0.45787900  0.39159000  1
  Zr  Zr10  1  0.45787900  0.67065800  0.39159000  1
  Zr  Zr11  1  0.32934200  0.54212100  0.60841000  1
  Zr  Zr12  1  0.82934200  0.04212100  0.89159000  1
  Zr  Zr13  1  0.17065800  0.95787900  0.10841000  1
  B  B14  1  0.00000000  0.00000000  0.00000000  1
  B  B15  1  0.50000000  0.50000000  0.50000000  1
  I  I16  1  0.11593900  0.36580300  0.00632700  1
  I  I17  1  0.88406100  0.63419700  0.99367300  1
  I  I18  1  0.38406100  0.13419700  0.50632700  1
  I  I19  1  0.86580300  0.61593900  0.49367300  1
  I  I20  1  0.61593900  0.86580300  0.49367300  1
  I  I21  1  0.13419700  0.38406100  0.50632700  1
  I  I22  1  0.63419700  0.88406100  0.99367300  1
  I  I23  1  0.36580300  0.11593900  0.00632700  1
  I  I24  1  0.74925600  0.25074400  0.00000000  1
  I  I25  1  0.25074400  0.74925600  0.00000000  1
  I  I26  1  0.75074400  0.24925600  0.50000000  1
  I  I27  1  0.24925600  0.75074400  0.50000000  1
  I  I28  1  0.90041300  0.40041300  0.25000000  1
  I  I29  1  0.09958700  0.59958700  0.75000000  1
  I  I30  1  0.59958700  0.09958700  0.75000000  1
  I  I31  1  0.40041300  0.90041300  0.25000000  1
  I  I32  1  0.15635100  0.15635100  0.26055800  1
  I  I33  1  0.84364900  0.84364900  0.73944200  1
  I  I34  1  0.34364900  0.34364900  0.76055800  1
  I  I35  1  0.65635100  0.65635100  0.23944200  1
  I  I36  1  0.28704600  0.53547700  0.25100700  1
  I  I37  1  0.71295400  0.46452300  0.74899300  1
  I  I38  1  0.21295400  0.96452300  0.75100700  1
  I  I39  1  0.03547700  0.78704600  0.24899300  1
  I  I40  1  0.78704600  0.03547700  0.24899300  1
  I  I41  1  0.96452300  0.21295400  0.75100700  1
  I  I42  1  0.46452300  0.71295400  0.74899300  1
  I  I43  1  0.53547700  0.28704600  0.25100700  1
