# generated using pymatgen
data_CrH10N2Cl5O
_symmetry_space_group_name_H-M   'P 1'
_cell_length_a   7.22290100
_cell_length_b   9.91615200
_cell_length_c   14.04787200
_cell_angle_alpha   90.00000000
_cell_angle_beta   90.00000000
_cell_angle_gamma   90.00000000
_symmetry_Int_Tables_number   1
_chemical_formula_structural   CrH10N2Cl5O
_chemical_formula_sum   'Cr4 H40 N8 Cl20 O4'
_cell_volume   1006.15613341
_cell_formula_units_Z   4
loop_
 _symmetry_equiv_pos_site_id
 _symmetry_equiv_pos_as_xyz
  1  'x, y, z'
loop_
 _atom_site_type_symbol
 _atom_site_label
 _atom_site_symmetry_multiplicity
 _atom_site_fract_x
 _atom_site_fract_y
 _atom_site_fract_z
 _atom_site_occupancy
  Cr  Cr0  1  0.80822500  0.75000000  0.11187400  1
  Cr  Cr1  1  0.69177500  0.75000000  0.61187400  1
  Cr  Cr2  1  0.19177500  0.25000000  0.88812600  1
  Cr  Cr3  1  0.30822500  0.25000000  0.38812600  1
  H  H4  1  0.03935000  0.83145700  0.96941300  1
  H  H5  1  0.46065000  0.66854300  0.46941300  1
  H  H6  1  0.96065000  0.33145700  0.03058700  1
  H  H7  1  0.53935000  0.16854300  0.53058700  1
  H  H8  1  0.96065000  0.16854300  0.03058700  1
  H  H9  1  0.53935000  0.33145700  0.53058700  1
  H  H10  1  0.03935000  0.66854300  0.96941300  1
  H  H11  1  0.46065000  0.83145700  0.46941300  1
  H  H12  1  0.21640900  0.54759800  0.16340900  1
  H  H13  1  0.28359100  0.95240200  0.66340900  1
  H  H14  1  0.78359100  0.04759800  0.83659100  1
  H  H15  1  0.71640900  0.45240200  0.33659100  1
  H  H16  1  0.78359100  0.45240200  0.83659100  1
  H  H17  1  0.71640900  0.04759800  0.33659100  1
  H  H18  1  0.21640900  0.95240200  0.16340900  1
  H  H19  1  0.28359100  0.54759800  0.66340900  1
  H  H20  1  0.33033400  0.48166300  0.06848700  1
  H  H21  1  0.16966600  0.01833700  0.56848700  1
  H  H22  1  0.66966600  0.98166300  0.93151300  1
  H  H23  1  0.83033400  0.51833700  0.43151300  1
  H  H24  1  0.66966600  0.51833700  0.93151300  1
  H  H25  1  0.83033400  0.98166300  0.43151300  1
  H  H26  1  0.33033400  0.01833700  0.06848700  1
  H  H27  1  0.16966600  0.48166300  0.56848700  1
  H  H28  1  0.35327800  0.41057400  0.17672100  1
  H  H29  1  0.14672200  0.08942600  0.67672100  1
  H  H30  1  0.64672200  0.91057400  0.82327900  1
  H  H31  1  0.85327800  0.58942600  0.32327900  1
  H  H32  1  0.64672200  0.58942600  0.82327900  1
  H  H33  1  0.85327800  0.91057400  0.32327900  1
  H  H34  1  0.35327800  0.08942600  0.17672100  1
  H  H35  1  0.14672200  0.41057400  0.67672100  1
  H  H36  1  0.44690100  0.56358900  0.15513900  1
  H  H37  1  0.05309900  0.93641100  0.65513900  1
  H  H38  1  0.55309900  0.06358900  0.84486100  1
  H  H39  1  0.94690100  0.43641100  0.34486100  1
  H  H40  1  0.55309900  0.43641100  0.84486100  1
  H  H41  1  0.94690100  0.06358900  0.34486100  1
  H  H42  1  0.44690100  0.93641100  0.15513900  1
  H  H43  1  0.05309900  0.56358900  0.65513900  1
  N  N44  1  0.33675000  0.50050100  0.14097500  1
  N  N45  1  0.16325000  0.99949900  0.64097500  1
  N  N46  1  0.66325000  0.00050100  0.85902500  1
  N  N47  1  0.83675000  0.49949900  0.35902500  1
  N  N48  1  0.66325000  0.49949900  0.85902500  1
  N  N49  1  0.83675000  0.00050100  0.35902500  1
  N  N50  1  0.33675000  0.99949900  0.14097500  1
  N  N51  1  0.16325000  0.50050100  0.64097500  1
  Cl  Cl52  1  0.81946000  0.51040600  0.10443700  1
  Cl  Cl53  1  0.68054000  0.98959400  0.60443700  1
  Cl  Cl54  1  0.18054000  0.01040600  0.89556300  1
  Cl  Cl55  1  0.31946000  0.48959400  0.39556300  1
  Cl  Cl56  1  0.18054000  0.48959400  0.89556300  1
  Cl  Cl57  1  0.31946000  0.01040600  0.39556300  1
  Cl  Cl58  1  0.81946000  0.98959400  0.10443700  1
  Cl  Cl59  1  0.68054000  0.51040600  0.60443700  1
  Cl  Cl60  1  0.06591300  0.75000000  0.21815700  1
  Cl  Cl61  1  0.43408700  0.75000000  0.71815700  1
  Cl  Cl62  1  0.93408700  0.25000000  0.78184300  1
  Cl  Cl63  1  0.56591300  0.25000000  0.28184300  1
  Cl  Cl64  1  0.60711900  0.75000000  0.24381200  1
  Cl  Cl65  1  0.89288100  0.75000000  0.74381200  1
  Cl  Cl66  1  0.39288100  0.25000000  0.75618800  1
  Cl  Cl67  1  0.10711900  0.25000000  0.25618800  1
  Cl  Cl68  1  0.54936800  0.75000000  0.00820900  1
  Cl  Cl69  1  0.95063200  0.75000000  0.50820900  1
  Cl  Cl70  1  0.45063200  0.25000000  0.99179100  1
  Cl  Cl71  1  0.04936800  0.25000000  0.49179100  1
  O  O72  1  0.98288500  0.75000000  0.99663100  1
  O  O73  1  0.51711500  0.75000000  0.49663100  1
  O  O74  1  0.01711500  0.25000000  0.00336900  1
  O  O75  1  0.48288400  0.25000000  0.50336900  1
