# generated using pymatgen
data_HgP2PdO7
_symmetry_space_group_name_H-M   'P 1'
_cell_length_a   7.62888711
_cell_length_b   7.62888711
_cell_length_c   8.96527662
_cell_angle_alpha   79.71654764
_cell_angle_beta   79.71654764
_cell_angle_gamma   38.04862029
_symmetry_Int_Tables_number   1
_chemical_formula_structural   HgP2PdO7
_chemical_formula_sum   'Hg2 P4 Pd2 O14'
_cell_volume   315.80208303
_cell_formula_units_Z   2
loop_
 _symmetry_equiv_pos_site_id
 _symmetry_equiv_pos_as_xyz
  1  'x, y, z'
loop_
 _atom_site_type_symbol
 _atom_site_label
 _atom_site_symmetry_multiplicity
 _atom_site_fract_x
 _atom_site_fract_y
 _atom_site_fract_z
 _atom_site_occupancy
  Hg  Hg0  1  0.50000000  0.00000000  0.00000000  1
  Hg  Hg1  1  0.00000000  0.50000000  0.50000000  1
  P  P2  1  0.73422900  0.46738100  0.22552600  1
  P  P3  1  0.53261900  0.26577100  0.27447400  1
  P  P4  1  0.26577100  0.53261900  0.77447400  1
  P  P5  1  0.46738100  0.73422900  0.72552600  1
  Pd  Pd6  1  0.00000000  0.00000000  0.00000000  1
  Pd  Pd7  1  0.00000000  0.00000000  0.50000000  1
  O  O8  1  0.92779000  0.28554200  0.08830600  1
  O  O9  1  0.71445800  0.07221000  0.41169400  1
  O  O10  1  0.07221000  0.71445800  0.91169400  1
  O  O11  1  0.28554200  0.92779000  0.58830600  1
  O  O12  1  0.47636100  0.52363900  0.25000000  1
  O  O13  1  0.52363900  0.47636100  0.75000000  1
  O  O14  1  0.40285000  0.24032300  0.79509700  1
  O  O15  1  0.75967700  0.59715000  0.70490300  1
  O  O16  1  0.59715000  0.75967700  0.20490300  1
  O  O17  1  0.24032300  0.40285000  0.29509700  1
  O  O18  1  0.66864900  0.12269100  0.12176900  1
  O  O19  1  0.87730900  0.33135100  0.37823100  1
  O  O20  1  0.33135100  0.87730900  0.87823100  1
  O  O21  1  0.12269100  0.66864900  0.62176900  1
