# generated using pymatgen
data_CsMgPO4
_symmetry_space_group_name_H-M   'P 1'
_cell_length_a   5.59356800
_cell_length_b   9.06120200
_cell_length_c   9.89958600
_cell_angle_alpha   90.00000000
_cell_angle_beta   90.00000000
_cell_angle_gamma   90.00000000
_symmetry_Int_Tables_number   1
_chemical_formula_structural   CsMgPO4
_chemical_formula_sum   'Cs4 Mg4 P4 O16'
_cell_volume   501.75506717
_cell_formula_units_Z   4
loop_
 _symmetry_equiv_pos_site_id
 _symmetry_equiv_pos_as_xyz
  1  'x, y, z'
loop_
 _atom_site_type_symbol
 _atom_site_label
 _atom_site_symmetry_multiplicity
 _atom_site_fract_x
 _atom_site_fract_y
 _atom_site_fract_z
 _atom_site_occupancy
  Cs  Cs0  1  0.25000000  0.99812500  0.19548700  1
  Cs  Cs1  1  0.75000000  0.00187500  0.80451300  1
  Cs  Cs2  1  0.25000000  0.49812500  0.30451300  1
  Cs  Cs3  1  0.75000000  0.50187500  0.69548700  1
  Mg  Mg4  1  0.25000000  0.32322000  0.91872900  1
  Mg  Mg5  1  0.75000000  0.67678000  0.08127100  1
  Mg  Mg6  1  0.75000000  0.17678000  0.41872900  1
  Mg  Mg7  1  0.25000000  0.82322000  0.58127100  1
  P  P8  1  0.25000000  0.70545300  0.91503600  1
  P  P9  1  0.25000000  0.20545300  0.58496400  1
  P  P10  1  0.75000000  0.29454700  0.08496400  1
  P  P11  1  0.75000000  0.79454700  0.41503600  1
  O  O12  1  0.25000000  0.53543600  0.91481600  1
  O  O13  1  0.75000000  0.46456400  0.08518400  1
  O  O14  1  0.25000000  0.03543600  0.58518400  1
  O  O15  1  0.75000000  0.96456400  0.41481600  1
  O  O16  1  0.97552300  0.23521700  0.01044800  1
  O  O17  1  0.47552300  0.76478300  0.98955200  1
  O  O18  1  0.52447700  0.73521700  0.48955200  1
  O  O19  1  0.02447700  0.26478300  0.51044800  1
  O  O20  1  0.02447700  0.76478300  0.98955200  1
  O  O21  1  0.52447700  0.23521700  0.01044800  1
  O  O22  1  0.47552300  0.26478300  0.51044800  1
  O  O23  1  0.97552300  0.73521700  0.48955200  1
  O  O24  1  0.75000000  0.73619000  0.26847500  1
  O  O25  1  0.25000000  0.26381000  0.73152500  1
  O  O26  1  0.75000000  0.23619000  0.23152500  1
  O  O27  1  0.25000000  0.76381000  0.76847500  1
