# generated using pymatgen
data_CrBO3
_symmetry_space_group_name_H-M   'P 1'
_cell_length_a   5.55272047
_cell_length_b   5.55272071
_cell_length_c   5.55272012
_cell_angle_alpha   49.47973952
_cell_angle_beta   49.47973370
_cell_angle_gamma   49.47973701
_symmetry_Int_Tables_number   1
_chemical_formula_structural   CrBO3
_chemical_formula_sum   'Cr2 B2 O6'
_cell_volume   90.93834153
_cell_formula_units_Z   2
loop_
 _symmetry_equiv_pos_site_id
 _symmetry_equiv_pos_as_xyz
  1  'x, y, z'
loop_
 _atom_site_type_symbol
 _atom_site_label
 _atom_site_symmetry_multiplicity
 _atom_site_fract_x
 _atom_site_fract_y
 _atom_site_fract_z
 _atom_site_occupancy
  Cr  Cr0  1  0.50000000  0.50000000  0.50000000  1
  Cr  Cr1  1  0.00000000  0.00000000  0.00000000  1
  B  B2  1  0.75000000  0.75000000  0.75000000  1
  B  B3  1  0.25000000  0.25000000  0.25000000  1
  O  O4  1  0.45200900  0.04799100  0.75000000  1
  O  O5  1  0.75000000  0.45200900  0.04799100  1
  O  O6  1  0.95200900  0.25000000  0.54799100  1
  O  O7  1  0.54799100  0.95200900  0.25000000  1
  O  O8  1  0.25000000  0.54799100  0.95200900  1
  O  O9  1  0.04799100  0.75000000  0.45200900  1
