# generated using pymatgen
data_RbFe2F6
_symmetry_space_group_name_H-M   'P 1'
_cell_length_a   7.13761900
_cell_length_b   7.57743700
_cell_length_c   10.33528900
_cell_angle_alpha   90.00000000
_cell_angle_beta   90.00000000
_cell_angle_gamma   90.00000000
_symmetry_Int_Tables_number   1
_chemical_formula_structural   RbFe2F6
_chemical_formula_sum   'Rb4 Fe8 F24'
_cell_volume   558.98264108
_cell_formula_units_Z   4
loop_
 _symmetry_equiv_pos_site_id
 _symmetry_equiv_pos_as_xyz
  1  'x, y, z'
loop_
 _atom_site_type_symbol
 _atom_site_label
 _atom_site_symmetry_multiplicity
 _atom_site_fract_x
 _atom_site_fract_y
 _atom_site_fract_z
 _atom_site_occupancy
  Rb  Rb0  1  0.49229800  0.25000000  0.12181300  1
  Rb  Rb1  1  0.99229800  0.25000000  0.37818700  1
  Rb  Rb2  1  0.50770200  0.75000000  0.87818700  1
  Rb  Rb3  1  0.00770200  0.75000000  0.62181300  1
  Fe  Fe4  1  0.29717900  0.25000000  0.76830500  1
  Fe  Fe5  1  0.79717900  0.25000000  0.73169500  1
  Fe  Fe6  1  0.70282100  0.75000000  0.23169500  1
  Fe  Fe7  1  0.20282100  0.75000000  0.26830500  1
  Fe  Fe8  1  0.00000000  0.00000000  0.00000000  1
  Fe  Fe9  1  0.50000000  0.50000000  0.50000000  1
  Fe  Fe10  1  0.00000000  0.50000000  0.00000000  1
  Fe  Fe11  1  0.50000000  0.00000000  0.50000000  1
  F  F12  1  0.23818800  0.06297800  0.91917800  1
  F  F13  1  0.73818800  0.43702200  0.58082200  1
  F  F14  1  0.76181200  0.56297800  0.08082200  1
  F  F15  1  0.26181200  0.93702200  0.41917800  1
  F  F16  1  0.76181200  0.93702200  0.08082200  1
  F  F17  1  0.26181200  0.56297800  0.41917800  1
  F  F18  1  0.23818800  0.43702200  0.91917800  1
  F  F19  1  0.73818800  0.06297800  0.58082200  1
  F  F20  1  0.87330900  0.00947400  0.83300800  1
  F  F21  1  0.37330900  0.49052600  0.66699200  1
  F  F22  1  0.12669100  0.50947400  0.16699200  1
  F  F23  1  0.62669100  0.99052600  0.33300800  1
  F  F24  1  0.12669100  0.99052600  0.16699200  1
  F  F25  1  0.62669100  0.50947400  0.33300800  1
  F  F26  1  0.87330900  0.49052600  0.83300800  1
  F  F27  1  0.37330900  0.00947400  0.66699200  1
  F  F28  1  0.93374200  0.25000000  0.03601900  1
  F  F29  1  0.43374200  0.25000000  0.46398100  1
  F  F30  1  0.06625800  0.75000000  0.96398100  1
  F  F31  1  0.56625800  0.75000000  0.53601900  1
  F  F32  1  0.06412300  0.25000000  0.66010500  1
  F  F33  1  0.56412300  0.25000000  0.83989500  1
  F  F34  1  0.93587700  0.75000000  0.33989500  1
  F  F35  1  0.43587700  0.75000000  0.16010500  1
