# generated using pymatgen
data_Rb2Mn2(SO4)3
_symmetry_space_group_name_H-M   'P 1'
_cell_length_a   10.35746200
_cell_length_b   10.35746200
_cell_length_c   10.35746200
_cell_angle_alpha   90.00000000
_cell_angle_beta   90.00000000
_cell_angle_gamma   90.00000000
_symmetry_Int_Tables_number   1
_chemical_formula_structural   Rb2Mn2(SO4)3
_chemical_formula_sum   'Rb8 Mn8 S12 O48'
_cell_volume   1111.11764861
_cell_formula_units_Z   4
loop_
 _symmetry_equiv_pos_site_id
 _symmetry_equiv_pos_as_xyz
  1  'x, y, z'
loop_
 _atom_site_type_symbol
 _atom_site_label
 _atom_site_symmetry_multiplicity
 _atom_site_fract_x
 _atom_site_fract_y
 _atom_site_fract_z
 _atom_site_occupancy
  Rb  Rb0  1  0.79927500  0.70072500  0.29927500  1
  Rb  Rb1  1  0.70072500  0.29927500  0.79927500  1
  Rb  Rb2  1  0.29927500  0.79927500  0.70072500  1
  Rb  Rb3  1  0.20072500  0.20072500  0.20072500  1
  Rb  Rb4  1  0.43393300  0.43393300  0.43393300  1
  Rb  Rb5  1  0.93393300  0.06606700  0.56606700  1
  Rb  Rb6  1  0.06606700  0.56606700  0.93393300  1
  Rb  Rb7  1  0.56606700  0.93393300  0.06606700  1
  Mn  Mn8  1  0.91482600  0.91482600  0.91482600  1
  Mn  Mn9  1  0.58517400  0.08517400  0.41482600  1
  Mn  Mn10  1  0.08517400  0.41482600  0.58517400  1
  Mn  Mn11  1  0.41482600  0.58517400  0.08517400  1
  Mn  Mn12  1  0.65427000  0.65427000  0.65427000  1
  Mn  Mn13  1  0.15427000  0.84573000  0.34573000  1
  Mn  Mn14  1  0.84573000  0.34573000  0.15427000  1
  Mn  Mn15  1  0.34573000  0.15427000  0.84573000  1
  S  S16  1  0.62603800  0.96801800  0.73150600  1
  S  S17  1  0.12603800  0.53198200  0.26849400  1
  S  S18  1  0.37396200  0.46801800  0.76849400  1
  S  S19  1  0.53198200  0.26849400  0.12603800  1
  S  S20  1  0.76849400  0.37396200  0.46801800  1
  S  S21  1  0.26849400  0.12603800  0.53198200  1
  S  S22  1  0.96801800  0.73150600  0.62603800  1
  S  S23  1  0.73150600  0.62603800  0.96801800  1
  S  S24  1  0.46801800  0.76849400  0.37396200  1
  S  S25  1  0.03198200  0.23150600  0.87396200  1
  S  S26  1  0.23150600  0.87396200  0.03198200  1
  S  S27  1  0.87396200  0.03198200  0.23150600  1
  O  O28  1  0.65141800  0.00263900  0.59477300  1
  O  O29  1  0.15141800  0.49736100  0.40522700  1
  O  O30  1  0.34858200  0.50263900  0.90522700  1
  O  O31  1  0.49736100  0.40522700  0.15141800  1
  O  O32  1  0.90522700  0.34858200  0.50263900  1
  O  O33  1  0.40522700  0.15141800  0.49736100  1
  O  O34  1  0.00263900  0.59477300  0.65141800  1
  O  O35  1  0.59477300  0.65141800  0.00263900  1
  O  O36  1  0.50263900  0.90522700  0.34858200  1
  O  O37  1  0.99736100  0.09477300  0.84858200  1
  O  O38  1  0.09477300  0.84858200  0.99736100  1
  O  O39  1  0.84858200  0.99736100  0.09477300  1
  O  O40  1  0.58220600  0.83084900  0.74180200  1
  O  O41  1  0.08220600  0.66915100  0.25819800  1
  O  O42  1  0.41779400  0.33084900  0.75819800  1
  O  O43  1  0.66915100  0.25819800  0.08220600  1
  O  O44  1  0.75819800  0.41779400  0.33084900  1
  O  O45  1  0.25819800  0.08220600  0.66915100  1
  O  O46  1  0.71129100  0.47492900  0.55293400  1
  O  O47  1  0.83084900  0.74180200  0.58220600  1
  O  O48  1  0.33084900  0.75819800  0.41779400  1
  O  O49  1  0.16915100  0.24180200  0.91779400  1
  O  O50  1  0.24180200  0.91779400  0.16915100  1
  O  O51  1  0.91779400  0.16915100  0.24180200  1
  O  O52  1  0.52507100  0.05293400  0.78870900  1
  O  O53  1  0.02507100  0.44706600  0.21129100  1
  O  O54  1  0.47492900  0.55293400  0.71129100  1
  O  O55  1  0.44706600  0.21129100  0.02507100  1
  O  O56  1  0.75246700  0.01213700  0.30673600  1
  O  O57  1  0.30673600  0.75246700  0.01213700  1
  O  O58  1  0.01213700  0.30673600  0.75246700  1
  O  O59  1  0.48786300  0.69326400  0.25246700  1
  O  O60  1  0.80673600  0.74753300  0.98786300  1
  O  O61  1  0.98786300  0.80673600  0.74753300  1
  O  O62  1  0.19326400  0.24753300  0.51213700  1
  O  O63  1  0.69326400  0.25246700  0.48786300  1
  O  O64  1  0.51213700  0.19326400  0.24753300  1
  O  O65  1  0.25246700  0.48786300  0.69326400  1
  O  O66  1  0.24753300  0.51213700  0.19326400  1
  O  O67  1  0.74753300  0.98786300  0.80673600  1
  O  O68  1  0.97492900  0.94706600  0.28870900  1
  O  O69  1  0.28870900  0.97492900  0.94706600  1
  O  O70  1  0.94706600  0.28870900  0.97492900  1
  O  O71  1  0.55293400  0.71129100  0.47492900  1
  O  O72  1  0.78870900  0.52507100  0.05293400  1
  O  O73  1  0.05293400  0.78870900  0.52507100  1
  O  O74  1  0.21129100  0.02507100  0.44706600  1
  O  O75  1  0.74180200  0.58220600  0.83084900  1
