# generated using pymatgen
data_Y3Rh2
_symmetry_space_group_name_H-M   'P 1'
_cell_length_a   15.00419984
_cell_length_b   15.00419984
_cell_length_c   15.00419984
_cell_angle_alpha   135.68237401
_cell_angle_beta   135.68237401
_cell_angle_gamma   64.47177404
_symmetry_Int_Tables_number   1
_chemical_formula_structural   Y3Rh2
_chemical_formula_sum   'Y42 Rh28'
_cell_volume   1625.85832740
_cell_formula_units_Z   14
loop_
 _symmetry_equiv_pos_site_id
 _symmetry_equiv_pos_as_xyz
  1  'x, y, z'
loop_
 _atom_site_type_symbol
 _atom_site_label
 _atom_site_symmetry_multiplicity
 _atom_site_fract_x
 _atom_site_fract_y
 _atom_site_fract_z
 _atom_site_occupancy
  Y  Y0  1  0.25000000  0.75000000  0.50000000  1
  Y  Y1  1  0.75000000  0.25000000  0.50000000  1
  Y  Y2  1  0.38794700  0.88794700  0.50000000  1
  Y  Y3  1  0.88794700  0.38794700  0.50000000  1
  Y  Y4  1  0.61205300  0.11205300  0.50000000  1
  Y  Y5  1  0.11205300  0.61205300  0.50000000  1
  Y  Y6  1  0.84956900  0.34956900  0.19913900  1
  Y  Y7  1  0.15043100  0.65043100  0.80086100  1
  Y  Y8  1  0.34956900  0.15043100  0.50000000  1
  Y  Y9  1  0.65043100  0.84956900  0.50000000  1
  Y  Y10  1  0.38653400  0.51722300  0.29015900  1
  Y  Y11  1  0.22706400  0.09637500  0.70984100  1
  Y  Y12  1  0.88653400  0.59637500  0.86931200  1
  Y  Y13  1  0.72706400  0.01722300  0.13068800  1
  Y  Y14  1  0.09637500  0.38653400  0.86931200  1
  Y  Y15  1  0.51722300  0.22706400  0.13068800  1
  Y  Y16  1  0.01722300  0.88653400  0.29015900  1
  Y  Y17  1  0.59637500  0.72706400  0.70984100  1
  Y  Y18  1  0.61346600  0.48277700  0.70984100  1
  Y  Y19  1  0.77293600  0.90362500  0.29015900  1
  Y  Y20  1  0.11346600  0.40362500  0.13068800  1
  Y  Y21  1  0.27293600  0.98277700  0.86931200  1
  Y  Y22  1  0.90362500  0.61346600  0.13068800  1
  Y  Y23  1  0.48277700  0.77293600  0.86931200  1
  Y  Y24  1  0.98277700  0.11346600  0.70984100  1
  Y  Y25  1  0.40362500  0.27293600  0.29015900  1
  Y  Y26  1  0.63235800  0.50448900  0.27945800  1
  Y  Y27  1  0.22503100  0.35290000  0.72054200  1
  Y  Y28  1  0.13235800  0.85290000  0.12786900  1
  Y  Y29  1  0.72503100  0.00448900  0.87213100  1
  Y  Y30  1  0.35290000  0.63235800  0.12786900  1
  Y  Y31  1  0.50448900  0.22503100  0.87213100  1
  Y  Y32  1  0.00448900  0.13235800  0.27945800  1
  Y  Y33  1  0.85290000  0.72503100  0.72054200  1
  Y  Y34  1  0.36764200  0.49551100  0.72054200  1
  Y  Y35  1  0.77496900  0.64710000  0.27945800  1
  Y  Y36  1  0.86764200  0.14710000  0.87213100  1
  Y  Y37  1  0.27496900  0.99551100  0.12786900  1
  Y  Y38  1  0.64710000  0.36764200  0.87213100  1
  Y  Y39  1  0.49551100  0.77496900  0.12786900  1
  Y  Y40  1  0.99551100  0.86764200  0.72054200  1
  Y  Y41  1  0.14710000  0.27496900  0.27945800  1
  Rh  Rh42  1  0.25000000  0.25000000  0.00000000  1
  Rh  Rh43  1  0.75000000  0.75000000  0.00000000  1
  Rh  Rh44  1  0.50000000  0.50000000  0.00000000  1
  Rh  Rh45  1  0.00000000  0.00000000  0.00000000  1
  Rh  Rh46  1  0.36643100  0.36643100  0.00000000  1
  Rh  Rh47  1  0.86643100  0.86643100  0.00000000  1
  Rh  Rh48  1  0.63356900  0.63356900  0.00000000  1
  Rh  Rh49  1  0.13356900  0.13356900  0.00000000  1
  Rh  Rh50  1  0.59630500  0.09630500  0.69260900  1
  Rh  Rh51  1  0.40369500  0.90369500  0.30739100  1
  Rh  Rh52  1  0.09630500  0.40369500  0.50000000  1
  Rh  Rh53  1  0.90369500  0.59630500  0.50000000  1
  Rh  Rh54  1  0.46602600  0.96602600  0.80950400  1
  Rh  Rh55  1  0.15652200  0.65652200  0.19049600  1
  Rh  Rh56  1  0.96602600  0.15652200  0.50000000  1
  Rh  Rh57  1  0.65652200  0.46602600  0.50000000  1
  Rh  Rh58  1  0.53397400  0.03397400  0.19049600  1
  Rh  Rh59  1  0.84347800  0.34347800  0.80950400  1
  Rh  Rh60  1  0.03397400  0.84347800  0.50000000  1
  Rh  Rh61  1  0.34347800  0.53397400  0.50000000  1
  Rh  Rh62  1  0.71455900  0.21455900  0.14168900  1
  Rh  Rh63  1  0.07286900  0.57286900  0.85831100  1
  Rh  Rh64  1  0.21455900  0.07286900  0.50000000  1
  Rh  Rh65  1  0.57286900  0.71455900  0.50000000  1
  Rh  Rh66  1  0.28544100  0.78544100  0.85831100  1
  Rh  Rh67  1  0.92713100  0.42713100  0.14168900  1
  Rh  Rh68  1  0.78544100  0.92713100  0.50000000  1
  Rh  Rh69  1  0.42713100  0.28544100  0.50000000  1
