# generated using pymatgen
data_Na4Zn3Se5
_symmetry_space_group_name_H-M   'P 1'
_cell_length_a   4.13433100
_cell_length_b   13.78183500
_cell_length_c   19.68580400
_cell_angle_alpha   90.00000000
_cell_angle_beta   90.00000000
_cell_angle_gamma   90.00000000
_symmetry_Int_Tables_number   1
_chemical_formula_structural   Na4Zn3Se5
_chemical_formula_sum   'Na16 Zn12 Se20'
_cell_volume   1121.67088408
_cell_formula_units_Z   4
loop_
 _symmetry_equiv_pos_site_id
 _symmetry_equiv_pos_as_xyz
  1  'x, y, z'
loop_
 _atom_site_type_symbol
 _atom_site_label
 _atom_site_symmetry_multiplicity
 _atom_site_fract_x
 _atom_site_fract_y
 _atom_site_fract_z
 _atom_site_occupancy
  Na  Na0  1  0.25000000  0.99894400  0.76719300  1
  Na  Na1  1  0.25000000  0.49894400  0.73280700  1
  Na  Na2  1  0.75000000  0.00105600  0.23280700  1
  Na  Na3  1  0.75000000  0.50105600  0.26719300  1
  Na  Na4  1  0.25000000  0.00718900  0.41722300  1
  Na  Na5  1  0.25000000  0.50718900  0.08277700  1
  Na  Na6  1  0.75000000  0.99281100  0.58277700  1
  Na  Na7  1  0.75000000  0.49281100  0.91722300  1
  Na  Na8  1  0.25000000  0.11107000  0.95028300  1
  Na  Na9  1  0.25000000  0.61107000  0.54971700  1
  Na  Na10  1  0.75000000  0.88893000  0.04971700  1
  Na  Na11  1  0.75000000  0.38893000  0.45028300  1
  Na  Na12  1  0.25000000  0.27339100  0.83284600  1
  Na  Na13  1  0.25000000  0.77339100  0.66715400  1
  Na  Na14  1  0.75000000  0.72660900  0.16715400  1
  Na  Na15  1  0.75000000  0.22660900  0.33284600  1
  Zn  Zn16  1  0.25000000  0.20867100  0.53968200  1
  Zn  Zn17  1  0.25000000  0.70867100  0.96031800  1
  Zn  Zn18  1  0.75000000  0.79132900  0.46031800  1
  Zn  Zn19  1  0.75000000  0.29132900  0.03968200  1
  Zn  Zn20  1  0.25000000  0.31902800  0.21730700  1
  Zn  Zn21  1  0.25000000  0.81902800  0.28269300  1
  Zn  Zn22  1  0.75000000  0.68097200  0.78269300  1
  Zn  Zn23  1  0.75000000  0.18097200  0.71730700  1
  Zn  Zn24  1  0.25000000  0.57513800  0.36880700  1
  Zn  Zn25  1  0.25000000  0.07513800  0.13119300  1
  Zn  Zn26  1  0.75000000  0.42486200  0.63119300  1
  Zn  Zn27  1  0.75000000  0.92486200  0.86880700  1
  Se  Se28  1  0.25000000  0.12442200  0.65311300  1
  Se  Se29  1  0.25000000  0.62442200  0.84688700  1
  Se  Se30  1  0.75000000  0.87557800  0.34688700  1
  Se  Se31  1  0.75000000  0.37557800  0.15311300  1
  Se  Se32  1  0.25000000  0.14656000  0.24661200  1
  Se  Se33  1  0.25000000  0.64656000  0.25338800  1
  Se  Se34  1  0.75000000  0.85344000  0.75338800  1
  Se  Se35  1  0.75000000  0.35344000  0.74661200  1
  Se  Se36  1  0.25000000  0.34424800  0.97556800  1
  Se  Se37  1  0.25000000  0.84424800  0.52443200  1
  Se  Se38  1  0.75000000  0.65575200  0.02443200  1
  Se  Se39  1  0.75000000  0.15575200  0.47556800  1
  Se  Se40  1  0.25000000  0.39068200  0.34029100  1
  Se  Se41  1  0.25000000  0.89068200  0.15970900  1
  Se  Se42  1  0.75000000  0.60931800  0.65970900  1
  Se  Se43  1  0.75000000  0.10931800  0.84029100  1
  Se  Se44  1  0.25000000  0.38867300  0.56226800  1
  Se  Se45  1  0.25000000  0.88867300  0.93773200  1
  Se  Se46  1  0.75000000  0.61132700  0.43773200  1
  Se  Se47  1  0.75000000  0.11132700  0.06226800  1
