# generated using pymatgen
data_Sr3(GeAs2)2
_symmetry_space_group_name_H-M   'P 1'
_cell_length_a   18.76899800
_cell_length_b   7.55979600
_cell_length_c   7.71029594
_cell_angle_alpha   68.12487539
_cell_angle_beta   90.00000000
_cell_angle_gamma   90.00000000
_symmetry_Int_Tables_number   1
_chemical_formula_structural   Sr3(GeAs2)2
_chemical_formula_sum   'Sr12 Ge8 As16'
_cell_volume   1015.24135498
_cell_formula_units_Z   4
loop_
 _symmetry_equiv_pos_site_id
 _symmetry_equiv_pos_as_xyz
  1  'x, y, z'
loop_
 _atom_site_type_symbol
 _atom_site_label
 _atom_site_symmetry_multiplicity
 _atom_site_fract_x
 _atom_site_fract_y
 _atom_site_fract_z
 _atom_site_occupancy
  Sr  Sr0  1  0.31545500  0.01256700  0.78210000  1
  Sr  Sr1  1  0.81545500  0.48743300  0.21790000  1
  Sr  Sr2  1  0.68454500  0.98743300  0.21790000  1
  Sr  Sr3  1  0.18454500  0.51256700  0.78210000  1
  Sr  Sr4  1  0.43977000  0.99768200  0.26085200  1
  Sr  Sr5  1  0.93977000  0.50231800  0.73914800  1
  Sr  Sr6  1  0.56023000  0.00231800  0.73914800  1
  Sr  Sr7  1  0.06023000  0.49768200  0.26085200  1
  Sr  Sr8  1  0.43866100  0.51158700  0.74485000  1
  Sr  Sr9  1  0.93866100  0.98841300  0.25515000  1
  Sr  Sr10  1  0.56133900  0.48841300  0.25515000  1
  Sr  Sr11  1  0.06133900  0.01158700  0.74485000  1
  Ge  Ge12  1  0.37147100  0.47201000  0.21250600  1
  Ge  Ge13  1  0.87147100  0.02799000  0.78749400  1
  Ge  Ge14  1  0.12852900  0.97201000  0.21250600  1
  Ge  Ge15  1  0.62852900  0.52799000  0.78749400  1
  Ge  Ge16  1  0.24034400  0.08539000  0.31476400  1
  Ge  Ge17  1  0.74034400  0.41461000  0.68523600  1
  Ge  Ge18  1  0.75965600  0.91461000  0.68523600  1
  Ge  Ge19  1  0.25965600  0.58539000  0.31476400  1
  As  As20  1  0.18594300  0.78087800  0.04045200  1
  As  As21  1  0.68594300  0.71912200  0.95954800  1
  As  As22  1  0.81405700  0.21912200  0.95954800  1
  As  As23  1  0.31405700  0.28087800  0.04045200  1
  As  As24  1  0.06067000  0.24784000  0.00795800  1
  As  As25  1  0.56067000  0.25216000  0.99204200  1
  As  As26  1  0.93933000  0.75216000  0.99204200  1
  As  As27  1  0.43933000  0.74784000  0.00795800  1
  As  As28  1  0.06787400  0.75861700  0.49684300  1
  As  As29  1  0.56787400  0.74138300  0.50315700  1
  As  As30  1  0.43212600  0.25861700  0.49684300  1
  As  As31  1  0.93212600  0.24138300  0.50315700  1
  As  As32  1  0.19811500  0.27643300  0.50220200  1
  As  As33  1  0.69811500  0.22356700  0.49779800  1
  As  As34  1  0.80188500  0.72356700  0.49779800  1
  As  As35  1  0.30188500  0.77643300  0.50220200  1
