# generated using pymatgen
data_Er6Ni20P13
_symmetry_space_group_name_H-M   'P 1'
_cell_length_a   12.63669398
_cell_length_b   12.63669398
_cell_length_c   3.72870500
_cell_angle_alpha   90.00000000
_cell_angle_beta   90.00000000
_cell_angle_gamma   119.99999989
_symmetry_Int_Tables_number   1
_chemical_formula_structural   Er6Ni20P13
_chemical_formula_sum   'Er6 Ni20 P13'
_cell_volume   515.65067910
_cell_formula_units_Z   1
loop_
 _symmetry_equiv_pos_site_id
 _symmetry_equiv_pos_as_xyz
  1  'x, y, z'
loop_
 _atom_site_type_symbol
 _atom_site_label
 _atom_site_symmetry_multiplicity
 _atom_site_fract_x
 _atom_site_fract_y
 _atom_site_fract_z
 _atom_site_occupancy
  Er  Er0  1  0.52848900  0.80936800  0.00000000  1
  Er  Er1  1  0.28087900  0.47151100  0.00000000  1
  Er  Er2  1  0.19063200  0.71912100  0.00000000  1
  Er  Er3  1  0.81104000  0.28196400  0.50000000  1
  Er  Er4  1  0.47092400  0.18896000  0.50000000  1
  Er  Er5  1  0.71803600  0.52907600  0.50000000  1
  Ni  Ni6  1  0.80393600  0.90734000  0.00000000  1
  Ni  Ni7  1  0.10340400  0.19606400  0.00000000  1
  Ni  Ni8  1  0.09266000  0.89659600  0.00000000  1
  Ni  Ni9  1  0.33333300  0.66666700  0.50000000  1
  Ni  Ni10  1  0.92294400  0.08196700  0.50000000  1
  Ni  Ni11  1  0.15902300  0.07705600  0.50000000  1
  Ni  Ni12  1  0.91803300  0.84097700  0.50000000  1
  Ni  Ni13  1  0.66666700  0.33333300  0.00000000  1
  Ni  Ni14  1  0.56172000  0.58188500  0.00000000  1
  Ni  Ni15  1  0.02016400  0.43828000  0.00000000  1
  Ni  Ni16  1  0.41811500  0.97983600  0.00000000  1
  Ni  Ni17  1  0.68029800  0.75037200  0.50000000  1
  Ni  Ni18  1  0.07007400  0.31970200  0.50000000  1
  Ni  Ni19  1  0.24962800  0.92992600  0.50000000  1
  Ni  Ni20  1  0.98000400  0.56625900  0.50000000  1
  Ni  Ni21  1  0.58625500  0.01999600  0.50000000  1
  Ni  Ni22  1  0.43374100  0.41374500  0.50000000  1
  Ni  Ni23  1  0.75677600  0.07779000  0.00000000  1
  Ni  Ni24  1  0.32101400  0.24322400  0.00000000  1
  Ni  Ni25  1  0.92221000  0.67898600  0.00000000  1
  P  P26  1  0.47431200  0.61240300  0.50000000  1
  P  P27  1  0.13809100  0.52568800  0.50000000  1
  P  P28  1  0.38759700  0.86190900  0.50000000  1
  P  P29  1  0.71788700  0.94957000  0.50000000  1
  P  P30  1  0.23168300  0.28211300  0.50000000  1
  P  P31  1  0.05043000  0.76831700  0.50000000  1
  P  P32  1  0.86144700  0.47640100  0.00000000  1
  P  P33  1  0.61495400  0.13855300  0.00000000  1
  P  P34  1  0.52359900  0.38504600  0.00000000  1
  P  P35  1  0.95013300  0.23430500  0.00000000  1
  P  P36  1  0.28417200  0.04986700  0.00000000  1
  P  P37  1  0.76569500  0.71582800  0.00000000  1
  P  P38  1  0.00000000  0.00000000  0.00000000  1
