# generated using pymatgen
data_Dy2Au
_symmetry_space_group_name_H-M   'P 1'
_cell_length_a   4.96001800
_cell_length_b   7.14869900
_cell_length_c   8.95590500
_cell_angle_alpha   90.00000000
_cell_angle_beta   90.00000000
_cell_angle_gamma   90.00000000
_symmetry_Int_Tables_number   1
_chemical_formula_structural   Dy2Au
_chemical_formula_sum   'Dy8 Au4'
_cell_volume   317.55557524
_cell_formula_units_Z   4
loop_
 _symmetry_equiv_pos_site_id
 _symmetry_equiv_pos_as_xyz
  1  'x, y, z'
loop_
 _atom_site_type_symbol
 _atom_site_label
 _atom_site_symmetry_multiplicity
 _atom_site_fract_x
 _atom_site_fract_y
 _atom_site_fract_z
 _atom_site_occupancy
  Dy  Dy0  1  0.25000000  0.85129200  0.92055700  1
  Dy  Dy1  1  0.25000000  0.35129200  0.57944300  1
  Dy  Dy2  1  0.75000000  0.14870800  0.07944300  1
  Dy  Dy3  1  0.75000000  0.64870800  0.42055700  1
  Dy  Dy4  1  0.25000000  0.48441800  0.17682000  1
  Dy  Dy5  1  0.25000000  0.98441800  0.32318000  1
  Dy  Dy6  1  0.75000000  0.51558200  0.82318000  1
  Dy  Dy7  1  0.75000000  0.01558200  0.67682000  1
  Au  Au8  1  0.25000000  0.25676300  0.90018400  1
  Au  Au9  1  0.25000000  0.75676300  0.59981600  1
  Au  Au10  1  0.75000000  0.74323700  0.09981600  1
  Au  Au11  1  0.75000000  0.24323700  0.40018400  1
