# generated using pymatgen
data_ZnCu2SiTe4
_symmetry_space_group_name_H-M   'P 1'
_cell_length_a   7.36762086
_cell_length_b   7.36762086
_cell_length_c   7.36762086
_cell_angle_alpha   131.69285629
_cell_angle_beta   131.69285629
_cell_angle_gamma   70.71456170
_symmetry_Int_Tables_number   1
_chemical_formula_structural   ZnCu2SiTe4
_chemical_formula_sum   'Zn1 Cu2 Si1 Te4'
_cell_volume   218.44105679
_cell_formula_units_Z   1
loop_
 _symmetry_equiv_pos_site_id
 _symmetry_equiv_pos_as_xyz
  1  'x, y, z'
loop_
 _atom_site_type_symbol
 _atom_site_label
 _atom_site_symmetry_multiplicity
 _atom_site_fract_x
 _atom_site_fract_y
 _atom_site_fract_z
 _atom_site_occupancy
  Zn  Zn0  1  0.00000000  0.00000000  0.00000000  1
  Cu  Cu1  1  0.75000000  0.25000000  0.50000000  1
  Cu  Cu2  1  0.25000000  0.75000000  0.50000000  1
  Si  Si3  1  0.50000000  0.50000000  0.00000000  1
  Te  Te4  1  0.38802900  0.87170200  0.00000000  1
  Te  Te5  1  0.87170200  0.38802900  0.00000000  1
  Te  Te6  1  0.61197100  0.61197100  0.48367300  1
  Te  Te7  1  0.12829800  0.12829800  0.51632700  1
