# generated using pymatgen
data_CsErCdTe3
_symmetry_space_group_name_H-M   'P 1'
_cell_length_a   8.97781278
_cell_length_b   8.97781278
_cell_length_c   11.84082700
_cell_angle_alpha   90.00000000
_cell_angle_beta   90.00000000
_cell_angle_gamma   150.79105074
_symmetry_Int_Tables_number   1
_chemical_formula_structural   CsErCdTe3
_chemical_formula_sum   'Cs2 Er2 Cd2 Te6'
_cell_volume   465.73554671
_cell_formula_units_Z   2
loop_
 _symmetry_equiv_pos_site_id
 _symmetry_equiv_pos_as_xyz
  1  'x, y, z'
loop_
 _atom_site_type_symbol
 _atom_site_label
 _atom_site_symmetry_multiplicity
 _atom_site_fract_x
 _atom_site_fract_y
 _atom_site_fract_z
 _atom_site_occupancy
  Cs  Cs0  1  0.75109400  0.24890600  0.75000000  1
  Cs  Cs1  1  0.24890600  0.75109400  0.25000000  1
  Er  Er2  1  0.00000000  0.00000000  0.50000000  1
  Er  Er3  1  0.00000000  0.00000000  0.00000000  1
  Cd  Cd4  1  0.53760800  0.46239200  0.25000000  1
  Cd  Cd5  1  0.46239200  0.53760800  0.75000000  1
  Te  Te6  1  0.38076900  0.61923100  0.54468800  1
  Te  Te7  1  0.61923100  0.38076900  0.45531200  1
  Te  Te8  1  0.61923100  0.38076900  0.04468800  1
  Te  Te9  1  0.38076900  0.61923100  0.95531200  1
  Te  Te10  1  0.93519300  0.06480700  0.25000000  1
  Te  Te11  1  0.06480700  0.93519300  0.75000000  1
