# generated using pymatgen
data_Ti3TlSi2P6O25
_symmetry_space_group_name_H-M   'P 1'
_cell_length_a   8.35114413
_cell_length_b   8.35114413
_cell_length_c   17.39038100
_cell_angle_alpha   90.00000000
_cell_angle_beta   90.00000000
_cell_angle_gamma   120.00000100
_symmetry_Int_Tables_number   1
_chemical_formula_structural   Ti3TlSi2P6O25
_chemical_formula_sum   'Ti6 Tl2 Si4 P12 O50'
_cell_volume   1050.34429780
_cell_formula_units_Z   2
loop_
 _symmetry_equiv_pos_site_id
 _symmetry_equiv_pos_as_xyz
  1  'x, y, z'
loop_
 _atom_site_type_symbol
 _atom_site_label
 _atom_site_symmetry_multiplicity
 _atom_site_fract_x
 _atom_site_fract_y
 _atom_site_fract_z
 _atom_site_occupancy
  Ti  Ti0  1  0.33333300  0.66666700  0.75000000  1
  Ti  Ti1  1  0.66666700  0.33333300  0.25000000  1
  Ti  Ti2  1  0.66666700  0.33333300  0.52350100  1
  Ti  Ti3  1  0.33333300  0.66666700  0.47649900  1
  Ti  Ti4  1  0.66666700  0.33333300  0.97649900  1
  Ti  Ti5  1  0.33333300  0.66666700  0.02350100  1
  Tl  Tl6  1  0.66666700  0.33333300  0.75000000  1
  Tl  Tl7  1  0.33333300  0.66666700  0.25000000  1
  Si  Si8  1  0.00000000  0.00000000  0.59192500  1
  Si  Si9  1  0.00000000  0.00000000  0.40807500  1
  Si  Si10  1  0.00000000  0.00000000  0.90807500  1
  Si  Si11  1  0.00000000  0.00000000  0.09192500  1
  P  P12  1  0.33218900  0.38252500  0.60959600  1
  P  P13  1  0.66781100  0.61747500  0.39040400  1
  P  P14  1  0.61747500  0.94966500  0.60959600  1
  P  P15  1  0.33218900  0.94966500  0.89040400  1
  P  P16  1  0.38252500  0.05033500  0.39040400  1
  P  P17  1  0.66781100  0.05033500  0.10959600  1
  P  P18  1  0.05033500  0.66781100  0.60959600  1
  P  P19  1  0.61747500  0.66781100  0.89040400  1
  P  P20  1  0.94966500  0.33218900  0.39040400  1
  P  P21  1  0.38252500  0.33218900  0.10959600  1
  P  P22  1  0.05033500  0.38252500  0.89040400  1
  P  P23  1  0.94966500  0.61747500  0.10959600  1
  O  O24  1  0.83326400  0.02906300  0.62495400  1
  O  O25  1  0.16673600  0.97093700  0.37504600  1
  O  O26  1  0.97093700  0.80420100  0.62495400  1
  O  O27  1  0.83326400  0.80420100  0.87504600  1
  O  O28  1  0.02906300  0.19579900  0.37504600  1
  O  O29  1  0.16673600  0.19579900  0.12495400  1
  O  O30  1  0.19579900  0.16673600  0.62495400  1
  O  O31  1  0.97093700  0.16673600  0.87504600  1
  O  O32  1  0.80420100  0.83326400  0.37504600  1
  O  O33  1  0.02906300  0.83326400  0.12495400  1
  O  O34  1  0.19579900  0.02906300  0.87504600  1
  O  O35  1  0.80420100  0.97093700  0.12495400  1
  O  O36  1  0.33928100  0.47536400  0.68595500  1
  O  O37  1  0.66071900  0.52463600  0.31404500  1
  O  O38  1  0.52463600  0.86391700  0.68595500  1
  O  O39  1  0.33928100  0.86391700  0.81404500  1
  O  O40  1  0.47536400  0.13608300  0.31404500  1
  O  O41  1  0.66071900  0.13608300  0.18595500  1
  O  O42  1  0.13608300  0.66071900  0.68595500  1
  O  O43  1  0.52463600  0.66071900  0.81404500  1
  O  O44  1  0.86391700  0.33928100  0.31404500  1
  O  O45  1  0.47536400  0.33928100  0.18595500  1
  O  O46  1  0.13608300  0.47536400  0.81404500  1
  O  O47  1  0.86391700  0.52463600  0.18595500  1
  O  O48  1  0.59594800  0.11795800  0.59195300  1
  O  O49  1  0.40405200  0.88204200  0.40804700  1
  O  O50  1  0.88204200  0.47799000  0.59195300  1
  O  O51  1  0.59594800  0.47799000  0.90804700  1
  O  O52  1  0.11795800  0.52201000  0.40804700  1
  O  O53  1  0.40405200  0.52201000  0.09195300  1
  O  O54  1  0.52201000  0.40405200  0.59195300  1
  O  O55  1  0.88204200  0.40405200  0.90804700  1
  O  O56  1  0.47799000  0.59594800  0.40804700  1
  O  O57  1  0.11795800  0.59594800  0.09195300  1
  O  O58  1  0.52201000  0.11795800  0.90804700  1
  O  O59  1  0.47799000  0.88204200  0.09195300  1
  O  O60  1  0.25549400  0.44446600  0.54322900  1
  O  O61  1  0.74450600  0.55553400  0.45677100  1
  O  O62  1  0.55553400  0.81102800  0.54322900  1
  O  O63  1  0.25549400  0.81102800  0.95677100  1
  O  O64  1  0.44446600  0.18897200  0.45677100  1
  O  O65  1  0.74450600  0.18897200  0.04322900  1
  O  O66  1  0.18897200  0.74450600  0.54322900  1
  O  O67  1  0.55553400  0.74450600  0.95677100  1
  O  O68  1  0.81102800  0.25549400  0.45677100  1
  O  O69  1  0.44446600  0.25549400  0.04322900  1
  O  O70  1  0.18897200  0.44446600  0.95677100  1
  O  O71  1  0.81102800  0.55553400  0.04322900  1
  O  O72  1  0.00000000  0.00000000  0.50000000  1
  O  O73  1  0.00000000  0.00000000  0.00000000  1
