# generated using pymatgen
data_Dy6Al2SiS14
_symmetry_space_group_name_H-M   'P 1'
_cell_length_a   9.68633459
_cell_length_b   9.68633459
_cell_length_c   5.94915900
_cell_angle_alpha   90.00000000
_cell_angle_beta   90.00000000
_cell_angle_gamma   120.00000406
_symmetry_Int_Tables_number   1
_chemical_formula_structural   Dy6Al2SiS14
_chemical_formula_sum   'Dy6 Al2 Si1 S14'
_cell_volume   483.39830552
_cell_formula_units_Z   1
loop_
 _symmetry_equiv_pos_site_id
 _symmetry_equiv_pos_as_xyz
  1  'x, y, z'
loop_
 _atom_site_type_symbol
 _atom_site_label
 _atom_site_symmetry_multiplicity
 _atom_site_fract_x
 _atom_site_fract_y
 _atom_site_fract_z
 _atom_site_occupancy
  Dy  Dy0  1  0.81089500  0.70067600  0.93979600  1
  Dy  Dy1  1  0.88978000  0.18910500  0.93979600  1
  Dy  Dy2  1  0.29932400  0.11022000  0.93979600  1
  Dy  Dy3  1  0.51617300  0.96424400  0.42714300  1
  Dy  Dy4  1  0.44807000  0.48382700  0.42714300  1
  Dy  Dy5  1  0.03575600  0.55193000  0.42714300  1
  Al  Al6  1  0.66666700  0.33333300  0.11867100  1
  Al  Al7  1  0.33333300  0.66666700  0.01300700  1
  Si  Si8  1  0.00000000  0.00000000  0.51629100  1
  S  S9  1  0.00000000  0.00000000  0.15781200  1
  S  S10  1  0.33333300  0.66666700  0.63901900  1
  S  S11  1  0.76682200  0.56928100  0.35027300  1
  S  S12  1  0.80245900  0.23317800  0.35027300  1
  S  S13  1  0.43071900  0.19754100  0.35027300  1
  S  S14  1  0.56864200  0.08961700  0.88471400  1
  S  S15  1  0.52097500  0.43135800  0.88471400  1
  S  S16  1  0.91038300  0.47902500  0.88471400  1
  S  S17  1  0.76884800  0.91094500  0.66165200  1
  S  S18  1  0.14209700  0.23115200  0.66165200  1
  S  S19  1  0.08905500  0.85790300  0.66165200  1
  S  S20  1  0.57677700  0.76394500  0.16828000  1
  S  S21  1  0.18716800  0.42322300  0.16828000  1
  S  S22  1  0.23605500  0.81283200  0.16828000  1
