# generated using pymatgen
data_Pr2Re2Si2C
_symmetry_space_group_name_H-M   'P 1'
_cell_length_a   5.98052702
_cell_length_b   5.98052702
_cell_length_c   7.23439997
_cell_angle_alpha   54.68092499
_cell_angle_beta   54.68092499
_cell_angle_gamma   40.00000596
_symmetry_Int_Tables_number   1
_chemical_formula_structural   Pr2Re2Si2C
_chemical_formula_sum   'Pr2 Re2 Si2 C1'
_cell_volume   131.11903702
_cell_formula_units_Z   1
loop_
 _symmetry_equiv_pos_site_id
 _symmetry_equiv_pos_as_xyz
  1  'x, y, z'
loop_
 _atom_site_type_symbol
 _atom_site_label
 _atom_site_symmetry_multiplicity
 _atom_site_fract_x
 _atom_site_fract_y
 _atom_site_fract_z
 _atom_site_occupancy
  Pr  Pr0  1  0.42881100  0.42881100  0.30466400  1
  Pr  Pr1  1  0.57118900  0.57118900  0.69533600  1
  Re  Re2  1  0.79697600  0.79697600  0.08726100  1
  Re  Re3  1  0.20302400  0.20302400  0.91273900  1
  Si  Si4  1  0.84763300  0.84763300  0.70346100  1
  Si  Si5  1  0.15236700  0.15236700  0.29653900  1
  C  C6  1  0.00000000  0.00000000  0.00000000  1
