# generated using pymatgen
data_Y2B6Ru
_symmetry_space_group_name_H-M   'P 1'
_cell_length_a   3.66968700
_cell_length_b   9.16009600
_cell_length_c   11.53475400
_cell_angle_alpha   90.00000000
_cell_angle_beta   90.00000000
_cell_angle_gamma   90.00000000
_symmetry_Int_Tables_number   1
_chemical_formula_structural   Y2B6Ru
_chemical_formula_sum   'Y8 B24 Ru4'
_cell_volume   387.73712468
_cell_formula_units_Z   4
loop_
 _symmetry_equiv_pos_site_id
 _symmetry_equiv_pos_as_xyz
  1  'x, y, z'
loop_
 _atom_site_type_symbol
 _atom_site_label
 _atom_site_symmetry_multiplicity
 _atom_site_fract_x
 _atom_site_fract_y
 _atom_site_fract_z
 _atom_site_occupancy
  Y  Y0  1  0.00000000  0.32233900  0.41392300  1
  Y  Y1  1  0.00000000  0.67766100  0.58607700  1
  Y  Y2  1  0.00000000  0.82233900  0.08607700  1
  Y  Y3  1  0.00000000  0.17766100  0.91392300  1
  Y  Y4  1  0.00000000  0.94368200  0.37299800  1
  Y  Y5  1  0.00000000  0.05631800  0.62700200  1
  Y  Y6  1  0.00000000  0.44368200  0.12700200  1
  Y  Y7  1  0.00000000  0.55631800  0.87299800  1
  B  B8  1  0.50000000  0.55379000  0.43268900  1
  B  B9  1  0.50000000  0.44621000  0.56731100  1
  B  B10  1  0.50000000  0.05379000  0.06731100  1
  B  B11  1  0.50000000  0.94621000  0.93268900  1
  B  B12  1  0.50000000  0.74733900  0.41993400  1
  B  B13  1  0.50000000  0.25266100  0.58006600  1
  B  B14  1  0.50000000  0.24733900  0.08006600  1
  B  B15  1  0.50000000  0.75266100  0.91993400  1
  B  B16  1  0.50000000  0.79015700  0.26686000  1
  B  B17  1  0.50000000  0.20984300  0.73314000  1
  B  B18  1  0.50000000  0.29015700  0.23314000  1
  B  B19  1  0.50000000  0.70984300  0.76686000  1
  B  B20  1  0.50000000  0.63176800  0.18534700  1
  B  B21  1  0.50000000  0.36823200  0.81465300  1
  B  B22  1  0.50000000  0.13176800  0.31465300  1
  B  B23  1  0.50000000  0.86823200  0.68534700  1
  B  B24  1  0.50000000  0.98364200  0.21299100  1
  B  B25  1  0.50000000  0.01635800  0.78700900  1
  B  B26  1  0.50000000  0.48364200  0.28700900  1
  B  B27  1  0.50000000  0.51635800  0.71299100  1
  B  B28  1  0.50000000  0.61143400  0.03064300  1
  B  B29  1  0.50000000  0.38856600  0.96935700  1
  B  B30  1  0.50000000  0.11143400  0.46935700  1
  B  B31  1  0.50000000  0.88856600  0.53064300  1
  Ru  Ru32  1  0.00000000  0.63769400  0.32106000  1
  Ru  Ru33  1  0.00000000  0.36230600  0.67894000  1
  Ru  Ru34  1  0.00000000  0.13769400  0.17894000  1
  Ru  Ru35  1  0.00000000  0.86230600  0.82106000  1
