# generated using pymatgen
data_Tm3Pt4
_symmetry_space_group_name_H-M   'P 1'
_cell_length_a   7.80549405
_cell_length_b   7.80549405
_cell_length_c   7.80549409
_cell_angle_alpha   114.29779419
_cell_angle_beta   114.29779419
_cell_angle_gamma   114.29780138
_symmetry_Int_Tables_number   1
_chemical_formula_structural   Tm3Pt4
_chemical_formula_sum   'Tm6 Pt8'
_cell_volume   282.43148276
_cell_formula_units_Z   2
loop_
 _symmetry_equiv_pos_site_id
 _symmetry_equiv_pos_as_xyz
  1  'x, y, z'
loop_
 _atom_site_type_symbol
 _atom_site_label
 _atom_site_symmetry_multiplicity
 _atom_site_fract_x
 _atom_site_fract_y
 _atom_site_fract_z
 _atom_site_occupancy
  Tm  Tm0  1  0.40348000  0.02631200  0.28131100  1
  Tm  Tm1  1  0.02631200  0.28131100  0.40348000  1
  Tm  Tm2  1  0.28131100  0.40348000  0.02631200  1
  Tm  Tm3  1  0.59652000  0.97368800  0.71868900  1
  Tm  Tm4  1  0.97368800  0.71868900  0.59652000  1
  Tm  Tm5  1  0.71868900  0.59652000  0.97368800  1
  Pt  Pt6  1  0.00000000  0.00000000  0.00000000  1
  Pt  Pt7  1  0.50000000  0.50000000  0.50000000  1
  Pt  Pt8  1  0.22462800  0.06083900  0.55184800  1
  Pt  Pt9  1  0.06083900  0.55184800  0.22462800  1
  Pt  Pt10  1  0.55184800  0.22462800  0.06083900  1
  Pt  Pt11  1  0.77537200  0.93916100  0.44815200  1
  Pt  Pt12  1  0.93916100  0.44815200  0.77537200  1
  Pt  Pt13  1  0.44815200  0.77537200  0.93916100  1
