# generated using pymatgen
data_GdCuGe
_symmetry_space_group_name_H-M   'P 1'
_cell_length_a   4.26746826
_cell_length_b   4.26746826
_cell_length_c   7.49570100
_cell_angle_alpha   90.00000000
_cell_angle_beta   90.00000000
_cell_angle_gamma   120.00000406
_symmetry_Int_Tables_number   1
_chemical_formula_structural   GdCuGe
_chemical_formula_sum   'Gd2 Cu2 Ge2'
_cell_volume   118.21796197
_cell_formula_units_Z   2
loop_
 _symmetry_equiv_pos_site_id
 _symmetry_equiv_pos_as_xyz
  1  'x, y, z'
loop_
 _atom_site_type_symbol
 _atom_site_label
 _atom_site_symmetry_multiplicity
 _atom_site_fract_x
 _atom_site_fract_y
 _atom_site_fract_z
 _atom_site_occupancy
  Gd  Gd0  1  0.00000000  0.00000000  0.49737900  1
  Gd  Gd1  1  0.00000000  0.00000000  0.99737900  1
  Cu  Cu2  1  0.33333300  0.66666700  0.22969100  1
  Cu  Cu3  1  0.66666700  0.33333300  0.72969100  1
  Ge  Ge4  1  0.66666700  0.33333300  0.26483100  1
  Ge  Ge5  1  0.33333300  0.66666700  0.76483100  1
