# generated using pymatgen
data_RbZr2(AsO4)3
_symmetry_space_group_name_H-M   'P 1'
_cell_length_a   10.04064140
_cell_length_b   10.04064140
_cell_length_c   10.04064090
_cell_angle_alpha   54.24031370
_cell_angle_beta   54.24031370
_cell_angle_gamma   54.24030989
_symmetry_Int_Tables_number   1
_chemical_formula_structural   RbZr2(AsO4)3
_chemical_formula_sum   'Rb2 Zr4 As6 O24'
_cell_volume   619.55622230
_cell_formula_units_Z   2
loop_
 _symmetry_equiv_pos_site_id
 _symmetry_equiv_pos_as_xyz
  1  'x, y, z'
loop_
 _atom_site_type_symbol
 _atom_site_label
 _atom_site_symmetry_multiplicity
 _atom_site_fract_x
 _atom_site_fract_y
 _atom_site_fract_z
 _atom_site_occupancy
  Rb  Rb0  1  0.50000000  0.50000000  0.50000000  1
  Rb  Rb1  1  0.00000000  0.00000000  0.00000000  1
  Zr  Zr2  1  0.34968800  0.34968800  0.34968800  1
  Zr  Zr3  1  0.84968800  0.84968800  0.84968800  1
  Zr  Zr4  1  0.65031200  0.65031200  0.65031200  1
  Zr  Zr5  1  0.15031200  0.15031200  0.15031200  1
  As  As6  1  0.96882900  0.53117100  0.25000000  1
  As  As7  1  0.25000000  0.96882900  0.53117100  1
  As  As8  1  0.53117100  0.25000000  0.96882900  1
  As  As9  1  0.75000000  0.03117100  0.46882900  1
  As  As10  1  0.46882900  0.75000000  0.03117100  1
  As  As11  1  0.03117100  0.46882900  0.75000000  1
  O  O12  1  0.15431300  0.51383000  0.23925400  1
  O  O13  1  0.23925400  0.15431300  0.51383000  1
  O  O14  1  0.51383000  0.23925400  0.15431300  1
  O  O15  1  0.73925400  0.01383000  0.65431300  1
  O  O16  1  0.65431300  0.73925400  0.01383000  1
  O  O17  1  0.01383000  0.65431300  0.73925400  1
  O  O18  1  0.84568700  0.48617000  0.76074600  1
  O  O19  1  0.76074600  0.84568700  0.48617000  1
  O  O20  1  0.48617000  0.76074600  0.84568700  1
  O  O21  1  0.26074600  0.98617000  0.34568700  1
  O  O22  1  0.34568700  0.26074600  0.98617000  1
  O  O23  1  0.98617000  0.34568700  0.26074600  1
  O  O24  1  0.20633800  0.42853400  0.56586200  1
  O  O25  1  0.56586200  0.20633800  0.42853400  1
  O  O26  1  0.42853400  0.56586200  0.20633800  1
  O  O27  1  0.06586200  0.92853400  0.70633800  1
  O  O28  1  0.70633800  0.06586200  0.92853400  1
  O  O29  1  0.92853400  0.70633800  0.06586200  1
  O  O30  1  0.79366200  0.57146600  0.43413800  1
  O  O31  1  0.43413800  0.79366200  0.57146600  1
  O  O32  1  0.57146600  0.43413800  0.79366200  1
  O  O33  1  0.93413800  0.07146600  0.29366200  1
  O  O34  1  0.29366200  0.93413800  0.07146600  1
  O  O35  1  0.07146600  0.29366200  0.93413800  1
