# generated using pymatgen
data_ErGeRu
_symmetry_space_group_name_H-M   'P 1'
_cell_length_a   4.39550200
_cell_length_b   6.99815600
_cell_length_c   7.25655300
_cell_angle_alpha   90.00000000
_cell_angle_beta   90.00000000
_cell_angle_gamma   90.00000000
_symmetry_Int_Tables_number   1
_chemical_formula_structural   ErGeRu
_chemical_formula_sum   'Er4 Ge4 Ru4'
_cell_volume   223.21453599
_cell_formula_units_Z   4
loop_
 _symmetry_equiv_pos_site_id
 _symmetry_equiv_pos_as_xyz
  1  'x, y, z'
loop_
 _atom_site_type_symbol
 _atom_site_label
 _atom_site_symmetry_multiplicity
 _atom_site_fract_x
 _atom_site_fract_y
 _atom_site_fract_z
 _atom_site_occupancy
  Er  Er0  1  0.25000000  0.48784300  0.19219400  1
  Er  Er1  1  0.75000000  0.51215700  0.80780600  1
  Er  Er2  1  0.25000000  0.98784300  0.30780600  1
  Er  Er3  1  0.75000000  0.01215700  0.69219400  1
  Ge  Ge4  1  0.25000000  0.79570500  0.89289800  1
  Ge  Ge5  1  0.75000000  0.20429500  0.10710200  1
  Ge  Ge6  1  0.25000000  0.29570500  0.60710200  1
  Ge  Ge7  1  0.75000000  0.70429500  0.39289800  1
  Ru  Ru8  1  0.75000000  0.84408700  0.06269100  1
  Ru  Ru9  1  0.25000000  0.15591300  0.93730900  1
  Ru  Ru10  1  0.75000000  0.34408700  0.43730900  1
  Ru  Ru11  1  0.25000000  0.65591300  0.56269100  1
