# generated using pymatgen
data_Si(NiO2)2
_symmetry_space_group_name_H-M   'P 1'
_cell_length_a   4.77344200
_cell_length_b   5.97455300
_cell_length_c   10.25577700
_cell_angle_alpha   89.99997924
_cell_angle_beta   89.99998241
_cell_angle_gamma   90.00002159
_symmetry_Int_Tables_number   1
_chemical_formula_structural   Si(NiO2)2
_chemical_formula_sum   'Si4 Ni8 O16'
_cell_volume   292.48637309
_cell_formula_units_Z   4
loop_
 _symmetry_equiv_pos_site_id
 _symmetry_equiv_pos_as_xyz
  1  'x, y, z'
loop_
 _atom_site_type_symbol
 _atom_site_label
 _atom_site_symmetry_multiplicity
 _atom_site_fract_x
 _atom_site_fract_y
 _atom_site_fract_z
 _atom_site_occupancy
  Si  Si0  1  0.92704000  0.75000000  0.40597400  1
  Si  Si1  1  0.42702400  0.25000000  0.09401600  1
  Si  Si2  1  0.07297500  0.24999900  0.59401600  1
  Si  Si3  1  0.57295800  0.75000000  0.90597400  1
  Ni  Ni4  1  0.49999700  0.50001200  0.49991500  1
  Ni  Ni5  1  0.00000200  0.50001500  0.99991500  1
  Ni  Ni6  1  0.49999700  0.99998800  0.49991300  1
  Ni  Ni7  1  0.00000300  0.99998500  0.99991500  1
  Ni  Ni8  1  0.49356500  0.75000400  0.22640100  1
  Ni  Ni9  1  0.00644200  0.75000200  0.72640000  1
  Ni  Ni10  1  0.50618300  0.25000000  0.77353300  1
  Ni  Ni11  1  0.99381600  0.24999800  0.27353400  1
  O  O12  1  0.71743800  0.75000000  0.05498900  1
  O  O13  1  0.21736200  0.25000000  0.44519200  1
  O  O14  1  0.28263700  0.25000000  0.94519200  1
  O  O15  1  0.78256000  0.75000000  0.55499000  1
  O  O16  1  0.23077400  0.75000000  0.90625900  1
  O  O17  1  0.73082500  0.25000000  0.59376900  1
  O  O18  1  0.26922500  0.75000000  0.40626000  1
  O  O19  1  0.76917400  0.25000000  0.09376900  1
  O  O20  1  0.22536300  0.47013600  0.66296500  1
  O  O21  1  0.72541600  0.52996400  0.83705300  1
  O  O22  1  0.77458200  0.97003500  0.33705300  1
  O  O23  1  0.27463800  0.02986300  0.16296500  1
  O  O24  1  0.77458200  0.52996400  0.33705300  1
  O  O25  1  0.27463700  0.47013700  0.16296500  1
  O  O26  1  0.22536300  0.02986300  0.66296400  1
  O  O27  1  0.72541600  0.97003700  0.83705300  1
