# generated using pymatgen
data_KBa3(BiO3)4
_symmetry_space_group_name_H-M   'P 1'
_cell_length_a   6.17410500
_cell_length_b   6.25041900
_cell_length_c   8.75079200
_cell_angle_alpha   90.00000000
_cell_angle_beta   90.00000000
_cell_angle_gamma   90.00000000
_symmetry_Int_Tables_number   1
_chemical_formula_structural   KBa3(BiO3)4
_chemical_formula_sum   'K1 Ba3 Bi4 O12'
_cell_volume   337.69956687
_cell_formula_units_Z   1
loop_
 _symmetry_equiv_pos_site_id
 _symmetry_equiv_pos_as_xyz
  1  'x, y, z'
loop_
 _atom_site_type_symbol
 _atom_site_label
 _atom_site_symmetry_multiplicity
 _atom_site_fract_x
 _atom_site_fract_y
 _atom_site_fract_z
 _atom_site_occupancy
  K  K0  1  0.50000000  0.00336200  0.50000000  1
  Ba  Ba1  1  0.00000000  0.49549300  0.00000000  1
  Ba  Ba2  1  0.50000000  0.99813800  0.00000000  1
  Ba  Ba3  1  0.00000000  0.49937900  0.50000000  1
  Bi  Bi4  1  0.00000000  0.99920300  0.25246800  1
  Bi  Bi5  1  0.50000000  0.50036300  0.74845900  1
  Bi  Bi6  1  0.00000000  0.99920300  0.74753200  1
  Bi  Bi7  1  0.50000000  0.50036300  0.25154100  1
  O  O8  1  0.00000000  0.03682600  0.00000000  1
  O  O9  1  0.50000000  0.54269700  0.50000000  1
  O  O10  1  0.00000000  0.95672200  0.50000000  1
  O  O11  1  0.50000000  0.45410800  0.00000000  1
  O  O12  1  0.75344000  0.26159100  0.26298300  1
  O  O13  1  0.25016500  0.74194500  0.77878800  1
  O  O14  1  0.74983500  0.74194500  0.22121200  1
  O  O15  1  0.24656000  0.26159100  0.73701700  1
  O  O16  1  0.24656000  0.26159100  0.26298300  1
  O  O17  1  0.74983500  0.74194500  0.77878800  1
  O  O18  1  0.25016500  0.74194500  0.22121200  1
  O  O19  1  0.75344000  0.26159100  0.73701700  1
