# generated using pymatgen
data_LaBPt4
_symmetry_space_group_name_H-M   'P 1'
_cell_length_a   5.54168612
_cell_length_b   5.54168612
_cell_length_c   7.72407600
_cell_angle_alpha   90.00000000
_cell_angle_beta   90.00000000
_cell_angle_gamma   120.00000149
_symmetry_Int_Tables_number   1
_chemical_formula_structural   LaBPt4
_chemical_formula_sum   'La2 B2 Pt8'
_cell_volume   205.42864985
_cell_formula_units_Z   2
loop_
 _symmetry_equiv_pos_site_id
 _symmetry_equiv_pos_as_xyz
  1  'x, y, z'
loop_
 _atom_site_type_symbol
 _atom_site_label
 _atom_site_symmetry_multiplicity
 _atom_site_fract_x
 _atom_site_fract_y
 _atom_site_fract_z
 _atom_site_occupancy
  La  La0  1  0.00000000  0.00000000  0.50000000  1
  La  La1  1  0.00000000  0.00000000  0.00000000  1
  B  B2  1  0.33333300  0.66666700  0.00000000  1
  B  B3  1  0.66666700  0.33333300  0.00000000  1
  Pt  Pt4  1  0.33333300  0.66666700  0.50000000  1
  Pt  Pt5  1  0.66666700  0.33333300  0.50000000  1
  Pt  Pt6  1  0.50000000  0.00000000  0.19848800  1
  Pt  Pt7  1  0.50000000  0.00000000  0.80151200  1
  Pt  Pt8  1  0.00000000  0.50000000  0.19848800  1
  Pt  Pt9  1  0.00000000  0.50000000  0.80151200  1
  Pt  Pt10  1  0.50000000  0.50000000  0.19848800  1
  Pt  Pt11  1  0.50000000  0.50000000  0.80151200  1
