# generated using pymatgen
data_Mg149Tc
_symmetry_space_group_name_H-M   'P 1'
_cell_length_a   15.92058541
_cell_length_b   15.92059068
_cell_length_c   15.63321489
_cell_angle_alpha   90.00000000
_cell_angle_beta   90.00000000
_cell_angle_gamma   120.00001296
_symmetry_Int_Tables_number   1
_chemical_formula_structural   Mg149Tc
_chemical_formula_sum   'Mg149 Tc1'
_cell_volume   3431.60334301
_cell_formula_units_Z   1
loop_
 _symmetry_equiv_pos_site_id
 _symmetry_equiv_pos_as_xyz
  1  'x, y, z'
loop_
 _atom_site_type_symbol
 _atom_site_label
 _atom_site_symmetry_multiplicity
 _atom_site_fract_x
 _atom_site_fract_y
 _atom_site_fract_z
 _atom_site_occupancy
  Mg  Mg0  1  0.39716599  0.00044701  -0.00000000  1
  Mg  Mg1  1  0.60328101  0.00044701  -0.00000000  1
  Mg  Mg2  1  0.18977088  0.00148160  -0.00000000  1
  Mg  Mg3  1  0.81171172  0.00148160  -0.00000000  1
  Mg  Mg4  1  0.18977088  0.18828928  -0.00000000  1
  Mg  Mg5  1  0.99851840  0.18828928  -0.00000000  1
  Mg  Mg6  1  0.39821981  0.19910991  -0.00000000  1
  Mg  Mg7  1  0.80089009  0.19910991  -0.00000000  1
  Mg  Mg8  1  0.59971961  0.19944021  -0.00000000  1
  Mg  Mg9  1  0.39716599  0.39671899  -0.00000000  1
  Mg  Mg10  1  0.99955299  0.39671899  -0.00000000  1
  Mg  Mg11  1  0.19845837  0.39691573  -0.00000000  1
  Mg  Mg12  1  0.59971961  0.40028039  -0.00000000  1
  Mg  Mg13  1  0.80056079  0.40028039  -0.00000000  1
  Mg  Mg14  1  0.40020592  0.59979408  -0.00000000  1
  Mg  Mg15  1  0.19958917  0.59979408  -0.00000000  1
  Mg  Mg16  1  0.80089009  0.60178019  -0.00000000  1
  Mg  Mg17  1  0.99955299  0.60283401  -0.00000000  1
  Mg  Mg18  1  0.60328101  0.60283401  -0.00000000  1
  Mg  Mg19  1  0.40020592  0.80041183  -0.00000000  1
  Mg  Mg20  1  0.60308427  0.80154163  -0.00000000  1
  Mg  Mg21  1  0.19845837  0.80154263  -0.00000000  1
  Mg  Mg22  1  0.99851840  0.81022912  -0.00000000  1
  Mg  Mg23  1  0.81171172  0.81022912  -0.00000000  1
  Mg  Mg24  1  0.06314590  0.12629279  0.15677986  1
  Mg  Mg25  1  0.87370621  0.93685310  0.15677986  1
  Mg  Mg26  1  0.06314590  0.93685310  0.15677986  1
  Mg  Mg27  1  0.26492521  0.33116950  0.16555028  1
  Mg  Mg28  1  0.06624330  0.33116950  0.16555028  1
  Mg  Mg29  1  0.66883050  0.73507379  0.16555028  1
  Mg  Mg30  1  0.06624330  0.73507379  0.16555028  1
  Mg  Mg31  1  0.26492521  0.93375570  0.16555028  1
  Mg  Mg32  1  0.66883050  0.93375570  0.16555028  1
  Mg  Mg33  1  0.46670364  0.53329636  0.16601306  1
  Mg  Mg34  1  0.06659372  0.53329636  0.16601306  1
  Mg  Mg35  1  0.46670364  0.93340628  0.16601306  1
  Mg  Mg36  1  0.26646555  0.53293010  0.16632811  1
  Mg  Mg37  1  0.26646555  0.73353445  0.16632811  1
  Mg  Mg38  1  0.46706990  0.73353445  0.16632811  1
  Mg  Mg39  1  0.46709095  0.13365828  0.16676280  1
  Mg  Mg40  1  0.66656833  0.13365928  0.16676280  1
  Mg  Mg41  1  0.46709095  0.33343167  0.16676280  1
  Mg  Mg42  1  0.86634172  0.33343167  0.16676280  1
  Mg  Mg43  1  0.66656833  0.53290905  0.16676280  1
  Mg  Mg44  1  0.86634172  0.53290905  0.16676280  1
  Mg  Mg45  1  0.66666600  0.33333300  0.16668887  1
  Mg  Mg46  1  0.26883751  0.13441876  0.16688769  1
  Mg  Mg47  1  0.86558124  0.13441876  0.16688769  1
  Mg  Mg48  1  0.86558124  0.73116249  0.16688769  1
  Mg  Mg49  1  0.00036252  0.19899086  0.33075389  1
  Mg  Mg50  1  0.19862834  0.19899086  0.33075389  1
  Mg  Mg51  1  0.00036252  0.80137166  0.33075389  1
  Mg  Mg52  1  0.80100914  0.80137166  0.33075389  1
  Mg  Mg53  1  0.80100914  0.99963648  0.33075389  1
  Mg  Mg54  1  0.19862834  0.99963748  0.33075389  1
  Mg  Mg55  1  -0.00000000  0.00000000  0.33230334  1
  Mg  Mg56  1  0.39928364  0.39944920  0.33268440  1
  Mg  Mg57  1  0.00016655  0.39945020  0.33268440  1
  Mg  Mg58  1  0.60055080  0.60071636  0.33268440  1
  Mg  Mg59  1  0.00016655  0.60071636  0.33268440  1
  Mg  Mg60  1  0.39928364  0.99983445  0.33268440  1
  Mg  Mg61  1  0.60055080  0.99983445  0.33268440  1
  Mg  Mg62  1  0.20003064  0.40006128  0.33315865  1
  Mg  Mg63  1  0.20003064  0.79996936  0.33315865  1
  Mg  Mg64  1  0.59993872  0.79996936  0.33315865  1
  Mg  Mg65  1  0.59982426  0.19964752  0.33350329  1
  Mg  Mg66  1  0.80035248  0.40017674  0.33350329  1
  Mg  Mg67  1  0.59982426  0.40017674  0.33350329  1
  Mg  Mg68  1  0.39998668  0.60001332  0.33342413  1
  Mg  Mg69  1  0.20002564  0.60001332  0.33342413  1
  Mg  Mg70  1  0.39998668  0.79997436  0.33342413  1
  Mg  Mg71  1  0.80005320  0.19994580  0.33369058  1
  Mg  Mg72  1  0.39989260  0.19994680  0.33369058  1
  Mg  Mg73  1  0.80005320  0.60010740  0.33369058  1
  Mg  Mg74  1  0.26603404  0.13301702  0.50000000  1
  Mg  Mg75  1  0.86698298  0.13301702  0.50000000  1
  Mg  Mg76  1  0.06654568  0.13309136  0.50000000  1
  Mg  Mg77  1  0.46686393  0.13362664  0.50000000  1
  Mg  Mg78  1  0.66676271  0.13362664  0.50000000  1
  Mg  Mg79  1  0.26639159  0.33265552  0.50000000  1
  Mg  Mg80  1  0.06626493  0.33265652  0.50000000  1
  Mg  Mg81  1  0.86637336  0.33323729  0.50000000  1
  Mg  Mg82  1  0.46686393  0.33323729  0.50000000  1
  Mg  Mg83  1  0.66666600  0.33333300  0.50000000  1
  Mg  Mg84  1  0.26641617  0.53283235  0.50000000  1
  Mg  Mg85  1  0.06593347  0.53296674  0.50000000  1
  Mg  Mg86  1  0.46703326  0.53296674  0.50000000  1
  Mg  Mg87  1  0.66676271  0.53313607  0.50000000  1
  Mg  Mg88  1  0.86637336  0.53313607  0.50000000  1
  Mg  Mg89  1  0.26641617  0.73358383  0.50000000  1
  Mg  Mg90  1  0.46716665  0.73358383  0.50000000  1
  Mg  Mg91  1  0.66734448  0.73360841  0.50000000  1
  Mg  Mg92  1  0.06626493  0.73360841  0.50000000  1
  Mg  Mg93  1  0.86698298  0.73396596  0.50000000  1
  Mg  Mg94  1  0.06654568  0.93345332  0.50000000  1
  Mg  Mg95  1  0.86690764  0.93345432  0.50000000  1
  Mg  Mg96  1  0.46703326  0.93406653  0.50000000  1
  Mg  Mg97  1  0.26639159  0.93373507  0.50000000  1
  Mg  Mg98  1  0.66734448  0.93373507  0.50000000  1
  Mg  Mg99  1  0.80005320  0.19994580  0.66630942  1
  Mg  Mg100  1  0.39989260  0.19994680  0.66630942  1
  Mg  Mg101  1  0.80005320  0.60010740  0.66630942  1
  Mg  Mg102  1  0.39998668  0.60001332  0.66657587  1
  Mg  Mg103  1  0.20002564  0.60001332  0.66657587  1
  Mg  Mg104  1  0.39998668  0.79997436  0.66657587  1
  Mg  Mg105  1  0.59982426  0.19964752  0.66649671  1
  Mg  Mg106  1  0.80035248  0.40017674  0.66649671  1
  Mg  Mg107  1  0.59982426  0.40017674  0.66649671  1
  Mg  Mg108  1  0.20003064  0.40006128  0.66684035  1
  Mg  Mg109  1  0.20003064  0.79996936  0.66684035  1
  Mg  Mg110  1  0.59993872  0.79996936  0.66684035  1
  Mg  Mg111  1  0.39928364  0.39944920  0.66731560  1
  Mg  Mg112  1  0.00016655  0.39945020  0.66731560  1
  Mg  Mg113  1  0.60055080  0.60071636  0.66731560  1
  Mg  Mg114  1  0.00016655  0.60071636  0.66731560  1
  Mg  Mg115  1  0.39928364  0.99983445  0.66731560  1
  Mg  Mg116  1  0.60055080  0.99983445  0.66731560  1
  Mg  Mg117  1  -0.00000000  0.00000000  0.66769766  1
  Mg  Mg118  1  0.00036252  0.19899086  0.66924611  1
  Mg  Mg119  1  0.19862834  0.19899086  0.66924611  1
  Mg  Mg120  1  0.00036252  0.80137166  0.66924611  1
  Mg  Mg121  1  0.80100914  0.80137166  0.66924611  1
  Mg  Mg122  1  0.80100914  0.99963648  0.66924611  1
  Mg  Mg123  1  0.19862834  0.99963748  0.66924611  1
  Mg  Mg124  1  0.26883751  0.13441876  0.83311131  1
  Mg  Mg125  1  0.86558124  0.13441876  0.83311131  1
  Mg  Mg126  1  0.86558124  0.73116249  0.83311131  1
  Mg  Mg127  1  0.66666600  0.33333300  0.83331213  1
  Mg  Mg128  1  0.46709095  0.13365828  0.83323720  1
  Mg  Mg129  1  0.66656833  0.13365928  0.83323720  1
  Mg  Mg130  1  0.46709095  0.33343167  0.83323720  1
  Mg  Mg131  1  0.86634172  0.33343167  0.83323720  1
  Mg  Mg132  1  0.66656833  0.53290905  0.83323720  1
  Mg  Mg133  1  0.86634172  0.53290905  0.83323720  1
  Mg  Mg134  1  0.26646555  0.53293010  0.83367289  1
  Mg  Mg135  1  0.26646555  0.73353445  0.83367289  1
  Mg  Mg136  1  0.46706990  0.73353445  0.83367289  1
  Mg  Mg137  1  0.46670364  0.53329636  0.83398794  1
  Mg  Mg138  1  0.06659372  0.53329636  0.83398794  1
  Mg  Mg139  1  0.46670364  0.93340628  0.83398794  1
  Mg  Mg140  1  0.26492521  0.33116950  0.83444872  1
  Mg  Mg141  1  0.06624330  0.33116950  0.83444872  1
  Mg  Mg142  1  0.66883050  0.73507379  0.83444872  1
  Mg  Mg143  1  0.06624330  0.73507379  0.83444872  1
  Mg  Mg144  1  0.26492521  0.93375570  0.83444872  1
  Mg  Mg145  1  0.66883050  0.93375570  0.83444872  1
  Mg  Mg146  1  0.06314590  0.12629279  0.84322014  1
  Mg  Mg147  1  0.87370621  0.93685310  0.84322014  1
  Mg  Mg148  1  0.06314590  0.93685310  0.84322014  1
  Tc  Tc149  1  -0.00000000  0.00000000  -0.00000000  1
