# generated using pymatgen
data_K3Bi2(NO3)9
_symmetry_space_group_name_H-M   'P 1'
_cell_length_a   13.70575833
_cell_length_b   13.70575833
_cell_length_c   13.70575833
_cell_angle_alpha   90.00000000
_cell_angle_beta   90.00000000
_cell_angle_gamma   90.00000000
_symmetry_Int_Tables_number   1
_chemical_formula_structural   K3Bi2(NO3)9
_chemical_formula_sum   'K12 Bi8 N36 O108'
_cell_volume   2574.59670587
_cell_formula_units_Z   4
loop_
 _symmetry_equiv_pos_site_id
 _symmetry_equiv_pos_as_xyz
  1  'x, y, z'
loop_
 _atom_site_type_symbol
 _atom_site_label
 _atom_site_symmetry_multiplicity
 _atom_site_fract_x
 _atom_site_fract_y
 _atom_site_fract_z
 _atom_site_occupancy
  K  K0  1  0.18811568  0.06188432  0.62500000  1
  K  K1  1  0.81188432  0.56188432  0.87500000  1
  K  K2  1  0.56188432  0.87500000  0.81188432  1
  K  K3  1  0.43811568  0.37500000  0.68811568  1
  K  K4  1  0.37500000  0.68811568  0.43811568  1
  K  K5  1  0.62500000  0.18811568  0.06188432  1
  K  K6  1  0.68811568  0.43811568  0.37500000  1
  K  K7  1  0.31188432  0.93811568  0.12500000  1
  K  K8  1  0.06188432  0.62500000  0.18811568  1
  K  K9  1  0.93811568  0.12500000  0.31188432  1
  K  K10  1  0.87500000  0.81188432  0.56188432  1
  K  K11  1  0.12500000  0.31188432  0.93811568  1
  Bi  Bi12  1  0.54566501  0.04566501  0.45433499  1
  Bi  Bi13  1  0.45433499  0.54566501  0.04566501  1
  Bi  Bi14  1  0.04566501  0.45433499  0.54566501  1
  Bi  Bi15  1  0.95433499  0.95433499  0.95433499  1
  Bi  Bi16  1  0.20433499  0.70433499  0.79566501  1
  Bi  Bi17  1  0.70433499  0.79566501  0.20433499  1
  Bi  Bi18  1  0.79566501  0.20433499  0.70433499  1
  Bi  Bi19  1  0.29566501  0.29566501  0.29566501  1
  N  N20  1  0.37500000  0.51606457  0.26606457  1
  N  N21  1  0.62500000  0.01606457  0.23393543  1
  N  N22  1  0.01606457  0.23393543  0.62500000  1
  N  N23  1  0.98393543  0.73393543  0.87500000  1
  N  N24  1  0.73393543  0.87500000  0.98393543  1
  N  N25  1  0.26606457  0.37500000  0.51606457  1
  N  N26  1  0.87500000  0.98393543  0.73393543  1
  N  N27  1  0.12500000  0.48393543  0.76606457  1
  N  N28  1  0.51606457  0.26606457  0.37500000  1
  N  N29  1  0.48393543  0.76606457  0.12500000  1
  N  N30  1  0.23393543  0.62500000  0.01606457  1
  N  N31  1  0.76606457  0.12500000  0.48393543  1
  N  N32  1  0.39725167  0.91423600  0.36255435  1
  N  N33  1  0.60274833  0.41423600  0.13744565  1
  N  N34  1  0.41423600  0.13744565  0.60274833  1
  N  N35  1  0.58576400  0.63744565  0.89725167  1
  N  N36  1  0.63744565  0.89725167  0.58576400  1
  N  N37  1  0.36255435  0.39725167  0.91423600  1
  N  N38  1  0.89725167  0.58576400  0.63744565  1
  N  N39  1  0.10274833  0.08576400  0.86255435  1
  N  N40  1  0.91423600  0.36255435  0.39725167  1
  N  N41  1  0.08576400  0.86255435  0.10274833  1
  N  N42  1  0.13744565  0.60274833  0.41423600  1
  N  N43  1  0.86255435  0.10274833  0.08576400  1
  N  N44  1  0.33576400  0.85274833  0.88744565  1
  N  N45  1  0.83576400  0.64725167  0.11255435  1
  N  N46  1  0.66423600  0.35274833  0.61255435  1
  N  N47  1  0.16423600  0.14725167  0.38744565  1
  N  N48  1  0.64725167  0.11255435  0.83576400  1
  N  N49  1  0.35274833  0.61255435  0.66423600  1
  N  N50  1  0.85274833  0.88744565  0.33576400  1
  N  N51  1  0.14725167  0.38744565  0.16423600  1
  N  N52  1  0.11255435  0.83576400  0.64725167  1
  N  N53  1  0.61255435  0.66423600  0.35274833  1
  N  N54  1  0.88744565  0.33576400  0.85274833  1
  N  N55  1  0.38744565  0.16423600  0.14725167  1
  O  O56  1  0.33955429  0.49633894  0.34816463  1
  O  O57  1  0.66044571  0.99633894  0.15183537  1
  O  O58  1  0.99633894  0.15183537  0.66044571  1
  O  O59  1  0.00366106  0.65183537  0.83955429  1
  O  O60  1  0.65183537  0.83955429  0.00366106  1
  O  O61  1  0.34816463  0.33955429  0.49633894  1
  O  O62  1  0.83955429  0.00366106  0.65183537  1
  O  O63  1  0.16044571  0.50366106  0.84816463  1
  O  O64  1  0.49633894  0.34816463  0.33955429  1
  O  O65  1  0.50366106  0.84816463  0.16044571  1
  O  O66  1  0.15183537  0.66044571  0.99633894  1
  O  O67  1  0.84816463  0.16044571  0.50366106  1
  O  O68  1  0.75366106  0.91044571  0.90183537  1
  O  O69  1  0.25366106  0.58955429  0.09816463  1
  O  O70  1  0.24633894  0.41044571  0.59816463  1
  O  O71  1  0.74633894  0.08955429  0.40183537  1
  O  O72  1  0.58955429  0.09816463  0.25366106  1
  O  O73  1  0.41044571  0.59816463  0.24633894  1
  O  O74  1  0.91044571  0.90183537  0.75366106  1
  O  O75  1  0.08955429  0.40183537  0.74633894  1
  O  O76  1  0.09816463  0.25366106  0.58955429  1
  O  O77  1  0.59816463  0.24633894  0.41044571  1
  O  O78  1  0.90183537  0.75366106  0.91044571  1
  O  O79  1  0.40183537  0.74633894  0.08955429  1
  O  O80  1  0.37500000  0.44945927  0.19945927  1
  O  O81  1  0.62500000  0.94945927  0.30054073  1
  O  O82  1  0.94945927  0.30054073  0.62500000  1
  O  O83  1  0.05054073  0.80054073  0.87500000  1
  O  O84  1  0.80054073  0.87500000  0.05054073  1
  O  O85  1  0.19945927  0.37500000  0.44945927  1
  O  O86  1  0.87500000  0.05054073  0.80054073  1
  O  O87  1  0.12500000  0.55054073  0.69945927  1
  O  O88  1  0.44945927  0.19945927  0.37500000  1
  O  O89  1  0.55054073  0.69945927  0.12500000  1
  O  O90  1  0.30054073  0.62500000  0.94945927  1
  O  O91  1  0.69945927  0.12500000  0.55054073  1
  O  O92  1  0.44529653  0.89100158  0.44002167  1
  O  O93  1  0.55470347  0.39100158  0.05997833  1
  O  O94  1  0.39100158  0.05997833  0.55470347  1
  O  O95  1  0.60899842  0.55997833  0.94529653  1
  O  O96  1  0.55997833  0.94529653  0.60899842  1
  O  O97  1  0.44002167  0.44529653  0.89100158  1
  O  O98  1  0.94529653  0.60899842  0.55997833  1
  O  O99  1  0.05470347  0.10899842  0.94002167  1
  O  O100  1  0.89100158  0.44002167  0.44529653  1
  O  O101  1  0.10899842  0.94002167  0.05470347  1
  O  O102  1  0.05997833  0.55470347  0.39100158  1
  O  O103  1  0.94002167  0.05470347  0.10899842  1
  O  O104  1  0.35899842  0.80470347  0.80997833  1
  O  O105  1  0.85899842  0.69529653  0.19002167  1
  O  O106  1  0.64100158  0.30470347  0.69002167  1
  O  O107  1  0.14100158  0.19529653  0.30997833  1
  O  O108  1  0.69529653  0.19002167  0.85899842  1
  O  O109  1  0.30470347  0.69002167  0.64100158  1
  O  O110  1  0.80470347  0.80997833  0.35899842  1
  O  O111  1  0.19529653  0.30997833  0.14100158  1
  O  O112  1  0.19002167  0.85899842  0.69529653  1
  O  O113  1  0.69002167  0.64100158  0.30470347  1
  O  O114  1  0.80997833  0.35899842  0.80470347  1
  O  O115  1  0.30997833  0.14100158  0.19529653  1
  O  O116  1  0.33763303  0.85685354  0.32554969  1
  O  O117  1  0.66236697  0.35685354  0.17445031  1
  O  O118  1  0.35685354  0.17445031  0.66236697  1
  O  O119  1  0.64314646  0.67445031  0.83763303  1
  O  O120  1  0.67445031  0.83763303  0.64314646  1
  O  O121  1  0.32554969  0.33763303  0.85685354  1
  O  O122  1  0.83763303  0.64314646  0.67445031  1
  O  O123  1  0.16236697  0.14314646  0.82554969  1
  O  O124  1  0.85685354  0.32554969  0.33763303  1
  O  O125  1  0.14314646  0.82554969  0.16236697  1
  O  O126  1  0.17445031  0.66236697  0.35685354  1
  O  O127  1  0.82554969  0.16236697  0.14314646  1
  O  O128  1  0.39314646  0.91236697  0.92445031  1
  O  O129  1  0.89314646  0.58763303  0.07554969  1
  O  O130  1  0.60685354  0.41236697  0.57554969  1
  O  O131  1  0.10685354  0.08763303  0.42445031  1
  O  O132  1  0.58763303  0.07554969  0.89314646  1
  O  O133  1  0.41236697  0.57554969  0.60685354  1
  O  O134  1  0.91236697  0.92445031  0.39314646  1
  O  O135  1  0.08763303  0.42445031  0.10685354  1
  O  O136  1  0.07554969  0.89314646  0.58763303  1
  O  O137  1  0.57554969  0.60685354  0.41236697  1
  O  O138  1  0.92445031  0.39314646  0.91236697  1
  O  O139  1  0.42445031  0.10685354  0.08763303  1
  O  O140  1  0.41397381  0.99808505  0.32605786  1
  O  O141  1  0.58602619  0.49808505  0.17394214  1
  O  O142  1  0.49808505  0.17394214  0.58602619  1
  O  O143  1  0.50191495  0.67394214  0.91397381  1
  O  O144  1  0.67394214  0.91397381  0.50191495  1
  O  O145  1  0.32605786  0.41397381  0.99808505  1
  O  O146  1  0.91397381  0.50191495  0.67394214  1
  O  O147  1  0.08602619  0.00191495  0.82605786  1
  O  O148  1  0.99808505  0.32605786  0.41397381  1
  O  O149  1  0.00191495  0.82605786  0.08602619  1
  O  O150  1  0.17394214  0.58602619  0.49808505  1
  O  O151  1  0.82605786  0.08602619  0.00191495  1
  O  O152  1  0.25191495  0.83602619  0.92394214  1
  O  O153  1  0.75191495  0.66397381  0.07605786  1
  O  O154  1  0.74808505  0.33602619  0.57605786  1
  O  O155  1  0.24808505  0.16397381  0.42394214  1
  O  O156  1  0.66397381  0.07605786  0.75191495  1
  O  O157  1  0.33602619  0.57605786  0.74808505  1
  O  O158  1  0.83602619  0.92394214  0.25191495  1
  O  O159  1  0.16397381  0.42394214  0.24808505  1
  O  O160  1  0.07605786  0.75191495  0.66397381  1
  O  O161  1  0.57605786  0.74808505  0.33602619  1
  O  O162  1  0.92394214  0.25191495  0.83602619  1
  O  O163  1  0.42394214  0.24808505  0.16397381  1
