# generated using pymatgen
data_HgS2O7
_symmetry_space_group_name_H-M   'P 1'
_cell_length_a   13.25262800
_cell_length_b   5.28409400
_cell_length_c   9.76067744
_cell_angle_alpha   59.71889474
_cell_angle_beta   90.00000000
_cell_angle_gamma   90.00000000
_symmetry_Int_Tables_number   1
_chemical_formula_structural   HgS2O7
_chemical_formula_sum   'Hg4 S8 O28'
_cell_volume   590.26355403
_cell_formula_units_Z   4
loop_
 _symmetry_equiv_pos_site_id
 _symmetry_equiv_pos_as_xyz
  1  'x, y, z'
loop_
 _atom_site_type_symbol
 _atom_site_label
 _atom_site_symmetry_multiplicity
 _atom_site_fract_x
 _atom_site_fract_y
 _atom_site_fract_z
 _atom_site_occupancy
  Hg  Hg0  1  0.65718700  0.14680100  0.17144700  1
  Hg  Hg1  1  0.84281300  0.14680100  0.67144700  1
  Hg  Hg2  1  0.34281300  0.85319900  0.82855300  1
  Hg  Hg3  1  0.15718700  0.85319900  0.32855300  1
  S  S4  1  0.47904400  0.63899500  0.19268700  1
  S  S5  1  0.02095600  0.63899500  0.69268700  1
  S  S6  1  0.52095600  0.36100500  0.80731300  1
  S  S7  1  0.97904400  0.36100500  0.30731300  1
  S  S8  1  0.82380600  0.74317900  0.09012600  1
  S  S9  1  0.67619400  0.74317900  0.59012600  1
  S  S10  1  0.17619400  0.25682100  0.90987400  1
  S  S11  1  0.32380600  0.25682100  0.40987400  1
  O  O12  1  0.44114100  0.31855200  0.34218400  1
  O  O13  1  0.05885900  0.31855200  0.84218400  1
  O  O14  1  0.55885900  0.68144800  0.65781600  1
  O  O15  1  0.94114100  0.68144800  0.15781600  1
  O  O16  1  0.83520600  0.02268100  0.94338900  1
  O  O17  1  0.66479400  0.02268100  0.44338900  1
  O  O18  1  0.16479400  0.97731900  0.05661100  1
  O  O19  1  0.33520600  0.97731900  0.55661100  1
  O  O20  1  0.76520000  0.76726300  0.21121200  1
  O  O21  1  0.73480000  0.76726300  0.71121200  1
  O  O22  1  0.23480000  0.23273700  0.78878800  1
  O  O23  1  0.26520000  0.23273700  0.28878800  1
  O  O24  1  0.39168800  0.77017300  0.08889600  1
  O  O25  1  0.10831200  0.77017300  0.58889600  1
  O  O26  1  0.60831200  0.22982700  0.91110400  1
  O  O27  1  0.89168800  0.22982700  0.41110400  1
  O  O28  1  0.55975800  0.55152400  0.12283300  1
  O  O29  1  0.94024200  0.55152400  0.62283300  1
  O  O30  1  0.44024200  0.44847600  0.87716700  1
  O  O31  1  0.05975800  0.44847600  0.37716700  1
  O  O32  1  0.51362100  0.80358000  0.26707700  1
  O  O33  1  0.98637900  0.80358000  0.76707700  1
  O  O34  1  0.48637900  0.19642000  0.73292300  1
  O  O35  1  0.01362100  0.19642000  0.23292300  1
  O  O36  1  0.79624500  0.49428600  0.07185800  1
  O  O37  1  0.70375500  0.49428600  0.57185800  1
  O  O38  1  0.20375500  0.50571400  0.92814200  1
  O  O39  1  0.29624500  0.50571400  0.42814200  1
