# generated using pymatgen
data_K5Sc3F14
_symmetry_space_group_name_H-M   'P 1'
_cell_length_a   7.99008800
_cell_length_b   7.99008800
_cell_length_c   12.02288800
_cell_angle_alpha   90.00000000
_cell_angle_beta   90.00000000
_cell_angle_gamma   90.00000000
_symmetry_Int_Tables_number   1
_chemical_formula_structural   K5Sc3F14
_chemical_formula_sum   'K10 Sc6 F28'
_cell_volume   767.55927937
_cell_formula_units_Z   2
loop_
 _symmetry_equiv_pos_site_id
 _symmetry_equiv_pos_as_xyz
  1  'x, y, z'
loop_
 _atom_site_type_symbol
 _atom_site_label
 _atom_site_symmetry_multiplicity
 _atom_site_fract_x
 _atom_site_fract_y
 _atom_site_fract_z
 _atom_site_occupancy
  K  K0  1  0.00000000  0.00000000  0.50000000  1
  K  K1  1  0.50000000  0.50000000  0.00000000  1
  K  K2  1  0.22344700  0.72344700  0.25000000  1
  K  K3  1  0.77655300  0.27655300  0.75000000  1
  K  K4  1  0.77655300  0.27655300  0.25000000  1
  K  K5  1  0.27655300  0.22344700  0.25000000  1
  K  K6  1  0.22344700  0.72344700  0.75000000  1
  K  K7  1  0.72344700  0.77655300  0.75000000  1
  K  K8  1  0.72344700  0.77655300  0.25000000  1
  K  K9  1  0.27655300  0.22344700  0.75000000  1
  Sc  Sc10  1  0.00000000  0.00000000  0.00000000  1
  Sc  Sc11  1  0.50000000  0.50000000  0.50000000  1
  Sc  Sc12  1  0.00000000  0.50000000  0.00000000  1
  Sc  Sc13  1  0.50000000  0.00000000  0.00000000  1
  Sc  Sc14  1  0.50000000  0.00000000  0.50000000  1
  Sc  Sc15  1  0.00000000  0.50000000  0.50000000  1
  F  F16  1  0.24801000  0.06161900  0.00000000  1
  F  F17  1  0.75199000  0.93838100  0.00000000  1
  F  F18  1  0.93838100  0.24801000  0.00000000  1
  F  F19  1  0.25199000  0.56161900  0.50000000  1
  F  F20  1  0.06161900  0.75199000  0.00000000  1
  F  F21  1  0.74801000  0.43838100  0.50000000  1
  F  F22  1  0.56161900  0.74801000  0.50000000  1
  F  F23  1  0.43838100  0.25199000  0.50000000  1
  F  F24  1  0.00000000  0.00000000  0.16761800  1
  F  F25  1  0.00000000  0.00000000  0.83238200  1
  F  F26  1  0.50000000  0.50000000  0.33238200  1
  F  F27  1  0.50000000  0.50000000  0.66761800  1
  F  F28  1  0.03523400  0.32215700  0.38299800  1
  F  F29  1  0.96476600  0.67784300  0.61700200  1
  F  F30  1  0.96476600  0.67784300  0.38299800  1
  F  F31  1  0.67784300  0.03523400  0.38299800  1
  F  F32  1  0.46476600  0.82215700  0.11700200  1
  F  F33  1  0.03523400  0.32215700  0.61700200  1
  F  F34  1  0.32215700  0.96476600  0.61700200  1
  F  F35  1  0.53523400  0.17784300  0.88299800  1
  F  F36  1  0.32215700  0.96476600  0.38299800  1
  F  F37  1  0.53523400  0.17784300  0.11700200  1
  F  F38  1  0.67784300  0.03523400  0.61700200  1
  F  F39  1  0.46476600  0.82215700  0.88299800  1
  F  F40  1  0.82215700  0.53523400  0.11700200  1
  F  F41  1  0.17784300  0.46476600  0.88299800  1
  F  F42  1  0.17784300  0.46476600  0.11700200  1
  F  F43  1  0.82215700  0.53523400  0.88299800  1
