# generated using pymatgen
data_Mg2FeBO5
_symmetry_space_group_name_H-M   'P 1'
_cell_length_a   3.04330100
_cell_length_b   9.37323900
_cell_length_c   12.42583400
_cell_angle_alpha   90.00000000
_cell_angle_beta   90.00000000
_cell_angle_gamma   90.00000000
_symmetry_Int_Tables_number   1
_chemical_formula_structural   Mg2FeBO5
_chemical_formula_sum   'Mg8 Fe4 B4 O20'
_cell_volume   354.45421654
_cell_formula_units_Z   4
loop_
 _symmetry_equiv_pos_site_id
 _symmetry_equiv_pos_as_xyz
  1  'x, y, z'
loop_
 _atom_site_type_symbol
 _atom_site_label
 _atom_site_symmetry_multiplicity
 _atom_site_fract_x
 _atom_site_fract_y
 _atom_site_fract_z
 _atom_site_occupancy
  Mg  Mg0  1  0.50000000  0.00000000  0.50000000  1
  Mg  Mg1  1  0.50000000  0.50000000  0.00000000  1
  Mg  Mg2  1  0.50000000  0.00080500  0.21830200  1
  Mg  Mg3  1  0.50000000  0.99919500  0.78169800  1
  Mg  Mg4  1  0.50000000  0.49919500  0.71830200  1
  Mg  Mg5  1  0.50000000  0.50080500  0.28169800  1
  Mg  Mg6  1  0.00000000  0.00000000  0.00000000  1
  Mg  Mg7  1  0.00000000  0.50000000  0.50000000  1
  Fe  Fe8  1  0.00000000  0.23932700  0.38443400  1
  Fe  Fe9  1  0.00000000  0.76067300  0.61556600  1
  Fe  Fe10  1  0.00000000  0.26067300  0.88443400  1
  Fe  Fe11  1  0.00000000  0.73932700  0.11556600  1
  B  B12  1  0.00000000  0.27201300  0.13986700  1
  B  B13  1  0.00000000  0.72798700  0.86013300  1
  B  B14  1  0.00000000  0.22798700  0.63986700  1
  B  B15  1  0.00000000  0.77201300  0.36013300  1
  O  O16  1  0.00000000  0.34907600  0.23661500  1
  O  O17  1  0.00000000  0.65092400  0.76338500  1
  O  O18  1  0.00000000  0.15092400  0.73661500  1
  O  O19  1  0.00000000  0.84907600  0.26338500  1
  O  O20  1  0.50000000  0.10755800  0.35675400  1
  O  O21  1  0.50000000  0.89244200  0.64324600  1
  O  O22  1  0.50000000  0.39244200  0.85675400  1
  O  O23  1  0.50000000  0.60755800  0.14324600  1
  O  O24  1  0.00000000  0.12455500  0.14206500  1
  O  O25  1  0.00000000  0.87544500  0.85793500  1
  O  O26  1  0.00000000  0.37544500  0.64206500  1
  O  O27  1  0.00000000  0.62455500  0.35793500  1
  O  O28  1  0.00000000  0.34946600  0.04340800  1
  O  O29  1  0.00000000  0.65053400  0.95659200  1
  O  O30  1  0.00000000  0.15053400  0.54340800  1
  O  O31  1  0.00000000  0.84946600  0.45659200  1
  O  O32  1  0.50000000  0.38248800  0.42356900  1
  O  O33  1  0.50000000  0.61751200  0.57643100  1
  O  O34  1  0.50000000  0.11751200  0.92356900  1
  O  O35  1  0.50000000  0.88248800  0.07643100  1
