# generated using pymatgen
data_KTb(WO4)2
_symmetry_space_group_name_H-M   'P 1'
_cell_length_a   7.60874118
_cell_length_b   7.60874118
_cell_length_c   7.49200444
_cell_angle_alpha   62.38977664
_cell_angle_beta   62.38977664
_cell_angle_gamma   88.45661148
_symmetry_Int_Tables_number   1
_chemical_formula_structural   KTb(WO4)2
_chemical_formula_sum   'K2 Tb2 W4 O16'
_cell_volume   330.68223096
_cell_formula_units_Z   2
loop_
 _symmetry_equiv_pos_site_id
 _symmetry_equiv_pos_as_xyz
  1  'x, y, z'
loop_
 _atom_site_type_symbol
 _atom_site_label
 _atom_site_symmetry_multiplicity
 _atom_site_fract_x
 _atom_site_fract_y
 _atom_site_fract_z
 _atom_site_occupancy
  K  K0  1  0.70326100  0.29673900  0.75000000  1
  K  K1  1  0.29673900  0.70326100  0.25000000  1
  Tb  Tb2  1  0.27533900  0.72466100  0.75000000  1
  Tb  Tb3  1  0.72466100  0.27533900  0.25000000  1
  W  W4  1  0.79968600  0.80833200  0.22167600  1
  W  W5  1  0.19166800  0.20031400  0.27832400  1
  W  W6  1  0.20031400  0.19166800  0.77832400  1
  W  W7  1  0.80833200  0.79968600  0.72167600  1
  O  O8  1  0.45746800  0.28550000  0.18557500  1
  O  O9  1  0.71450000  0.54253200  0.31442500  1
  O  O10  1  0.54253200  0.71450000  0.81442500  1
  O  O11  1  0.28550000  0.45746800  0.68557500  1
  O  O12  1  0.08977400  0.86969400  0.96879200  1
  O  O13  1  0.13030600  0.91022600  0.53120800  1
  O  O14  1  0.91022600  0.13030600  0.03120800  1
  O  O15  1  0.86969400  0.08977400  0.46879200  1
  O  O16  1  0.12372400  0.43824700  0.12464400  1
  O  O17  1  0.56175300  0.87627600  0.37535600  1
  O  O18  1  0.87627600  0.56175300  0.87535600  1
  O  O19  1  0.43824700  0.12372400  0.62464400  1
  O  O20  1  0.74289800  0.87864300  0.94445500  1
  O  O21  1  0.12135700  0.25710200  0.55554500  1
  O  O22  1  0.25710200  0.12135700  0.05554500  1
  O  O23  1  0.87864300  0.74289800  0.44445500  1
