# generated using pymatgen
data_MnGeRh
_symmetry_space_group_name_H-M   'P 1'
_cell_length_a   7.46951559
_cell_length_b   7.46951559
_cell_length_c   7.46951559
_cell_angle_alpha   127.41697796
_cell_angle_beta   122.94009411
_cell_angle_gamma   81.29349328
_symmetry_Int_Tables_number   1
_chemical_formula_structural   MnGeRh
_chemical_formula_sum   'Mn6 Ge6 Rh6'
_cell_volume   267.58048300
_cell_formula_units_Z   6
loop_
 _symmetry_equiv_pos_site_id
 _symmetry_equiv_pos_as_xyz
  1  'x, y, z'
loop_
 _atom_site_type_symbol
 _atom_site_label
 _atom_site_symmetry_multiplicity
 _atom_site_fract_x
 _atom_site_fract_y
 _atom_site_fract_z
 _atom_site_occupancy
  Mn  Mn0  1  0.94278500  0.98920900  0.54642400  1
  Mn  Mn1  1  0.05721500  0.60363800  0.04642400  1
  Mn  Mn2  1  0.53280600  0.55921400  0.52640700  1
  Mn  Mn3  1  0.46719400  0.99360100  0.02640700  1
  Mn  Mn4  1  0.74147200  0.39750000  0.15602900  1
  Mn  Mn5  1  0.25852800  0.41455700  0.65602900  1
  Ge  Ge6  1  0.72236300  0.97334500  0.75098200  1
  Ge  Ge7  1  0.84028000  0.32948400  0.50388200  1
  Ge  Ge8  1  0.15972000  0.66360200  0.48920400  1
  Ge  Ge9  1  0.27763700  0.02861900  0.25098200  1
  Ge  Ge10  1  0.32560200  0.32948400  0.98920400  1
  Ge  Ge11  1  0.67439800  0.66360200  0.00388200  1
  Rh  Rh12  1  0.00000000  0.73978000  0.73978000  1
  Rh  Rh13  1  0.50000000  0.73978000  0.23978000  1
  Rh  Rh14  1  0.33744800  0.00032700  0.59551300  1
  Rh  Rh15  1  0.09518500  0.25806500  0.09551300  1
  Rh  Rh16  1  0.90481500  0.00032700  0.16287900  1
  Rh  Rh17  1  0.66255200  0.25806500  0.66287900  1
