# generated using pymatgen
data_Cs4Zn3F10
_symmetry_space_group_name_H-M   'P 1'
_cell_length_a   8.01102154
_cell_length_b   8.01102154
_cell_length_c   14.14095900
_cell_angle_alpha   90.00000000
_cell_angle_beta   90.00000000
_cell_angle_gamma   133.47593830
_symmetry_Int_Tables_number   1
_chemical_formula_structural   Cs4Zn3F10
_chemical_formula_sum   'Cs8 Zn6 F20'
_cell_volume   658.55169627
_cell_formula_units_Z   2
loop_
 _symmetry_equiv_pos_site_id
 _symmetry_equiv_pos_as_xyz
  1  'x, y, z'
loop_
 _atom_site_type_symbol
 _atom_site_label
 _atom_site_symmetry_multiplicity
 _atom_site_fract_x
 _atom_site_fract_y
 _atom_site_fract_z
 _atom_site_occupancy
  Cs  Cs0  1  0.25519300  0.74480700  0.60996800  1
  Cs  Cs1  1  0.74480700  0.25519300  0.39003200  1
  Cs  Cs2  1  0.24480700  0.75519300  0.10996800  1
  Cs  Cs3  1  0.75519300  0.24480700  0.89003200  1
  Cs  Cs4  1  0.95576900  0.04423100  0.63884500  1
  Cs  Cs5  1  0.04423100  0.95576900  0.36115500  1
  Cs  Cs6  1  0.54423100  0.45576900  0.13884500  1
  Cs  Cs7  1  0.45576900  0.54423100  0.86115500  1
  Zn  Zn8  1  0.62100100  0.37899900  0.65570000  1
  Zn  Zn9  1  0.37899900  0.62100100  0.34430000  1
  Zn  Zn10  1  0.87899900  0.12100100  0.15570000  1
  Zn  Zn11  1  0.12100100  0.87899900  0.84430000  1
  Zn  Zn12  1  0.50000000  0.50000000  0.50000000  1
  Zn  Zn13  1  0.00000000  0.00000000  0.00000000  1
  F  F14  1  0.61414500  0.81387600  0.46225900  1
  F  F15  1  0.81387600  0.61414500  0.53774100  1
  F  F16  1  0.88585500  0.68612400  0.96225900  1
  F  F17  1  0.68612400  0.88585500  0.03774100  1
  F  F18  1  0.38585500  0.18612400  0.53774100  1
  F  F19  1  0.18612400  0.38585500  0.46225900  1
  F  F20  1  0.11414500  0.31387600  0.03774100  1
  F  F21  1  0.31387600  0.11414500  0.96225900  1
  F  F22  1  0.47464900  0.52535100  0.64481100  1
  F  F23  1  0.52535100  0.47464900  0.35518900  1
  F  F24  1  0.02535100  0.97464900  0.14481100  1
  F  F25  1  0.97464900  0.02535100  0.85518900  1
  F  F26  1  0.75423100  0.24576900  0.65040000  1
  F  F27  1  0.24576900  0.75423100  0.34960000  1
  F  F28  1  0.36195700  0.13804300  0.75000000  1
  F  F29  1  0.13804300  0.36195700  0.25000000  1
  F  F30  1  0.63804300  0.86195700  0.25000000  1
  F  F31  1  0.86195700  0.63804300  0.75000000  1
  F  F32  1  0.25423100  0.74576900  0.84960000  1
  F  F33  1  0.74576900  0.25423100  0.15040000  1
