# generated using pymatgen
data_Na3U6CrF30
_symmetry_space_group_name_H-M   'P 1'
_cell_length_a   9.90395507
_cell_length_b   9.90395507
_cell_length_c   13.07371200
_cell_angle_alpha   90.00000000
_cell_angle_beta   90.00000000
_cell_angle_gamma   120.00000716
_symmetry_Int_Tables_number   1
_chemical_formula_structural   Na3U6CrF30
_chemical_formula_sum   'Na6 U12 Cr2 F60'
_cell_volume   1110.57230031
_cell_formula_units_Z   2
loop_
 _symmetry_equiv_pos_site_id
 _symmetry_equiv_pos_as_xyz
  1  'x, y, z'
loop_
 _atom_site_type_symbol
 _atom_site_label
 _atom_site_symmetry_multiplicity
 _atom_site_fract_x
 _atom_site_fract_y
 _atom_site_fract_z
 _atom_site_occupancy
  Na  Na0  1  0.66666700  0.33333300  0.66264100  1
  Na  Na1  1  0.66666700  0.33333300  0.16264100  1
  Na  Na2  1  0.33333300  0.66666700  0.33735900  1
  Na  Na3  1  0.33333300  0.66666700  0.83735900  1
  Na  Na4  1  0.00000000  0.00000000  0.50000000  1
  Na  Na5  1  0.00000000  0.00000000  0.00000000  1
  U  U6  1  0.07535300  0.67525100  0.60173800  1
  U  U7  1  0.59989800  0.92464700  0.60173800  1
  U  U8  1  0.32474900  0.40010200  0.60173800  1
  U  U9  1  0.07535300  0.40010200  0.10173800  1
  U  U10  1  0.32474900  0.92464700  0.10173800  1
  U  U11  1  0.59989800  0.67525100  0.10173800  1
  U  U12  1  0.92464700  0.32474900  0.39826200  1
  U  U13  1  0.40010200  0.07535300  0.39826200  1
  U  U14  1  0.67525100  0.59989800  0.39826200  1
  U  U15  1  0.92464700  0.59989800  0.89826200  1
  U  U16  1  0.67525100  0.07535300  0.89826200  1
  U  U17  1  0.40010200  0.32474900  0.89826200  1
  Cr  Cr18  1  0.00000000  0.00000000  0.75000000  1
  Cr  Cr19  1  0.00000000  0.00000000  0.25000000  1
  F  F20  1  0.86884700  0.56663400  0.71577400  1
  F  F21  1  0.69778700  0.13115300  0.71577400  1
  F  F22  1  0.43336600  0.30221300  0.71577400  1
  F  F23  1  0.86884700  0.30221300  0.21577400  1
  F  F24  1  0.43336600  0.13115300  0.21577400  1
  F  F25  1  0.69778700  0.56663400  0.21577400  1
  F  F26  1  0.13115300  0.43336600  0.28422600  1
  F  F27  1  0.30221300  0.86884700  0.28422600  1
  F  F28  1  0.56663400  0.69778700  0.28422600  1
  F  F29  1  0.13115300  0.69778700  0.78422600  1
  F  F30  1  0.56663400  0.86884700  0.78422600  1
  F  F31  1  0.30221300  0.43336600  0.78422600  1
  F  F32  1  0.88464300  0.69321800  0.51934000  1
  F  F33  1  0.80857600  0.11535700  0.51934000  1
  F  F34  1  0.30678200  0.19142400  0.51934000  1
  F  F35  1  0.88464300  0.19142400  0.01934000  1
  F  F36  1  0.30678200  0.11535700  0.01934000  1
  F  F37  1  0.80857600  0.69321800  0.01934000  1
  F  F38  1  0.11535700  0.30678200  0.48066000  1
  F  F39  1  0.19142400  0.88464300  0.48066000  1
  F  F40  1  0.69321800  0.80857600  0.48066000  1
  F  F41  1  0.11535700  0.80857600  0.98066000  1
  F  F42  1  0.69321800  0.88464300  0.98066000  1
  F  F43  1  0.19142400  0.30678200  0.98066000  1
  F  F44  1  0.12037900  0.58753700  0.44913600  1
  F  F45  1  0.46715800  0.87962100  0.44913600  1
  F  F46  1  0.41246300  0.53284200  0.44913600  1
  F  F47  1  0.12037900  0.53284200  0.94913600  1
  F  F48  1  0.41246300  0.87962100  0.94913600  1
  F  F49  1  0.46715800  0.58753700  0.94913600  1
  F  F50  1  0.87962100  0.41246300  0.55086400  1
  F  F51  1  0.53284200  0.12037900  0.55086400  1
  F  F52  1  0.58753700  0.46715800  0.55086400  1
  F  F53  1  0.87962100  0.46715800  0.05086400  1
  F  F54  1  0.58753700  0.12037900  0.05086400  1
  F  F55  1  0.53284200  0.41246300  0.05086400  1
  F  F56  1  0.08571000  0.90291400  0.66123100  1
  F  F57  1  0.81720400  0.91429000  0.66123100  1
  F  F58  1  0.09708600  0.18279600  0.66123100  1
  F  F59  1  0.08571000  0.18279600  0.16123100  1
  F  F60  1  0.09708600  0.91429000  0.16123100  1
  F  F61  1  0.81720400  0.90291400  0.16123100  1
  F  F62  1  0.91429000  0.09708600  0.33876900  1
  F  F63  1  0.18279600  0.08571000  0.33876900  1
  F  F64  1  0.90291400  0.81720400  0.33876900  1
  F  F65  1  0.91429000  0.81720400  0.83876900  1
  F  F66  1  0.90291400  0.08571000  0.83876900  1
  F  F67  1  0.18279600  0.09708600  0.83876900  1
  F  F68  1  0.34066000  0.82918400  0.63743200  1
  F  F69  1  0.48852400  0.65934000  0.63743200  1
  F  F70  1  0.17081600  0.51147600  0.63743200  1
  F  F71  1  0.34066000  0.51147600  0.13743200  1
  F  F72  1  0.17081600  0.65934000  0.13743200  1
  F  F73  1  0.48852400  0.82918400  0.13743200  1
  F  F74  1  0.65934000  0.17081600  0.36256800  1
  F  F75  1  0.51147600  0.34066000  0.36256800  1
  F  F76  1  0.82918400  0.48852400  0.36256800  1
  F  F77  1  0.65934000  0.48852400  0.86256800  1
  F  F78  1  0.82918400  0.34066000  0.86256800  1
  F  F79  1  0.51147600  0.17081600  0.86256800  1
