# generated using pymatgen
data_MgGaAu2
_symmetry_space_group_name_H-M   'P 1'
_cell_length_a   4.46489209
_cell_length_b   4.46489209
_cell_length_c   8.69577400
_cell_angle_alpha   90.00000000
_cell_angle_beta   90.00000000
_cell_angle_gamma   120.00000132
_symmetry_Int_Tables_number   1
_chemical_formula_structural   MgGaAu2
_chemical_formula_sum   'Mg2 Ga2 Au4'
_cell_volume   150.12769061
_cell_formula_units_Z   2
loop_
 _symmetry_equiv_pos_site_id
 _symmetry_equiv_pos_as_xyz
  1  'x, y, z'
loop_
 _atom_site_type_symbol
 _atom_site_label
 _atom_site_symmetry_multiplicity
 _atom_site_fract_x
 _atom_site_fract_y
 _atom_site_fract_z
 _atom_site_occupancy
  Mg  Mg0  1  0.66666700  0.33333300  0.25000000  1
  Mg  Mg1  1  0.33333300  0.66666700  0.75000000  1
  Ga  Ga2  1  0.00000000  0.00000000  0.50000000  1
  Ga  Ga3  1  0.00000000  0.00000000  0.00000000  1
  Au  Au4  1  0.33333300  0.66666700  0.41054800  1
  Au  Au5  1  0.66666700  0.33333300  0.58945200  1
  Au  Au6  1  0.66666700  0.33333300  0.91054800  1
  Au  Au7  1  0.33333300  0.66666700  0.08945200  1
