# generated using pymatgen
data_MgTi4(PO4)6
_symmetry_space_group_name_H-M   'P 1'
_cell_length_a   8.58056757
_cell_length_b   8.58056757
_cell_length_c   8.58056693
_cell_angle_alpha   60.57659549
_cell_angle_beta   60.57659549
_cell_angle_gamma   60.57659300
_symmetry_Int_Tables_number   1
_chemical_formula_structural   MgTi4(PO4)6
_chemical_formula_sum   'Mg1 Ti4 P6 O24'
_cell_volume   452.53579883
_cell_formula_units_Z   1
loop_
 _symmetry_equiv_pos_site_id
 _symmetry_equiv_pos_as_xyz
  1  'x, y, z'
loop_
 _atom_site_type_symbol
 _atom_site_label
 _atom_site_symmetry_multiplicity
 _atom_site_fract_x
 _atom_site_fract_y
 _atom_site_fract_z
 _atom_site_occupancy
  Mg  Mg0  1  0.50000000  0.50000000  0.50000000  1
  Ti  Ti1  1  0.64681000  0.64681000  0.64681000  1
  Ti  Ti2  1  0.13333100  0.13333100  0.13333100  1
  Ti  Ti3  1  0.35319000  0.35319000  0.35319000  1
  Ti  Ti4  1  0.86666900  0.86666900  0.86666900  1
  P  P5  1  0.46946700  0.04703000  0.74477700  1
  P  P6  1  0.04703000  0.74477700  0.46946700  1
  P  P7  1  0.74477700  0.46946700  0.04703000  1
  P  P8  1  0.95297000  0.25522300  0.53053300  1
  P  P9  1  0.25522300  0.53053300  0.95297000  1
  P  P10  1  0.53053300  0.95297000  0.25522300  1
  O  O11  1  0.50921400  0.88462100  0.68188400  1
  O  O12  1  0.88462100  0.68188400  0.50921400  1
  O  O13  1  0.68188400  0.50921400  0.88462100  1
  O  O14  1  0.99648000  0.20212800  0.36499900  1
  O  O15  1  0.20212800  0.36499900  0.99648000  1
  O  O16  1  0.36499900  0.99648000  0.20212800  1
  O  O17  1  0.49078600  0.11537900  0.31811600  1
  O  O18  1  0.11537900  0.31811600  0.49078600  1
  O  O19  1  0.31811600  0.49078600  0.11537900  1
  O  O20  1  0.00352000  0.79787200  0.63500100  1
  O  O21  1  0.79787200  0.63500100  0.00352000  1
  O  O22  1  0.63500100  0.00352000  0.79787200  1
  O  O23  1  0.54933900  0.75998600  0.42041500  1
  O  O24  1  0.75998600  0.42041500  0.54933900  1
  O  O25  1  0.42041500  0.54933900  0.75998600  1
  O  O26  1  0.06203200  0.90831400  0.28086900  1
  O  O27  1  0.90831400  0.28086900  0.06203200  1
  O  O28  1  0.28086900  0.06203200  0.90831400  1
  O  O29  1  0.45066100  0.24001400  0.57958500  1
  O  O30  1  0.24001400  0.57958500  0.45066100  1
  O  O31  1  0.57958500  0.45066100  0.24001400  1
  O  O32  1  0.93796800  0.09168600  0.71913100  1
  O  O33  1  0.09168600  0.71913100  0.93796800  1
  O  O34  1  0.71913100  0.93796800  0.09168600  1
