# generated using pymatgen
data_Al9Rh2
_symmetry_space_group_name_H-M   'P 1'
_cell_length_a   6.45469400
_cell_length_b   6.36952800
_cell_length_c   8.76594683
_cell_angle_alpha   85.04612720
_cell_angle_beta   90.00000000
_cell_angle_gamma   90.00000000
_symmetry_Int_Tables_number   1
_chemical_formula_structural   Al9Rh2
_chemical_formula_sum   'Al18 Rh4'
_cell_volume   359.05122682
_cell_formula_units_Z   2
loop_
 _symmetry_equiv_pos_site_id
 _symmetry_equiv_pos_as_xyz
  1  'x, y, z'
loop_
 _atom_site_type_symbol
 _atom_site_label
 _atom_site_symmetry_multiplicity
 _atom_site_fract_x
 _atom_site_fract_y
 _atom_site_fract_z
 _atom_site_occupancy
  Al  Al0  1  0.50000000  0.00000000  0.50000000  1
  Al  Al1  1  0.00000000  0.00000000  0.00000000  1
  Al  Al2  1  0.60567800  0.21217900  0.95999100  1
  Al  Al3  1  0.10567800  0.78782100  0.54000900  1
  Al  Al4  1  0.52126800  0.40009700  0.23074700  1
  Al  Al5  1  0.02126800  0.59990300  0.26925300  1
  Al  Al6  1  0.47873200  0.59990300  0.76925300  1
  Al  Al7  1  0.97873200  0.40009700  0.73074700  1
  Al  Al8  1  0.30368700  0.38824500  0.50283400  1
  Al  Al9  1  0.80368700  0.61175500  0.99716600  1
  Al  Al10  1  0.69631300  0.61175500  0.49716600  1
  Al  Al11  1  0.19631300  0.38824500  0.00283400  1
  Al  Al12  1  0.21326000  0.09635800  0.27276300  1
  Al  Al13  1  0.71326000  0.90364200  0.22723700  1
  Al  Al14  1  0.78674000  0.90364200  0.72723700  1
  Al  Al15  1  0.28674000  0.09635800  0.77276300  1
  Al  Al16  1  0.89432200  0.21217900  0.45999100  1
  Al  Al17  1  0.39432200  0.78782100  0.04000900  1
  Rh  Rh18  1  0.62286700  0.26423700  0.66830200  1
  Rh  Rh19  1  0.12286700  0.73576300  0.83169800  1
  Rh  Rh20  1  0.37713300  0.73576300  0.33169800  1
  Rh  Rh21  1  0.87713300  0.26423700  0.16830200  1
