# generated using pymatgen
data_CeRh
_symmetry_space_group_name_H-M   'P 1'
_cell_length_a   5.98054687
_cell_length_b   5.98054687
_cell_length_c   4.03522000
_cell_angle_alpha   90.00000000
_cell_angle_beta   90.00000000
_cell_angle_gamma   142.39915179
_symmetry_Int_Tables_number   1
_chemical_formula_structural   CeRh
_chemical_formula_sum   'Ce2 Rh2'
_cell_volume   88.06240367
_cell_formula_units_Z   2
loop_
 _symmetry_equiv_pos_site_id
 _symmetry_equiv_pos_as_xyz
  1  'x, y, z'
loop_
 _atom_site_type_symbol
 _atom_site_label
 _atom_site_symmetry_multiplicity
 _atom_site_fract_x
 _atom_site_fract_y
 _atom_site_fract_z
 _atom_site_occupancy
  Ce  Ce0  1  0.86298700  0.13701300  0.75000000  1
  Ce  Ce1  1  0.13701300  0.86298700  0.25000000  1
  Rh  Rh2  1  0.59715600  0.40284400  0.75000000  1
  Rh  Rh3  1  0.40284400  0.59715600  0.25000000  1
