# generated using pymatgen
data_K2Pd(S2O7)3
_symmetry_space_group_name_H-M   'P 1'
_cell_length_a   11.66740500
_cell_length_b   11.68085992
_cell_length_c   16.85242404
_cell_angle_alpha   70.03555677
_cell_angle_beta   78.97795442
_cell_angle_gamma   61.09957877
_symmetry_Int_Tables_number   1
_chemical_formula_structural   K2Pd(S2O7)3
_chemical_formula_sum   'K8 Pd4 S24 O84'
_cell_volume   1888.91429028
_cell_formula_units_Z   4
loop_
 _symmetry_equiv_pos_site_id
 _symmetry_equiv_pos_as_xyz
  1  'x, y, z'
loop_
 _atom_site_type_symbol
 _atom_site_label
 _atom_site_symmetry_multiplicity
 _atom_site_fract_x
 _atom_site_fract_y
 _atom_site_fract_z
 _atom_site_occupancy
  K  K0  1  0.71359400  0.09503600  0.42197200  1
  K  K1  1  0.28640600  0.90496400  0.57802800  1
  K  K2  1  0.24603100  0.10554400  0.91971900  1
  K  K3  1  0.75396900  0.89445600  0.08028100  1
  K  K4  1  0.27321300  0.58045800  0.86510700  1
  K  K5  1  0.72678700  0.41954200  0.13489300  1
  K  K6  1  0.19437100  0.40824800  0.61087400  1
  K  K7  1  0.80562900  0.59175200  0.38912600  1
  Pd  Pd8  1  0.25007600  0.23474200  0.26370700  1
  Pd  Pd9  1  0.74992400  0.76525800  0.73629300  1
  Pd  Pd10  1  0.75258000  0.24700800  0.76483700  1
  Pd  Pd11  1  0.24742000  0.75299200  0.23516300  1
  S  S12  1  0.96414700  0.95706900  0.86974500  1
  S  S13  1  0.03585300  0.04293100  0.13025500  1
  S  S14  1  0.48464200  0.94666300  0.35038000  1
  S  S15  1  0.51535800  0.05333700  0.64962000  1
  S  S16  1  0.01225700  0.52025500  0.17975700  1
  S  S17  1  0.98774300  0.47974500  0.82024300  1
  S  S18  1  0.53637800  0.53507600  0.66049300  1
  S  S19  1  0.46362200  0.46492400  0.33950700  1
  S  S20  1  0.54870600  0.15451300  0.22504200  1
  S  S21  1  0.45129400  0.84548700  0.77495800  1
  S  S22  1  0.14651400  0.30455800  0.43965100  1
  S  S23  1  0.85348600  0.69544200  0.56034900  1
  S  S24  1  0.05632000  0.13201500  0.73729600  1
  S  S25  1  0.94368000  0.86798500  0.26270400  1
  S  S26  1  0.69294400  0.32872600  0.57338100  1
  S  S27  1  0.30705600  0.67127400  0.42661900  1
  S  S28  1  0.53270400  0.18133400  0.88912800  1
  S  S29  1  0.46729600  0.81866600  0.11087200  1
  S  S30  1  0.65269700  0.31791200  0.93640800  1
  S  S31  1  0.34730300  0.68208800  0.06359200  1
  S  S32  1  0.03484000  0.16910300  0.38304500  1
  S  S33  1  0.96516000  0.83089700  0.61695500  1
  S  S34  1  0.17780300  0.34690600  0.07345600  1
  S  S35  1  0.82219700  0.65309400  0.92654400  1
  O  O36  1  0.14264300  0.44243600  0.22445200  1
  O  O37  1  0.85735700  0.55756400  0.77554800  1
  O  O38  1  0.08572000  0.20705500  0.29229100  1
  O  O39  1  0.91428000  0.79294500  0.70770900  1
  O  O40  1  0.66289600  0.45360500  0.70934500  1
  O  O41  1  0.33710400  0.54639500  0.29065500  1
  O  O42  1  0.92430800  0.25961700  0.72678100  1
  O  O43  1  0.07569200  0.74038300  0.27321900  1
  O  O44  1  0.76914800  0.27359900  0.87516000  1
  O  O45  1  0.23085200  0.72640100  0.12484000  1
  O  O46  1  0.00042300  0.65248000  0.13019800  1
  O  O47  1  0.99957700  0.34752000  0.86980200  1
  O  O48  1  0.25874700  0.23085000  0.38446600  1
  O  O49  1  0.74125300  0.76915000  0.61553400  1
  O  O50  1  0.05124900  0.04539200  0.83805700  1
  O  O51  1  0.94875100  0.95460800  0.16194300  1
  O  O52  1  0.36753800  0.02750800  0.29312000  1
  O  O53  1  0.63246200  0.97249200  0.70688000  1
  O  O54  1  0.85252400  0.03854100  0.80772400  1
  O  O55  1  0.14747600  0.96145900  0.19227600  1
  O  O56  1  0.57495200  0.25006900  0.80247100  1
  O  O57  1  0.42504800  0.74993100  0.19752900  1
  O  O58  1  0.54883200  0.43697300  0.60413800  1
  O  O59  1  0.45116800  0.56302700  0.39586200  1
  O  O60  1  0.56311900  0.04350500  0.32045400  1
  O  O61  1  0.43688100  0.95649500  0.67954600  1
  O  O62  1  0.77072100  0.40042500  0.53848000  1
  O  O63  1  0.22927900  0.59957500  0.46152000  1
  O  O64  1  0.24518900  0.22143900  0.14738000  1
  O  O65  1  0.75481100  0.77856100  0.85262000  1
  O  O66  1  0.41148200  0.27000800  0.23014200  1
  O  O67  1  0.58851800  0.72999200  0.76985800  1
  O  O68  1  0.03103500  0.43076400  0.11618000  1
  O  O69  1  0.96896500  0.56923600  0.88382000  1
  O  O70  1  0.04346700  0.82674400  0.85414500  1
  O  O71  1  0.95653300  0.17325600  0.14585500  1
  O  O72  1  0.90162800  0.51336400  0.23265600  1
  O  O73  1  0.09837200  0.48663600  0.76734400  1
  O  O74  1  0.41795000  0.54821900  0.70945000  1
  O  O75  1  0.58205000  0.45178100  0.29055000  1
  O  O76  1  0.64116400  0.20166200  0.22721300  1
  O  O77  1  0.35883600  0.79833800  0.77278700  1
  O  O78  1  0.15436500  0.17429900  0.73617800  1
  O  O79  1  0.84563500  0.82570100  0.26382200  1
  O  O80  1  0.54261100  0.44472400  0.90061100  1
  O  O81  1  0.45738900  0.55527600  0.09938900  1
  O  O82  1  0.23784600  0.43666600  0.04285300  1
  O  O83  1  0.76215400  0.56333400  0.95714700  1
  O  O84  1  0.70264100  0.29337000  0.01506600  1
  O  O85  1  0.29735900  0.70663000  0.98493400  1
  O  O86  1  0.54063700  0.65734100  0.60379400  1
  O  O87  1  0.45936300  0.34265900  0.39620600  1
  O  O88  1  0.01928200  0.29423900  0.41774100  1
  O  O89  1  0.98071800  0.70576100  0.58225900  1
  O  O90  1  0.56762900  0.82247200  0.32738500  1
  O  O91  1  0.43237100  0.17752800  0.67261500  1
  O  O92  1  0.09823200  0.44965800  0.41837000  1
  O  O93  1  0.90176800  0.55034200  0.58163000  1
  O  O94  1  0.74331300  0.21326900  0.65511000  1
  O  O95  1  0.25668700  0.78673100  0.34489000  1
  O  O96  1  0.14709000  0.30083600  0.01532200  1
  O  O97  1  0.85291000  0.69916400  0.98467800  1
  O  O98  1  0.07666400  0.04739500  0.68611000  1
  O  O99  1  0.92333600  0.95260500  0.31389000  1
  O  O100  1  0.90179700  0.19769600  0.37892400  1
  O  O101  1  0.09820300  0.80230400  0.62107600  1
  O  O102  1  0.92545800  0.96236000  0.95477400  1
  O  O103  1  0.07454200  0.03764000  0.04522600  1
  O  O104  1  0.65770600  0.27801900  0.52033400  1
  O  O105  1  0.34229400  0.72198100  0.47966600  1
  O  O106  1  0.12433200  0.04240500  0.43684300  1
  O  O107  1  0.87566800  0.95759500  0.56315700  1
  O  O108  1  0.45661600  0.93882100  0.43793900  1
  O  O109  1  0.54338400  0.06117900  0.56206100  1
  O  O110  1  0.60775200  0.19361000  0.95782700  1
  O  O111  1  0.39224800  0.80639000  0.04217300  1
  O  O112  1  0.18122400  0.22525900  0.52617100  1
  O  O113  1  0.81877600  0.77474100  0.47382900  1
  O  O114  1  0.39325200  0.26530200  0.89737100  1
  O  O115  1  0.60674800  0.73469800  0.10262900  1
  O  O116  1  0.57992500  0.03662000  0.91014000  1
  O  O117  1  0.42007500  0.96338000  0.08986000  1
  O  O118  1  0.56600700  0.08729200  0.16348900  1
  O  O119  1  0.43399300  0.91270800  0.83651100  1
