# generated using pymatgen
data_Cs4U(Ge2O5)4
_symmetry_space_group_name_H-M   'P 1'
_cell_length_a   12.54638500
_cell_length_b   7.54691900
_cell_length_c   14.50031571
_cell_angle_alpha   58.83658014
_cell_angle_beta   90.00000000
_cell_angle_gamma   90.00000000
_symmetry_Int_Tables_number   1
_chemical_formula_structural   Cs4U(Ge2O5)4
_chemical_formula_sum   'Cs8 U2 Ge16 O40'
_cell_volume   1174.85605258
_cell_formula_units_Z   2
loop_
 _symmetry_equiv_pos_site_id
 _symmetry_equiv_pos_as_xyz
  1  'x, y, z'
loop_
 _atom_site_type_symbol
 _atom_site_label
 _atom_site_symmetry_multiplicity
 _atom_site_fract_x
 _atom_site_fract_y
 _atom_site_fract_z
 _atom_site_occupancy
  Cs  Cs0  1  0.42369100  0.33336100  0.16641500  1
  Cs  Cs1  1  0.07630900  0.33336100  0.66641500  1
  Cs  Cs2  1  0.57630900  0.66663900  0.83358500  1
  Cs  Cs3  1  0.92369100  0.66663900  0.33358500  1
  Cs  Cs4  1  0.44079500  0.30891600  0.67805400  1
  Cs  Cs5  1  0.05920500  0.30891600  0.17805400  1
  Cs  Cs6  1  0.55920500  0.69108400  0.32194600  1
  Cs  Cs7  1  0.94079500  0.69108400  0.82194600  1
  U  U8  1  0.50000000  0.00000000  0.50000000  1
  U  U9  1  0.00000000  0.00000000  0.00000000  1
  Ge  Ge10  1  0.10827300  0.96398000  0.50280300  1
  Ge  Ge11  1  0.39172700  0.96398000  0.00280300  1
  Ge  Ge12  1  0.89172700  0.03602000  0.49719700  1
  Ge  Ge13  1  0.60827300  0.03602000  0.99719700  1
  Ge  Ge14  1  0.73507000  0.64436300  0.57355900  1
  Ge  Ge15  1  0.76493000  0.64436300  0.07355900  1
  Ge  Ge16  1  0.26493000  0.35563700  0.42644100  1
  Ge  Ge17  1  0.23507000  0.35563700  0.92644100  1
  Ge  Ge18  1  0.27083300  0.79710500  0.39959600  1
  Ge  Ge19  1  0.22916700  0.79710500  0.89959600  1
  Ge  Ge20  1  0.72916700  0.20289500  0.60040400  1
  Ge  Ge21  1  0.77083300  0.20289500  0.10040400  1
  Ge  Ge22  1  0.27726400  0.75112000  0.69523000  1
  Ge  Ge23  1  0.22273600  0.75112000  0.19523000  1
  Ge  Ge24  1  0.72273600  0.24888000  0.30477000  1
  Ge  Ge25  1  0.77726400  0.24888000  0.80477000  1
  O  O26  1  0.19991000  0.73928800  0.59745800  1
  O  O27  1  0.30009000  0.73928800  0.09745800  1
  O  O28  1  0.80009000  0.26071200  0.40254200  1
  O  O29  1  0.69991000  0.26071200  0.90254200  1
  O  O30  1  0.81071400  0.85725700  0.47711300  1
  O  O31  1  0.68928600  0.85725700  0.97711300  1
  O  O32  1  0.18928600  0.14274300  0.52288700  1
  O  O33  1  0.31071400  0.14274300  0.02288700  1
  O  O34  1  0.15235800  0.93496300  0.38967000  1
  O  O35  1  0.34764200  0.93496300  0.88967000  1
  O  O36  1  0.84764200  0.06503700  0.61033000  1
  O  O37  1  0.65235800  0.06503700  0.11033000  1
  O  O38  1  0.99437100  0.83186100  0.58710700  1
  O  O39  1  0.50562900  0.83186100  0.08710700  1
  O  O40  1  0.00562900  0.16813900  0.41289300  1
  O  O41  1  0.49437100  0.16813900  0.91289300  1
  O  O42  1  0.29599700  0.47770000  0.79610600  1
  O  O43  1  0.20400300  0.47770000  0.29610600  1
  O  O44  1  0.70400300  0.52230000  0.20389400  1
  O  O45  1  0.79599700  0.52230000  0.70389400  1
  O  O46  1  0.75030000  0.47693800  0.51979000  1
  O  O47  1  0.74970000  0.47693800  0.01979000  1
  O  O48  1  0.24970000  0.52306200  0.48021000  1
  O  O49  1  0.25030000  0.52306200  0.98021000  1
  O  O50  1  0.60086400  0.70398200  0.57532100  1
  O  O51  1  0.89913600  0.70398200  0.07532100  1
  O  O52  1  0.39913600  0.29601800  0.42467900  1
  O  O53  1  0.10086400  0.29601800  0.92467900  1
  O  O54  1  0.20522700  0.85646800  0.76345400  1
  O  O55  1  0.29477300  0.85646800  0.26345400  1
  O  O56  1  0.79477300  0.14353200  0.23654600  1
  O  O57  1  0.70522700  0.14353200  0.73654600  1
  O  O58  1  0.39097700  0.87033700  0.43053100  1
  O  O59  1  0.10902300  0.87033700  0.93053100  1
  O  O60  1  0.60902300  0.12966300  0.56946900  1
  O  O61  1  0.89097700  0.12966300  0.06946900  1
  O  O62  1  0.40466800  0.85840300  0.65407700  1
  O  O63  1  0.09533200  0.85840300  0.15407700  1
  O  O64  1  0.59533200  0.14159700  0.34592300  1
  O  O65  1  0.90466800  0.14159700  0.84592300  1
