# generated using pymatgen
data_CsEr(MoO4)2
_symmetry_space_group_name_H-M   'P 1'
_cell_length_a   6.04971176
_cell_length_b   6.04971176
_cell_length_c   8.23393000
_cell_angle_alpha   90.00000000
_cell_angle_beta   90.00000000
_cell_angle_gamma   119.99999737
_symmetry_Int_Tables_number   1
_chemical_formula_structural   CsEr(MoO4)2
_chemical_formula_sum   'Cs1 Er1 Mo2 O8'
_cell_volume   260.97997180
_cell_formula_units_Z   1
loop_
 _symmetry_equiv_pos_site_id
 _symmetry_equiv_pos_as_xyz
  1  'x, y, z'
loop_
 _atom_site_type_symbol
 _atom_site_label
 _atom_site_symmetry_multiplicity
 _atom_site_fract_x
 _atom_site_fract_y
 _atom_site_fract_z
 _atom_site_occupancy
  Cs  Cs0  1  0.00000000  0.00000000  0.00000000  1
  Er  Er1  1  0.00000000  0.00000000  0.50000000  1
  Mo  Mo2  1  0.33333300  0.66666700  0.26487300  1
  Mo  Mo3  1  0.66666700  0.33333300  0.73512700  1
  O  O4  1  0.16961500  0.83038500  0.33522300  1
  O  O5  1  0.83038500  0.16961500  0.66477700  1
  O  O6  1  0.16961500  0.33922900  0.33522300  1
  O  O7  1  0.83038500  0.66077100  0.66477700  1
  O  O8  1  0.66077100  0.83038500  0.33522300  1
  O  O9  1  0.33922900  0.16961500  0.66477700  1
  O  O10  1  0.33333300  0.66666700  0.05179900  1
  O  O11  1  0.66666700  0.33333300  0.94820100  1
