# generated using pymatgen
data_Ba3(LiSb)4
_symmetry_space_group_name_H-M   'P 1'
_cell_length_a   9.49155383
_cell_length_b   9.49155383
_cell_length_c   9.49155383
_cell_angle_alpha   149.08445252
_cell_angle_beta   132.26988862
_cell_angle_gamma   57.95742805
_symmetry_Int_Tables_number   1
_chemical_formula_structural   Ba3(LiSb)4
_chemical_formula_sum   'Ba3 Li4 Sb4'
_cell_volume   322.65042327
_cell_formula_units_Z   1
loop_
 _symmetry_equiv_pos_site_id
 _symmetry_equiv_pos_as_xyz
  1  'x, y, z'
loop_
 _atom_site_type_symbol
 _atom_site_label
 _atom_site_symmetry_multiplicity
 _atom_site_fract_x
 _atom_site_fract_y
 _atom_site_fract_z
 _atom_site_occupancy
  Ba  Ba0  1  0.63239800  0.13239800  0.50000000  1
  Ba  Ba1  1  0.36760200  0.86760200  0.50000000  1
  Ba  Ba2  1  0.00000000  0.00000000  0.00000000  1
  Li  Li3  1  0.98167700  0.67569700  0.30598000  1
  Li  Li4  1  0.01832300  0.32430300  0.69402000  1
  Li  Li5  1  0.63028300  0.32430300  0.30598000  1
  Li  Li6  1  0.36971700  0.67569700  0.69402000  1
  Sb  Sb7  1  0.78701400  0.78701400  0.00000000  1
  Sb  Sb8  1  0.21298600  0.21298600  0.00000000  1
  Sb  Sb9  1  0.68625000  0.50000000  0.18625000  1
  Sb  Sb10  1  0.31375000  0.50000000  0.81375000  1
