# generated using pymatgen
data_Nd2Ge(BO4)2
_symmetry_space_group_name_H-M   'P 1'
_cell_length_a   4.52011100
_cell_length_b   9.58344100
_cell_length_c   13.83569600
_cell_angle_alpha   90.00000000
_cell_angle_beta   90.00000000
_cell_angle_gamma   90.00000000
_symmetry_Int_Tables_number   1
_chemical_formula_structural   Nd2Ge(BO4)2
_chemical_formula_sum   'Nd8 Ge4 B8 O32'
_cell_volume   599.33768281
_cell_formula_units_Z   4
loop_
 _symmetry_equiv_pos_site_id
 _symmetry_equiv_pos_as_xyz
  1  'x, y, z'
loop_
 _atom_site_type_symbol
 _atom_site_label
 _atom_site_symmetry_multiplicity
 _atom_site_fract_x
 _atom_site_fract_y
 _atom_site_fract_z
 _atom_site_occupancy
  Nd  Nd0  1  0.45840000  0.52595600  0.64037800  1
  Nd  Nd1  1  0.04160000  0.02595600  0.85962200  1
  Nd  Nd2  1  0.04160000  0.47404400  0.14037800  1
  Nd  Nd3  1  0.45840000  0.97404400  0.35962200  1
  Nd  Nd4  1  0.54160000  0.47404400  0.35962200  1
  Nd  Nd5  1  0.95840000  0.97404400  0.14037800  1
  Nd  Nd6  1  0.95840000  0.52595600  0.85962200  1
  Nd  Nd7  1  0.54160000  0.02595600  0.64037800  1
  Ge  Ge8  1  0.92274700  0.75000000  0.50000000  1
  Ge  Ge9  1  0.57725300  0.25000000  0.00000000  1
  Ge  Ge10  1  0.07725300  0.25000000  0.50000000  1
  Ge  Ge11  1  0.42274700  0.75000000  0.00000000  1
  B  B12  1  0.53257400  0.70433800  0.20053900  1
  B  B13  1  0.96742600  0.20433800  0.29946100  1
  B  B14  1  0.96742600  0.29566200  0.70053900  1
  B  B15  1  0.53257400  0.79566200  0.79946100  1
  B  B16  1  0.46742600  0.29566200  0.79946100  1
  B  B17  1  0.03257400  0.79566200  0.70053900  1
  B  B18  1  0.03257400  0.70433800  0.29946100  1
  B  B19  1  0.46742600  0.20433800  0.20053900  1
  O  O20  1  0.53767100  0.55400900  0.19286000  1
  O  O21  1  0.96232900  0.05400900  0.30714000  1
  O  O22  1  0.96232900  0.44599100  0.69286000  1
  O  O23  1  0.53767100  0.94599100  0.80714000  1
  O  O24  1  0.46232900  0.44599100  0.80714000  1
  O  O25  1  0.03767100  0.94599100  0.69286000  1
  O  O26  1  0.03767100  0.55400900  0.30714000  1
  O  O27  1  0.46232900  0.05400900  0.19286000  1
  O  O28  1  0.65002900  0.76678200  0.10661900  1
  O  O29  1  0.84997100  0.26678200  0.39338100  1
  O  O30  1  0.84997100  0.23321800  0.60661900  1
  O  O31  1  0.65002900  0.73321800  0.89338100  1
  O  O32  1  0.34997100  0.23321800  0.89338100  1
  O  O33  1  0.15002900  0.73321800  0.60661900  1
  O  O34  1  0.15002900  0.76678200  0.39338100  1
  O  O35  1  0.34997100  0.26678200  0.10661900  1
  O  O36  1  0.22658000  0.76044300  0.21937000  1
  O  O37  1  0.27342000  0.26044300  0.28063000  1
  O  O38  1  0.27342000  0.23955700  0.71937000  1
  O  O39  1  0.22658000  0.73955700  0.78063000  1
  O  O40  1  0.77342000  0.23955700  0.78063000  1
  O  O41  1  0.72658000  0.73955700  0.71937000  1
  O  O42  1  0.72658000  0.76044300  0.28063000  1
  O  O43  1  0.77342000  0.26044300  0.21937000  1
  O  O44  1  0.70490100  0.60023700  0.49537500  1
  O  O45  1  0.79509900  0.10023700  0.00462500  1
  O  O46  1  0.79509900  0.39976300  0.99537500  1
  O  O47  1  0.70490100  0.89976300  0.50462500  1
  O  O48  1  0.29509900  0.39976300  0.50462500  1
  O  O49  1  0.20490100  0.89976300  0.99537500  1
  O  O50  1  0.20490100  0.60023700  0.00462500  1
  O  O51  1  0.29509900  0.10023700  0.49537500  1
