# generated using pymatgen
data_BaZn(SeO3)2
_symmetry_space_group_name_H-M   'P 1'
_cell_length_a   16.77955100
_cell_length_b   5.65431000
_cell_length_c   8.69640656
_cell_angle_alpha   56.70191263
_cell_angle_beta   90.00000000
_cell_angle_gamma   90.00000000
_symmetry_Int_Tables_number   1
_chemical_formula_structural   BaZn(SeO3)2
_chemical_formula_sum   'Ba4 Zn4 Se8 O24'
_cell_volume   689.62897516
_cell_formula_units_Z   4
loop_
 _symmetry_equiv_pos_site_id
 _symmetry_equiv_pos_as_xyz
  1  'x, y, z'
loop_
 _atom_site_type_symbol
 _atom_site_label
 _atom_site_symmetry_multiplicity
 _atom_site_fract_x
 _atom_site_fract_y
 _atom_site_fract_z
 _atom_site_occupancy
  Ba  Ba0  1  0.78239500  0.51583600  0.85016400  1
  Ba  Ba1  1  0.71760500  0.51583600  0.35016400  1
  Ba  Ba2  1  0.21760500  0.48416400  0.14983600  1
  Ba  Ba3  1  0.28239500  0.48416400  0.64983600  1
  Zn  Zn4  1  0.57892900  0.75527700  0.59454000  1
  Zn  Zn5  1  0.92107100  0.75527700  0.09454000  1
  Zn  Zn6  1  0.42107100  0.24472300  0.40546000  1
  Zn  Zn7  1  0.07892900  0.24472300  0.90546000  1
  Se  Se8  1  0.86791100  0.04346400  0.33404800  1
  Se  Se9  1  0.63208900  0.04346400  0.83404800  1
  Se  Se10  1  0.13208900  0.95653600  0.66595200  1
  Se  Se11  1  0.36791100  0.95653600  0.16595200  1
  Se  Se12  1  0.43407900  0.79245400  0.82980500  1
  Se  Se13  1  0.06592100  0.79245400  0.32980500  1
  Se  Se14  1  0.56592100  0.20754600  0.17019500  1
  Se  Se15  1  0.93407900  0.20754600  0.67019500  1
  O  O16  1  0.85147200  0.40925500  0.18932000  1
  O  O17  1  0.64852800  0.40925500  0.68932000  1
  O  O18  1  0.14852800  0.59074500  0.81068000  1
  O  O19  1  0.35147200  0.59074500  0.31068000  1
  O  O20  1  0.78249500  0.94709600  0.45737900  1
  O  O21  1  0.71750500  0.94709600  0.95737900  1
  O  O22  1  0.21750500  0.05290400  0.54262100  1
  O  O23  1  0.28249500  0.05290400  0.04262100  1
  O  O24  1  0.84858500  0.94946000  0.17659900  1
  O  O25  1  0.65141500  0.94946000  0.67659900  1
  O  O26  1  0.15141500  0.05054000  0.82340100  1
  O  O27  1  0.34858500  0.05054000  0.32340100  1
  O  O28  1  0.41051900  0.14332400  0.66336300  1
  O  O29  1  0.08948100  0.14332400  0.16336300  1
  O  O30  1  0.58948100  0.85667600  0.33663700  1
  O  O31  1  0.91051900  0.85667600  0.83663700  1
  O  O32  1  0.34512000  0.62453900  0.89547000  1
  O  O33  1  0.15488000  0.62453900  0.39547000  1
  O  O34  1  0.65488000  0.37546100  0.10453000  1
  O  O35  1  0.84512000  0.37546100  0.60453000  1
  O  O36  1  0.46842800  0.69266900  0.68378200  1
  O  O37  1  0.03157200  0.69266900  0.18378200  1
  O  O38  1  0.53157200  0.30733100  0.31621800  1
  O  O39  1  0.96842800  0.30733100  0.81621800  1
