# generated using pymatgen
data_Sr3YRhO6
_symmetry_space_group_name_H-M   'P 1'
_cell_length_a   6.86380976
_cell_length_b   6.86380976
_cell_length_c   6.86381026
_cell_angle_alpha   92.05698322
_cell_angle_beta   92.05698322
_cell_angle_gamma   92.05698496
_symmetry_Int_Tables_number   1
_chemical_formula_structural   Sr3YRhO6
_chemical_formula_sum   'Sr6 Y2 Rh2 O12'
_cell_volume   322.72653871
_cell_formula_units_Z   2
loop_
 _symmetry_equiv_pos_site_id
 _symmetry_equiv_pos_as_xyz
  1  'x, y, z'
loop_
 _atom_site_type_symbol
 _atom_site_label
 _atom_site_symmetry_multiplicity
 _atom_site_fract_x
 _atom_site_fract_y
 _atom_site_fract_z
 _atom_site_occupancy
  Sr  Sr0  1  0.25000000  0.88126400  0.61873600  1
  Sr  Sr1  1  0.88126400  0.61873600  0.25000000  1
  Sr  Sr2  1  0.75000000  0.11873600  0.38126400  1
  Sr  Sr3  1  0.38126400  0.75000000  0.11873600  1
  Sr  Sr4  1  0.11873600  0.38126400  0.75000000  1
  Sr  Sr5  1  0.61873600  0.25000000  0.88126400  1
  Y  Y6  1  0.75000000  0.75000000  0.75000000  1
  Y  Y7  1  0.25000000  0.25000000  0.25000000  1
  Rh  Rh8  1  0.50000000  0.50000000  0.50000000  1
  Rh  Rh9  1  0.00000000  0.00000000  0.00000000  1
  O  O10  1  0.59028700  0.79196600  0.45594100  1
  O  O11  1  0.45594100  0.59028700  0.79196600  1
  O  O12  1  0.79196600  0.45594100  0.59028700  1
  O  O13  1  0.90971300  0.04405900  0.70803400  1
  O  O14  1  0.70803400  0.90971300  0.04405900  1
  O  O15  1  0.04405900  0.70803400  0.90971300  1
  O  O16  1  0.40971300  0.20803400  0.54405900  1
  O  O17  1  0.54405900  0.40971300  0.20803400  1
  O  O18  1  0.20803400  0.54405900  0.40971300  1
  O  O19  1  0.09028700  0.95594100  0.29196600  1
  O  O20  1  0.95594100  0.29196600  0.09028700  1
  O  O21  1  0.29196600  0.09028700  0.95594100  1
