# generated using pymatgen
data_PrTiGe3
_symmetry_space_group_name_H-M   'P 1'
_cell_length_a   5.93402000
_cell_length_b   6.29807753
_cell_length_c   6.29807753
_cell_angle_alpha   119.99999506
_cell_angle_beta   90.00000000
_cell_angle_gamma   90.00000000
_symmetry_Int_Tables_number   1
_chemical_formula_structural   PrTiGe3
_chemical_formula_sum   'Pr2 Ti2 Ge6'
_cell_volume   203.84293513
_cell_formula_units_Z   2
loop_
 _symmetry_equiv_pos_site_id
 _symmetry_equiv_pos_as_xyz
  1  'x, y, z'
loop_
 _atom_site_type_symbol
 _atom_site_label
 _atom_site_symmetry_multiplicity
 _atom_site_fract_x
 _atom_site_fract_y
 _atom_site_fract_z
 _atom_site_occupancy
  Pr  Pr0  1  0.25000000  0.66666700  0.33333300  1
  Pr  Pr1  1  0.75000000  0.33333300  0.66666700  1
  Ti  Ti2  1  0.00000000  0.00000000  0.00000000  1
  Ti  Ti3  1  0.50000000  0.00000000  0.00000000  1
  Ge  Ge4  1  0.75000000  0.80310200  0.19689800  1
  Ge  Ge5  1  0.25000000  0.19689800  0.80310200  1
  Ge  Ge6  1  0.75000000  0.39379500  0.19689800  1
  Ge  Ge7  1  0.25000000  0.60620500  0.80310200  1
  Ge  Ge8  1  0.75000000  0.80310200  0.60620500  1
  Ge  Ge9  1  0.25000000  0.19689800  0.39379500  1
