# generated using pymatgen
data_VS2
_symmetry_space_group_name_H-M   'P 1'
_cell_length_a   3.18025558
_cell_length_b   3.18025558
_cell_length_c   14.42964200
_cell_angle_alpha   90.00000000
_cell_angle_beta   90.00000000
_cell_angle_gamma   119.99999123
_symmetry_Int_Tables_number   1
_chemical_formula_structural   VS2
_chemical_formula_sum   'V2 S4'
_cell_volume   126.38928955
_cell_formula_units_Z   2
loop_
 _symmetry_equiv_pos_site_id
 _symmetry_equiv_pos_as_xyz
  1  'x, y, z'
loop_
 _atom_site_type_symbol
 _atom_site_label
 _atom_site_symmetry_multiplicity
 _atom_site_fract_x
 _atom_site_fract_y
 _atom_site_fract_z
 _atom_site_occupancy
  V  V0  1  0.66666700  0.33333300  0.75000000  1
  V  V1  1  0.33333300  0.66666700  0.25000000  1
  S  S2  1  0.33333300  0.66666700  0.85338600  1
  S  S3  1  0.66666700  0.33333300  0.35338600  1
  S  S4  1  0.33333300  0.66666700  0.64661400  1
  S  S5  1  0.66666700  0.33333300  0.14661400  1
