# generated using pymatgen
data_TaBr5
_symmetry_space_group_name_H-M   'P 1'
_cell_length_a   14.44005249
_cell_length_b   14.44005249
_cell_length_c   6.79195278
_cell_angle_alpha   89.23461215
_cell_angle_beta   89.23461215
_cell_angle_gamma   85.27344357
_symmetry_Int_Tables_number   1
_chemical_formula_structural   TaBr5
_chemical_formula_sum   'Ta6 Br30'
_cell_volume   1411.17597058
_cell_formula_units_Z   6
loop_
 _symmetry_equiv_pos_site_id
 _symmetry_equiv_pos_as_xyz
  1  'x, y, z'
loop_
 _atom_site_type_symbol
 _atom_site_label
 _atom_site_symmetry_multiplicity
 _atom_site_fract_x
 _atom_site_fract_y
 _atom_site_fract_z
 _atom_site_occupancy
  Ta  Ta0  1  0.60817300  0.39182700  0.50000000  1
  Ta  Ta1  1  0.39182700  0.60817300  0.50000000  1
  Ta  Ta2  1  0.27494900  0.05860700  0.02106500  1
  Ta  Ta3  1  0.05860700  0.27494900  0.02106500  1
  Ta  Ta4  1  0.72505100  0.94139300  0.97893500  1
  Ta  Ta5  1  0.94139300  0.72505100  0.97893500  1
  Br  Br6  1  0.11918900  0.11918900  0.81816400  1
  Br  Br7  1  0.88081100  0.88081100  0.18183600  1
  Br  Br8  1  0.29974400  0.92881400  0.79435800  1
  Br  Br9  1  0.92881400  0.29974400  0.79435800  1
  Br  Br10  1  0.70025600  0.07118600  0.20564200  1
  Br  Br11  1  0.07118600  0.70025600  0.20564200  1
  Br  Br12  1  0.17010900  0.97384800  0.24039500  1
  Br  Br13  1  0.97384800  0.17010900  0.24039500  1
  Br  Br14  1  0.82989100  0.02615200  0.75960500  1
  Br  Br15  1  0.02615200  0.82989100  0.75960500  1
  Br  Br16  1  0.40500600  0.03380900  0.24686900  1
  Br  Br17  1  0.03380900  0.40500600  0.24686900  1
  Br  Br18  1  0.59499400  0.96619100  0.75313100  1
  Br  Br19  1  0.96619100  0.59499400  0.75313100  1
  Br  Br20  1  0.21422300  0.21422300  0.22464700  1
  Br  Br21  1  0.78577700  0.78577700  0.77535300  1
  Br  Br22  1  0.50347100  0.30777600  0.29011200  1
  Br  Br23  1  0.30777600  0.50347100  0.29011200  1
  Br  Br24  1  0.49652900  0.69222400  0.70988800  1
  Br  Br25  1  0.69222400  0.49652900  0.70988800  1
  Br  Br26  1  0.35950100  0.16389400  0.80251100  1
  Br  Br27  1  0.16389400  0.35950100  0.80251100  1
  Br  Br28  1  0.64049900  0.83610600  0.19748900  1
  Br  Br29  1  0.83610600  0.64049900  0.19748900  1
  Br  Br30  1  0.73831400  0.36701800  0.26874800  1
  Br  Br31  1  0.36701800  0.73831400  0.26874800  1
  Br  Br32  1  0.26168600  0.63298200  0.73125200  1
  Br  Br33  1  0.63298200  0.26168600  0.73125200  1
  Br  Br34  1  0.54785100  0.54785100  0.29182700  1
  Br  Br35  1  0.45214900  0.45214900  0.70817300  1
