# generated using pymatgen
data_Ho4CdNi
_symmetry_space_group_name_H-M   'P 1'
_cell_length_a   9.50062873
_cell_length_b   9.50062873
_cell_length_c   9.50062873
_cell_angle_alpha   60.00000000
_cell_angle_beta   60.00000000
_cell_angle_gamma   60.00000000
_symmetry_Int_Tables_number   1
_chemical_formula_structural   Ho4CdNi
_chemical_formula_sum   'Ho16 Cd4 Ni4'
_cell_volume   606.37605418
_cell_formula_units_Z   4
loop_
 _symmetry_equiv_pos_site_id
 _symmetry_equiv_pos_as_xyz
  1  'x, y, z'
loop_
 _atom_site_type_symbol
 _atom_site_label
 _atom_site_symmetry_multiplicity
 _atom_site_fract_x
 _atom_site_fract_y
 _atom_site_fract_z
 _atom_site_occupancy
  Ho  Ho0  1  0.34918800  0.34918800  0.34918800  1
  Ho  Ho1  1  0.34918800  0.34918800  0.95243500  1
  Ho  Ho2  1  0.34918800  0.95243500  0.34918800  1
  Ho  Ho3  1  0.95243500  0.34918800  0.34918800  1
  Ho  Ho4  1  0.81087700  0.18912300  0.18912300  1
  Ho  Ho5  1  0.18912300  0.81087700  0.81087700  1
  Ho  Ho6  1  0.18912300  0.81087700  0.18912300  1
  Ho  Ho7  1  0.81087700  0.18912300  0.81087700  1
  Ho  Ho8  1  0.18912300  0.18912300  0.81087700  1
  Ho  Ho9  1  0.81087700  0.81087700  0.18912300  1
  Ho  Ho10  1  0.93674500  0.56325500  0.56325500  1
  Ho  Ho11  1  0.56325500  0.93674500  0.93674500  1
  Ho  Ho12  1  0.56325500  0.93674500  0.56325500  1
  Ho  Ho13  1  0.93674500  0.56325500  0.93674500  1
  Ho  Ho14  1  0.56325500  0.56325500  0.93674500  1
  Ho  Ho15  1  0.93674500  0.93674500  0.56325500  1
  Cd  Cd16  1  0.58167500  0.58167500  0.58167500  1
  Cd  Cd17  1  0.58167500  0.58167500  0.25497600  1
  Cd  Cd18  1  0.58167500  0.25497600  0.58167500  1
  Cd  Cd19  1  0.25497600  0.58167500  0.58167500  1
  Ni  Ni20  1  0.14250200  0.14250200  0.14250200  1
  Ni  Ni21  1  0.14250200  0.14250200  0.57249400  1
  Ni  Ni22  1  0.14250200  0.57249400  0.14250200  1
  Ni  Ni23  1  0.57249400  0.14250200  0.14250200  1
