# generated using pymatgen
data_CeSmB12
_symmetry_space_group_name_H-M   'P 1'
_cell_length_a   5.82180400
_cell_length_b   5.82180400
_cell_length_c   4.11741500
_cell_angle_alpha   90.00000000
_cell_angle_beta   90.00000000
_cell_angle_gamma   90.00000000
_symmetry_Int_Tables_number   1
_chemical_formula_structural   CeSmB12
_chemical_formula_sum   'Ce1 Sm1 B12'
_cell_volume   139.55320103
_cell_formula_units_Z   1
loop_
 _symmetry_equiv_pos_site_id
 _symmetry_equiv_pos_as_xyz
  1  'x, y, z'
loop_
 _atom_site_type_symbol
 _atom_site_label
 _atom_site_symmetry_multiplicity
 _atom_site_fract_x
 _atom_site_fract_y
 _atom_site_fract_z
 _atom_site_occupancy
  Ce  Ce0  1  0.50000000  0.50000000  0.00000000  1
  Sm  Sm1  1  0.00000000  0.00000000  0.00000000  1
  B  B2  1  0.00000000  0.50000000  0.19901100  1
  B  B3  1  0.50000000  0.00000000  0.19901100  1
  B  B4  1  0.15103700  0.65014000  0.50000000  1
  B  B5  1  0.65014000  0.15103700  0.50000000  1
  B  B6  1  0.15103700  0.34986000  0.50000000  1
  B  B7  1  0.65014000  0.84896300  0.50000000  1
  B  B8  1  0.84896300  0.34986000  0.50000000  1
  B  B9  1  0.34986000  0.84896300  0.50000000  1
  B  B10  1  0.84896300  0.65014000  0.50000000  1
  B  B11  1  0.34986000  0.15103700  0.50000000  1
  B  B12  1  0.00000000  0.50000000  0.80098900  1
  B  B13  1  0.50000000  0.00000000  0.80098900  1
