# generated using pymatgen
data_Li6Yb17Hg9
_symmetry_space_group_name_H-M   'P 1'
_cell_length_a   13.41820800
_cell_length_b   13.41820800
_cell_length_c   13.41820800
_cell_angle_alpha   109.47122063
_cell_angle_beta   109.47122063
_cell_angle_gamma   109.47122063
_symmetry_Int_Tables_number   1
_chemical_formula_structural   Li6Yb17Hg9
_chemical_formula_sum   'Li12 Yb34 Hg18'
_cell_volume   1859.78040805
_cell_formula_units_Z   2
loop_
 _symmetry_equiv_pos_site_id
 _symmetry_equiv_pos_as_xyz
  1  'x, y, z'
loop_
 _atom_site_type_symbol
 _atom_site_label
 _atom_site_symmetry_multiplicity
 _atom_site_fract_x
 _atom_site_fract_y
 _atom_site_fract_z
 _atom_site_occupancy
  Li  Li0  1  0.30485400  0.15242700  0.15242700  1
  Li  Li1  1  0.69514600  0.84757300  0.84757300  1
  Li  Li2  1  0.00000000  0.15242700  0.84757300  1
  Li  Li3  1  0.00000000  0.84757300  0.15242700  1
  Li  Li4  1  0.15242700  0.30485400  0.15242700  1
  Li  Li5  1  0.84757300  0.00000000  0.15242700  1
  Li  Li6  1  0.84757300  0.69514600  0.84757300  1
  Li  Li7  1  0.15242700  0.00000000  0.84757300  1
  Li  Li8  1  0.15242700  0.15242700  0.30485400  1
  Li  Li9  1  0.84757300  0.84757300  0.69514600  1
  Li  Li10  1  0.84757300  0.15242700  0.00000000  1
  Li  Li11  1  0.15242700  0.84757300  0.00000000  1
  Yb  Yb12  1  0.45461300  0.45461300  0.26320300  1
  Yb  Yb13  1  0.54538700  0.54538700  0.73679700  1
  Yb  Yb14  1  0.19141100  0.19141100  0.73679700  1
  Yb  Yb15  1  0.80858900  0.54538700  0.00000000  1
  Yb  Yb16  1  0.26320300  0.45461300  0.45461300  1
  Yb  Yb17  1  0.80858900  0.80858900  0.26320300  1
  Yb  Yb18  1  0.19141100  0.45461300  0.00000000  1
  Yb  Yb19  1  0.73679700  0.54538700  0.54538700  1
  Yb  Yb20  1  0.54538700  0.80858900  0.00000000  1
  Yb  Yb21  1  0.73679700  0.19141100  0.19141100  1
  Yb  Yb22  1  0.45461300  0.19141100  0.00000000  1
  Yb  Yb23  1  0.26320300  0.80858900  0.80858900  1
  Yb  Yb24  1  0.00000000  0.80858900  0.54538700  1
  Yb  Yb25  1  0.00000000  0.19141100  0.45461300  1
  Yb  Yb26  1  0.00000000  0.54538700  0.80858900  1
  Yb  Yb27  1  0.00000000  0.45461300  0.19141100  1
  Yb  Yb28  1  0.45461300  0.26320300  0.45461300  1
  Yb  Yb29  1  0.19141100  0.00000000  0.45461300  1
  Yb  Yb30  1  0.54538700  0.73679700  0.54538700  1
  Yb  Yb31  1  0.80858900  0.00000000  0.54538700  1
  Yb  Yb32  1  0.54538700  0.00000000  0.80858900  1
  Yb  Yb33  1  0.45461300  0.00000000  0.19141100  1
  Yb  Yb34  1  0.80858900  0.26320300  0.80858900  1
  Yb  Yb35  1  0.19141100  0.73679700  0.19141100  1
  Yb  Yb36  1  0.00000000  0.50000000  0.50000000  1
  Yb  Yb37  1  0.50000000  0.00000000  0.50000000  1
  Yb  Yb38  1  0.50000000  0.50000000  0.00000000  1
  Yb  Yb39  1  0.00000000  0.00000000  0.00000000  1
  Yb  Yb40  1  0.50000000  0.75000000  0.25000000  1
  Yb  Yb41  1  0.50000000  0.25000000  0.75000000  1
  Yb  Yb42  1  0.25000000  0.50000000  0.75000000  1
  Yb  Yb43  1  0.75000000  0.50000000  0.25000000  1
  Yb  Yb44  1  0.75000000  0.25000000  0.50000000  1
  Yb  Yb45  1  0.25000000  0.75000000  0.50000000  1
  Hg  Hg46  1  0.58771800  0.29385900  0.29385900  1
  Hg  Hg47  1  0.41228200  0.70614100  0.70614100  1
  Hg  Hg48  1  0.00000000  0.29385900  0.70614100  1
  Hg  Hg49  1  0.00000000  0.70614100  0.29385900  1
  Hg  Hg50  1  0.29385900  0.58771800  0.29385900  1
  Hg  Hg51  1  0.70614100  0.00000000  0.29385900  1
  Hg  Hg52  1  0.70614100  0.41228200  0.70614100  1
  Hg  Hg53  1  0.29385900  0.00000000  0.70614100  1
  Hg  Hg54  1  0.29385900  0.29385900  0.58771800  1
  Hg  Hg55  1  0.70614100  0.70614100  0.41228200  1
  Hg  Hg56  1  0.70614100  0.29385900  0.00000000  1
  Hg  Hg57  1  0.29385900  0.70614100  0.00000000  1
  Hg  Hg58  1  0.00000000  0.24515900  0.24515900  1
  Hg  Hg59  1  0.00000000  0.75484100  0.75484100  1
  Hg  Hg60  1  0.24515900  0.00000000  0.24515900  1
  Hg  Hg61  1  0.75484100  0.00000000  0.75484100  1
  Hg  Hg62  1  0.24515900  0.24515900  0.00000000  1
  Hg  Hg63  1  0.75484100  0.75484100  0.00000000  1
