# generated using pymatgen
data_Cs8In2O7
_symmetry_space_group_name_H-M   'P 1'
_cell_length_a   19.14799400
_cell_length_b   7.42831600
_cell_length_c   7.56680614
_cell_angle_alpha   61.10101284
_cell_angle_beta   90.00000000
_cell_angle_gamma   90.00000000
_symmetry_Int_Tables_number   1
_chemical_formula_structural   Cs8In2O7
_chemical_formula_sum   'Cs16 In4 O14'
_cell_volume   942.25630469
_cell_formula_units_Z   2
loop_
 _symmetry_equiv_pos_site_id
 _symmetry_equiv_pos_as_xyz
  1  'x, y, z'
loop_
 _atom_site_type_symbol
 _atom_site_label
 _atom_site_symmetry_multiplicity
 _atom_site_fract_x
 _atom_site_fract_y
 _atom_site_fract_z
 _atom_site_occupancy
  Cs  Cs0  1  0.50463400  0.03772900  0.23151300  1
  Cs  Cs1  1  0.00463400  0.46227100  0.76848700  1
  Cs  Cs2  1  0.49536600  0.96227100  0.76848700  1
  Cs  Cs3  1  0.99536600  0.53772900  0.23151300  1
  Cs  Cs4  1  0.70636400  0.04463200  0.23411200  1
  Cs  Cs5  1  0.20636400  0.45536800  0.76588800  1
  Cs  Cs6  1  0.29363600  0.95536800  0.76588800  1
  Cs  Cs7  1  0.79363600  0.54463200  0.23411200  1
  Cs  Cs8  1  0.08474700  0.99472000  0.35781400  1
  Cs  Cs9  1  0.58474700  0.50528000  0.64218600  1
  Cs  Cs10  1  0.91525300  0.00528000  0.64218600  1
  Cs  Cs11  1  0.41525300  0.49472000  0.35781400  1
  Cs  Cs12  1  0.80795500  0.44959600  0.78545000  1
  Cs  Cs13  1  0.30795500  0.05040400  0.21455000  1
  Cs  Cs14  1  0.19204500  0.55040400  0.21455000  1
  Cs  Cs15  1  0.69204500  0.94959600  0.78545000  1
  In  In16  1  0.59802200  0.49824800  0.14685100  1
  In  In17  1  0.09802200  0.00175200  0.85314900  1
  In  In18  1  0.40197800  0.50175200  0.85314900  1
  In  In19  1  0.90197800  0.99824800  0.14685100  1
  O  O20  1  0.50000000  0.50000000  0.00000000  1
  O  O21  1  0.00000000  0.00000000  0.00000000  1
  O  O22  1  0.17790800  0.01087000  0.04235000  1
  O  O23  1  0.67790800  0.48913000  0.95765000  1
  O  O24  1  0.82209200  0.98913000  0.95765000  1
  O  O25  1  0.32209200  0.51087000  0.04235000  1
  O  O26  1  0.89363000  0.27683900  0.15488000  1
  O  O27  1  0.39363000  0.22316100  0.84512000  1
  O  O28  1  0.10637000  0.72316100  0.84512000  1
  O  O29  1  0.60637000  0.77683900  0.15488000  1
  O  O30  1  0.59824800  0.23201100  0.42921000  1
  O  O31  1  0.09824800  0.26798900  0.57079000  1
  O  O32  1  0.40175200  0.76798900  0.57079000  1
  O  O33  1  0.90175200  0.73201100  0.42921000  1
