# generated using pymatgen
data_Sr2YCu2BiPbO8
_symmetry_space_group_name_H-M   'P 1'
_cell_length_a   31.79461600
_cell_length_b   5.40566500
_cell_length_c   7.67031497
_cell_angle_alpha   45.26549826
_cell_angle_beta   90.00000000
_cell_angle_gamma   90.00000000
_symmetry_Int_Tables_number   1
_chemical_formula_structural   Sr2YCu2BiPbO8
_chemical_formula_sum   'Sr8 Y4 Cu8 Bi4 Pb4 O32'
_cell_volume   936.49196978
_cell_formula_units_Z   4
loop_
 _symmetry_equiv_pos_site_id
 _symmetry_equiv_pos_as_xyz
  1  'x, y, z'
loop_
 _atom_site_type_symbol
 _atom_site_label
 _atom_site_symmetry_multiplicity
 _atom_site_fract_x
 _atom_site_fract_y
 _atom_site_fract_z
 _atom_site_occupancy
  Sr  Sr0  1  0.63874400  0.28672000  0.24567500  1
  Sr  Sr1  1  0.36150700  0.72333800  0.24535800  1
  Sr  Sr2  1  0.86150700  0.27666200  0.25464200  1
  Sr  Sr3  1  0.13874400  0.71328000  0.25432500  1
  Sr  Sr4  1  0.36125600  0.71328000  0.75432500  1
  Sr  Sr5  1  0.63849300  0.27666200  0.75464200  1
  Sr  Sr6  1  0.13849300  0.72333800  0.74535800  1
  Sr  Sr7  1  0.86125600  0.28672000  0.74567500  1
  Y  Y8  1  0.75004500  0.27110900  0.25080200  1
  Y  Y9  1  0.25004500  0.72889100  0.24919800  1
  Y  Y10  1  0.24995500  0.72889100  0.74919800  1
  Y  Y11  1  0.74995500  0.27110900  0.75080200  1
  Cu  Cu12  1  0.69889500  0.77487600  0.25145800  1
  Cu  Cu13  1  0.30360100  0.22434400  0.24909200  1
  Cu  Cu14  1  0.80360100  0.77565600  0.25090800  1
  Cu  Cu15  1  0.19889500  0.22512400  0.24854200  1
  Cu  Cu16  1  0.30110500  0.22512400  0.74854200  1
  Cu  Cu17  1  0.69639900  0.77565600  0.75090800  1
  Cu  Cu18  1  0.19639900  0.22434400  0.74909200  1
  Cu  Cu19  1  0.80110500  0.77487600  0.75145800  1
  Bi  Bi20  1  0.44516300  0.22170700  0.71994000  1
  Bi  Bi21  1  0.94516300  0.77829300  0.78006000  1
  Bi  Bi22  1  0.55483700  0.77829300  0.28006000  1
  Bi  Bi23  1  0.05483700  0.22170700  0.21994000  1
  Pb  Pb24  1  0.55434000  0.81599200  0.73369500  1
  Pb  Pb25  1  0.05434000  0.18400800  0.76630500  1
  Pb  Pb26  1  0.44566000  0.18400800  0.26630500  1
  Pb  Pb27  1  0.94566000  0.81599200  0.23369500  1
  O  O28  1  0.70434300  0.27857100  0.47979000  1
  O  O29  1  0.29599400  0.26526300  0.48039100  1
  O  O30  1  0.79599400  0.73473700  0.01960900  1
  O  O31  1  0.20434300  0.72142900  0.02021000  1
  O  O32  1  0.29565700  0.72142900  0.52021000  1
  O  O33  1  0.70400600  0.73473700  0.51960900  1
  O  O34  1  0.20400600  0.26526300  0.98039100  1
  O  O35  1  0.79565700  0.27857100  0.97979000  1
  O  O36  1  0.70247400  0.27146800  0.02415700  1
  O  O37  1  0.29710100  0.18342600  0.01755600  1
  O  O38  1  0.79710100  0.81657400  0.48244400  1
  O  O39  1  0.20247400  0.72853200  0.47584300  1
  O  O40  1  0.29752600  0.72853200  0.97584300  1
  O  O41  1  0.70289900  0.81657400  0.98244400  1
  O  O42  1  0.20289900  0.18342600  0.51755600  1
  O  O43  1  0.79752600  0.27146800  0.52415700  1
  O  O44  1  0.62057500  0.78152100  0.22987000  1
  O  O45  1  0.37625000  0.23809100  0.23782600  1
  O  O46  1  0.87625000  0.76190900  0.26217400  1
  O  O47  1  0.12057500  0.21847900  0.27013000  1
  O  O48  1  0.37942500  0.21847900  0.77013000  1
  O  O49  1  0.62375000  0.76190900  0.76217400  1
  O  O50  1  0.12375000  0.23809100  0.73782600  1
  O  O51  1  0.87942500  0.78152100  0.72987000  1
  O  O52  1  0.56152000  0.12879000  0.32050500  1
  O  O53  1  0.43999100  0.67995300  0.33822800  1
  O  O54  1  0.93999100  0.32004700  0.16177200  1
  O  O55  1  0.06152000  0.87121000  0.17949500  1
  O  O56  1  0.43848000  0.87121000  0.67949500  1
  O  O57  1  0.56000900  0.32004700  0.66177200  1
  O  O58  1  0.06000900  0.67995300  0.83822800  1
  O  O59  1  0.93848000  0.12879000  0.82050500  1
