# generated using pymatgen
data_Rb4Tc6S13
_symmetry_space_group_name_H-M   'P 1'
_cell_length_a   9.80534708
_cell_length_b   9.80534708
_cell_length_c   14.23166607
_cell_angle_alpha   85.48989051
_cell_angle_beta   85.48989051
_cell_angle_gamma   119.35827135
_symmetry_Int_Tables_number   1
_chemical_formula_structural   Rb4Tc6S13
_chemical_formula_sum   'Rb8 Tc12 S26'
_cell_volume   1178.01601139
_cell_formula_units_Z   2
loop_
 _symmetry_equiv_pos_site_id
 _symmetry_equiv_pos_as_xyz
  1  'x, y, z'
loop_
 _atom_site_type_symbol
 _atom_site_label
 _atom_site_symmetry_multiplicity
 _atom_site_fract_x
 _atom_site_fract_y
 _atom_site_fract_z
 _atom_site_occupancy
  Rb  Rb0  1  0.09261600  0.37873500  0.62038800  1
  Rb  Rb1  1  0.62126500  0.90738400  0.87961200  1
  Rb  Rb2  1  0.90738400  0.62126500  0.37961200  1
  Rb  Rb3  1  0.37873500  0.09261600  0.12038800  1
  Rb  Rb4  1  0.29646500  0.23360500  0.84091200  1
  Rb  Rb5  1  0.76639500  0.70353500  0.65908800  1
  Rb  Rb6  1  0.70353500  0.76639500  0.15908800  1
  Rb  Rb7  1  0.23360500  0.29646500  0.34091200  1
  Tc  Tc8  1  0.98269500  0.68036800  0.98134800  1
  Tc  Tc9  1  0.31963200  0.01730500  0.51865200  1
  Tc  Tc10  1  0.01730500  0.31963200  0.01865200  1
  Tc  Tc11  1  0.68036800  0.98269500  0.48134800  1
  Tc  Tc12  1  0.15234600  0.57529400  0.89224600  1
  Tc  Tc13  1  0.42470600  0.84765400  0.60775400  1
  Tc  Tc14  1  0.84765400  0.42470600  0.10775400  1
  Tc  Tc15  1  0.57529400  0.15234600  0.39224600  1
  Tc  Tc16  1  0.59827900  0.15586100  0.57583100  1
  Tc  Tc17  1  0.84413900  0.40172100  0.92416900  1
  Tc  Tc18  1  0.40172100  0.84413900  0.42416900  1
  Tc  Tc19  1  0.15586100  0.59827900  0.07583100  1
  S  S20  1  0.64696300  0.35303700  0.25000000  1
  S  S21  1  0.35303700  0.64696300  0.75000000  1
  S  S22  1  0.35744700  0.73675700  0.17866300  1
  S  S23  1  0.26324300  0.64255300  0.32133700  1
  S  S24  1  0.64255300  0.26324300  0.82133700  1
  S  S25  1  0.73675700  0.35744700  0.67866300  1
  S  S26  1  0.05010400  0.08101500  0.04929100  1
  S  S27  1  0.91898500  0.94989600  0.45070900  1
  S  S28  1  0.94989600  0.91898500  0.95070900  1
  S  S29  1  0.08101500  0.05010400  0.54929100  1
  S  S30  1  0.01985900  0.35559000  0.18329700  1
  S  S31  1  0.64441000  0.98014100  0.31670300  1
  S  S32  1  0.98014100  0.64441000  0.81670300  1
  S  S33  1  0.35559000  0.01985900  0.68329700  1
  S  S34  1  0.73338500  0.17331800  0.04550400  1
  S  S35  1  0.82668200  0.26661500  0.45449600  1
  S  S36  1  0.26661500  0.82668200  0.95449600  1
  S  S37  1  0.17331800  0.73338500  0.54550400  1
  S  S38  1  0.69962300  0.50304800  0.01060700  1
  S  S39  1  0.49695200  0.30037700  0.48939300  1
  S  S40  1  0.68970400  0.99305400  0.64841400  1
  S  S41  1  0.00694600  0.31029600  0.85158600  1
  S  S42  1  0.31029600  0.00694600  0.35158600  1
  S  S43  1  0.99305400  0.68970400  0.14841400  1
  S  S44  1  0.50304800  0.69962300  0.51060700  1
  S  S45  1  0.30037700  0.49695200  0.98939300  1
