# generated using pymatgen
data_Li2Nd2Ge3
_symmetry_space_group_name_H-M   'P 1'
_cell_length_a   9.62797274
_cell_length_b   9.62797274
_cell_length_c   6.94750700
_cell_angle_alpha   90.00000000
_cell_angle_beta   90.00000000
_cell_angle_gamma   153.35927985
_symmetry_Int_Tables_number   1
_chemical_formula_structural   Li2Nd2Ge3
_chemical_formula_sum   'Li4 Nd4 Ge6'
_cell_volume   288.77455717
_cell_formula_units_Z   2
loop_
 _symmetry_equiv_pos_site_id
 _symmetry_equiv_pos_as_xyz
  1  'x, y, z'
loop_
 _atom_site_type_symbol
 _atom_site_label
 _atom_site_symmetry_multiplicity
 _atom_site_fract_x
 _atom_site_fract_y
 _atom_site_fract_z
 _atom_site_occupancy
  Li  Li0  1  0.80935500  0.19064500  0.43887900  1
  Li  Li1  1  0.19064500  0.80935500  0.56112100  1
  Li  Li2  1  0.80935500  0.19064500  0.06112100  1
  Li  Li3  1  0.19064500  0.80935500  0.93887900  1
  Nd  Nd4  1  0.55217000  0.44783000  0.75000000  1
  Nd  Nd5  1  0.44783000  0.55217000  0.25000000  1
  Nd  Nd6  1  0.34233300  0.65766700  0.75000000  1
  Nd  Nd7  1  0.65766700  0.34233300  0.25000000  1
  Ge  Ge8  1  0.93792100  0.06207900  0.93250800  1
  Ge  Ge9  1  0.06207900  0.93792100  0.06749200  1
  Ge  Ge10  1  0.93792100  0.06207900  0.56749200  1
  Ge  Ge11  1  0.06207900  0.93792100  0.43250800  1
  Ge  Ge12  1  0.71988700  0.28011300  0.75000000  1
  Ge  Ge13  1  0.28011300  0.71988700  0.25000000  1
