# generated using pymatgen
data_Ba(BrF4)2
_symmetry_space_group_name_H-M   'P 1'
_cell_length_a   8.10010433
_cell_length_b   8.10010433
_cell_length_c   8.10010433
_cell_angle_alpha   104.79695523
_cell_angle_beta   104.79695523
_cell_angle_gamma   119.28875193
_symmetry_Int_Tables_number   1
_chemical_formula_structural   Ba(BrF4)2
_chemical_formula_sum   'Ba2 Br4 F16'
_cell_volume   399.97588748
_cell_formula_units_Z   2
loop_
 _symmetry_equiv_pos_site_id
 _symmetry_equiv_pos_as_xyz
  1  'x, y, z'
loop_
 _atom_site_type_symbol
 _atom_site_label
 _atom_site_symmetry_multiplicity
 _atom_site_fract_x
 _atom_site_fract_y
 _atom_site_fract_z
 _atom_site_occupancy
  Ba  Ba0  1  0.00000000  0.00000000  0.00000000  1
  Ba  Ba1  1  0.25000000  0.75000000  0.50000000  1
  Br  Br2  1  0.14436500  0.52658500  0.93432200  1
  Br  Br3  1  0.59226200  0.21004300  0.06567800  1
  Br  Br4  1  0.78995700  0.85563500  0.38221900  1
  Br  Br5  1  0.47341500  0.40773800  0.61778100  1
  F  F6  1  0.08831600  0.55617600  0.70386100  1
  F  F7  1  0.85231500  0.38445400  0.29613900  1
  F  F8  1  0.61554600  0.91168400  0.46786100  1
  F  F9  1  0.44382400  0.14768500  0.53213900  1
  F  F10  1  0.71200000  0.90376500  0.16414500  1
  F  F11  1  0.73962000  0.54785600  0.83585500  1
  F  F12  1  0.45214400  0.28800000  0.19176400  1
  F  F13  1  0.09623500  0.26038000  0.80823600  1
  F  F14  1  0.19875200  0.48469000  0.16549300  1
  F  F15  1  0.31919700  0.03325900  0.83450700  1
  F  F16  1  0.96674100  0.80124800  0.28593800  1
  F  F17  1  0.51531000  0.68080300  0.71406200  1
  F  F18  1  0.71408600  0.11660400  0.91944500  1
  F  F19  1  0.19715900  0.79464100  0.08055500  1
  F  F20  1  0.20535900  0.28591400  0.40251800  1
  F  F21  1  0.88339600  0.80284100  0.59748200  1
