# generated using pymatgen
data_KGa2NiP3(H2O7)2
_symmetry_space_group_name_H-M   'P 1'
_cell_length_a   8.46607067
_cell_length_b   8.46607067
_cell_length_c   8.89631456
_cell_angle_alpha   76.25126434
_cell_angle_beta   76.25126434
_cell_angle_gamma   74.80014001
_symmetry_Int_Tables_number   1
_chemical_formula_structural   KGa2NiP3(H2O7)2
_chemical_formula_sum   'K2 Ga4 Ni2 P6 H8 O28'
_cell_volume   587.14900518
_cell_formula_units_Z   2
loop_
 _symmetry_equiv_pos_site_id
 _symmetry_equiv_pos_as_xyz
  1  'x, y, z'
loop_
 _atom_site_type_symbol
 _atom_site_label
 _atom_site_symmetry_multiplicity
 _atom_site_fract_x
 _atom_site_fract_y
 _atom_site_fract_z
 _atom_site_occupancy
  K  K0  1  0.36616500  0.63383500  0.25000000  1
  K  K1  1  0.63383500  0.36616500  0.75000000  1
  Ga  Ga2  1  0.09777800  0.24728000  0.43063800  1
  Ga  Ga3  1  0.75272000  0.90222200  0.06936200  1
  Ga  Ga4  1  0.90222200  0.75272000  0.56936200  1
  Ga  Ga5  1  0.24728000  0.09777800  0.93063800  1
  Ni  Ni6  1  0.72780800  0.27219200  0.25000000  1
  Ni  Ni7  1  0.27219200  0.72780800  0.75000000  1
  P  P8  1  0.99819100  0.00180900  0.25000000  1
  P  P9  1  0.00180900  0.99819100  0.75000000  1
  P  P10  1  0.83593800  0.58020200  0.32012300  1
  P  P11  1  0.41979800  0.16406200  0.17987700  1
  P  P12  1  0.16406200  0.41979800  0.67987700  1
  P  P13  1  0.58020200  0.83593800  0.82012300  1
  H  H14  1  0.91338600  0.36315800  0.95242500  1
  H  H15  1  0.63684200  0.08661400  0.54757500  1
  H  H16  1  0.08661400  0.63684200  0.04757500  1
  H  H17  1  0.36315800  0.91338600  0.45242500  1
  H  H18  1  0.77148500  0.51042400  0.01478200  1
  H  H19  1  0.48957600  0.22851500  0.48521800  1
  H  H20  1  0.22851500  0.48957600  0.98521800  1
  H  H21  1  0.51042400  0.77148500  0.51478200  1
  O  O22  1  0.96860300  0.14943400  0.61599900  1
  O  O23  1  0.85056600  0.03139700  0.88400100  1
  O  O24  1  0.03139700  0.85056600  0.38400100  1
  O  O25  1  0.14943400  0.96860300  0.11599900  1
  O  O26  1  0.70134000  0.49556700  0.30998000  1
  O  O27  1  0.50443300  0.29866000  0.19002000  1
  O  O28  1  0.29866000  0.50443300  0.69002000  1
  O  O29  1  0.49556700  0.70134000  0.80998000  1
  O  O30  1  0.97257300  0.17113900  0.30256900  1
  O  O31  1  0.82886100  0.02742700  0.19743100  1
  O  O32  1  0.02742700  0.82886100  0.69743100  1
  O  O33  1  0.17113900  0.97257300  0.80256900  1
  O  O34  1  0.79866800  0.39014800  0.01384700  1
  O  O35  1  0.60985200  0.20133200  0.48615300  1
  O  O36  1  0.20133200  0.60985200  0.98615300  1
  O  O37  1  0.39014800  0.79866800  0.51384700  1
  O  O38  1  0.29700300  0.11607500  0.33848600  1
  O  O39  1  0.88392500  0.70299700  0.16151400  1
  O  O40  1  0.70299700  0.88392500  0.66151400  1
  O  O41  1  0.11607500  0.29700300  0.83848600  1
  O  O42  1  0.23229700  0.32377400  0.54062700  1
  O  O43  1  0.67622600  0.76770300  0.95937300  1
  O  O44  1  0.76770300  0.67622600  0.45937300  1
  O  O45  1  0.32377400  0.23229700  0.04062700  1
  O  O46  1  0.00880500  0.46388900  0.33819900  1
  O  O47  1  0.53611100  0.99119500  0.16180100  1
  O  O48  1  0.99119500  0.53611100  0.66180100  1
  O  O49  1  0.46388900  0.00880500  0.83819900  1
