# generated using pymatgen
data_Pr2(Ga3Ru)3
_symmetry_space_group_name_H-M   'P 1'
_cell_length_a   7.56957242
_cell_length_b   7.56957242
_cell_length_c   9.89822100
_cell_angle_alpha   90.00000000
_cell_angle_beta   90.00000000
_cell_angle_gamma   119.44015462
_symmetry_Int_Tables_number   1
_chemical_formula_structural   Pr2(Ga3Ru)3
_chemical_formula_sum   'Pr4 Ga18 Ru6'
_cell_volume   493.91583706
_cell_formula_units_Z   2
loop_
 _symmetry_equiv_pos_site_id
 _symmetry_equiv_pos_as_xyz
  1  'x, y, z'
loop_
 _atom_site_type_symbol
 _atom_site_label
 _atom_site_symmetry_multiplicity
 _atom_site_fract_x
 _atom_site_fract_y
 _atom_site_fract_z
 _atom_site_occupancy
  Pr  Pr0  1  0.99692300  0.66886600  0.25000000  1
  Pr  Pr1  1  0.00307700  0.33113400  0.75000000  1
  Pr  Pr2  1  0.66886600  0.99692300  0.25000000  1
  Pr  Pr3  1  0.33113400  0.00307700  0.75000000  1
  Ga  Ga4  1  0.12708300  0.12708300  0.25000000  1
  Ga  Ga5  1  0.87291700  0.87291700  0.75000000  1
  Ga  Ga6  1  0.00576900  0.33516100  0.07220500  1
  Ga  Ga7  1  0.99423100  0.66483900  0.92779500  1
  Ga  Ga8  1  0.99423100  0.66483900  0.57220500  1
  Ga  Ga9  1  0.33516100  0.00576900  0.42779500  1
  Ga  Ga10  1  0.00576900  0.33516100  0.42779500  1
  Ga  Ga11  1  0.66483900  0.99423100  0.57220500  1
  Ga  Ga12  1  0.66483900  0.99423100  0.92779500  1
  Ga  Ga13  1  0.33516100  0.00576900  0.07220500  1
  Ga  Ga14  1  0.33747100  0.33747100  0.55583000  1
  Ga  Ga15  1  0.66252900  0.66252900  0.44417000  1
  Ga  Ga16  1  0.66252900  0.66252900  0.05583000  1
  Ga  Ga17  1  0.33747100  0.33747100  0.94417000  1
  Ga  Ga18  1  0.33587300  0.54494700  0.25000000  1
  Ga  Ga19  1  0.66412700  0.45505300  0.75000000  1
  Ga  Ga20  1  0.54494700  0.33587300  0.25000000  1
  Ga  Ga21  1  0.45505300  0.66412700  0.75000000  1
  Ru  Ru22  1  0.67212700  0.32787300  0.00000000  1
  Ru  Ru23  1  0.32787300  0.67212700  0.00000000  1
  Ru  Ru24  1  0.32787300  0.67212700  0.50000000  1
  Ru  Ru25  1  0.67212700  0.32787300  0.50000000  1
  Ru  Ru26  1  0.00000000  0.00000000  0.00000000  1
  Ru  Ru27  1  0.00000000  0.00000000  0.50000000  1
