# generated using pymatgen
data_Tb(NO3)3
_symmetry_space_group_name_H-M   'P 1'
_cell_length_a   6.23694800
_cell_length_b   9.89580000
_cell_length_c   11.16144401
_cell_angle_alpha   87.65123271
_cell_angle_beta   90.00000000
_cell_angle_gamma   90.00000000
_symmetry_Int_Tables_number   1
_chemical_formula_structural   Tb(NO3)3
_chemical_formula_sum   'Tb4 N12 O36'
_cell_volume   688.30100310
_cell_formula_units_Z   4
loop_
 _symmetry_equiv_pos_site_id
 _symmetry_equiv_pos_as_xyz
  1  'x, y, z'
loop_
 _atom_site_type_symbol
 _atom_site_label
 _atom_site_symmetry_multiplicity
 _atom_site_fract_x
 _atom_site_fract_y
 _atom_site_fract_z
 _atom_site_occupancy
  Tb  Tb0  1  0.67854000  0.28950200  0.73749900  1
  Tb  Tb1  1  0.17854000  0.21049800  0.26250100  1
  Tb  Tb2  1  0.32146000  0.71049800  0.26250100  1
  Tb  Tb3  1  0.82146000  0.78950200  0.73749900  1
  N  N4  1  0.38300400  0.17295200  0.49102000  1
  N  N5  1  0.88300400  0.32704800  0.50898000  1
  N  N6  1  0.61699600  0.82704800  0.50898000  1
  N  N7  1  0.11699600  0.67295100  0.49102000  1
  N  N8  1  0.73055400  0.19707800  0.21055600  1
  N  N9  1  0.23055400  0.30292200  0.78944400  1
  N  N10  1  0.26944600  0.80292200  0.78944400  1
  N  N11  1  0.76944600  0.69707800  0.21055600  1
  N  N12  1  0.72108300  0.53239100  0.88163900  1
  N  N13  1  0.22108300  0.96760900  0.11836100  1
  N  N14  1  0.27891700  0.46760900  0.11836100  1
  N  N15  1  0.77891700  0.03239100  0.88163900  1
  O  O16  1  0.42309400  0.27550100  0.42091200  1
  O  O17  1  0.92309400  0.22449900  0.57908800  1
  O  O18  1  0.57690600  0.72449900  0.57908800  1
  O  O19  1  0.07690600  0.77550100  0.42091200  1
  O  O20  1  0.25743800  0.08359700  0.45217000  1
  O  O21  1  0.75743800  0.41640300  0.54783000  1
  O  O22  1  0.74256200  0.91640300  0.54783000  1
  O  O23  1  0.24256200  0.58359700  0.45217000  1
  O  O24  1  0.46298100  0.16082800  0.59384200  1
  O  O25  1  0.96298100  0.33917200  0.40615800  1
  O  O26  1  0.53701900  0.83917200  0.40615800  1
  O  O27  1  0.03701900  0.66082800  0.59384200  1
  O  O28  1  0.82289900  0.10313000  0.27303500  1
  O  O29  1  0.32289900  0.39687000  0.72696500  1
  O  O30  1  0.17710100  0.89687000  0.72696500  1
  O  O31  1  0.67710100  0.60313000  0.27303500  1
  O  O32  1  0.53334300  0.19286900  0.18893000  1
  O  O33  1  0.03334300  0.30713100  0.81107000  1
  O  O34  1  0.46665700  0.80713100  0.81107000  1
  O  O35  1  0.96665700  0.69286900  0.18893000  1
  O  O36  1  0.84466200  0.29438800  0.16939400  1
  O  O37  1  0.34466200  0.20561200  0.83060600  1
  O  O38  1  0.15533800  0.70561200  0.83060600  1
  O  O39  1  0.65533800  0.79438800  0.16939400  1
  O  O40  1  0.73647700  0.54485700  0.76464900  1
  O  O41  1  0.23647700  0.95514300  0.23535100  1
  O  O42  1  0.26352300  0.45514300  0.23535100  1
  O  O43  1  0.76352300  0.04485700  0.76464900  1
  O  O44  1  0.66617100  0.41777100  0.92477900  1
  O  O45  1  0.16617100  0.08222900  0.07522100  1
  O  O46  1  0.33382900  0.58222900  0.07522100  1
  O  O47  1  0.83382900  0.91777100  0.92477900  1
  O  O48  1  0.76164100  0.63176200  0.94163200  1
  O  O49  1  0.26164100  0.86823800  0.05836800  1
  O  O50  1  0.23835900  0.36823800  0.05836800  1
  O  O51  1  0.73835900  0.13176200  0.94163200  1
