# generated using pymatgen
data_K6InAs3
_symmetry_space_group_name_H-M   'P 1'
_cell_length_a   9.15430900
_cell_length_b   9.25551976
_cell_length_c   19.96008237
_cell_angle_alpha   94.02107113
_cell_angle_beta   95.02551659
_cell_angle_gamma   119.46270873
_symmetry_Int_Tables_number   1
_chemical_formula_structural   K6InAs3
_chemical_formula_sum   'K24 In4 As12'
_cell_volume   1454.25671265
_cell_formula_units_Z   4
loop_
 _symmetry_equiv_pos_site_id
 _symmetry_equiv_pos_as_xyz
  1  'x, y, z'
loop_
 _atom_site_type_symbol
 _atom_site_label
 _atom_site_symmetry_multiplicity
 _atom_site_fract_x
 _atom_site_fract_y
 _atom_site_fract_z
 _atom_site_occupancy
  K  K0  1  0.28462800  0.14653900  0.80149700  1
  K  K1  1  0.71537200  0.85346100  0.19850300  1
  K  K2  1  0.95542000  0.75573000  0.69585500  1
  K  K3  1  0.04458000  0.24427000  0.30414500  1
  K  K4  1  0.54505600  0.00722600  0.69454900  1
  K  K5  1  0.45494400  0.99277400  0.30545100  1
  K  K6  1  0.63015700  0.73454800  0.80649300  1
  K  K7  1  0.36984300  0.26545200  0.19350700  1
  K  K8  1  0.96802300  0.15342700  0.93132000  1
  K  K9  1  0.03197700  0.84657300  0.06868000  1
  K  K10  1  0.88454900  0.40273500  0.80413000  1
  K  K11  1  0.11545100  0.59726500  0.19587000  1
  K  K12  1  0.62146500  0.87141900  0.00520500  1
  K  K13  1  0.37853500  0.12858100  0.99479500  1
  K  K14  1  0.83575100  0.01327000  0.56918100  1
  K  K15  1  0.16424900  0.98673000  0.43081900  1
  K  K16  1  0.74724200  0.61887300  0.49769100  1
  K  K17  1  0.25275800  0.38112700  0.50230900  1
  K  K18  1  0.20576900  0.41970300  0.69702500  1
  K  K19  1  0.79423100  0.58029700  0.30297500  1
  K  K20  1  0.76949100  0.26859500  0.44515000  1
  K  K21  1  0.23050900  0.73140500  0.55485000  1
  K  K22  1  0.69714300  0.48252000  0.94423000  1
  K  K23  1  0.30285700  0.51748000  0.05577000  1
  In  In24  1  0.28253700  0.77546700  0.87510300  1
  In  In25  1  0.71746300  0.22453300  0.12489700  1
  In  In26  1  0.54419400  0.36090600  0.62540200  1
  In  In27  1  0.45580600  0.63909400  0.37459800  1
  As  As28  1  0.83708900  0.36984800  0.62018900  1
  As  As29  1  0.16291100  0.63015200  0.37981100  1
  As  As30  1  0.57458500  0.05963300  0.86884300  1
  As  As31  1  0.42541500  0.94036700  0.13115700  1
  As  As32  1  0.24077300  0.08949700  0.61852300  1
  As  As33  1  0.75922700  0.91050300  0.38147700  1
  As  As34  1  0.55528600  0.65790400  0.63042000  1
  As  As35  1  0.44471400  0.34209600  0.36958000  1
  As  As36  1  0.01259000  0.80850700  0.88044500  1
  As  As37  1  0.98741000  0.19149300  0.11955500  1
  As  As38  1  0.29232700  0.49345200  0.88183400  1
  As  As39  1  0.70767300  0.50654800  0.11816600  1
