# generated using pymatgen
data_Tl2PtI6
_symmetry_space_group_name_H-M   'P 1'
_cell_length_a   7.80818500
_cell_length_b   7.80818500
_cell_length_c   11.60767300
_cell_angle_alpha   90.00000000
_cell_angle_beta   90.00000000
_cell_angle_gamma   90.00000000
_symmetry_Int_Tables_number   1
_chemical_formula_structural   Tl2PtI6
_chemical_formula_sum   'Tl4 Pt2 I12'
_cell_volume   707.69374030
_cell_formula_units_Z   2
loop_
 _symmetry_equiv_pos_site_id
 _symmetry_equiv_pos_as_xyz
  1  'x, y, z'
loop_
 _atom_site_type_symbol
 _atom_site_label
 _atom_site_symmetry_multiplicity
 _atom_site_fract_x
 _atom_site_fract_y
 _atom_site_fract_z
 _atom_site_occupancy
  Tl  Tl0  1  0.00000000  0.50000000  0.25000000  1
  Tl  Tl1  1  0.00000000  0.50000000  0.75000000  1
  Tl  Tl2  1  0.50000000  0.00000000  0.25000000  1
  Tl  Tl3  1  0.50000000  0.00000000  0.75000000  1
  Pt  Pt4  1  0.00000000  0.00000000  0.00000000  1
  Pt  Pt5  1  0.50000000  0.50000000  0.50000000  1
  I  I6  1  0.20446600  0.27893400  0.00000000  1
  I  I7  1  0.79553400  0.72106600  0.00000000  1
  I  I8  1  0.72106600  0.20446600  0.00000000  1
  I  I9  1  0.29553400  0.77893400  0.50000000  1
  I  I10  1  0.27893400  0.79553400  0.00000000  1
  I  I11  1  0.70446600  0.22106600  0.50000000  1
  I  I12  1  0.77893400  0.70446600  0.50000000  1
  I  I13  1  0.22106600  0.29553400  0.50000000  1
  I  I14  1  0.00000000  0.00000000  0.23306800  1
  I  I15  1  0.00000000  0.00000000  0.76693200  1
  I  I16  1  0.50000000  0.50000000  0.26693200  1
  I  I17  1  0.50000000  0.50000000  0.73306800  1
