# generated using pymatgen
data_SrPrAl3O7
_symmetry_space_group_name_H-M   'P 1'
_cell_length_a   7.92959878
_cell_length_b   7.92959878
_cell_length_c   5.25756400
_cell_angle_alpha   90.00000000
_cell_angle_beta   90.00000000
_cell_angle_gamma   90.05161356
_symmetry_Int_Tables_number   1
_chemical_formula_structural   SrPrAl3O7
_chemical_formula_sum   'Sr2 Pr2 Al6 O14'
_cell_volume   330.58779730
_cell_formula_units_Z   2
loop_
 _symmetry_equiv_pos_site_id
 _symmetry_equiv_pos_as_xyz
  1  'x, y, z'
loop_
 _atom_site_type_symbol
 _atom_site_label
 _atom_site_symmetry_multiplicity
 _atom_site_fract_x
 _atom_site_fract_y
 _atom_site_fract_z
 _atom_site_occupancy
  Sr  Sr0  1  0.16147800  0.83852100  0.48967000  1
  Sr  Sr1  1  0.83852100  0.16147900  0.48967000  1
  Pr  Pr2  1  0.66284100  0.66284100  0.51145500  1
  Pr  Pr3  1  0.33715900  0.33715900  0.51145500  1
  Al  Al4  1  0.35851900  0.64148100  0.03943700  1
  Al  Al5  1  0.85578900  0.85578900  0.96104500  1
  Al  Al6  1  0.64148100  0.35851900  0.03943700  1
  Al  Al7  1  0.14421100  0.14421100  0.96104500  1
  Al  Al8  1  0.50000000  0.00000000  0.99879200  1
  Al  Al9  1  0.00000000  0.50000000  0.99879200  1
  O  O10  1  0.36876300  0.63123700  0.70692100  1
  O  O11  1  0.84868600  0.84868600  0.29167000  1
  O  O12  1  0.63123700  0.36876300  0.70692100  1
  O  O13  1  0.15131400  0.15131400  0.29167000  1
  O  O14  1  0.00000000  0.00000000  0.83389800  1
  O  O15  1  0.50000000  0.50000000  0.19139400  1
  O  O16  1  0.41905100  0.83355300  0.18809200  1
  O  O17  1  0.90837000  0.66109200  0.80609000  1
  O  O18  1  0.58094900  0.16644700  0.18809200  1
  O  O19  1  0.09163000  0.33890800  0.80609000  1
  O  O20  1  0.33890800  0.09163000  0.80609000  1
  O  O21  1  0.83355300  0.41905100  0.18809200  1
  O  O22  1  0.66109200  0.90837000  0.80609000  1
  O  O23  1  0.16644700  0.58094900  0.18809200  1
