# generated using pymatgen
data_Nb9PO25
_symmetry_space_group_name_H-M   'P 1'
_cell_length_a   11.42724102
_cell_length_b   11.42724102
_cell_length_c   11.42724102
_cell_angle_alpha   91.64959915
_cell_angle_beta   91.64959915
_cell_angle_gamma   160.46306000
_symmetry_Int_Tables_number   1
_chemical_formula_structural   Nb9PO25
_chemical_formula_sum   'Nb9 P1 O25'
_cell_volume   491.77512635
_cell_formula_units_Z   1
loop_
 _symmetry_equiv_pos_site_id
 _symmetry_equiv_pos_as_xyz
  1  'x, y, z'
loop_
 _atom_site_type_symbol
 _atom_site_label
 _atom_site_symmetry_multiplicity
 _atom_site_fract_x
 _atom_site_fract_y
 _atom_site_fract_z
 _atom_site_occupancy
  Nb  Nb0  1  0.89176500  0.67542200  0.55807500  1
  Nb  Nb1  1  0.11734800  0.33369100  0.44192500  1
  Nb  Nb2  1  0.66630900  0.10823500  0.78365700  1
  Nb  Nb3  1  0.11698700  0.78963400  0.89195100  1
  Nb  Nb4  1  0.77496400  0.88301300  0.67264700  1
  Nb  Nb5  1  0.21036600  0.10231700  0.32735300  1
  Nb  Nb6  1  0.89768300  0.22503600  0.10804900  1
  Nb  Nb7  1  0.00000000  0.00000000  0.00000000  1
  Nb  Nb8  1  0.32457800  0.88265200  0.21634300  1
  P  P9  1  0.75000000  0.25000000  0.50000000  1
  O  O10  1  0.34517500  0.14533300  0.51061400  1
  O  O11  1  0.16543900  0.65482500  0.80015800  1
  O  O12  1  0.85466700  0.36528200  0.19984200  1
  O  O13  1  0.63471800  0.83456100  0.48938600  1
  O  O14  1  0.48030300  0.96953200  0.38507300  1
  O  O15  1  0.90477000  0.51969700  0.48922900  1
  O  O16  1  0.03046800  0.41554100  0.51077100  1
  O  O17  1  0.58445900  0.09523000  0.61492700  1
  O  O18  1  0.26675700  0.97673300  0.26784400  1
  O  O19  1  0.00108700  0.73324300  0.70997600  1
  O  O20  1  0.50000000  0.50000000  0.00000000  1
  O  O21  1  0.62271200  0.25793200  0.86092500  1
  O  O22  1  0.23821300  0.37728800  0.63522000  1
  O  O23  1  0.74206800  0.60299300  0.36478000  1
  O  O24  1  0.39700700  0.76178700  0.13907500  1
  O  O25  1  0.94860200  0.11773700  0.06189700  1
  O  O26  1  0.11329500  0.05139800  0.16913500  1
  O  O27  1  0.88226300  0.94415900  0.83086500  1
  O  O28  1  0.05584100  0.88670500  0.93810300  1
  O  O29  1  0.79898900  0.19356300  0.95489900  1
  O  O30  1  0.15591000  0.20101100  0.39457400  1
  O  O31  1  0.80643700  0.76133600  0.60542600  1
  O  O32  1  0.23866400  0.84409000  0.04510100  1
  O  O33  1  0.70888900  0.99891300  0.73215600  1
  O  O34  1  0.02326700  0.29111100  0.29002400  1
