# generated using pymatgen
data_Pr23Cd4Rh7
_symmetry_space_group_name_H-M   'P 1'
_cell_length_a   10.06365622
_cell_length_b   10.06365622
_cell_length_c   22.83078900
_cell_angle_alpha   90.00000000
_cell_angle_beta   90.00000000
_cell_angle_gamma   120.00000142
_symmetry_Int_Tables_number   1
_chemical_formula_structural   Pr23Cd4Rh7
_chemical_formula_sum   'Pr46 Cd8 Rh14'
_cell_volume   2002.45668521
_cell_formula_units_Z   2
loop_
 _symmetry_equiv_pos_site_id
 _symmetry_equiv_pos_as_xyz
  1  'x, y, z'
loop_
 _atom_site_type_symbol
 _atom_site_label
 _atom_site_symmetry_multiplicity
 _atom_site_fract_x
 _atom_site_fract_y
 _atom_site_fract_z
 _atom_site_occupancy
  Pr  Pr0  1  0.20687900  0.41375800  0.72054200  1
  Pr  Pr1  1  0.20687900  0.79312100  0.72054200  1
  Pr  Pr2  1  0.79312100  0.58624200  0.22054200  1
  Pr  Pr3  1  0.58624200  0.79312100  0.72054200  1
  Pr  Pr4  1  0.79312100  0.20687900  0.22054200  1
  Pr  Pr5  1  0.41375800  0.20687900  0.22054200  1
  Pr  Pr6  1  0.79361400  0.58722900  0.94694000  1
  Pr  Pr7  1  0.79361400  0.20638600  0.94694000  1
  Pr  Pr8  1  0.20638600  0.41277100  0.44694000  1
  Pr  Pr9  1  0.41277100  0.20638600  0.94694000  1
  Pr  Pr10  1  0.20638600  0.79361400  0.44694000  1
  Pr  Pr11  1  0.58722900  0.79361400  0.44694000  1
  Pr  Pr12  1  0.20996000  0.41992100  0.98975800  1
  Pr  Pr13  1  0.20996000  0.79004000  0.98975800  1
  Pr  Pr14  1  0.79004000  0.58007900  0.48975800  1
  Pr  Pr15  1  0.58007900  0.79004000  0.98975800  1
  Pr  Pr16  1  0.79004000  0.20996000  0.48975800  1
  Pr  Pr17  1  0.41992100  0.20996000  0.48975800  1
  Pr  Pr18  1  0.87285400  0.74570900  0.63557800  1
  Pr  Pr19  1  0.87285400  0.12714600  0.63557800  1
  Pr  Pr20  1  0.12714600  0.25429100  0.13557800  1
  Pr  Pr21  1  0.25429100  0.12714600  0.63557800  1
  Pr  Pr22  1  0.12714600  0.87285400  0.13557800  1
  Pr  Pr23  1  0.74570900  0.87285400  0.13557800  1
  Pr  Pr24  1  0.45913800  0.91827500  0.85633600  1
  Pr  Pr25  1  0.45913800  0.54086200  0.85633600  1
  Pr  Pr26  1  0.54086200  0.08172500  0.35633600  1
  Pr  Pr27  1  0.08172500  0.54086200  0.85633600  1
  Pr  Pr28  1  0.54086200  0.45913800  0.35633600  1
  Pr  Pr29  1  0.91827500  0.45913800  0.35633600  1
  Pr  Pr30  1  0.00000000  0.00000000  0.99723900  1
  Pr  Pr31  1  0.00000000  0.00000000  0.49723800  1
  Pr  Pr32  1  0.46019600  0.92039300  0.58508100  1
  Pr  Pr33  1  0.46019600  0.53980400  0.58508100  1
  Pr  Pr34  1  0.53980400  0.07960700  0.08508100  1
  Pr  Pr35  1  0.07960700  0.53980400  0.58508100  1
  Pr  Pr36  1  0.53980400  0.46019600  0.08508100  1
  Pr  Pr37  1  0.92039300  0.46019600  0.08508100  1
  Pr  Pr38  1  0.79850400  0.59700900  0.78240600  1
  Pr  Pr39  1  0.79850400  0.20149600  0.78240600  1
  Pr  Pr40  1  0.20149600  0.40299100  0.28240600  1
  Pr  Pr41  1  0.40299100  0.20149600  0.78240600  1
  Pr  Pr42  1  0.20149600  0.79850400  0.28240600  1
  Pr  Pr43  1  0.59700900  0.79850400  0.28240600  1
  Pr  Pr44  1  0.66666700  0.33333300  0.64503500  1
  Pr  Pr45  1  0.33333300  0.66666700  0.14503500  1
  Cd  Cd46  1  0.00000000  0.00000000  0.74923800  1
  Cd  Cd47  1  0.00000000  0.00000000  0.24923800  1
  Cd  Cd48  1  0.10664700  0.21329500  0.86350100  1
  Cd  Cd49  1  0.10664700  0.89335300  0.86350100  1
  Cd  Cd50  1  0.89335300  0.78670500  0.36350100  1
  Cd  Cd51  1  0.78670500  0.89335300  0.86350100  1
  Cd  Cd52  1  0.89335300  0.10664700  0.36350100  1
  Cd  Cd53  1  0.21329500  0.10664700  0.36350100  1
  Rh  Rh54  1  0.52116100  0.04232100  0.71053200  1
  Rh  Rh55  1  0.52116100  0.47883900  0.71053200  1
  Rh  Rh56  1  0.47883900  0.95767900  0.21053200  1
  Rh  Rh57  1  0.95767900  0.47883900  0.71053200  1
  Rh  Rh58  1  0.47883900  0.52116100  0.21053200  1
  Rh  Rh59  1  0.04232100  0.52116100  0.21053200  1
  Rh  Rh60  1  0.66666700  0.33333300  0.86409000  1
  Rh  Rh61  1  0.33333300  0.66666700  0.36409000  1
  Rh  Rh62  1  0.14370500  0.28741100  0.56303300  1
  Rh  Rh63  1  0.14370500  0.85629500  0.56303300  1
  Rh  Rh64  1  0.85629500  0.71258900  0.06303300  1
  Rh  Rh65  1  0.71258900  0.85629500  0.56303300  1
  Rh  Rh66  1  0.85629500  0.14370500  0.06303300  1
  Rh  Rh67  1  0.28741100  0.14370500  0.06303300  1
