# generated using pymatgen
data_Ca21(Zn2Sb9)2
_symmetry_space_group_name_H-M   'P 1'
_cell_length_a   12.11133578
_cell_length_b   12.11133578
_cell_length_c   17.16949366
_cell_angle_alpha   88.65119536
_cell_angle_beta   88.65119536
_cell_angle_gamma   87.43810421
_symmetry_Int_Tables_number   1
_chemical_formula_structural   Ca21(Zn2Sb9)2
_chemical_formula_sum   'Ca42 Zn8 Sb36'
_cell_volume   2514.64585245
_cell_formula_units_Z   2
loop_
 _symmetry_equiv_pos_site_id
 _symmetry_equiv_pos_as_xyz
  1  'x, y, z'
loop_
 _atom_site_type_symbol
 _atom_site_label
 _atom_site_symmetry_multiplicity
 _atom_site_fract_x
 _atom_site_fract_y
 _atom_site_fract_z
 _atom_site_occupancy
  Ca  Ca0  1  0.92785600  0.23989100  0.64888800  1
  Ca  Ca1  1  0.23989100  0.92785600  0.64888800  1
  Ca  Ca2  1  0.07214400  0.76010900  0.35111200  1
  Ca  Ca3  1  0.76010900  0.07214400  0.35111200  1
  Ca  Ca4  1  0.92308400  0.24814500  0.85411300  1
  Ca  Ca5  1  0.24814500  0.92308400  0.85411300  1
  Ca  Ca6  1  0.07691600  0.75185500  0.14588700  1
  Ca  Ca7  1  0.75185500  0.07691600  0.14588700  1
  Ca  Ca8  1  0.99154800  0.23134100  0.42297400  1
  Ca  Ca9  1  0.23134100  0.99154800  0.42297400  1
  Ca  Ca10  1  0.00845200  0.76865900  0.57702600  1
  Ca  Ca11  1  0.76865900  0.00845200  0.57702600  1
  Ca  Ca12  1  0.74496700  0.49102400  0.94300200  1
  Ca  Ca13  1  0.49102400  0.74496700  0.94300200  1
  Ca  Ca14  1  0.25503300  0.50897600  0.05699800  1
  Ca  Ca15  1  0.50897600  0.25503300  0.05699800  1
  Ca  Ca16  1  0.82011600  0.49543200  0.56431600  1
  Ca  Ca17  1  0.49543200  0.82011600  0.56431600  1
  Ca  Ca18  1  0.17988400  0.50456800  0.43568400  1
  Ca  Ca19  1  0.50456800  0.17988400  0.43568400  1
  Ca  Ca20  1  0.92593200  0.58151600  0.75693300  1
  Ca  Ca21  1  0.58151600  0.92593200  0.75693300  1
  Ca  Ca22  1  0.07406800  0.41848400  0.24306700  1
  Ca  Ca23  1  0.41848400  0.07406800  0.24306700  1
  Ca  Ca24  1  0.99617500  0.72962000  0.94208500  1
  Ca  Ca25  1  0.72962000  0.99617500  0.94208500  1
  Ca  Ca26  1  0.00382500  0.27038000  0.05791500  1
  Ca  Ca27  1  0.27038000  0.00382500  0.05791500  1
  Ca  Ca28  1  0.25828700  0.59728800  0.84314200  1
  Ca  Ca29  1  0.59728800  0.25828700  0.84314200  1
  Ca  Ca30  1  0.74171300  0.40271200  0.15685800  1
  Ca  Ca31  1  0.40271200  0.74171300  0.15685800  1
  Ca  Ca32  1  0.32183100  0.57064300  0.61781600  1
  Ca  Ca33  1  0.57064300  0.32183100  0.61781600  1
  Ca  Ca34  1  0.67816900  0.42935700  0.38218400  1
  Ca  Ca35  1  0.42935700  0.67816900  0.38218400  1
  Ca  Ca36  1  0.25305900  0.25305900  0.58167800  1
  Ca  Ca37  1  0.74694100  0.74694100  0.41832200  1
  Ca  Ca38  1  0.26431100  0.26431100  0.90576000  1
  Ca  Ca39  1  0.73568900  0.73568900  0.09424000  1
  Ca  Ca40  1  0.59184000  0.59184000  0.74583100  1
  Ca  Ca41  1  0.40816000  0.40816000  0.25416900  1
  Zn  Zn42  1  0.14461700  0.38521200  0.75226700  1
  Zn  Zn43  1  0.38521200  0.14461700  0.75226700  1
  Zn  Zn44  1  0.85538300  0.61478800  0.24773300  1
  Zn  Zn45  1  0.61478800  0.85538300  0.24773300  1
  Zn  Zn46  1  0.99933000  0.99933000  0.20259400  1
  Zn  Zn47  1  0.00067000  0.00067000  0.79740600  1
  Zn  Zn48  1  0.15436700  0.15436700  0.24297000  1
  Zn  Zn49  1  0.84563300  0.84563300  0.75703000  1
  Sb  Sb50  1  0.05030000  0.05030000  0.56513800  1
  Sb  Sb51  1  0.94970000  0.94970000  0.43486200  1
  Sb  Sb52  1  0.06177000  0.06177000  0.94253500  1
  Sb  Sb53  1  0.93823000  0.93823000  0.05746500  1
  Sb  Sb54  1  0.42420700  0.42420700  0.46380700  1
  Sb  Sb55  1  0.57579300  0.57579300  0.53619300  1
  Sb  Sb56  1  0.46321200  0.46321200  0.92313500  1
  Sb  Sb57  1  0.53678800  0.53678800  0.07686500  1
  Sb  Sb58  1  0.76101700  0.39675300  0.74386900  1
  Sb  Sb59  1  0.39675300  0.76101700  0.74386900  1
  Sb  Sb60  1  0.23898300  0.60324700  0.25613100  1
  Sb  Sb61  1  0.60324700  0.23898300  0.25613100  1
  Sb  Sb62  1  0.05933300  0.45435600  0.90121000  1
  Sb  Sb63  1  0.45435600  0.05933300  0.90121000  1
  Sb  Sb64  1  0.94066700  0.54564400  0.09879000  1
  Sb  Sb65  1  0.54564400  0.94066700  0.09879000  1
  Sb  Sb66  1  0.07324800  0.46520100  0.61043700  1
  Sb  Sb67  1  0.46520100  0.07324800  0.61043700  1
  Sb  Sb68  1  0.92675200  0.53479900  0.38956300  1
  Sb  Sb69  1  0.53479900  0.92675200  0.38956300  1
  Sb  Sb70  1  0.07165400  0.78846300  0.75959100  1
  Sb  Sb71  1  0.78846300  0.07165400  0.75959100  1
  Sb  Sb72  1  0.92834600  0.21153700  0.24040900  1
  Sb  Sb73  1  0.21153700  0.92834600  0.24040900  1
  Sb  Sb74  1  0.15355700  0.15355700  0.74693500  1
  Sb  Sb75  1  0.84644300  0.84644300  0.25306500  1
  Sb  Sb76  1  0.24819800  0.24819800  0.37270100  1
  Sb  Sb77  1  0.75180200  0.75180200  0.62729900  1
  Sb  Sb78  1  0.37912400  0.37912400  0.74114300  1
  Sb  Sb79  1  0.62087600  0.62087600  0.25885700  1
  Sb  Sb80  1  0.73992300  0.73992300  0.88377500  1
  Sb  Sb81  1  0.26007700  0.26007700  0.11622500  1
  Sb  Sb82  1  0.75492700  0.24507300  0.50000000  1
  Sb  Sb83  1  0.24507300  0.75492700  0.50000000  1
  Sb  Sb84  1  0.75559900  0.24440100  0.00000000  1
  Sb  Sb85  1  0.24440100  0.75559900  0.00000000  1
