# generated using pymatgen
data_K2Ga2Sb3
_symmetry_space_group_name_H-M   'P 1'
_cell_length_a   7.34480300
_cell_length_b   15.00686400
_cell_length_c   16.89268949
_cell_angle_alpha   89.48837146
_cell_angle_beta   90.00000000
_cell_angle_gamma   90.00000000
_symmetry_Int_Tables_number   1
_chemical_formula_structural   K2Ga2Sb3
_chemical_formula_sum   'K16 Ga16 Sb24'
_cell_volume   1861.87955328
_cell_formula_units_Z   8
loop_
 _symmetry_equiv_pos_site_id
 _symmetry_equiv_pos_as_xyz
  1  'x, y, z'
loop_
 _atom_site_type_symbol
 _atom_site_label
 _atom_site_symmetry_multiplicity
 _atom_site_fract_x
 _atom_site_fract_y
 _atom_site_fract_z
 _atom_site_occupancy
  K  K0  1  0.97492400  0.85647100  0.99210900  1
  K  K1  1  0.47492400  0.14352900  0.50789100  1
  K  K2  1  0.02507600  0.14352900  0.00789100  1
  K  K3  1  0.52507600  0.85647100  0.49210900  1
  K  K4  1  0.53973000  0.34778000  0.01987700  1
  K  K5  1  0.03973000  0.65222000  0.48012300  1
  K  K6  1  0.46027000  0.65222000  0.98012300  1
  K  K7  1  0.96027000  0.34778000  0.51987700  1
  K  K8  1  0.52502500  0.07490600  0.11279000  1
  K  K9  1  0.02502500  0.92509400  0.38721000  1
  K  K10  1  0.47497500  0.92509400  0.88721000  1
  K  K11  1  0.97497500  0.07490600  0.61279000  1
  K  K12  1  0.95416400  0.55642300  0.89198600  1
  K  K13  1  0.45416400  0.44357700  0.60801400  1
  K  K14  1  0.04583600  0.44357700  0.10801400  1
  K  K15  1  0.54583600  0.55642300  0.39198600  1
  Ga  Ga16  1  0.28410100  0.31439500  0.83018600  1
  Ga  Ga17  1  0.78410100  0.68560500  0.66981400  1
  Ga  Ga18  1  0.71589900  0.68560500  0.16981400  1
  Ga  Ga19  1  0.21589900  0.31439500  0.33018600  1
  Ga  Ga20  1  0.79122400  0.90931500  0.73011200  1
  Ga  Ga21  1  0.29122400  0.09068500  0.76988800  1
  Ga  Ga22  1  0.20877600  0.09068500  0.26988800  1
  Ga  Ga23  1  0.70877600  0.90931500  0.23011200  1
  Ga  Ga24  1  0.76982300  0.18228400  0.82396300  1
  Ga  Ga25  1  0.26982300  0.81771600  0.67603700  1
  Ga  Ga26  1  0.23017700  0.81771600  0.17603700  1
  Ga  Ga27  1  0.73017700  0.18228400  0.32396300  1
  Ga  Ga28  1  0.76547300  0.40802900  0.76005700  1
  Ga  Ga29  1  0.26547300  0.59197100  0.73994300  1
  Ga  Ga30  1  0.23452700  0.59197100  0.23994300  1
  Ga  Ga31  1  0.73452700  0.40802900  0.26005700  1
  Sb  Sb32  1  0.96682000  0.02750400  0.82657300  1
  Sb  Sb33  1  0.46682000  0.97249600  0.67342700  1
  Sb  Sb34  1  0.03318000  0.97249600  0.17342700  1
  Sb  Sb35  1  0.53318000  0.02750400  0.32657300  1
  Sb  Sb36  1  0.45088200  0.16358100  0.90071500  1
  Sb  Sb37  1  0.95088200  0.83641900  0.59928500  1
  Sb  Sb38  1  0.54911800  0.83641900  0.09928500  1
  Sb  Sb39  1  0.04911800  0.16358100  0.40071500  1
  Sb  Sb40  1  0.94254900  0.32935900  0.88624100  1
  Sb  Sb41  1  0.44254900  0.67064100  0.61375900  1
  Sb  Sb42  1  0.05745100  0.67064100  0.11375900  1
  Sb  Sb43  1  0.55745100  0.32935900  0.38624100  1
  Sb  Sb44  1  0.81814400  0.25213300  0.17838000  1
  Sb  Sb45  1  0.31814400  0.74786700  0.32162000  1
  Sb  Sb46  1  0.18185600  0.74786700  0.82162000  1
  Sb  Sb47  1  0.68185600  0.25213300  0.67838000  1
  Sb  Sb48  1  0.46336400  0.47473300  0.83472500  1
  Sb  Sb49  1  0.96336400  0.52526700  0.66527500  1
  Sb  Sb50  1  0.53663600  0.52526700  0.16527500  1
  Sb  Sb51  1  0.03663600  0.47473300  0.33472500  1
  Sb  Sb52  1  0.21191100  0.24586500  0.18205400  1
  Sb  Sb53  1  0.71191100  0.75413500  0.31794600  1
  Sb  Sb54  1  0.78808900  0.75413500  0.81794600  1
  Sb  Sb55  1  0.28808900  0.24586500  0.68205400  1
