# generated using pymatgen
data_Rb2B7H5O14
_symmetry_space_group_name_H-M   'P 1'
_cell_length_a   12.02371400
_cell_length_b   8.15281400
_cell_length_c   14.61400486
_cell_angle_alpha   69.95420333
_cell_angle_beta   90.00000000
_cell_angle_gamma   90.00000000
_symmetry_Int_Tables_number   1
_chemical_formula_structural   Rb2B7H5O14
_chemical_formula_sum   'Rb8 B28 H20 O56'
_cell_volume   1345.78205364
_cell_formula_units_Z   4
loop_
 _symmetry_equiv_pos_site_id
 _symmetry_equiv_pos_as_xyz
  1  'x, y, z'
loop_
 _atom_site_type_symbol
 _atom_site_label
 _atom_site_symmetry_multiplicity
 _atom_site_fract_x
 _atom_site_fract_y
 _atom_site_fract_z
 _atom_site_occupancy
  Rb  Rb0  1  0.98204300  0.30717800  0.42580400  1
  Rb  Rb1  1  0.51795700  0.30717800  0.92580400  1
  Rb  Rb2  1  0.01795700  0.69282200  0.57419600  1
  Rb  Rb3  1  0.48204300  0.69282200  0.07419600  1
  Rb  Rb4  1  0.66832900  0.97292000  0.56814700  1
  Rb  Rb5  1  0.83167100  0.97292000  0.06814700  1
  Rb  Rb6  1  0.33167100  0.02708000  0.43185300  1
  Rb  Rb7  1  0.16832900  0.02708000  0.93185300  1
  B  B8  1  0.76490400  0.57219200  0.47972000  1
  B  B9  1  0.73509600  0.57219200  0.97972000  1
  B  B10  1  0.23509600  0.42780800  0.52028000  1
  B  B11  1  0.26490400  0.42780800  0.02028000  1
  B  B12  1  0.82554600  0.32535500  0.63506600  1
  B  B13  1  0.67445400  0.32535500  0.13506600  1
  B  B14  1  0.17445400  0.67464500  0.36493400  1
  B  B15  1  0.32554600  0.67464500  0.86493400  1
  B  B16  1  0.62269200  0.39218300  0.59791900  1
  B  B17  1  0.87730800  0.39218300  0.09791900  1
  B  B18  1  0.37730800  0.60781700  0.40208100  1
  B  B19  1  0.12269200  0.60781700  0.90208100  1
  B  B20  1  0.78808800  0.67041500  0.29757200  1
  B  B21  1  0.71191200  0.67041500  0.79757200  1
  B  B22  1  0.21191200  0.32958500  0.70242800  1
  B  B23  1  0.28808800  0.32958500  0.20242800  1
  B  B24  1  0.80251100  0.88525800  0.37509100  1
  B  B25  1  0.69748900  0.88525800  0.87509100  1
  B  B26  1  0.19748900  0.11474200  0.62490900  1
  B  B27  1  0.30251100  0.11474200  0.12490900  1
  B  B28  1  0.91720900  0.03477500  0.70916800  1
  B  B29  1  0.58279100  0.03477500  0.20916800  1
  B  B30  1  0.08279100  0.96522500  0.29083200  1
  B  B31  1  0.41720900  0.96522500  0.79083200  1
  B  B32  1  0.91023200  0.23036800  0.80043400  1
  B  B33  1  0.58976800  0.23036800  0.30043400  1
  B  B34  1  0.08976800  0.76963200  0.19956600  1
  B  B35  1  0.41023200  0.76963200  0.69956600  1
  H  H36  1  0.45464600  0.39760300  0.57116900  1
  H  H37  1  0.04535400  0.39760300  0.07116900  1
  H  H38  1  0.54535400  0.60239700  0.42883100  1
  H  H39  1  0.95464600  0.60239700  0.92883100  1
  H  H40  1  0.82037100  0.13470700  0.29845800  1
  H  H41  1  0.67962900  0.13470700  0.79845800  1
  H  H42  1  0.17962900  0.86529300  0.70154200  1
  H  H43  1  0.32037100  0.86529300  0.20154200  1
  H  H44  1  0.96699700  0.79112300  0.77021500  1
  H  H45  1  0.53300300  0.79112300  0.27021500  1
  H  H46  1  0.03300300  0.20887700  0.22978500  1
  H  H47  1  0.46699700  0.20887700  0.72978500  1
  H  H48  1  0.75418300  0.52820800  0.21622900  1
  H  H49  1  0.74581700  0.52820800  0.71622900  1
  H  H50  1  0.24581700  0.47179200  0.78377100  1
  H  H51  1  0.25418300  0.47179200  0.28377100  1
  H  H52  1  0.89312000  0.35746500  0.89212800  1
  H  H53  1  0.60688000  0.35746500  0.39212800  1
  H  H54  1  0.10688000  0.64253500  0.10787200  1
  H  H55  1  0.39312000  0.64253500  0.60787200  1
  O  O56  1  0.84568500  0.46707800  0.54643400  1
  O  O57  1  0.65431500  0.46707800  0.04643400  1
  O  O58  1  0.15431500  0.53292200  0.45356600  1
  O  O59  1  0.34568500  0.53292200  0.95356600  1
  O  O60  1  0.70313200  0.29362500  0.65885400  1
  O  O61  1  0.79686800  0.29362500  0.15885400  1
  O  O62  1  0.29686800  0.70637500  0.34114600  1
  O  O63  1  0.20313200  0.70637500  0.84114600  1
  O  O64  1  0.64749000  0.52742500  0.51366300  1
  O  O65  1  0.85251000  0.52742500  0.01366300  1
  O  O66  1  0.35251000  0.47257500  0.48633700  1
  O  O67  1  0.14749000  0.47257500  0.98633700  1
  O  O68  1  0.77041100  0.54162600  0.38422700  1
  O  O69  1  0.72958900  0.54162600  0.88422700  1
  O  O70  1  0.22958900  0.45837400  0.61577300  1
  O  O71  1  0.27041100  0.45837400  0.11577300  1
  O  O72  1  0.80917400  0.84289000  0.29050500  1
  O  O73  1  0.69082600  0.84289000  0.79050500  1
  O  O74  1  0.19082600  0.15711000  0.70949500  1
  O  O75  1  0.30917400  0.15711000  0.20949500  1
  O  O76  1  0.78515000  0.76228000  0.46428900  1
  O  O77  1  0.71485000  0.76228000  0.96428900  1
  O  O78  1  0.21485000  0.23772000  0.53571100  1
  O  O79  1  0.28515000  0.23772000  0.03571100  1
  O  O80  1  0.87526400  0.16112300  0.62876900  1
  O  O81  1  0.62473600  0.16112300  0.12876900  1
  O  O82  1  0.12473600  0.83887700  0.37123100  1
  O  O83  1  0.37526400  0.83887700  0.87123100  1
  O  O84  1  0.93723100  0.06726100  0.79619500  1
  O  O85  1  0.56276900  0.06726100  0.29619500  1
  O  O86  1  0.06276900  0.93273900  0.20380500  1
  O  O87  1  0.43723100  0.93273900  0.70380500  1
  O  O88  1  0.87436800  0.36397900  0.72075200  1
  O  O89  1  0.62563200  0.36397900  0.22075200  1
  O  O90  1  0.12563200  0.63602100  0.27924800  1
  O  O91  1  0.37436800  0.63602100  0.77924800  1
  O  O92  1  0.51254000  0.34737200  0.62273100  1
  O  O93  1  0.98746000  0.34737200  0.12273100  1
  O  O94  1  0.48746000  0.65262800  0.37726900  1
  O  O95  1  0.01254000  0.65262800  0.87726900  1
  O  O96  1  0.79030300  0.63886100  0.21084200  1
  O  O97  1  0.70969700  0.63886100  0.71084200  1
  O  O98  1  0.20969700  0.36113900  0.78915800  1
  O  O99  1  0.29030300  0.36113900  0.28915800  1
  O  O100  1  0.81468900  0.05844700  0.36731500  1
  O  O101  1  0.68531100  0.05844700  0.86731500  1
  O  O102  1  0.18531100  0.94155300  0.63268500  1
  O  O103  1  0.31468900  0.94155300  0.13268500  1
  O  O104  1  0.93927600  0.87172300  0.70603300  1
  O  O105  1  0.56072400  0.87172300  0.20603300  1
  O  O106  1  0.06072400  0.12827700  0.29396700  1
  O  O107  1  0.43927600  0.12827700  0.79396700  1
  O  O108  1  0.92367100  0.24730100  0.89116100  1
  O  O109  1  0.57632900  0.24730100  0.39116100  1
  O  O110  1  0.07632900  0.75269900  0.10883900  1
  O  O111  1  0.42367100  0.75269900  0.60883900  1
