# generated using pymatgen
data_KVPO4F
_symmetry_space_group_name_H-M   'P 1'
_cell_length_a   6.49820000
_cell_length_b   10.83800200
_cell_length_c   13.04120400
_cell_angle_alpha   90.00000000
_cell_angle_beta   90.00000000
_cell_angle_gamma   90.00000000
_symmetry_Int_Tables_number   1
_chemical_formula_structural   KVPO4F
_chemical_formula_sum   'K8 V8 P8 O32 F8'
_cell_volume   918.45945465
_cell_formula_units_Z   8
loop_
 _symmetry_equiv_pos_site_id
 _symmetry_equiv_pos_as_xyz
  1  'x, y, z'
loop_
 _atom_site_type_symbol
 _atom_site_label
 _atom_site_symmetry_multiplicity
 _atom_site_fract_x
 _atom_site_fract_y
 _atom_site_fract_z
 _atom_site_occupancy
  K  K0  1  0.22444500  0.80092500  0.62164400  1
  K  K1  1  0.72444500  0.30092500  0.87835600  1
  K  K2  1  0.27555500  0.80092500  0.12164400  1
  K  K3  1  0.77555500  0.30092500  0.37835600  1
  K  K4  1  0.70147200  0.06001100  0.10325200  1
  K  K5  1  0.29852800  0.56001100  0.89674800  1
  K  K6  1  0.79852800  0.06001100  0.60325200  1
  K  K7  1  0.20147200  0.56001100  0.39674800  1
  V  V8  1  0.49470000  0.00315300  0.38446600  1
  V  V9  1  0.50530000  0.50315300  0.61553400  1
  V  V10  1  0.00530000  0.00315300  0.88446600  1
  V  V11  1  0.99470000  0.50315300  0.11553400  1
  V  V12  1  0.24953500  0.25214300  0.24666300  1
  V  V13  1  0.75046500  0.75214300  0.75333700  1
  V  V14  1  0.25046500  0.25214300  0.74666300  1
  V  V15  1  0.74953500  0.75214300  0.25333700  1
  P  P16  1  0.33393300  0.25416200  0.49876100  1
  P  P17  1  0.66606700  0.75416200  0.50123900  1
  P  P18  1  0.16606700  0.25416200  0.99876100  1
  P  P19  1  0.83393300  0.75416200  0.00123900  1
  P  P20  1  0.49762500  0.50418900  0.18045000  1
  P  P21  1  0.50237500  0.00418900  0.81955000  1
  P  P22  1  0.00237500  0.50418900  0.68045000  1
  P  P23  1  0.99762500  0.00418900  0.31955000  1
  O  O24  1  0.48539000  0.14401000  0.48366300  1
  O  O25  1  0.51461000  0.64401000  0.51633700  1
  O  O26  1  0.01461000  0.14401000  0.98366300  1
  O  O27  1  0.98539000  0.64401000  0.01633700  1
  O  O28  1  0.47278500  0.37056600  0.51018600  1
  O  O29  1  0.52721500  0.87056600  0.48981400  1
  O  O30  1  0.02721500  0.37056600  0.01018600  1
  O  O31  1  0.97278500  0.87056600  0.98981400  1
  O  O32  1  0.19671400  0.27283700  0.40241100  1
  O  O33  1  0.80328600  0.77283700  0.59758900  1
  O  O34  1  0.30328600  0.27283700  0.90241100  1
  O  O35  1  0.69671400  0.77283700  0.09758900  1
  O  O36  1  0.19785700  0.23167500  0.59414600  1
  O  O37  1  0.80214300  0.73167500  0.40585400  1
  O  O38  1  0.30214300  0.23167500  0.09414600  1
  O  O39  1  0.69785700  0.73167500  0.90585400  1
  O  O40  1  0.30836000  0.53028600  0.11115400  1
  O  O41  1  0.69164000  0.03028600  0.88884600  1
  O  O42  1  0.19164000  0.53028600  0.61115400  1
  O  O43  1  0.80836000  0.03028600  0.38884600  1
  O  O44  1  0.68634600  0.47816300  0.11218100  1
  O  O45  1  0.31365400  0.97816300  0.88781900  1
  O  O46  1  0.81365400  0.47816300  0.61218100  1
  O  O47  1  0.18634600  0.97816300  0.38781900  1
  O  O48  1  0.53340100  0.61931500  0.25092900  1
  O  O49  1  0.46659900  0.11931500  0.74907100  1
  O  O50  1  0.96659900  0.61931500  0.75092900  1
  O  O51  1  0.03340100  0.11931500  0.24907100  1
  O  O52  1  0.45382000  0.39279100  0.25327000  1
  O  O53  1  0.54618000  0.89279100  0.74673000  1
  O  O54  1  0.04618000  0.39279100  0.75327000  1
  O  O55  1  0.95382000  0.89279100  0.24673000  1
  F  F56  1  0.52362300  0.88100900  0.26900500  1
  F  F57  1  0.47637700  0.38100900  0.73099500  1
  F  F58  1  0.97637700  0.88100900  0.76900500  1
  F  F59  1  0.02362300  0.38100900  0.23099500  1
  F  F60  1  0.48003300  0.12993600  0.26969700  1
  F  F61  1  0.51996700  0.62993600  0.73030300  1
  F  F62  1  0.01996700  0.12993600  0.76969700  1
  F  F63  1  0.98003300  0.62993600  0.23030300  1
