# generated using pymatgen
data_ZrVGe
_symmetry_space_group_name_H-M   'P 1'
_cell_length_a   7.75956624
_cell_length_b   7.75956624
_cell_length_c   7.75956624
_cell_angle_alpha   152.00925318
_cell_angle_beta   152.00925318
_cell_angle_gamma   39.99978987
_symmetry_Int_Tables_number   1
_chemical_formula_structural   ZrVGe
_chemical_formula_sum   'Zr2 V2 Ge2'
_cell_volume   102.71347657
_cell_formula_units_Z   2
loop_
 _symmetry_equiv_pos_site_id
 _symmetry_equiv_pos_as_xyz
  1  'x, y, z'
loop_
 _atom_site_type_symbol
 _atom_site_label
 _atom_site_symmetry_multiplicity
 _atom_site_fract_x
 _atom_site_fract_y
 _atom_site_fract_z
 _atom_site_occupancy
  Zr  Zr0  1  0.67631300  0.67631300  0.00000000  1
  Zr  Zr1  1  0.32368700  0.32368700  0.00000000  1
  V  V2  1  0.50000000  0.00000000  0.50000000  1
  V  V3  1  0.00000000  0.50000000  0.50000000  1
  Ge  Ge4  1  0.12673900  0.12673900  0.00000000  1
  Ge  Ge5  1  0.87326100  0.87326100  0.00000000  1
