# generated using pymatgen
data_K3PS4
_symmetry_space_group_name_H-M   'P 1'
_cell_length_a   9.14396700
_cell_length_b   9.32127300
_cell_length_c   10.66343900
_cell_angle_alpha   90.00000000
_cell_angle_beta   90.00000000
_cell_angle_gamma   90.00000000
_symmetry_Int_Tables_number   1
_chemical_formula_structural   K3PS4
_chemical_formula_sum   'K12 P4 S16'
_cell_volume   908.88129719
_cell_formula_units_Z   4
loop_
 _symmetry_equiv_pos_site_id
 _symmetry_equiv_pos_as_xyz
  1  'x, y, z'
loop_
 _atom_site_type_symbol
 _atom_site_label
 _atom_site_symmetry_multiplicity
 _atom_site_fract_x
 _atom_site_fract_y
 _atom_site_fract_z
 _atom_site_occupancy
  K  K0  1  0.63992200  0.42092900  0.25000000  1
  K  K1  1  0.86007800  0.92092900  0.75000000  1
  K  K2  1  0.13992200  0.07907100  0.25000000  1
  K  K3  1  0.36007800  0.57907100  0.75000000  1
  K  K4  1  0.44492900  0.79772500  0.04450600  1
  K  K5  1  0.05507100  0.29772500  0.95549400  1
  K  K6  1  0.94492900  0.70227500  0.45549400  1
  K  K7  1  0.55507100  0.20227500  0.54450600  1
  K  K8  1  0.55507100  0.20227500  0.95549400  1
  K  K9  1  0.94492900  0.70227500  0.04450600  1
  K  K10  1  0.05507100  0.29772500  0.54450600  1
  K  K11  1  0.44492900  0.79772500  0.45549400  1
  P  P12  1  0.72204700  0.98063400  0.25000000  1
  P  P13  1  0.77795300  0.48063400  0.75000000  1
  P  P14  1  0.22204700  0.51936600  0.25000000  1
  P  P15  1  0.27795300  0.01936600  0.75000000  1
  S  S16  1  0.69357400  0.76106600  0.25000000  1
  S  S17  1  0.80642600  0.26106600  0.75000000  1
  S  S18  1  0.19357400  0.73893400  0.25000000  1
  S  S19  1  0.30642600  0.23893400  0.75000000  1
  S  S20  1  0.51992600  0.08114600  0.25000000  1
  S  S21  1  0.98007400  0.58114600  0.75000000  1
  S  S22  1  0.01992600  0.41885400  0.25000000  1
  S  S23  1  0.48007400  0.91885400  0.75000000  1
  S  S24  1  0.83446900  0.03755000  0.09036000  1
  S  S25  1  0.66553100  0.53755000  0.90964000  1
  S  S26  1  0.33446900  0.46245000  0.40964000  1
  S  S27  1  0.16553100  0.96245000  0.59036000  1
  S  S28  1  0.16553100  0.96245000  0.90964000  1
  S  S29  1  0.33446900  0.46245000  0.09036000  1
  S  S30  1  0.66553100  0.53755000  0.59036000  1
  S  S31  1  0.83446900  0.03755000  0.40964000  1
