# generated using pymatgen
data_RbMo2P3O13
_symmetry_space_group_name_H-M   'P 1'
_cell_length_a   6.49584176
_cell_length_b   9.92708187
_cell_length_c   19.72600900
_cell_angle_alpha   90.00000000
_cell_angle_beta   90.00000000
_cell_angle_gamma   107.06833380
_symmetry_Int_Tables_number   1
_chemical_formula_structural   RbMo2P3O13
_chemical_formula_sum   'Rb4 Mo8 P12 O52'
_cell_volume   1216.00087873
_cell_formula_units_Z   4
loop_
 _symmetry_equiv_pos_site_id
 _symmetry_equiv_pos_as_xyz
  1  'x, y, z'
loop_
 _atom_site_type_symbol
 _atom_site_label
 _atom_site_symmetry_multiplicity
 _atom_site_fract_x
 _atom_site_fract_y
 _atom_site_fract_z
 _atom_site_occupancy
  Rb  Rb0  1  0.78560200  0.37332600  0.01825400  1
  Rb  Rb1  1  0.22474300  0.01529700  0.33792300  1
  Rb  Rb2  1  0.21439800  0.62667400  0.51825400  1
  Rb  Rb3  1  0.77525700  0.98470300  0.83792300  1
  Mo  Mo4  1  0.56008400  0.37345900  0.46354600  1
  Mo  Mo5  1  0.43991600  0.62654100  0.96354600  1
  Mo  Mo6  1  0.14103700  0.07175300  0.00632900  1
  Mo  Mo7  1  0.85896300  0.92824600  0.50632900  1
  Mo  Mo8  1  0.36226400  0.94605500  0.68100400  1
  Mo  Mo9  1  0.63773600  0.05394500  0.18100400  1
  Mo  Mo10  1  0.06353900  0.39162400  0.71800300  1
  Mo  Mo11  1  0.93646100  0.60837700  0.21800300  1
  P  P12  1  0.48101200  0.69841900  0.25210100  1
  P  P13  1  0.51898900  0.30158100  0.75210100  1
  P  P14  1  0.01292700  0.28415400  0.43084300  1
  P  P15  1  0.98707400  0.71584600  0.93084300  1
  P  P16  1  0.75639900  0.29261800  0.30834600  1
  P  P17  1  0.24360100  0.70738200  0.80834600  1
  P  P18  1  0.59746700  0.97070000  0.01850900  1
  P  P19  1  0.90471000  0.04059100  0.66567600  1
  P  P20  1  0.73940800  0.69385800  0.37478600  1
  P  P21  1  0.26059200  0.30614200  0.87478600  1
  P  P22  1  0.09528900  0.95940900  0.16567600  1
  P  P23  1  0.40253300  0.02930000  0.51850900  1
  O  O24  1  0.44407100  0.57824000  0.04627500  1
  O  O25  1  0.55593000  0.42176000  0.54627500  1
  O  O26  1  0.17679600  0.93378400  0.49686900  1
  O  O27  1  0.82320500  0.06621700  0.99686900  1
  O  O28  1  0.45454900  0.16177800  0.47369500  1
  O  O29  1  0.54545100  0.83822300  0.97369500  1
  O  O30  1  0.20865400  0.22617200  0.05049900  1
  O  O31  1  0.79134600  0.77382800  0.55049900  1
  O  O32  1  0.93252600  0.55558300  0.13557900  1
  O  O33  1  0.06747400  0.44441700  0.63557900  1
  O  O34  1  0.07742900  0.93802600  0.08822600  1
  O  O35  1  0.92257200  0.06197400  0.58822600  1
  O  O36  1  0.71412500  0.20781100  0.13590400  1
  O  O37  1  0.28587500  0.79218900  0.63590400  1
  O  O38  1  0.97120600  0.29067000  0.35025400  1
  O  O39  1  0.02879400  0.70933000  0.85025400  1
  O  O40  1  0.52438100  0.69471100  0.33359900  1
  O  O41  1  0.47561900  0.30528900  0.83359900  1
  O  O42  1  0.82267500  0.83961100  0.40885200  1
  O  O43  1  0.33084900  0.85516300  0.77727600  1
  O  O44  1  0.66421400  0.58087500  0.42939500  1
  O  O45  1  0.33578500  0.41912500  0.92939500  1
  O  O46  1  0.58251600  0.93015200  0.09390600  1
  O  O47  1  0.41748400  0.06984800  0.59390600  1
  O  O48  1  0.12204100  0.63353100  0.96700800  1
  O  O49  1  0.87795900  0.36646900  0.46700800  1
  O  O50  1  0.37725400  0.37951700  0.71728000  1
  O  O51  1  0.62274600  0.62048200  0.21728000  1
  O  O52  1  0.05981500  0.96234000  0.69380700  1
  O  O53  1  0.94018500  0.03765900  0.19380700  1
  O  O54  1  0.03675000  0.87032500  0.94922300  1
  O  O55  1  0.96325100  0.12967500  0.44922300  1
  O  O56  1  0.74963600  0.62902900  0.93864400  1
  O  O57  1  0.25036400  0.37097100  0.43864400  1
  O  O58  1  0.67858700  0.94985400  0.68827000  1
  O  O59  1  0.32141300  0.05014600  0.18827100  1
  O  O60  1  0.09430000  0.32932100  0.82544200  1
  O  O61  1  0.90570000  0.67067900  0.32544200  1
  O  O62  1  0.46967300  0.14643000  0.73356500  1
  O  O63  1  0.53032700  0.85357000  0.23356500  1
  O  O64  1  0.75645800  0.38640000  0.74551000  1
  O  O65  1  0.24354300  0.61360000  0.24551000  1
  O  O66  1  0.40626700  0.68140700  0.85854000  1
  O  O67  1  0.59373300  0.31859300  0.35854000  1
  O  O68  1  0.95157000  0.18280600  0.70219300  1
  O  O69  1  0.04843000  0.81719400  0.20219300  1
  O  O70  1  0.16839700  0.59493600  0.75472700  1
  O  O71  1  0.83160200  0.40506400  0.25472700  1
  O  O72  1  0.55272200  0.94043900  0.49804300  1
  O  O73  1  0.44727900  0.05956100  0.99804300  1
  O  O74  1  0.17732500  0.16038900  0.90885200  1
  O  O75  1  0.66915100  0.14483700  0.27727600  1
