# generated using pymatgen
data_NaY(Te2O5)2
_symmetry_space_group_name_H-M   'P 1'
_cell_length_a   9.11071300
_cell_length_b   9.11071300
_cell_length_c   13.65067200
_cell_angle_alpha   90.00000000
_cell_angle_beta   90.00000000
_cell_angle_gamma   90.00000000
_symmetry_Int_Tables_number   1
_chemical_formula_structural   NaY(Te2O5)2
_chemical_formula_sum   'Na4 Y4 Te16 O40'
_cell_volume   1133.07527660
_cell_formula_units_Z   4
loop_
 _symmetry_equiv_pos_site_id
 _symmetry_equiv_pos_as_xyz
  1  'x, y, z'
loop_
 _atom_site_type_symbol
 _atom_site_label
 _atom_site_symmetry_multiplicity
 _atom_site_fract_x
 _atom_site_fract_y
 _atom_site_fract_z
 _atom_site_occupancy
  Na  Na0  1  0.50000000  0.00000000  0.00000000  1
  Na  Na1  1  0.00000000  0.50000000  0.00000000  1
  Na  Na2  1  0.00000000  0.50000000  0.50000000  1
  Na  Na3  1  0.50000000  0.00000000  0.50000000  1
  Y  Y4  1  0.50000000  0.00000000  0.25000000  1
  Y  Y5  1  0.00000000  0.50000000  0.25000000  1
  Y  Y6  1  0.00000000  0.50000000  0.75000000  1
  Y  Y7  1  0.50000000  0.00000000  0.75000000  1
  Te  Te8  1  0.30551000  0.71699700  0.12927700  1
  Te  Te9  1  0.19449000  0.21699700  0.12927700  1
  Te  Te10  1  0.80551000  0.78300300  0.12927700  1
  Te  Te11  1  0.69449000  0.28300300  0.12927700  1
  Te  Te12  1  0.71699700  0.30551000  0.62927700  1
  Te  Te13  1  0.78300300  0.80551000  0.62927700  1
  Te  Te14  1  0.21699700  0.19449000  0.62927700  1
  Te  Te15  1  0.28300300  0.69449000  0.62927700  1
  Te  Te16  1  0.19449000  0.78300300  0.37072300  1
  Te  Te17  1  0.30551000  0.28300300  0.37072300  1
  Te  Te18  1  0.69449000  0.71699700  0.37072300  1
  Te  Te19  1  0.80551000  0.21699700  0.37072300  1
  Te  Te20  1  0.78300300  0.19449000  0.87072300  1
  Te  Te21  1  0.71699700  0.69449000  0.87072300  1
  Te  Te22  1  0.28300300  0.30551000  0.87072300  1
  Te  Te23  1  0.21699700  0.80551000  0.87072300  1
  O  O24  1  0.34308100  0.92046200  0.12266800  1
  O  O25  1  0.15691900  0.42046200  0.12266800  1
  O  O26  1  0.84308100  0.57953800  0.12266800  1
  O  O27  1  0.65691900  0.07953800  0.12266800  1
  O  O28  1  0.92046200  0.34308100  0.62266800  1
  O  O29  1  0.57953800  0.84308100  0.62266800  1
  O  O30  1  0.42046200  0.15691900  0.62266800  1
  O  O31  1  0.07953800  0.65691900  0.62266800  1
  O  O32  1  0.15691900  0.57953800  0.37733200  1
  O  O33  1  0.34308100  0.07953800  0.37733200  1
  O  O34  1  0.65691900  0.92046200  0.37733200  1
  O  O35  1  0.84308100  0.42046200  0.37733200  1
  O  O36  1  0.57953800  0.15691900  0.87733200  1
  O  O37  1  0.92046200  0.65691900  0.87733200  1
  O  O38  1  0.07953800  0.34308100  0.87733200  1
  O  O39  1  0.42046200  0.84308100  0.87733200  1
  O  O40  1  0.12402100  0.72030200  0.19722200  1
  O  O41  1  0.37597900  0.22030200  0.19722200  1
  O  O42  1  0.62402100  0.77969800  0.19722200  1
  O  O43  1  0.87597900  0.27969800  0.19722200  1
  O  O44  1  0.72030200  0.12402100  0.69722200  1
  O  O45  1  0.77969800  0.62402100  0.69722200  1
  O  O46  1  0.22030200  0.37597900  0.69722200  1
  O  O47  1  0.27969800  0.87597900  0.69722200  1
  O  O48  1  0.37597900  0.77969800  0.30277800  1
  O  O49  1  0.12402100  0.27969800  0.30277800  1
  O  O50  1  0.87597900  0.72030200  0.30277800  1
  O  O51  1  0.62402100  0.22030200  0.30277800  1
  O  O52  1  0.77969800  0.37597900  0.80277800  1
  O  O53  1  0.72030200  0.87597900  0.80277800  1
  O  O54  1  0.27969800  0.12402100  0.80277800  1
  O  O55  1  0.22030200  0.62402100  0.80277800  1
  O  O56  1  0.20345600  0.70345600  0.00000000  1
  O  O57  1  0.29654400  0.20345600  0.00000000  1
  O  O58  1  0.70345600  0.79654400  0.00000000  1
  O  O59  1  0.79654400  0.29654400  0.00000000  1
  O  O60  1  0.70345600  0.20345600  0.50000000  1
  O  O61  1  0.79654400  0.70345600  0.50000000  1
  O  O62  1  0.20345600  0.29654400  0.50000000  1
  O  O63  1  0.29654400  0.79654400  0.50000000  1
