# generated using pymatgen
data_Rb2TmCl5
_symmetry_space_group_name_H-M   'P 1'
_cell_length_a   7.38256900
_cell_length_b   9.50928600
_cell_length_c   14.92499600
_cell_angle_alpha   90.00000000
_cell_angle_beta   90.00000000
_cell_angle_gamma   90.00000000
_symmetry_Int_Tables_number   1
_chemical_formula_structural   Rb2TmCl5
_chemical_formula_sum   'Rb8 Tm4 Cl20'
_cell_volume   1047.77889772
_cell_formula_units_Z   4
loop_
 _symmetry_equiv_pos_site_id
 _symmetry_equiv_pos_as_xyz
  1  'x, y, z'
loop_
 _atom_site_type_symbol
 _atom_site_label
 _atom_site_symmetry_multiplicity
 _atom_site_fract_x
 _atom_site_fract_y
 _atom_site_fract_z
 _atom_site_occupancy
  Rb  Rb0  1  0.25000000  0.66393600  0.91695000  1
  Rb  Rb1  1  0.75000000  0.33606400  0.08305000  1
  Rb  Rb2  1  0.75000000  0.83606400  0.41695000  1
  Rb  Rb3  1  0.25000000  0.16393600  0.58305000  1
  Rb  Rb4  1  0.25000000  0.97641400  0.21236000  1
  Rb  Rb5  1  0.75000000  0.02358600  0.78764000  1
  Rb  Rb6  1  0.75000000  0.52358600  0.71236000  1
  Rb  Rb7  1  0.25000000  0.47641400  0.28764000  1
  Tm  Tm8  1  0.25000000  0.67851500  0.56533700  1
  Tm  Tm9  1  0.75000000  0.32148500  0.43466300  1
  Tm  Tm10  1  0.75000000  0.82148500  0.06533700  1
  Tm  Tm11  1  0.25000000  0.17851500  0.93466300  1
  Cl  Cl12  1  0.25000000  0.51955300  0.70372900  1
  Cl  Cl13  1  0.75000000  0.48044700  0.29627100  1
  Cl  Cl14  1  0.75000000  0.98044700  0.20372900  1
  Cl  Cl15  1  0.25000000  0.01955300  0.79627100  1
  Cl  Cl16  1  0.50599800  0.83454000  0.61855400  1
  Cl  Cl17  1  0.49400200  0.16546000  0.38144600  1
  Cl  Cl18  1  0.49400200  0.66546000  0.11855400  1
  Cl  Cl19  1  0.00599800  0.16546000  0.38144600  1
  Cl  Cl20  1  0.50599800  0.33454000  0.88144600  1
  Cl  Cl21  1  0.99400200  0.83454000  0.61855400  1
  Cl  Cl22  1  0.99400200  0.33454000  0.88144600  1
  Cl  Cl23  1  0.00599800  0.66546000  0.11855400  1
  Cl  Cl24  1  0.25000000  0.78750900  0.40399600  1
  Cl  Cl25  1  0.75000000  0.21249100  0.59600400  1
  Cl  Cl26  1  0.75000000  0.71249100  0.90399600  1
  Cl  Cl27  1  0.25000000  0.28750900  0.09600400  1
  Cl  Cl28  1  0.00000000  0.50000000  0.50000000  1
  Cl  Cl29  1  0.00000000  0.00000000  0.00000000  1
  Cl  Cl30  1  0.50000000  0.50000000  0.50000000  1
  Cl  Cl31  1  0.50000000  0.00000000  0.00000000  1
