# generated using pymatgen
data_ScGe2Os
_symmetry_space_group_name_H-M   'P 1'
_cell_length_a   8.20399900
_cell_length_b   9.38073900
_cell_length_c   10.41531800
_cell_angle_alpha   90.00000000
_cell_angle_beta   90.00000000
_cell_angle_gamma   90.00000000
_symmetry_Int_Tables_number   1
_chemical_formula_structural   ScGe2Os
_chemical_formula_sum   'Sc12 Ge24 Os12'
_cell_volume   801.55842985
_cell_formula_units_Z   12
loop_
 _symmetry_equiv_pos_site_id
 _symmetry_equiv_pos_as_xyz
  1  'x, y, z'
loop_
 _atom_site_type_symbol
 _atom_site_label
 _atom_site_symmetry_multiplicity
 _atom_site_fract_x
 _atom_site_fract_y
 _atom_site_fract_z
 _atom_site_occupancy
  Sc  Sc0  1  0.24082400  0.82351000  0.44917400  1
  Sc  Sc1  1  0.24082400  0.17649000  0.55082600  1
  Sc  Sc2  1  0.75917600  0.32351000  0.05082600  1
  Sc  Sc3  1  0.75917600  0.67649000  0.94917400  1
  Sc  Sc4  1  0.75917600  0.17649000  0.55082600  1
  Sc  Sc5  1  0.75917600  0.82351000  0.44917400  1
  Sc  Sc6  1  0.24082400  0.67649000  0.94917400  1
  Sc  Sc7  1  0.24082400  0.32351000  0.05082600  1
  Sc  Sc8  1  0.00000000  0.83507600  0.17771000  1
  Sc  Sc9  1  0.00000000  0.16492400  0.82229000  1
  Sc  Sc10  1  0.00000000  0.33507600  0.32229000  1
  Sc  Sc11  1  0.00000000  0.66492400  0.67771000  1
  Ge  Ge12  1  0.34643900  0.84069200  0.18067400  1
  Ge  Ge13  1  0.34643900  0.15930800  0.81932600  1
  Ge  Ge14  1  0.65356100  0.34069200  0.31932600  1
  Ge  Ge15  1  0.65356100  0.65930800  0.68067400  1
  Ge  Ge16  1  0.65356100  0.15930800  0.81932600  1
  Ge  Ge17  1  0.65356100  0.84069200  0.18067400  1
  Ge  Ge18  1  0.34643900  0.65930800  0.68067400  1
  Ge  Ge19  1  0.34643900  0.34069200  0.31932600  1
  Ge  Ge20  1  0.50000000  0.54127000  0.11534000  1
  Ge  Ge21  1  0.50000000  0.45873000  0.88466000  1
  Ge  Ge22  1  0.50000000  0.04127000  0.38466000  1
  Ge  Ge23  1  0.50000000  0.95873000  0.61534000  1
  Ge  Ge24  1  0.00000000  0.53601000  0.11734600  1
  Ge  Ge25  1  0.00000000  0.46399000  0.88265400  1
  Ge  Ge26  1  0.00000000  0.03601000  0.38265400  1
  Ge  Ge27  1  0.00000000  0.96399000  0.61734600  1
  Ge  Ge28  1  0.50000000  0.63605200  0.40371400  1
  Ge  Ge29  1  0.50000000  0.36394800  0.59628600  1
  Ge  Ge30  1  0.50000000  0.13605200  0.09628600  1
  Ge  Ge31  1  0.50000000  0.86394800  0.90371400  1
  Ge  Ge32  1  0.00000000  0.63368000  0.39869900  1
  Ge  Ge33  1  0.00000000  0.36632000  0.60130100  1
  Ge  Ge34  1  0.00000000  0.13368000  0.10130100  1
  Ge  Ge35  1  0.00000000  0.86632000  0.89869900  1
  Os  Os36  1  0.24931300  0.59049100  0.23775400  1
  Os  Os37  1  0.24931300  0.40950900  0.76224600  1
  Os  Os38  1  0.75068700  0.09049100  0.26224600  1
  Os  Os39  1  0.75068700  0.90950900  0.73775400  1
  Os  Os40  1  0.75068700  0.40950900  0.76224600  1
  Os  Os41  1  0.75068700  0.59049100  0.23775400  1
  Os  Os42  1  0.24931300  0.90950900  0.73775400  1
  Os  Os43  1  0.24931300  0.09049100  0.26224600  1
  Os  Os44  1  0.24787900  0.50000000  0.50000000  1
  Os  Os45  1  0.75212100  0.00000000  0.00000000  1
  Os  Os46  1  0.75212100  0.50000000  0.50000000  1
  Os  Os47  1  0.24787900  0.00000000  0.00000000  1
