# generated using pymatgen
data_Cs2MgGe3Se8
_symmetry_space_group_name_H-M   'P 1'
_cell_length_a   7.85413900
_cell_length_b   13.29571200
_cell_length_c   18.13099200
_cell_angle_alpha   90.00000000
_cell_angle_beta   90.00000000
_cell_angle_gamma   90.00000000
_symmetry_Int_Tables_number   1
_chemical_formula_structural   Cs2MgGe3Se8
_chemical_formula_sum   'Cs8 Mg4 Ge12 Se32'
_cell_volume   1893.35368181
_cell_formula_units_Z   4
loop_
 _symmetry_equiv_pos_site_id
 _symmetry_equiv_pos_as_xyz
  1  'x, y, z'
loop_
 _atom_site_type_symbol
 _atom_site_label
 _atom_site_symmetry_multiplicity
 _atom_site_fract_x
 _atom_site_fract_y
 _atom_site_fract_z
 _atom_site_occupancy
  Cs  Cs0  1  0.75608600  0.62671400  0.05349300  1
  Cs  Cs1  1  0.74391400  0.37328600  0.55349300  1
  Cs  Cs2  1  0.25608600  0.87328600  0.94650700  1
  Cs  Cs3  1  0.24391400  0.12671400  0.44650700  1
  Cs  Cs4  1  0.26949100  0.80966800  0.34765000  1
  Cs  Cs5  1  0.23050900  0.19033200  0.84765000  1
  Cs  Cs6  1  0.76949100  0.69033200  0.65235000  1
  Cs  Cs7  1  0.73050900  0.30966800  0.15235000  1
  Mg  Mg8  1  0.98311800  0.50071200  0.34766700  1
  Mg  Mg9  1  0.51688200  0.49928800  0.84766700  1
  Mg  Mg10  1  0.48311800  0.99928800  0.65233300  1
  Mg  Mg11  1  0.01688200  0.00071200  0.15233300  1
  Ge  Ge12  1  0.76570000  0.04884800  0.32278800  1
  Ge  Ge13  1  0.73430000  0.95115200  0.82278800  1
  Ge  Ge14  1  0.26570000  0.45115200  0.67721200  1
  Ge  Ge15  1  0.23430000  0.54884800  0.17721200  1
  Ge  Ge16  1  0.73914500  0.94219000  0.48264300  1
  Ge  Ge17  1  0.76085500  0.05781000  0.98264300  1
  Ge  Ge18  1  0.23914500  0.55781000  0.51735700  1
  Ge  Ge19  1  0.26085500  0.44219000  0.01735700  1
  Ge  Ge20  1  0.51848700  0.97438600  0.15346300  1
  Ge  Ge21  1  0.98151300  0.02561400  0.65346300  1
  Ge  Ge22  1  0.01848700  0.52561400  0.84653700  1
  Ge  Ge23  1  0.48151300  0.47438600  0.34653700  1
  Se  Se24  1  0.99304200  0.61847600  0.23286300  1
  Se  Se25  1  0.50695800  0.38152400  0.73286300  1
  Se  Se26  1  0.49304200  0.88152400  0.76713700  1
  Se  Se27  1  0.00695800  0.11847600  0.26713700  1
  Se  Se28  1  0.98685700  0.61732800  0.46386500  1
  Se  Se29  1  0.51314300  0.38267200  0.96386500  1
  Se  Se30  1  0.48685700  0.88267200  0.53613500  1
  Se  Se31  1  0.01314300  0.11732800  0.03613500  1
  Se  Se32  1  0.76426200  0.87395600  0.15637300  1
  Se  Se33  1  0.73573800  0.12604400  0.65637300  1
  Se  Se34  1  0.26426200  0.62604400  0.84362700  1
  Se  Se35  1  0.23573800  0.37395600  0.34362700  1
  Se  Se36  1  0.77126200  0.62663200  0.84977600  1
  Se  Se37  1  0.72873800  0.37336800  0.34977600  1
  Se  Se38  1  0.27126200  0.87336800  0.15022400  1
  Se  Se39  1  0.22873800  0.12663200  0.65022400  1
  Se  Se40  1  0.77929800  0.87261100  0.35985300  1
  Se  Se41  1  0.72070200  0.12738900  0.85985300  1
  Se  Se42  1  0.27929800  0.62738900  0.64014700  1
  Se  Se43  1  0.22070200  0.37261100  0.14014700  1
  Se  Se44  1  0.73347800  0.11883000  0.44655400  1
  Se  Se45  1  0.76652200  0.88117000  0.94655400  1
  Se  Se46  1  0.23347800  0.38117000  0.55344600  1
  Se  Se47  1  0.26652200  0.61883000  0.05344600  1
  Se  Se48  1  0.50136200  0.58455100  0.23789700  1
  Se  Se49  1  0.99863800  0.41544900  0.73789700  1
  Se  Se50  1  0.00136200  0.91544900  0.76210300  1
  Se  Se51  1  0.49863800  0.08455100  0.26210300  1
  Se  Se52  1  0.49760800  0.59425000  0.44987000  1
  Se  Se53  1  0.00239200  0.40575000  0.94987000  1
  Se  Se54  1  0.99760800  0.90575000  0.55013000  1
  Se  Se55  1  0.50239200  0.09425000  0.05013000  1
