# generated using pymatgen
data_CdH6C(IN)3
_symmetry_space_group_name_H-M   'P 1'
_cell_length_a   8.46881311
_cell_length_b   8.92844205
_cell_length_c   9.50948944
_cell_angle_alpha   62.00145268
_cell_angle_beta   82.72546227
_cell_angle_gamma   74.35188792
_symmetry_Int_Tables_number   1
_chemical_formula_structural   CdH6C(IN)3
_chemical_formula_sum   'Cd2 H12 C2 I6 N6'
_cell_volume   611.35550031
_cell_formula_units_Z   2
loop_
 _symmetry_equiv_pos_site_id
 _symmetry_equiv_pos_as_xyz
  1  'x, y, z'
loop_
 _atom_site_type_symbol
 _atom_site_label
 _atom_site_symmetry_multiplicity
 _atom_site_fract_x
 _atom_site_fract_y
 _atom_site_fract_z
 _atom_site_occupancy
  Cd  Cd0  1  0.07616800  0.92049100  0.08929000  1
  Cd  Cd1  1  0.57616800  0.00978100  0.91071000  1
  H  H2  1  0.15303100  0.34321200  0.18381500  1
  H  H3  1  0.65303100  0.52702800  0.81618500  1
  H  H4  1  0.23392900  0.31088100  0.35884100  1
  H  H5  1  0.73392900  0.66972200  0.64115900  1
  H  H6  1  0.86121600  0.26364600  0.57546700  1
  H  H7  1  0.36121600  0.83911300  0.42453300  1
  H  H8  1  0.06368100  0.26858800  0.58551900  1
  H  H9  1  0.56368100  0.85410800  0.41448100  1
  H  H10  1  0.75500600  0.31172600  0.34134700  1
  H  H11  1  0.25500600  0.65307300  0.65865300  1
  H  H12  1  0.87975900  0.34672500  0.17269800  1
  H  H13  1  0.37975900  0.51942300  0.82730200  1
  C  C14  1  0.98961100  0.31454200  0.36752700  1
  C  C15  1  0.48961100  0.68206900  0.63247300  1
  I  I16  1  0.06099400  0.27905600  0.91739600  1
  I  I17  1  0.56099400  0.19645200  0.08260400  1
  I  I18  1  0.00453800  0.79917600  0.41364400  1
  I  I19  1  0.50453800  0.21282000  0.58635600  1
  I  I20  1  0.91230700  0.81741400  0.91731500  1
  I  I21  1  0.41230700  0.73472900  0.08268500  1
  N  N22  1  0.13532300  0.33007600  0.29643500  1
  N  N23  1  0.63532300  0.62651100  0.70356500  1
  N  N24  1  0.97056200  0.28029800  0.52073500  1
  N  N25  1  0.47056200  0.80103300  0.47926500  1
  N  N26  1  0.86208300  0.33682400  0.28452000  1
  N  N27  1  0.36208300  0.62134400  0.71548000  1
