# generated using pymatgen
data_Lu2CoGe2
_symmetry_space_group_name_H-M   'P 1'
_cell_length_a   5.53498832
_cell_length_b   5.53498832
_cell_length_c   9.97379143
_cell_angle_alpha   64.30560379
_cell_angle_beta   64.30560379
_cell_angle_gamma   44.20556606
_symmetry_Int_Tables_number   1
_chemical_formula_structural   Lu2CoGe2
_chemical_formula_sum   'Lu4 Co2 Ge4'
_cell_volume   188.27889750
_cell_formula_units_Z   2
loop_
 _symmetry_equiv_pos_site_id
 _symmetry_equiv_pos_as_xyz
  1  'x, y, z'
loop_
 _atom_site_type_symbol
 _atom_site_label
 _atom_site_symmetry_multiplicity
 _atom_site_fract_x
 _atom_site_fract_y
 _atom_site_fract_z
 _atom_site_occupancy
  Lu  Lu0  1  0.18611300  0.18611300  0.88918600  1
  Lu  Lu1  1  0.81388700  0.81388700  0.11081400  1
  Lu  Lu2  1  0.00664400  0.00664400  0.66711500  1
  Lu  Lu3  1  0.99335600  0.99335600  0.33288500  1
  Co  Co4  1  0.27482400  0.27482400  0.35692800  1
  Co  Co5  1  0.72517600  0.72517600  0.64307200  1
  Ge  Ge6  1  0.48546300  0.48546300  0.87494000  1
  Ge  Ge7  1  0.51453700  0.51453700  0.12506000  1
  Ge  Ge8  1  0.34902900  0.34902900  0.56638000  1
  Ge  Ge9  1  0.65097100  0.65097100  0.43362000  1
