# generated using pymatgen
data_PrInCu5
_symmetry_space_group_name_H-M   'P 1'
_cell_length_a   5.10012100
_cell_length_b   8.43017700
_cell_length_c   10.61177100
_cell_angle_alpha   90.00000000
_cell_angle_beta   90.00000000
_cell_angle_gamma   90.00000000
_symmetry_Int_Tables_number   1
_chemical_formula_structural   PrInCu5
_chemical_formula_sum   'Pr4 In4 Cu20'
_cell_volume   456.25227440
_cell_formula_units_Z   4
loop_
 _symmetry_equiv_pos_site_id
 _symmetry_equiv_pos_as_xyz
  1  'x, y, z'
loop_
 _atom_site_type_symbol
 _atom_site_label
 _atom_site_symmetry_multiplicity
 _atom_site_fract_x
 _atom_site_fract_y
 _atom_site_fract_z
 _atom_site_occupancy
  Pr  Pr0  1  0.25000000  0.75557600  0.05976600  1
  Pr  Pr1  1  0.75000000  0.24442400  0.94023400  1
  Pr  Pr2  1  0.75000000  0.74442400  0.55976600  1
  Pr  Pr3  1  0.25000000  0.25557600  0.44023400  1
  In  In4  1  0.25000000  0.63915600  0.36174300  1
  In  In5  1  0.75000000  0.36084400  0.63825700  1
  In  In6  1  0.75000000  0.86084400  0.86174300  1
  In  In7  1  0.25000000  0.13915600  0.13825700  1
  Cu  Cu8  1  0.25000000  0.81579800  0.74306600  1
  Cu  Cu9  1  0.75000000  0.18420200  0.25693400  1
  Cu  Cu10  1  0.75000000  0.68420200  0.24306600  1
  Cu  Cu11  1  0.25000000  0.31579800  0.75693400  1
  Cu  Cu12  1  0.49888600  0.56703400  0.81149800  1
  Cu  Cu13  1  0.50111400  0.43296600  0.18850200  1
  Cu  Cu14  1  0.50111400  0.93296600  0.31149800  1
  Cu  Cu15  1  0.99888600  0.43296600  0.18850200  1
  Cu  Cu16  1  0.49888600  0.06703400  0.68850200  1
  Cu  Cu17  1  0.00111400  0.56703400  0.81149800  1
  Cu  Cu18  1  0.00111400  0.06703400  0.68850200  1
  Cu  Cu19  1  0.99888600  0.93296600  0.31149800  1
  Cu  Cu20  1  0.25000000  0.55687500  0.60675400  1
  Cu  Cu21  1  0.75000000  0.44312500  0.39324600  1
  Cu  Cu22  1  0.75000000  0.94312500  0.10675400  1
  Cu  Cu23  1  0.25000000  0.05687500  0.89324600  1
  Cu  Cu24  1  0.25000000  0.91825100  0.51511100  1
  Cu  Cu25  1  0.75000000  0.08174900  0.48488900  1
  Cu  Cu26  1  0.75000000  0.58174900  0.01511100  1
  Cu  Cu27  1  0.25000000  0.41825100  0.98488900  1
