# generated using pymatgen
data_CsHoCdTe3
_symmetry_space_group_name_H-M   'P 1'
_cell_length_a   8.98049854
_cell_length_b   8.98049854
_cell_length_c   11.86578200
_cell_angle_alpha   90.00000000
_cell_angle_beta   90.00000000
_cell_angle_gamma   150.74064006
_symmetry_Int_Tables_number   1
_chemical_formula_structural   CsHoCdTe3
_chemical_formula_sum   'Cs2 Ho2 Cd2 Te6'
_cell_volume   467.73111600
_cell_formula_units_Z   2
loop_
 _symmetry_equiv_pos_site_id
 _symmetry_equiv_pos_as_xyz
  1  'x, y, z'
loop_
 _atom_site_type_symbol
 _atom_site_label
 _atom_site_symmetry_multiplicity
 _atom_site_fract_x
 _atom_site_fract_y
 _atom_site_fract_z
 _atom_site_occupancy
  Cs  Cs0  1  0.74887200  0.25112800  0.75000000  1
  Cs  Cs1  1  0.25112800  0.74887200  0.25000000  1
  Ho  Ho2  1  0.50000000  0.50000000  0.50000000  1
  Ho  Ho3  1  0.50000000  0.50000000  0.00000000  1
  Cd  Cd4  1  0.96270200  0.03729800  0.25000000  1
  Cd  Cd5  1  0.03729800  0.96270200  0.75000000  1
  Te  Te6  1  0.88045400  0.11954600  0.04556700  1
  Te  Te7  1  0.11954600  0.88045400  0.95443300  1
  Te  Te8  1  0.43498800  0.56501200  0.75000000  1
  Te  Te9  1  0.56501200  0.43498800  0.25000000  1
  Te  Te10  1  0.88045400  0.11954600  0.45443300  1
  Te  Te11  1  0.11954600  0.88045400  0.54556700  1
