# generated using pymatgen
data_PmPaO4
_symmetry_space_group_name_H-M   'P 1'
_cell_length_a   6.67785526
_cell_length_b   6.67785526
_cell_length_c   6.67785526
_cell_angle_alpha   131.47831865
_cell_angle_beta   131.47831865
_cell_angle_gamma   71.05422439
_symmetry_Int_Tables_number   1
_chemical_formula_structural   PmPaO4
_chemical_formula_sum   'Pm2 Pa2 O8'
_cell_volume   163.66822728
_cell_formula_units_Z   2
loop_
 _symmetry_equiv_pos_site_id
 _symmetry_equiv_pos_as_xyz
  1  'x, y, z'
loop_
 _atom_site_type_symbol
 _atom_site_label
 _atom_site_symmetry_multiplicity
 _atom_site_fract_x
 _atom_site_fract_y
 _atom_site_fract_z
 _atom_site_occupancy
  Pm  Pm0  1  0.00000000  0.00000000  0.00000000  1
  Pm  Pm1  1  0.75000000  0.25000000  0.50000000  1
  Pa  Pa2  1  0.50000000  0.50000000  0.00000000  1
  Pa  Pa3  1  0.25000000  0.75000000  0.50000000  1
  O  O4  1  0.37500000  0.39243900  0.51743900  1
  O  O5  1  0.87500000  0.85756100  0.48256100  1
  O  O6  1  0.14243900  0.12500000  0.51743900  1
  O  O7  1  0.60756100  0.12500000  0.98256100  1
  O  O8  1  0.87500000  0.39243900  0.01743900  1
  O  O9  1  0.60756100  0.62500000  0.48256100  1
  O  O10  1  0.14243900  0.62500000  0.01743900  1
  O  O11  1  0.37500000  0.85756100  0.98256100  1
