# generated using pymatgen
data_Tm12(OsC3)5
_symmetry_space_group_name_H-M   'P 1'
_cell_length_a   4.98741600
_cell_length_b   10.60443963
_cell_length_c   10.60443963
_cell_angle_alpha   119.99999766
_cell_angle_beta   90.00000000
_cell_angle_gamma   90.00000000
_symmetry_Int_Tables_number   1
_chemical_formula_structural   Tm12(OsC3)5
_chemical_formula_sum   'Tm12 Os5 C15'
_cell_volume   485.71518805
_cell_formula_units_Z   1
loop_
 _symmetry_equiv_pos_site_id
 _symmetry_equiv_pos_as_xyz
  1  'x, y, z'
loop_
 _atom_site_type_symbol
 _atom_site_label
 _atom_site_symmetry_multiplicity
 _atom_site_fract_x
 _atom_site_fract_y
 _atom_site_fract_z
 _atom_site_occupancy
  Tm  Tm0  1  0.50000000  0.20631100  0.20631100  1
  Tm  Tm1  1  0.50000000  0.00000000  0.79368900  1
  Tm  Tm2  1  0.50000000  0.79368900  0.00000000  1
  Tm  Tm3  1  0.00000000  0.72787300  0.18356100  1
  Tm  Tm4  1  0.00000000  0.45568800  0.27212700  1
  Tm  Tm5  1  0.00000000  0.54431200  0.81643900  1
  Tm  Tm6  1  0.00000000  0.81643900  0.54431200  1
  Tm  Tm7  1  0.00000000  0.18356100  0.72787300  1
  Tm  Tm8  1  0.00000000  0.27212700  0.45568800  1
  Tm  Tm9  1  0.50000000  0.56246300  0.56246300  1
  Tm  Tm10  1  0.50000000  0.00000000  0.43753700  1
  Tm  Tm11  1  0.50000000  0.43753700  0.00000000  1
  Os  Os12  1  0.00000000  0.83836900  0.83836900  1
  Os  Os13  1  0.00000000  0.00000000  0.16163100  1
  Os  Os14  1  0.00000000  0.16163100  0.00000000  1
  Os  Os15  1  0.50000000  0.66666700  0.33333300  1
  Os  Os16  1  0.50000000  0.33333300  0.66666700  1
  C  C17  1  0.00000000  0.66143400  0.66143400  1
  C  C18  1  0.00000000  0.00000000  0.33856600  1
  C  C19  1  0.00000000  0.33856600  0.00000000  1
  C  C20  1  0.00000000  0.21135200  0.21135200  1
  C  C21  1  0.00000000  0.00000000  0.78864800  1
  C  C22  1  0.00000000  0.78864800  0.00000000  1
  C  C23  1  0.00000000  0.53545800  0.53545800  1
  C  C24  1  0.00000000  0.00000000  0.46454200  1
  C  C25  1  0.00000000  0.46454200  0.00000000  1
  C  C26  1  0.50000000  0.71802500  0.18371100  1
  C  C27  1  0.50000000  0.46568600  0.28197500  1
  C  C28  1  0.50000000  0.53431400  0.81628800  1
  C  C29  1  0.50000000  0.81628800  0.53431400  1
  C  C30  1  0.50000000  0.18371100  0.71802500  1
  C  C31  1  0.50000000  0.28197500  0.46568600  1
