# generated using pymatgen
data_MoSe2
_symmetry_space_group_name_H-M   'P 1'
_cell_length_a   3.32694845
_cell_length_b   3.32694845
_cell_length_c   40.90284600
_cell_angle_alpha   90.00000000
_cell_angle_beta   90.00000000
_cell_angle_gamma   120.00000887
_symmetry_Int_Tables_number   1
_chemical_formula_structural   MoSe2
_chemical_formula_sum   'Mo4 Se8'
_cell_volume   392.08141984
_cell_formula_units_Z   4
loop_
 _symmetry_equiv_pos_site_id
 _symmetry_equiv_pos_as_xyz
  1  'x, y, z'
loop_
 _atom_site_type_symbol
 _atom_site_label
 _atom_site_symmetry_multiplicity
 _atom_site_fract_x
 _atom_site_fract_y
 _atom_site_fract_z
 _atom_site_occupancy
  Mo  Mo0  1  0.66666700  0.33333300  0.90556000  1
  Mo  Mo1  1  0.66666700  0.33333300  0.28331900  1
  Mo  Mo2  1  0.33333300  0.66666700  0.71668100  1
  Mo  Mo3  1  0.33333300  0.66666700  0.09444000  1
  Se  Se4  1  0.33333300  0.66666700  0.94645300  1
  Se  Se5  1  0.33333300  0.66666700  0.32421200  1
  Se  Se6  1  0.66666700  0.33333300  0.75757300  1
  Se  Se7  1  0.66666700  0.33333300  0.13533200  1
  Se  Se8  1  0.33333300  0.66666700  0.86466800  1
  Se  Se9  1  0.33333300  0.66666700  0.24242700  1
  Se  Se10  1  0.66666700  0.33333300  0.67578800  1
  Se  Se11  1  0.66666700  0.33333300  0.05354700  1
