# generated using pymatgen
data_CuAsSe
_symmetry_space_group_name_H-M   'P 1'
_cell_length_a   3.94505100
_cell_length_b   5.71874500
_cell_length_c   11.91890400
_cell_angle_alpha   90.00000000
_cell_angle_beta   90.00000000
_cell_angle_gamma   90.00000000
_symmetry_Int_Tables_number   1
_chemical_formula_structural   CuAsSe
_chemical_formula_sum   'Cu4 As4 Se4'
_cell_volume   268.89930235
_cell_formula_units_Z   4
loop_
 _symmetry_equiv_pos_site_id
 _symmetry_equiv_pos_as_xyz
  1  'x, y, z'
loop_
 _atom_site_type_symbol
 _atom_site_label
 _atom_site_symmetry_multiplicity
 _atom_site_fract_x
 _atom_site_fract_y
 _atom_site_fract_z
 _atom_site_occupancy
  Cu  Cu0  1  0.25000000  0.08561800  0.83198800  1
  Cu  Cu1  1  0.75000000  0.91438200  0.16801200  1
  Cu  Cu2  1  0.75000000  0.58561800  0.66801200  1
  Cu  Cu3  1  0.25000000  0.41438200  0.33198800  1
  As  As4  1  0.25000000  0.35937500  0.98425100  1
  As  As5  1  0.75000000  0.64062500  0.01574900  1
  As  As6  1  0.75000000  0.85937500  0.51574900  1
  As  As7  1  0.25000000  0.14062500  0.48425100  1
  Se  Se8  1  0.25000000  0.33744500  0.66754900  1
  Se  Se9  1  0.75000000  0.66255500  0.33245100  1
  Se  Se10  1  0.75000000  0.83744500  0.83245100  1
  Se  Se11  1  0.25000000  0.16255500  0.16754900  1
