# generated using pymatgen
data_Zr3Tl2(CuSe4)2
_symmetry_space_group_name_H-M   'P 1'
_cell_length_a   7.68915979
_cell_length_b   7.68915979
_cell_length_c   14.53415874
_cell_angle_alpha   66.36673968
_cell_angle_beta   66.36673968
_cell_angle_gamma   29.06284213
_symmetry_Int_Tables_number   1
_chemical_formula_structural   Zr3Tl2(CuSe4)2
_chemical_formula_sum   'Zr3 Tl2 Cu2 Se8'
_cell_volume   379.94669949
_cell_formula_units_Z   1
loop_
 _symmetry_equiv_pos_site_id
 _symmetry_equiv_pos_as_xyz
  1  'x, y, z'
loop_
 _atom_site_type_symbol
 _atom_site_label
 _atom_site_symmetry_multiplicity
 _atom_site_fract_x
 _atom_site_fract_y
 _atom_site_fract_z
 _atom_site_occupancy
  Zr  Zr0  1  0.00000000  0.00000000  0.00000000  1
  Zr  Zr1  1  0.84550900  0.84550900  0.38023700  1
  Zr  Zr2  1  0.15449100  0.15449100  0.61976300  1
  Tl  Tl3  1  0.83159800  0.83159800  0.80155700  1
  Tl  Tl4  1  0.16840200  0.16840200  0.19844300  1
  Cu  Cu5  1  0.45728700  0.45728700  0.19795500  1
  Cu  Cu6  1  0.54271300  0.54271300  0.80204500  1
  Se  Se7  1  0.85509700  0.85509700  0.19071000  1
  Se  Se8  1  0.14490300  0.14490300  0.80929000  1
  Se  Se9  1  0.79626400  0.79626400  0.58148300  1
  Se  Se10  1  0.20373600  0.20373600  0.41851700  1
  Se  Se11  1  0.48290600  0.48290600  0.35288800  1
  Se  Se12  1  0.51709400  0.51709400  0.64711200  1
  Se  Se13  1  0.60734500  0.60734500  0.04211100  1
  Se  Se14  1  0.39265500  0.39265500  0.95788900  1
