# generated using pymatgen
data_Dy(Al5Re)2
_symmetry_space_group_name_H-M   'P 1'
_cell_length_a   6.97056307
_cell_length_b   6.97056307
_cell_length_c   18.04053600
_cell_angle_alpha   90.00000000
_cell_angle_beta   90.00000000
_cell_angle_gamma   96.14852661
_symmetry_Int_Tables_number   1
_chemical_formula_structural   Dy(Al5Re)2
_chemical_formula_sum   'Dy4 Al40 Re8'
_cell_volume   871.52470986
_cell_formula_units_Z   4
loop_
 _symmetry_equiv_pos_site_id
 _symmetry_equiv_pos_as_xyz
  1  'x, y, z'
loop_
 _atom_site_type_symbol
 _atom_site_label
 _atom_site_symmetry_multiplicity
 _atom_site_fract_x
 _atom_site_fract_y
 _atom_site_fract_z
 _atom_site_occupancy
  Dy  Dy0  1  0.25756100  0.74243900  0.75000000  1
  Dy  Dy1  1  0.74243900  0.25756100  0.25000000  1
  Dy  Dy2  1  0.00000000  0.00000000  0.50000000  1
  Dy  Dy3  1  0.00000000  0.00000000  0.00000000  1
  Al  Al4  1  0.35098300  0.35098300  0.50000000  1
  Al  Al5  1  0.64901700  0.64901700  0.50000000  1
  Al  Al6  1  0.64901700  0.64901700  0.00000000  1
  Al  Al7  1  0.35098300  0.35098300  0.00000000  1
  Al  Al8  1  0.90795900  0.65156000  0.63135200  1
  Al  Al9  1  0.09204100  0.34844000  0.36864800  1
  Al  Al10  1  0.09204100  0.34844000  0.13135200  1
  Al  Al11  1  0.34844000  0.09204100  0.86864800  1
  Al  Al12  1  0.90795900  0.65156000  0.86864800  1
  Al  Al13  1  0.65156000  0.90795900  0.13135200  1
  Al  Al14  1  0.65156000  0.90795900  0.36864800  1
  Al  Al15  1  0.34844000  0.09204100  0.63135200  1
  Al  Al16  1  0.91124600  0.38612100  0.75000000  1
  Al  Al17  1  0.08875400  0.61387900  0.25000000  1
  Al  Al18  1  0.61387900  0.08875400  0.75000000  1
  Al  Al19  1  0.38612100  0.91124600  0.25000000  1
  Al  Al20  1  0.71852100  0.28147900  0.07464700  1
  Al  Al21  1  0.28147900  0.71852100  0.92535300  1
  Al  Al22  1  0.28147900  0.71852100  0.57464700  1
  Al  Al23  1  0.71852100  0.28147900  0.42535300  1
  Al  Al24  1  0.96732100  0.03267900  0.67418800  1
  Al  Al25  1  0.03267900  0.96732100  0.32581200  1
  Al  Al26  1  0.03267900  0.96732100  0.17418800  1
  Al  Al27  1  0.96732100  0.03267900  0.82581200  1
  Al  Al28  1  0.00000000  0.50000000  0.50000000  1
  Al  Al29  1  0.00000000  0.50000000  0.00000000  1
  Al  Al30  1  0.50000000  0.00000000  0.00000000  1
  Al  Al31  1  0.50000000  0.00000000  0.50000000  1
  Al  Al32  1  0.75202300  0.24797700  0.59270800  1
  Al  Al33  1  0.24797700  0.75202300  0.40729200  1
  Al  Al34  1  0.24797700  0.75202300  0.09270800  1
  Al  Al35  1  0.75202300  0.24797700  0.90729200  1
  Al  Al36  1  0.27211400  0.29815700  0.75000000  1
  Al  Al37  1  0.72788600  0.70184300  0.25000000  1
  Al  Al38  1  0.70184300  0.72788600  0.75000000  1
  Al  Al39  1  0.29815700  0.27211400  0.25000000  1
  Al  Al40  1  0.50560200  0.49439800  0.64282700  1
  Al  Al41  1  0.49439800  0.50560200  0.35717300  1
  Al  Al42  1  0.49439800  0.50560200  0.14282700  1
  Al  Al43  1  0.50560200  0.49439800  0.85717300  1
  Re  Re44  1  0.13022800  0.37366900  0.62075400  1
  Re  Re45  1  0.86977200  0.62633100  0.37924600  1
  Re  Re46  1  0.86977200  0.62633100  0.12075400  1
  Re  Re47  1  0.62633100  0.86977200  0.87924600  1
  Re  Re48  1  0.13022800  0.37366900  0.87924600  1
  Re  Re49  1  0.37366900  0.13022800  0.12075400  1
  Re  Re50  1  0.37366900  0.13022800  0.37924600  1
  Re  Re51  1  0.62633100  0.86977200  0.62075400  1
