# generated using pymatgen
data_CsBr2F7
_symmetry_space_group_name_H-M   'P 1'
_cell_length_a   7.92517200
_cell_length_b   8.33694400
_cell_length_c   14.59989061
_cell_angle_alpha   90.00000000
_cell_angle_beta   122.25854980
_cell_angle_gamma   90.00000000
_symmetry_Int_Tables_number   1
_chemical_formula_structural   CsBr2F7
_chemical_formula_sum   'Cs4 Br8 F28'
_cell_volume   815.74590790
_cell_formula_units_Z   4
loop_
 _symmetry_equiv_pos_site_id
 _symmetry_equiv_pos_as_xyz
  1  'x, y, z'
loop_
 _atom_site_type_symbol
 _atom_site_label
 _atom_site_symmetry_multiplicity
 _atom_site_fract_x
 _atom_site_fract_y
 _atom_site_fract_z
 _atom_site_occupancy
  Cs  Cs0  1  0.87856300  0.91822500  0.30916300  1
  Cs  Cs1  1  0.12143700  0.41822500  0.19083700  1
  Cs  Cs2  1  0.12143700  0.08177500  0.69083700  1
  Cs  Cs3  1  0.87856300  0.58177500  0.80916300  1
  Br  Br4  1  0.24016200  0.92269300  0.12069400  1
  Br  Br5  1  0.75983800  0.42269300  0.37930600  1
  Br  Br6  1  0.75983800  0.07730700  0.87930600  1
  Br  Br7  1  0.24016200  0.57730700  0.62069400  1
  Br  Br8  1  0.51773400  0.72264300  0.98300400  1
  Br  Br9  1  0.48226600  0.22264300  0.51699600  1
  Br  Br10  1  0.48226600  0.27735700  0.01699600  1
  Br  Br11  1  0.51773400  0.77735700  0.48300400  1
  F  F12  1  0.38316000  0.10896700  0.19801100  1
  F  F13  1  0.61684000  0.60896700  0.30198900  1
  F  F14  1  0.61684000  0.89103300  0.80198900  1
  F  F15  1  0.38316000  0.39103300  0.69801100  1
  F  F16  1  0.08770200  0.73500200  0.04511800  1
  F  F17  1  0.91229800  0.23500200  0.45488200  1
  F  F18  1  0.91229800  0.26499800  0.95488200  1
  F  F19  1  0.08770200  0.76499800  0.54511800  1
  F  F20  1  0.05156000  0.97282500  0.15332600  1
  F  F21  1  0.94844000  0.47282500  0.34667400  1
  F  F22  1  0.94844000  0.02717500  0.84667400  1
  F  F23  1  0.05156000  0.52717500  0.65332600  1
  F  F24  1  0.46183400  0.87837200  0.08198400  1
  F  F25  1  0.53816600  0.37837200  0.41801600  1
  F  F26  1  0.53816600  0.12162800  0.91801600  1
  F  F27  1  0.46183400  0.62162800  0.58198400  1
  F  F28  1  0.27454700  0.77482400  0.85037300  1
  F  F29  1  0.72545300  0.27482400  0.64962700  1
  F  F30  1  0.72545300  0.22517600  0.14962700  1
  F  F31  1  0.27454700  0.72517600  0.35037300  1
  F  F32  1  0.58283900  0.58991400  0.90632900  1
  F  F33  1  0.41716100  0.08991400  0.59367100  1
  F  F34  1  0.41716100  0.41008600  0.09367100  1
  F  F35  1  0.58283900  0.91008600  0.40632900  1
  F  F36  1  0.76285300  0.66061800  0.11010600  1
  F  F37  1  0.23714700  0.16061800  0.38989400  1
  F  F38  1  0.23714700  0.33938200  0.88989400  1
  F  F39  1  0.76285300  0.83938200  0.61010600  1
