# generated using pymatgen
data_K2TmF5
_symmetry_space_group_name_H-M   'P 1'
_cell_length_a   6.66572100
_cell_length_b   7.20262700
_cell_length_c   10.97637600
_cell_angle_alpha   90.00000000
_cell_angle_beta   90.00000000
_cell_angle_gamma   90.00000000
_symmetry_Int_Tables_number   1
_chemical_formula_structural   K2TmF5
_chemical_formula_sum   'K8 Tm4 F20'
_cell_volume   526.98351771
_cell_formula_units_Z   4
loop_
 _symmetry_equiv_pos_site_id
 _symmetry_equiv_pos_as_xyz
  1  'x, y, z'
loop_
 _atom_site_type_symbol
 _atom_site_label
 _atom_site_symmetry_multiplicity
 _atom_site_fract_x
 _atom_site_fract_y
 _atom_site_fract_z
 _atom_site_occupancy
  K  K0  1  0.52943000  0.49808400  0.82809900  1
  K  K1  1  0.47057000  0.50191600  0.17190100  1
  K  K2  1  0.02943000  0.50191600  0.67190100  1
  K  K3  1  0.47057000  0.99808400  0.17190100  1
  K  K4  1  0.97057000  0.49808400  0.32809900  1
  K  K5  1  0.52943000  0.00191600  0.82809900  1
  K  K6  1  0.97057000  0.00191600  0.32809900  1
  K  K7  1  0.02943000  0.99808400  0.67190100  1
  Tm  Tm8  1  0.56352100  0.75000000  0.50121500  1
  Tm  Tm9  1  0.43647900  0.25000000  0.49878500  1
  Tm  Tm10  1  0.06352100  0.25000000  0.99878500  1
  Tm  Tm11  1  0.93647900  0.75000000  0.00121500  1
  F  F12  1  0.83891100  0.75000000  0.81186700  1
  F  F13  1  0.16108900  0.25000000  0.18813300  1
  F  F14  1  0.33891100  0.25000000  0.68813300  1
  F  F15  1  0.66108900  0.75000000  0.31186700  1
  F  F16  1  0.37053500  0.75000000  0.66045800  1
  F  F17  1  0.62946500  0.25000000  0.33954200  1
  F  F18  1  0.87053500  0.25000000  0.83954200  1
  F  F19  1  0.12946500  0.75000000  0.16045800  1
  F  F20  1  0.88750900  0.75000000  0.51403500  1
  F  F21  1  0.11249100  0.25000000  0.48596500  1
  F  F22  1  0.38750900  0.25000000  0.98596500  1
  F  F23  1  0.61249100  0.75000000  0.01403500  1
  F  F24  1  0.64237300  0.03454800  0.57598300  1
  F  F25  1  0.35762700  0.96545200  0.42401700  1
  F  F26  1  0.14237300  0.96545200  0.92401700  1
  F  F27  1  0.35762700  0.53454800  0.42401700  1
  F  F28  1  0.85762700  0.03454800  0.07598300  1
  F  F29  1  0.64237300  0.46545200  0.57598300  1
  F  F30  1  0.85762700  0.46545200  0.07598300  1
  F  F31  1  0.14237300  0.53454800  0.92401700  1
