# generated using pymatgen
data_YbAl7Cu5
_symmetry_space_group_name_H-M   'P 1'
_cell_length_a   6.67557875
_cell_length_b   6.67557875
_cell_length_c   6.67557875
_cell_angle_alpha   135.22453127
_cell_angle_beta   99.02206686
_cell_angle_gamma   97.66106785
_symmetry_Int_Tables_number   1
_chemical_formula_structural   YbAl7Cu5
_chemical_formula_sum   'Yb1 Al7 Cu5'
_cell_volume   193.71755962
_cell_formula_units_Z   1
loop_
 _symmetry_equiv_pos_site_id
 _symmetry_equiv_pos_as_xyz
  1  'x, y, z'
loop_
 _atom_site_type_symbol
 _atom_site_label
 _atom_site_symmetry_multiplicity
 _atom_site_fract_x
 _atom_site_fract_y
 _atom_site_fract_z
 _atom_site_occupancy
  Yb  Yb0  1  0.00302900  0.00000000  0.00302900  1
  Al  Al1  1  0.65121500  0.00000000  0.65121500  1
  Al  Al2  1  0.34531100  0.00000000  0.34531100  1
  Al  Al3  1  0.34214500  0.34922000  0.99292500  1
  Al  Al4  1  0.64370600  0.65078000  0.99292500  1
  Al  Al5  1  0.77678100  0.50000000  0.27678100  1
  Al  Al6  1  0.79313900  0.28699800  0.50614000  1
  Al  Al7  1  0.21914200  0.71300200  0.50614000  1
  Cu  Cu8  1  0.50271100  0.49996700  0.49988000  1
  Cu  Cu9  1  0.50271100  0.00283100  0.00274500  1
  Cu  Cu10  1  0.99991300  0.99716900  0.49988000  1
  Cu  Cu11  1  0.99991300  0.50003300  0.00274500  1
  Cu  Cu12  1  0.22028300  0.50000000  0.72028300  1
