# generated using pymatgen
data_NaGeAu3
_symmetry_space_group_name_H-M   'P 1'
_cell_length_a   9.20486000
_cell_length_b   9.20486000
_cell_length_c   9.20486000
_cell_angle_alpha   90.00000000
_cell_angle_beta   90.00000000
_cell_angle_gamma   90.00000000
_symmetry_Int_Tables_number   1
_chemical_formula_structural   NaGeAu3
_chemical_formula_sum   'Na8 Ge8 Au24'
_cell_volume   779.92270322
_cell_formula_units_Z   8
loop_
 _symmetry_equiv_pos_site_id
 _symmetry_equiv_pos_as_xyz
  1  'x, y, z'
loop_
 _atom_site_type_symbol
 _atom_site_label
 _atom_site_symmetry_multiplicity
 _atom_site_fract_x
 _atom_site_fract_y
 _atom_site_fract_z
 _atom_site_occupancy
  Na  Na0  1  0.09900500  0.09900500  0.09900500  1
  Na  Na1  1  0.40099500  0.90099500  0.59900500  1
  Na  Na2  1  0.59900500  0.40099500  0.90099500  1
  Na  Na3  1  0.90099500  0.59900500  0.40099500  1
  Na  Na4  1  0.90099500  0.90099500  0.90099500  1
  Na  Na5  1  0.59900500  0.09900500  0.40099500  1
  Na  Na6  1  0.40099500  0.59900500  0.09900500  1
  Na  Na7  1  0.09900500  0.40099500  0.59900500  1
  Ge  Ge8  1  0.11248400  0.88751600  0.38751600  1
  Ge  Ge9  1  0.88751600  0.38751600  0.11248400  1
  Ge  Ge10  1  0.61248400  0.61248400  0.61248400  1
  Ge  Ge11  1  0.61248400  0.88751600  0.11248400  1
  Ge  Ge12  1  0.88751600  0.11248400  0.61248400  1
  Ge  Ge13  1  0.11248400  0.61248400  0.88751600  1
  Ge  Ge14  1  0.38751600  0.38751600  0.38751600  1
  Ge  Ge15  1  0.38751600  0.11248400  0.88751600  1
  Au  Au16  1  0.59087400  0.73147100  0.36113600  1
  Au  Au17  1  0.73147100  0.36113600  0.59087400  1
  Au  Au18  1  0.76852900  0.63886400  0.09087400  1
  Au  Au19  1  0.26852900  0.86113600  0.90912600  1
  Au  Au20  1  0.63886400  0.09087400  0.76852900  1
  Au  Au21  1  0.59087400  0.76852900  0.86113600  1
  Au  Au22  1  0.86113600  0.59087400  0.76852900  1
  Au  Au23  1  0.63886400  0.40912600  0.26852900  1
  Au  Au24  1  0.09087400  0.73147100  0.13886400  1
  Au  Au25  1  0.13886400  0.09087400  0.73147100  1
  Au  Au26  1  0.90912600  0.23147100  0.36113600  1
  Au  Au27  1  0.40912600  0.26852900  0.63886400  1
  Au  Au28  1  0.36113600  0.90912600  0.23147100  1
  Au  Au29  1  0.26852900  0.63886400  0.40912600  1
  Au  Au30  1  0.23147100  0.36113600  0.90912600  1
  Au  Au31  1  0.73147100  0.13886400  0.09087400  1
  Au  Au32  1  0.09087400  0.76852900  0.63886400  1
  Au  Au33  1  0.86113600  0.90912600  0.26852900  1
  Au  Au34  1  0.90912600  0.26852900  0.86113600  1
  Au  Au35  1  0.36113600  0.59087400  0.73147100  1
  Au  Au36  1  0.13886400  0.40912600  0.23147100  1
  Au  Au37  1  0.40912600  0.23147100  0.13886400  1
  Au  Au38  1  0.23147100  0.13886400  0.40912600  1
  Au  Au39  1  0.76852900  0.86113600  0.59087400  1
