# generated using pymatgen
data_Tb2FeCo3
_symmetry_space_group_name_H-M   'P 1'
_cell_length_a   4.96375332
_cell_length_b   4.96375332
_cell_length_c   4.96375274
_cell_angle_alpha   62.15853591
_cell_angle_beta   62.15853591
_cell_angle_gamma   62.15853809
_symmetry_Int_Tables_number   1
_chemical_formula_structural   Tb2FeCo3
_chemical_formula_sum   'Tb2 Fe1 Co3'
_cell_volume   90.65050435
_cell_formula_units_Z   1
loop_
 _symmetry_equiv_pos_site_id
 _symmetry_equiv_pos_as_xyz
  1  'x, y, z'
loop_
 _atom_site_type_symbol
 _atom_site_label
 _atom_site_symmetry_multiplicity
 _atom_site_fract_x
 _atom_site_fract_y
 _atom_site_fract_z
 _atom_site_occupancy
  Tb  Tb0  1  0.62689600  0.62689600  0.62689600  1
  Tb  Tb1  1  0.37310400  0.37310400  0.37310400  1
  Fe  Fe2  1  0.00000000  0.00000000  0.00000000  1
  Co  Co3  1  0.00000000  0.50000000  0.00000000  1
  Co  Co4  1  0.50000000  0.00000000  0.00000000  1
  Co  Co5  1  0.00000000  0.00000000  0.50000000  1
