# generated using pymatgen
data_TmTl(WO4)2
_symmetry_space_group_name_H-M   'P 1'
_cell_length_a   7.59980637
_cell_length_b   7.59980637
_cell_length_c   7.46002988
_cell_angle_alpha   62.24916233
_cell_angle_beta   62.24916233
_cell_angle_gamma   88.07007067
_symmetry_Int_Tables_number   1
_chemical_formula_structural   TmTl(WO4)2
_chemical_formula_sum   'Tm2 Tl2 W4 O16'
_cell_volume   328.09819581
_cell_formula_units_Z   2
loop_
 _symmetry_equiv_pos_site_id
 _symmetry_equiv_pos_as_xyz
  1  'x, y, z'
loop_
 _atom_site_type_symbol
 _atom_site_label
 _atom_site_symmetry_multiplicity
 _atom_site_fract_x
 _atom_site_fract_y
 _atom_site_fract_z
 _atom_site_occupancy
  Tm  Tm0  1  0.77675100  0.22324900  0.75000000  1
  Tm  Tm1  1  0.22324900  0.77675100  0.25000000  1
  Tl  Tl2  1  0.20499700  0.79500300  0.75000000  1
  Tl  Tl3  1  0.79500300  0.20499700  0.25000000  1
  W  W4  1  0.70184000  0.69088400  0.78388400  1
  W  W5  1  0.29816000  0.30911600  0.21611600  1
  W  W6  1  0.30911600  0.29816000  0.71611600  1
  W  W7  1  0.69088400  0.70184000  0.28388400  1
  O  O8  1  0.62011900  0.75587100  0.55926400  1
  O  O9  1  0.37988100  0.24412900  0.44073600  1
  O  O10  1  0.24412900  0.37988100  0.94073600  1
  O  O11  1  0.75587100  0.62011900  0.05926400  1
  O  O12  1  0.36914400  0.05738300  0.88207500  1
  O  O13  1  0.63085600  0.94261700  0.11792500  1
  O  O14  1  0.94261700  0.63085600  0.61792500  1
  O  O15  1  0.05738300  0.36914400  0.38207500  1
  O  O16  1  0.59276600  0.37031400  0.96288200  1
  O  O17  1  0.40723400  0.62968600  0.03711800  1
  O  O18  1  0.62968600  0.40723400  0.53711800  1
  O  O19  1  0.37031400  0.59276600  0.46288200  1
  O  O20  1  0.78002400  0.95896800  0.69141000  1
  O  O21  1  0.21997600  0.04103200  0.30859000  1
  O  O22  1  0.04103200  0.21997600  0.80859000  1
  O  O23  1  0.95896800  0.78002400  0.19141000  1
