# generated using pymatgen
data_EuMg(BO2)5
_symmetry_space_group_name_H-M   'P 1'
_cell_length_a   7.67870900
_cell_length_b   8.78472700
_cell_length_c   12.67255967
_cell_angle_alpha   48.61414531
_cell_angle_beta   90.00000000
_cell_angle_gamma   90.00000000
_symmetry_Int_Tables_number   1
_chemical_formula_structural   EuMg(BO2)5
_chemical_formula_sum   'Eu4 Mg4 B20 O40'
_cell_volume   641.35856918
_cell_formula_units_Z   4
loop_
 _symmetry_equiv_pos_site_id
 _symmetry_equiv_pos_as_xyz
  1  'x, y, z'
loop_
 _atom_site_type_symbol
 _atom_site_label
 _atom_site_symmetry_multiplicity
 _atom_site_fract_x
 _atom_site_fract_y
 _atom_site_fract_z
 _atom_site_occupancy
  Eu  Eu0  1  0.18609600  0.95215100  0.23801200  1
  Eu  Eu1  1  0.81390400  0.04784900  0.76198800  1
  Eu  Eu2  1  0.68609600  0.04784900  0.26198800  1
  Eu  Eu3  1  0.31390400  0.95215100  0.73801200  1
  Mg  Mg4  1  0.90965400  0.52238600  0.37419800  1
  Mg  Mg5  1  0.09034600  0.47761400  0.62580200  1
  Mg  Mg6  1  0.40965400  0.47761400  0.12580200  1
  Mg  Mg7  1  0.59034600  0.52238600  0.87419800  1
  B  B8  1  0.82586200  0.90893100  0.10488500  1
  B  B9  1  0.17413800  0.09106900  0.89511500  1
  B  B10  1  0.32586200  0.09106900  0.39511500  1
  B  B11  1  0.67413800  0.90893100  0.60488500  1
  B  B12  1  0.57744800  0.65254000  0.26031000  1
  B  B13  1  0.42255200  0.34746000  0.73969000  1
  B  B14  1  0.07744800  0.34746000  0.23969000  1
  B  B15  1  0.92255200  0.65254000  0.76031000  1
  B  B16  1  0.81441500  0.48062600  0.08760500  1
  B  B17  1  0.18558500  0.51937400  0.91239500  1
  B  B18  1  0.31441500  0.51937400  0.41239500  1
  B  B19  1  0.68558500  0.48062600  0.58760500  1
  B  B20  1  0.46782700  0.72511300  0.55506400  1
  B  B21  1  0.53217300  0.27488700  0.44493600  1
  B  B22  1  0.96782700  0.27488700  0.94493600  1
  B  B23  1  0.03217300  0.72511300  0.05506400  1
  B  B24  1  0.59864700  0.84266500  0.00073100  1
  B  B25  1  0.40135300  0.15733500  0.99926900  1
  B  B26  1  0.09864700  0.15733500  0.49926900  1
  B  B27  1  0.90135300  0.84266500  0.50073100  1
  O  O28  1  0.91545000  0.31819100  0.19320100  1
  O  O29  1  0.08455000  0.68180900  0.80679900  1
  O  O30  1  0.41545000  0.68180900  0.30679900  1
  O  O31  1  0.58455000  0.31819100  0.69320100  1
  O  O32  1  0.87555700  0.67542200  0.01025200  1
  O  O33  1  0.12444300  0.32457800  0.98974800  1
  O  O34  1  0.37555700  0.32457800  0.48974800  1
  O  O35  1  0.62444300  0.67542200  0.51025200  1
  O  O36  1  0.39242100  0.91122700  0.42000400  1
  O  O37  1  0.60757900  0.08877300  0.57999600  1
  O  O38  1  0.89242100  0.08877300  0.07999600  1
  O  O39  1  0.10757900  0.91122700  0.92000400  1
  O  O40  1  0.71335400  0.79570500  0.23222100  1
  O  O41  1  0.28664600  0.20429500  0.76777900  1
  O  O42  1  0.21335400  0.20429500  0.26777900  1
  O  O43  1  0.78664600  0.79570500  0.73222100  1
  O  O44  1  0.65326600  0.43237800  0.06890400  1
  O  O45  1  0.34673400  0.56762200  0.93109600  1
  O  O46  1  0.15326600  0.56762200  0.43109600  1
  O  O47  1  0.84673400  0.43237800  0.56890400  1
  O  O48  1  0.77517300  0.97060400  0.48394000  1
  O  O49  1  0.22482700  0.02939600  0.51606000  1
  O  O50  1  0.27517300  0.02939600  0.01606000  1
  O  O51  1  0.72482700  0.97060400  0.98394000  1
  O  O52  1  0.65164500  0.44789200  0.36648500  1
  O  O53  1  0.34835500  0.55210800  0.63351500  1
  O  O54  1  0.15164500  0.55210800  0.13351500  1
  O  O55  1  0.84835500  0.44789200  0.86648500  1
  O  O56  1  0.53239700  0.68393000  0.13129400  1
  O  O57  1  0.46760300  0.31607000  0.86870600  1
  O  O58  1  0.03239700  0.31607000  0.36870600  1
  O  O59  1  0.96760300  0.68393000  0.63129400  1
  O  O60  1  0.95244900  0.87792800  0.38350400  1
  O  O61  1  0.04755100  0.12207200  0.61649600  1
  O  O62  1  0.45244900  0.12207200  0.11649600  1
  O  O63  1  0.54755100  0.87792800  0.88350400  1
  O  O64  1  0.97063800  0.76475600  0.14713300  1
  O  O65  1  0.02936200  0.23524400  0.85286700  1
  O  O66  1  0.47063800  0.23524400  0.35286700  1
  O  O67  1  0.52936200  0.76475600  0.64713300  1
