# generated using pymatgen
data_Ho2Mn(GeO3)4
_symmetry_space_group_name_H-M   'P 1'
_cell_length_a   5.02015700
_cell_length_b   10.01356682
_cell_length_c   10.01356682
_cell_angle_alpha   90.57214957
_cell_angle_beta   90.00000000
_cell_angle_gamma   90.00000000
_symmetry_Int_Tables_number   1
_chemical_formula_structural   Ho2Mn(GeO3)4
_chemical_formula_sum   'Ho4 Mn2 Ge8 O24'
_cell_volume   503.35367720
_cell_formula_units_Z   2
loop_
 _symmetry_equiv_pos_site_id
 _symmetry_equiv_pos_as_xyz
  1  'x, y, z'
loop_
 _atom_site_type_symbol
 _atom_site_label
 _atom_site_symmetry_multiplicity
 _atom_site_fract_x
 _atom_site_fract_y
 _atom_site_fract_z
 _atom_site_occupancy
  Ho  Ho0  1  0.50000000  0.00000000  0.50000000  1
  Ho  Ho1  1  0.50000000  0.50000000  0.00000000  1
  Ho  Ho2  1  0.50000000  0.75000000  0.75000000  1
  Ho  Ho3  1  0.50000000  0.25000000  0.25000000  1
  Mn  Mn4  1  0.50000000  0.50000000  0.50000000  1
  Mn  Mn5  1  0.50000000  0.00000000  0.00000000  1
  Ge  Ge6  1  0.99645600  0.74687000  0.47854700  1
  Ge  Ge7  1  0.00354400  0.25313000  0.52145300  1
  Ge  Ge8  1  0.00354400  0.24687000  0.97854700  1
  Ge  Ge9  1  0.99645600  0.75313000  0.02145300  1
  Ge  Ge10  1  0.00354400  0.47854700  0.74687000  1
  Ge  Ge11  1  0.99645600  0.52145300  0.25313000  1
  Ge  Ge12  1  0.99645600  0.97854700  0.24687000  1
  Ge  Ge13  1  0.00354400  0.02145300  0.75313000  1
  O  O14  1  0.26116300  0.56388900  0.66863500  1
  O  O15  1  0.25370800  0.06295100  0.32979400  1
  O  O16  1  0.25370800  0.43704900  0.17020600  1
  O  O17  1  0.26116300  0.93611100  0.83136500  1
  O  O18  1  0.73883700  0.43611100  0.33136500  1
  O  O19  1  0.74629200  0.93704900  0.67020600  1
  O  O20  1  0.74629200  0.56295100  0.82979400  1
  O  O21  1  0.73883700  0.06388900  0.16863500  1
  O  O22  1  0.73883700  0.66863500  0.56388900  1
  O  O23  1  0.74629200  0.32979400  0.06295100  1
  O  O24  1  0.74629200  0.17020600  0.43704900  1
  O  O25  1  0.73883700  0.83136500  0.93611100  1
  O  O26  1  0.26116300  0.33136500  0.43611100  1
  O  O27  1  0.25370800  0.67020600  0.93704900  1
  O  O28  1  0.25370800  0.82979400  0.56295100  1
  O  O29  1  0.26116300  0.16863500  0.06388900  1
  O  O30  1  0.83128600  0.36928800  0.63071200  1
  O  O31  1  0.83100300  0.87246900  0.37246900  1
  O  O32  1  0.83100300  0.62753100  0.12753100  1
  O  O33  1  0.83128600  0.13071200  0.86928800  1
  O  O34  1  0.16871400  0.63071200  0.36928800  1
  O  O35  1  0.16899700  0.12753100  0.62753100  1
  O  O36  1  0.16899700  0.37246900  0.87246900  1
  O  O37  1  0.16871400  0.86928800  0.13071200  1
