# generated using pymatgen
data_NdSbSe
_symmetry_space_group_name_H-M   'P 1'
_cell_length_a   4.22942000
_cell_length_b   4.24388000
_cell_length_c   18.36252200
_cell_angle_alpha   90.00000000
_cell_angle_beta   90.00000000
_cell_angle_gamma   90.00000000
_symmetry_Int_Tables_number   1
_chemical_formula_structural   NdSbSe
_chemical_formula_sum   'Nd4 Sb4 Se4'
_cell_volume   329.59167919
_cell_formula_units_Z   4
loop_
 _symmetry_equiv_pos_site_id
 _symmetry_equiv_pos_as_xyz
  1  'x, y, z'
loop_
 _atom_site_type_symbol
 _atom_site_label
 _atom_site_symmetry_multiplicity
 _atom_site_fract_x
 _atom_site_fract_y
 _atom_site_fract_z
 _atom_site_occupancy
  Nd  Nd0  1  0.75000000  0.23232900  0.85232600  1
  Nd  Nd1  1  0.75000000  0.26767100  0.35232600  1
  Nd  Nd2  1  0.25000000  0.76767100  0.14767400  1
  Nd  Nd3  1  0.25000000  0.73232900  0.64767400  1
  Sb  Sb4  1  0.25000000  0.23976000  0.50106800  1
  Sb  Sb5  1  0.25000000  0.26024000  0.00106800  1
  Sb  Sb6  1  0.75000000  0.76024000  0.49893200  1
  Sb  Sb7  1  0.75000000  0.73976000  0.99893200  1
  Se  Se8  1  0.75000000  0.23365000  0.68634700  1
  Se  Se9  1  0.75000000  0.26635000  0.18634700  1
  Se  Se10  1  0.25000000  0.76635000  0.31365300  1
  Se  Se11  1  0.25000000  0.73365000  0.81365300  1
