# generated using pymatgen
data_EuInAu
_symmetry_space_group_name_H-M   'P 1'
_cell_length_a   4.75311700
_cell_length_b   7.58103700
_cell_length_c   8.57330300
_cell_angle_alpha   90.00000000
_cell_angle_beta   90.00000000
_cell_angle_gamma   90.00000000
_symmetry_Int_Tables_number   1
_chemical_formula_structural   EuInAu
_chemical_formula_sum   'Eu4 In4 Au4'
_cell_volume   308.92659240
_cell_formula_units_Z   4
loop_
 _symmetry_equiv_pos_site_id
 _symmetry_equiv_pos_as_xyz
  1  'x, y, z'
loop_
 _atom_site_type_symbol
 _atom_site_label
 _atom_site_symmetry_multiplicity
 _atom_site_fract_x
 _atom_site_fract_y
 _atom_site_fract_z
 _atom_site_occupancy
  Eu  Eu0  1  0.75000000  0.47469300  0.81554300  1
  Eu  Eu1  1  0.25000000  0.02530700  0.31554300  1
  Eu  Eu2  1  0.75000000  0.97469300  0.68445700  1
  Eu  Eu3  1  0.25000000  0.52530700  0.18445700  1
  In  In4  1  0.25000000  0.65717000  0.56545700  1
  In  In5  1  0.25000000  0.15717000  0.93454300  1
  In  In6  1  0.75000000  0.34283000  0.43454300  1
  In  In7  1  0.75000000  0.84283000  0.06545700  1
  Au  Au8  1  0.25000000  0.77393200  0.88322500  1
  Au  Au9  1  0.25000000  0.27393200  0.61677500  1
  Au  Au10  1  0.75000000  0.72606800  0.38322500  1
  Au  Au11  1  0.75000000  0.22606800  0.11677500  1
