# generated using pymatgen
data_Ca(HoS2)2
_symmetry_space_group_name_H-M   'P 1'
_cell_length_a   3.88579200
_cell_length_b   12.96501200
_cell_length_c   13.14342900
_cell_angle_alpha   90.00000000
_cell_angle_beta   90.00000000
_cell_angle_gamma   90.00000000
_symmetry_Int_Tables_number   1
_chemical_formula_structural   Ca(HoS2)2
_chemical_formula_sum   'Ca4 Ho8 S16'
_cell_volume   662.15727717
_cell_formula_units_Z   4
loop_
 _symmetry_equiv_pos_site_id
 _symmetry_equiv_pos_as_xyz
  1  'x, y, z'
loop_
 _atom_site_type_symbol
 _atom_site_label
 _atom_site_symmetry_multiplicity
 _atom_site_fract_x
 _atom_site_fract_y
 _atom_site_fract_z
 _atom_site_occupancy
  Ca  Ca0  1  0.25000000  0.36880300  0.58347300  1
  Ca  Ca1  1  0.25000000  0.86880300  0.91652700  1
  Ca  Ca2  1  0.75000000  0.63119700  0.41652700  1
  Ca  Ca3  1  0.75000000  0.13119700  0.08347300  1
  Ho  Ho4  1  0.25000000  0.10723900  0.41667100  1
  Ho  Ho5  1  0.25000000  0.60723900  0.08332900  1
  Ho  Ho6  1  0.75000000  0.89276100  0.58332900  1
  Ho  Ho7  1  0.75000000  0.39276100  0.91667100  1
  Ho  Ho8  1  0.25000000  0.14668300  0.79728700  1
  Ho  Ho9  1  0.25000000  0.64668300  0.70271300  1
  Ho  Ho10  1  0.75000000  0.85331700  0.20271300  1
  Ho  Ho11  1  0.75000000  0.35331700  0.29728700  1
  S  S12  1  0.25000000  0.21691500  0.23757900  1
  S  S13  1  0.25000000  0.71691500  0.26242100  1
  S  S14  1  0.75000000  0.78308500  0.76242000  1
  S  S15  1  0.75000000  0.28308500  0.73758000  1
  S  S16  1  0.25000000  0.25776100  0.97382500  1
  S  S17  1  0.25000000  0.75776100  0.52617500  1
  S  S18  1  0.75000000  0.74223900  0.02617500  1
  S  S19  1  0.75000000  0.24223900  0.47382500  1
  S  S20  1  0.25000000  0.46967300  0.38241300  1
  S  S21  1  0.25000000  0.96967300  0.11758700  1
  S  S22  1  0.75000000  0.53032700  0.61758700  1
  S  S23  1  0.75000000  0.03032700  0.88241300  1
  S  S24  1  0.25000000  0.03351500  0.61782500  1
  S  S25  1  0.25000000  0.53351500  0.88217500  1
  S  S26  1  0.75000000  0.96648500  0.38217500  1
  S  S27  1  0.75000000  0.46648500  0.11782500  1
