# generated using pymatgen
data_YbZnSn
_symmetry_space_group_name_H-M   'P 1'
_cell_length_a   4.66192347
_cell_length_b   4.66192347
_cell_length_c   7.45599500
_cell_angle_alpha   90.00000000
_cell_angle_beta   90.00000000
_cell_angle_gamma   119.99999245
_symmetry_Int_Tables_number   1
_chemical_formula_structural   YbZnSn
_chemical_formula_sum   'Yb2 Zn2 Sn2'
_cell_volume   140.33517877
_cell_formula_units_Z   2
loop_
 _symmetry_equiv_pos_site_id
 _symmetry_equiv_pos_as_xyz
  1  'x, y, z'
loop_
 _atom_site_type_symbol
 _atom_site_label
 _atom_site_symmetry_multiplicity
 _atom_site_fract_x
 _atom_site_fract_y
 _atom_site_fract_z
 _atom_site_occupancy
  Yb  Yb0  1  0.00000000  0.00000000  0.25183100  1
  Yb  Yb1  1  0.00000000  0.00000000  0.75183100  1
  Zn  Zn2  1  0.66666700  0.33333300  0.56610600  1
  Zn  Zn3  1  0.33333300  0.66666700  0.06610600  1
  Sn  Sn4  1  0.66666700  0.33333300  0.97176300  1
  Sn  Sn5  1  0.33333300  0.66666700  0.47176300  1
