# generated using pymatgen
data_K2HoCl5
_symmetry_space_group_name_H-M   'P 1'
_cell_length_a   8.05782000
_cell_length_b   8.52604500
_cell_length_c   13.06325800
_cell_angle_alpha   90.00000000
_cell_angle_beta   90.00000000
_cell_angle_gamma   90.00000000
_symmetry_Int_Tables_number   1
_chemical_formula_structural   K2HoCl5
_chemical_formula_sum   'K8 Ho4 Cl20'
_cell_volume   897.46327609
_cell_formula_units_Z   4
loop_
 _symmetry_equiv_pos_site_id
 _symmetry_equiv_pos_as_xyz
  1  'x, y, z'
loop_
 _atom_site_type_symbol
 _atom_site_label
 _atom_site_symmetry_multiplicity
 _atom_site_fract_x
 _atom_site_fract_y
 _atom_site_fract_z
 _atom_site_occupancy
  K  K0  1  0.53377100  0.50091900  0.82570800  1
  K  K1  1  0.46622900  0.49908100  0.17429200  1
  K  K2  1  0.03377100  0.49908100  0.67429200  1
  K  K3  1  0.46622900  0.00091900  0.17429200  1
  K  K4  1  0.96622900  0.50091900  0.32570800  1
  K  K5  1  0.53377100  0.99908100  0.82570800  1
  K  K6  1  0.96622900  0.99908100  0.32570800  1
  K  K7  1  0.03377100  0.00091900  0.67429200  1
  Ho  Ho8  1  0.57235800  0.75000000  0.50236200  1
  Ho  Ho9  1  0.42764200  0.25000000  0.49763800  1
  Ho  Ho10  1  0.07235800  0.25000000  0.99763800  1
  Ho  Ho11  1  0.92764200  0.75000000  0.00236200  1
  Cl  Cl12  1  0.83221700  0.75000000  0.80481100  1
  Cl  Cl13  1  0.16778300  0.25000000  0.19518900  1
  Cl  Cl14  1  0.33221700  0.25000000  0.69518900  1
  Cl  Cl15  1  0.66778300  0.75000000  0.30481100  1
  Cl  Cl16  1  0.36831700  0.75000000  0.66355600  1
  Cl  Cl17  1  0.63168300  0.25000000  0.33644400  1
  Cl  Cl18  1  0.86831700  0.25000000  0.83644400  1
  Cl  Cl19  1  0.13168300  0.75000000  0.16355600  1
  Cl  Cl20  1  0.90777300  0.75000000  0.51369300  1
  Cl  Cl21  1  0.09222700  0.25000000  0.48630700  1
  Cl  Cl22  1  0.40777300  0.25000000  0.98630700  1
  Cl  Cl23  1  0.59222700  0.75000000  0.01369300  1
  Cl  Cl24  1  0.65327200  0.04072200  0.57930100  1
  Cl  Cl25  1  0.34672800  0.95927800  0.42069900  1
  Cl  Cl26  1  0.15327200  0.95927800  0.92069900  1
  Cl  Cl27  1  0.34672800  0.54072200  0.42069900  1
  Cl  Cl28  1  0.84672800  0.04072200  0.07930100  1
  Cl  Cl29  1  0.65327200  0.45927800  0.57930100  1
  Cl  Cl30  1  0.84672800  0.45927800  0.07930100  1
  Cl  Cl31  1  0.15327200  0.54072200  0.92069900  1
