# generated using pymatgen
data_HI3
_symmetry_space_group_name_H-M   'P 1'
_cell_length_a   5.80551900
_cell_length_b   8.22547643
_cell_length_c   11.62133049
_cell_angle_alpha   74.17081296
_cell_angle_beta   88.49756347
_cell_angle_gamma   86.85284914
_symmetry_Int_Tables_number   1
_chemical_formula_structural   HI3
_chemical_formula_sum   'H2 I6'
_cell_volume   533.06913446
_cell_formula_units_Z   2
loop_
 _symmetry_equiv_pos_site_id
 _symmetry_equiv_pos_as_xyz
  1  'x, y, z'
loop_
 _atom_site_type_symbol
 _atom_site_label
 _atom_site_symmetry_multiplicity
 _atom_site_fract_x
 _atom_site_fract_y
 _atom_site_fract_z
 _atom_site_occupancy
  H  H0  1  0.06750800  0.66124200  0.69685100  1
  H  H1  1  0.93249200  0.33875800  0.30314900  1
  I  I2  1  0.38385000  0.42750300  0.74609500  1
  I  I3  1  0.38909500  0.82937100  0.32166300  1
  I  I4  1  0.95451200  0.80325300  0.76165100  1
  I  I5  1  0.61615000  0.57249700  0.25390500  1
  I  I6  1  0.61090500  0.17062900  0.67833700  1
  I  I7  1  0.04548800  0.19674700  0.23834900  1
