# generated using pymatgen
data_Ca4SiN4
_symmetry_space_group_name_H-M   'P 1'
_cell_length_a   5.99299700
_cell_length_b   9.20334700
_cell_length_c   11.03291786
_cell_angle_alpha   63.59996178
_cell_angle_beta   90.00000000
_cell_angle_gamma   90.00000000
_symmetry_Int_Tables_number   1
_chemical_formula_structural   Ca4SiN4
_chemical_formula_sum   'Ca16 Si4 N16'
_cell_volume   545.06509856
_cell_formula_units_Z   4
loop_
 _symmetry_equiv_pos_site_id
 _symmetry_equiv_pos_as_xyz
  1  'x, y, z'
loop_
 _atom_site_type_symbol
 _atom_site_label
 _atom_site_symmetry_multiplicity
 _atom_site_fract_x
 _atom_site_fract_y
 _atom_site_fract_z
 _atom_site_occupancy
  Ca  Ca0  1  0.92246300  0.35159300  0.65398000  1
  Ca  Ca1  1  0.42246300  0.64840700  0.84602000  1
  Ca  Ca2  1  0.07753700  0.64840700  0.34602000  1
  Ca  Ca3  1  0.57753700  0.35159300  0.15398000  1
  Ca  Ca4  1  0.91906300  0.45429500  0.87917300  1
  Ca  Ca5  1  0.41906300  0.54570500  0.62082700  1
  Ca  Ca6  1  0.08093700  0.54570500  0.12082700  1
  Ca  Ca7  1  0.58093700  0.45429500  0.37917300  1
  Ca  Ca8  1  0.84910700  0.85527100  0.76831200  1
  Ca  Ca9  1  0.34910700  0.14472900  0.73168800  1
  Ca  Ca10  1  0.15089300  0.14472900  0.23168800  1
  Ca  Ca11  1  0.65089300  0.85527100  0.26831200  1
  Ca  Ca12  1  0.25567900  0.91923300  0.54326400  1
  Ca  Ca13  1  0.75567900  0.08076700  0.95673600  1
  Ca  Ca14  1  0.74432100  0.08076700  0.45673600  1
  Ca  Ca15  1  0.24432100  0.91923300  0.04326400  1
  Si  Si16  1  0.85312900  0.73321100  0.54810100  1
  Si  Si17  1  0.35312900  0.26678900  0.95189900  1
  Si  Si18  1  0.14687100  0.26678900  0.45189900  1
  Si  Si19  1  0.64687100  0.73321100  0.04810100  1
  N  N20  1  0.74583300  0.59427800  0.98798600  1
  N  N21  1  0.24583300  0.40572200  0.51201400  1
  N  N22  1  0.25416700  0.40572200  0.01201400  1
  N  N23  1  0.75416700  0.59427800  0.48798600  1
  N  N24  1  0.06815200  0.66201300  0.67435100  1
  N  N25  1  0.56815200  0.33798700  0.82564900  1
  N  N26  1  0.93184800  0.33798700  0.32564900  1
  N  N27  1  0.43184800  0.66201300  0.17435100  1
  N  N28  1  0.62024700  0.80022000  0.61121200  1
  N  N29  1  0.12024700  0.19978000  0.88878800  1
  N  N30  1  0.37975300  0.19978000  0.38878800  1
  N  N31  1  0.87975300  0.80022000  0.11121200  1
  N  N32  1  0.53104200  0.89902000  0.89471300  1
  N  N33  1  0.03104200  0.10098000  0.60528700  1
  N  N34  1  0.46895800  0.10098000  0.10528700  1
  N  N35  1  0.96895800  0.89902000  0.39471300  1
