# generated using pymatgen
data_Ba2LuB2ClO6
_symmetry_space_group_name_H-M   'P 1'
_cell_length_a   5.31153700
_cell_length_b   6.42515500
_cell_length_c   11.38393072
_cell_angle_alpha   83.99088946
_cell_angle_beta   90.00000000
_cell_angle_gamma   90.00000000
_symmetry_Int_Tables_number   1
_chemical_formula_structural   Ba2LuB2ClO6
_chemical_formula_sum   'Ba4 Lu2 B4 Cl2 O12'
_cell_volume   386.36977892
_cell_formula_units_Z   2
loop_
 _symmetry_equiv_pos_site_id
 _symmetry_equiv_pos_as_xyz
  1  'x, y, z'
loop_
 _atom_site_type_symbol
 _atom_site_label
 _atom_site_symmetry_multiplicity
 _atom_site_fract_x
 _atom_site_fract_y
 _atom_site_fract_z
 _atom_site_occupancy
  Ba  Ba0  1  0.75000000  0.65665700  0.07927800  1
  Ba  Ba1  1  0.25000000  0.34334300  0.92072200  1
  Ba  Ba2  1  0.75000000  0.90539900  0.70363300  1
  Ba  Ba3  1  0.25000000  0.09460100  0.29636700  1
  Lu  Lu4  1  0.75000000  0.65297600  0.41609300  1
  Lu  Lu5  1  0.25000000  0.34702400  0.58390700  1
  B  B6  1  0.75000000  0.21063200  0.43118500  1
  B  B7  1  0.25000000  0.78936800  0.56881500  1
  B  B8  1  0.25000000  0.62507400  0.23092600  1
  B  B9  1  0.75000000  0.37492600  0.76907400  1
  Cl  Cl10  1  0.75000000  0.14808200  0.08861500  1
  Cl  Cl11  1  0.25000000  0.85191800  0.91138500  1
  O  O12  1  0.01994400  0.70899900  0.26804000  1
  O  O13  1  0.51994400  0.29100100  0.73196000  1
  O  O14  1  0.98005600  0.29100100  0.73196000  1
  O  O15  1  0.48005600  0.70899900  0.26804000  1
  O  O16  1  0.25000000  0.48219900  0.14758800  1
  O  O17  1  0.75000000  0.51780100  0.85241200  1
  O  O18  1  0.97120200  0.33020900  0.43688500  1
  O  O19  1  0.47120200  0.66979100  0.56311500  1
  O  O20  1  0.02879800  0.66979100  0.56311500  1
  O  O21  1  0.52879800  0.33020900  0.43688500  1
  O  O22  1  0.75000000  0.00406800  0.41268000  1
  O  O23  1  0.25000000  0.99593200  0.58732000  1
