# generated using pymatgen
data_Dy2Te3
_symmetry_space_group_name_H-M   'P 1'
_cell_length_a   14.57558900
_cell_length_b   13.91043884
_cell_length_c   7.54049074
_cell_angle_alpha   79.58843326
_cell_angle_beta   69.82637083
_cell_angle_gamma   30.58519592
_symmetry_Int_Tables_number   1
_chemical_formula_structural   Dy2Te3
_chemical_formula_sum   'Dy8 Te12'
_cell_volume   708.25867151
_cell_formula_units_Z   4
loop_
 _symmetry_equiv_pos_site_id
 _symmetry_equiv_pos_as_xyz
  1  'x, y, z'
loop_
 _atom_site_type_symbol
 _atom_site_label
 _atom_site_symmetry_multiplicity
 _atom_site_fract_x
 _atom_site_fract_y
 _atom_site_fract_z
 _atom_site_occupancy
  Dy  Dy0  1  0.33267800  0.33267800  0.16732200  1
  Dy  Dy1  1  0.16732200  0.16732200  0.33267800  1
  Dy  Dy2  1  0.91732200  0.91732200  0.08267800  1
  Dy  Dy3  1  0.08267800  0.08267800  0.91732200  1
  Dy  Dy4  1  0.99981100  0.99981100  0.50018900  1
  Dy  Dy5  1  0.50018900  0.50018900  0.99981100  1
  Dy  Dy6  1  0.25018900  0.25018900  0.74981100  1
  Dy  Dy7  1  0.74981100  0.74981100  0.25018900  1
  Te  Te8  1  0.99873000  0.50127000  0.50127000  1
  Te  Te9  1  0.50127000  0.99873000  0.99873000  1
  Te  Te10  1  0.25127000  0.74873000  0.74873000  1
  Te  Te11  1  0.74873000  0.25127000  0.25127000  1
  Te  Te12  1  0.66574200  0.16868700  0.83400600  1
  Te  Te13  1  0.83400600  0.33156500  0.66574200  1
  Te  Te14  1  0.33156500  0.83400600  0.16868700  1
  Te  Te15  1  0.16868700  0.66574200  0.33156500  1
  Te  Te16  1  0.58425800  0.08131300  0.41599400  1
  Te  Te17  1  0.41599400  0.91843500  0.58425800  1
  Te  Te18  1  0.91843500  0.41599400  0.08131300  1
  Te  Te19  1  0.08131300  0.58425800  0.91843500  1
