# generated using pymatgen
data_K7(FeS2)5
_symmetry_space_group_name_H-M   'P 1'
_cell_length_a   14.98369322
_cell_length_b   14.98369322
_cell_length_c   7.29943286
_cell_angle_alpha   77.95143535
_cell_angle_beta   77.95143535
_cell_angle_gamma   45.53889321
_symmetry_Int_Tables_number   1
_chemical_formula_structural   K7(FeS2)5
_chemical_formula_sum   'K14 Fe10 S20'
_cell_volume   1139.29058765
_cell_formula_units_Z   2
loop_
 _symmetry_equiv_pos_site_id
 _symmetry_equiv_pos_as_xyz
  1  'x, y, z'
loop_
 _atom_site_type_symbol
 _atom_site_label
 _atom_site_symmetry_multiplicity
 _atom_site_fract_x
 _atom_site_fract_y
 _atom_site_fract_z
 _atom_site_occupancy
  K  K0  1  0.10687100  0.89312900  0.75000000  1
  K  K1  1  0.89312900  0.10687100  0.25000000  1
  K  K2  1  0.32727000  0.52211900  0.93283000  1
  K  K3  1  0.47788100  0.67273000  0.56717000  1
  K  K4  1  0.67273000  0.47788100  0.06717000  1
  K  K5  1  0.52211900  0.32727000  0.43283000  1
  K  K6  1  0.88197200  0.82610700  0.01237000  1
  K  K7  1  0.17389300  0.11802800  0.48763000  1
  K  K8  1  0.11802800  0.17389300  0.98763000  1
  K  K9  1  0.82610700  0.88197200  0.51237000  1
  K  K10  1  0.82751700  0.60884400  0.96153200  1
  K  K11  1  0.39115600  0.17248300  0.53846800  1
  K  K12  1  0.17248300  0.39115600  0.03846800  1
  K  K13  1  0.60884400  0.82751700  0.46153200  1
  Fe  Fe14  1  0.76341300  0.23658700  0.75000000  1
  Fe  Fe15  1  0.23658700  0.76341300  0.25000000  1
  Fe  Fe16  1  0.83375700  0.36758900  0.56059700  1
  Fe  Fe17  1  0.63241100  0.16624300  0.93940300  1
  Fe  Fe18  1  0.16624300  0.63241100  0.43940300  1
  Fe  Fe19  1  0.36758900  0.83375700  0.06059700  1
  Fe  Fe20  1  0.07520300  0.52599900  0.50866000  1
  Fe  Fe21  1  0.47400100  0.92479700  0.99134000  1
  Fe  Fe22  1  0.92479700  0.47400100  0.49134000  1
  Fe  Fe23  1  0.52599900  0.07520300  0.00866000  1
  S  S24  1  0.30715400  0.62852700  0.50926100  1
  S  S25  1  0.37147300  0.69284600  0.99073900  1
  S  S26  1  0.69284600  0.37147300  0.49073900  1
  S  S27  1  0.62852700  0.30715400  0.00926100  1
  S  S28  1  0.93595900  0.19660300  0.78193100  1
  S  S29  1  0.80339700  0.06404100  0.71806900  1
  S  S30  1  0.06404100  0.80339700  0.21806900  1
  S  S31  1  0.19660300  0.93595900  0.28193100  1
  S  S32  1  0.74698700  0.54724500  0.67247000  1
  S  S33  1  0.45275500  0.25301300  0.82753000  1
  S  S34  1  0.25301300  0.45275500  0.32753000  1
  S  S35  1  0.54724500  0.74698700  0.17247000  1
  S  S36  1  0.06141800  0.63170900  0.71112800  1
  S  S37  1  0.36829100  0.93858200  0.78887200  1
  S  S38  1  0.93858200  0.36829100  0.28887200  1
  S  S39  1  0.63170900  0.06141800  0.21112800  1
  S  S40  1  0.09050100  0.36883100  0.66483500  1
  S  S41  1  0.63116900  0.90949900  0.83516500  1
  S  S42  1  0.90949900  0.63116900  0.33516500  1
  S  S43  1  0.36883100  0.09050100  0.16483500  1
