# generated using pymatgen
data_Rb2Ag2Sn(PSe3)3
_symmetry_space_group_name_H-M   'P 1'
_cell_length_a   7.85750900
_cell_length_b   11.43784400
_cell_length_c   24.22467739
_cell_angle_alpha   66.50072099
_cell_angle_beta   90.00000000
_cell_angle_gamma   90.00000000
_symmetry_Int_Tables_number   1
_chemical_formula_structural   Rb2Ag2Sn(PSe3)3
_chemical_formula_sum   'Rb8 Ag8 Sn4 P12 Se36'
_cell_volume   1996.58231763
_cell_formula_units_Z   4
loop_
 _symmetry_equiv_pos_site_id
 _symmetry_equiv_pos_as_xyz
  1  'x, y, z'
loop_
 _atom_site_type_symbol
 _atom_site_label
 _atom_site_symmetry_multiplicity
 _atom_site_fract_x
 _atom_site_fract_y
 _atom_site_fract_z
 _atom_site_occupancy
  Rb  Rb0  1  0.06548100  0.07811100  0.17683000  1
  Rb  Rb1  1  0.43451900  0.07811100  0.67683000  1
  Rb  Rb2  1  0.93451900  0.92188900  0.82317000  1
  Rb  Rb3  1  0.56548100  0.92188900  0.32317000  1
  Rb  Rb4  1  0.93225600  0.25882900  0.49576900  1
  Rb  Rb5  1  0.56774400  0.25882900  0.99576900  1
  Rb  Rb6  1  0.06774400  0.74117100  0.50423100  1
  Rb  Rb7  1  0.43225600  0.74117100  0.00423100  1
  Ag  Ag8  1  0.71693100  0.55649900  0.24827900  1
  Ag  Ag9  1  0.78306900  0.55649900  0.74827900  1
  Ag  Ag10  1  0.28306900  0.44350100  0.75172100  1
  Ag  Ag11  1  0.21693100  0.44350100  0.25172100  1
  Ag  Ag12  1  0.42647300  0.57140800  0.34741300  1
  Ag  Ag13  1  0.07352700  0.57140800  0.84741300  1
  Ag  Ag14  1  0.57352700  0.42859200  0.65258700  1
  Ag  Ag15  1  0.92647300  0.42859200  0.15258700  1
  Sn  Sn16  1  0.44210000  0.29403400  0.38655000  1
  Sn  Sn17  1  0.05790000  0.29403400  0.88655000  1
  Sn  Sn18  1  0.55790000  0.70596600  0.61345000  1
  Sn  Sn19  1  0.94210000  0.70596600  0.11345000  1
  P  P20  1  0.11422400  0.10237300  0.34333300  1
  P  P21  1  0.38577600  0.10237300  0.84333300  1
  P  P22  1  0.88577600  0.89762700  0.65666700  1
  P  P23  1  0.61422400  0.89762700  0.15666700  1
  P  P24  1  0.87481300  0.23025100  0.32333400  1
  P  P25  1  0.62518700  0.23025100  0.82333400  1
  P  P26  1  0.12518700  0.76974900  0.67666600  1
  P  P27  1  0.37481300  0.76974900  0.17666600  1
  P  P28  1  0.61880700  0.56472600  0.49079800  1
  P  P29  1  0.88119300  0.56472600  0.99079800  1
  P  P30  1  0.38119300  0.43527400  0.50920200  1
  P  P31  1  0.11880700  0.43527400  0.00920200  1
  Se  Se32  1  0.03348700  0.91895000  0.34819600  1
  Se  Se33  1  0.46651300  0.91895000  0.84819600  1
  Se  Se34  1  0.96651300  0.08105000  0.65180400  1
  Se  Se35  1  0.53348700  0.08105000  0.15180400  1
  Se  Se36  1  0.21197400  0.09736200  0.43211700  1
  Se  Se37  1  0.28802600  0.09736200  0.93211700  1
  Se  Se38  1  0.78802600  0.90263800  0.56788300  1
  Se  Se39  1  0.71197400  0.90263800  0.06788300  1
  Se  Se40  1  0.80398500  0.79798900  0.22687500  1
  Se  Se41  1  0.69601500  0.79798900  0.72687500  1
  Se  Se42  1  0.19601500  0.20201100  0.77312500  1
  Se  Se43  1  0.30398500  0.20201100  0.27312500  1
  Se  Se44  1  0.26248300  0.75867400  0.26118500  1
  Se  Se45  1  0.23751700  0.75867400  0.76118500  1
  Se  Se46  1  0.73751700  0.24132600  0.73881500  1
  Se  Se47  1  0.76248300  0.24132600  0.23881500  1
  Se  Se48  1  0.95350400  0.41940900  0.32318000  1
  Se  Se49  1  0.54649600  0.41940900  0.82318000  1
  Se  Se50  1  0.04649600  0.58059100  0.67682000  1
  Se  Se51  1  0.45350400  0.58059100  0.17682000  1
  Se  Se52  1  0.70887100  0.12146000  0.40293600  1
  Se  Se53  1  0.79112900  0.12146000  0.90293600  1
  Se  Se54  1  0.29112900  0.87854000  0.59706400  1
  Se  Se55  1  0.20887100  0.87854000  0.09706400  1
  Se  Se56  1  0.71704000  0.58947000  0.40170000  1
  Se  Se57  1  0.78296000  0.58947000  0.90170000  1
  Se  Se58  1  0.28296000  0.41053000  0.59830000  1
  Se  Se59  1  0.21704000  0.41053000  0.09830000  1
  Se  Se60  1  0.19689600  0.52783700  0.43736400  1
  Se  Se61  1  0.30310400  0.52783700  0.93736400  1
  Se  Se62  1  0.80310400  0.47216300  0.56263600  1
  Se  Se63  1  0.69689600  0.47216300  0.06263600  1
  Se  Se64  1  0.47583600  0.24808000  0.51014400  1
  Se  Se65  1  0.02416400  0.24808000  0.01014400  1
  Se  Se66  1  0.52416400  0.75192000  0.48985600  1
  Se  Se67  1  0.97583600  0.75192000  0.98985600  1
