# generated using pymatgen
data_TbAsS
_symmetry_space_group_name_H-M   'P 1'
_cell_length_a   3.84398900
_cell_length_b   3.86697000
_cell_length_c   17.11700100
_cell_angle_alpha   90.00000000
_cell_angle_beta   90.00000000
_cell_angle_gamma   90.00000000
_symmetry_Int_Tables_number   1
_chemical_formula_structural   TbAsS
_chemical_formula_sum   'Tb4 As4 S4'
_cell_volume   254.43720435
_cell_formula_units_Z   4
loop_
 _symmetry_equiv_pos_site_id
 _symmetry_equiv_pos_as_xyz
  1  'x, y, z'
loop_
 _atom_site_type_symbol
 _atom_site_label
 _atom_site_symmetry_multiplicity
 _atom_site_fract_x
 _atom_site_fract_y
 _atom_site_fract_z
 _atom_site_occupancy
  Tb  Tb0  1  0.25000000  0.77151700  0.14561800  1
  Tb  Tb1  1  0.25000000  0.72848300  0.64561800  1
  Tb  Tb2  1  0.75000000  0.22848300  0.85438200  1
  Tb  Tb3  1  0.75000000  0.27151700  0.35438200  1
  As  As4  1  0.75000000  0.78168000  0.49825400  1
  As  As5  1  0.75000000  0.71832000  0.99825400  1
  As  As6  1  0.25000000  0.21832000  0.50174600  1
  As  As7  1  0.25000000  0.28168000  0.00174600  1
  S  S8  1  0.25000000  0.76995800  0.31333300  1
  S  S9  1  0.25000000  0.73004200  0.81333300  1
  S  S10  1  0.75000000  0.23004200  0.68666700  1
  S  S11  1  0.75000000  0.26995800  0.18666700  1
