# generated using pymatgen
data_Ba4NaGa2B8(ClO6)3
_symmetry_space_group_name_H-M   'P 1'
_cell_length_a   12.27749100
_cell_length_b   12.27749100
_cell_length_c   6.95806300
_cell_angle_alpha   90.00000000
_cell_angle_beta   90.00000000
_cell_angle_gamma   90.00000000
_symmetry_Int_Tables_number   1
_chemical_formula_structural   Ba4NaGa2B8(ClO6)3
_chemical_formula_sum   'Ba8 Na2 Ga4 B16 Cl6 O36'
_cell_volume   1048.83604822
_cell_formula_units_Z   2
loop_
 _symmetry_equiv_pos_site_id
 _symmetry_equiv_pos_as_xyz
  1  'x, y, z'
loop_
 _atom_site_type_symbol
 _atom_site_label
 _atom_site_symmetry_multiplicity
 _atom_site_fract_x
 _atom_site_fract_y
 _atom_site_fract_z
 _atom_site_occupancy
  Ba  Ba0  1  0.72120900  0.01464100  0.66788100  1
  Ba  Ba1  1  0.27879100  0.98535900  0.66788100  1
  Ba  Ba2  1  0.77879100  0.51464100  0.16788100  1
  Ba  Ba3  1  0.22120900  0.48535900  0.16788100  1
  Ba  Ba4  1  0.98535900  0.27879100  0.66788100  1
  Ba  Ba5  1  0.01464100  0.72120900  0.66788100  1
  Ba  Ba6  1  0.51464100  0.77879100  0.16788100  1
  Ba  Ba7  1  0.48535900  0.22120900  0.16788100  1
  Na  Na8  1  0.00000000  0.00000000  0.00087900  1
  Na  Na9  1  0.50000000  0.50000000  0.50087900  1
  Ga  Ga10  1  0.70035000  0.70035000  0.67301200  1
  Ga  Ga11  1  0.29965000  0.29965000  0.67301200  1
  Ga  Ga12  1  0.79965000  0.20035000  0.17301200  1
  Ga  Ga13  1  0.20035000  0.79965000  0.17301200  1
  B  B14  1  0.76524900  0.96187400  0.20967500  1
  B  B15  1  0.23475100  0.03812600  0.20967500  1
  B  B16  1  0.73475100  0.46187400  0.70967500  1
  B  B17  1  0.26524900  0.53812600  0.70967500  1
  B  B18  1  0.03812600  0.23475100  0.20967500  1
  B  B19  1  0.96187400  0.76524900  0.20967500  1
  B  B20  1  0.46187400  0.73475100  0.70967500  1
  B  B21  1  0.53812600  0.26524900  0.70967500  1
  B  B22  1  0.76395000  0.76395000  0.29772900  1
  B  B23  1  0.23605000  0.23605000  0.29772900  1
  B  B24  1  0.73605000  0.26395000  0.79772900  1
  B  B25  1  0.26395000  0.73605000  0.79772900  1
  B  B26  1  0.81506200  0.81506200  0.97302600  1
  B  B27  1  0.18493800  0.18493800  0.97302600  1
  B  B28  1  0.68493800  0.31506200  0.47302600  1
  B  B29  1  0.31506200  0.68493800  0.47302600  1
  Cl  Cl30  1  0.50000000  0.00000000  0.93916200  1
  Cl  Cl31  1  0.00000000  0.50000000  0.43916200  1
  Cl  Cl32  1  0.00000000  0.50000000  0.93916200  1
  Cl  Cl33  1  0.50000000  0.00000000  0.43916200  1
  Cl  Cl34  1  0.00000000  0.00000000  0.61172400  1
  Cl  Cl35  1  0.50000000  0.50000000  0.11172400  1
  O  O36  1  0.80033300  0.80033300  0.76855500  1
  O  O37  1  0.19966700  0.19966700  0.76855500  1
  O  O38  1  0.69966700  0.30033300  0.26855500  1
  O  O39  1  0.30033300  0.69966700  0.26855500  1
  O  O40  1  0.79729800  0.93522000  0.02416900  1
  O  O41  1  0.20270200  0.06478000  0.02416900  1
  O  O42  1  0.70270200  0.43522000  0.52416900  1
  O  O43  1  0.29729800  0.56478000  0.52416900  1
  O  O44  1  0.06478000  0.20270200  0.02416900  1
  O  O45  1  0.93522000  0.79729800  0.02416900  1
  O  O46  1  0.43522000  0.70270200  0.52416900  1
  O  O47  1  0.56478000  0.29729800  0.52416900  1
  O  O48  1  0.69295800  0.69295800  0.40698900  1
  O  O49  1  0.30704200  0.30704200  0.40698900  1
  O  O50  1  0.80704200  0.19295800  0.90698900  1
  O  O51  1  0.19295800  0.80704200  0.90698900  1
  O  O52  1  0.73963000  0.88105400  0.34173600  1
  O  O53  1  0.26037000  0.11894600  0.34173600  1
  O  O54  1  0.76037000  0.38105400  0.84173600  1
  O  O55  1  0.23963000  0.61894600  0.84173600  1
  O  O56  1  0.11894600  0.26037000  0.34173600  1
  O  O57  1  0.88105400  0.73963000  0.34173600  1
  O  O58  1  0.38105400  0.76037000  0.84173600  1
  O  O59  1  0.61894600  0.23963000  0.84173600  1
  O  O60  1  0.73899400  0.56627300  0.77545900  1
  O  O61  1  0.26100600  0.43372700  0.77545900  1
  O  O62  1  0.76100600  0.06627300  0.27545900  1
  O  O63  1  0.23899400  0.93372700  0.27545900  1
  O  O64  1  0.43372700  0.26100600  0.77545900  1
  O  O65  1  0.56627300  0.73899400  0.77545900  1
  O  O66  1  0.06627300  0.76100600  0.27545900  1
  O  O67  1  0.93372700  0.23899400  0.27545900  1
  O  O68  1  0.74520400  0.74520400  0.09083700  1
  O  O69  1  0.25479600  0.25479600  0.09083700  1
  O  O70  1  0.75479600  0.24520400  0.59083700  1
  O  O71  1  0.24520400  0.75479600  0.59083700  1
