# generated using pymatgen
data_BaThN2
_symmetry_space_group_name_H-M   'P 1'
_cell_length_a   3.77352071
_cell_length_b   3.77352071
_cell_length_c   12.91653300
_cell_angle_alpha   90.00000000
_cell_angle_beta   90.00000000
_cell_angle_gamma   120.00001242
_symmetry_Int_Tables_number   1
_chemical_formula_structural   BaThN2
_chemical_formula_sum   'Ba2 Th2 N4'
_cell_volume   159.28321411
_cell_formula_units_Z   2
loop_
 _symmetry_equiv_pos_site_id
 _symmetry_equiv_pos_as_xyz
  1  'x, y, z'
loop_
 _atom_site_type_symbol
 _atom_site_label
 _atom_site_symmetry_multiplicity
 _atom_site_fract_x
 _atom_site_fract_y
 _atom_site_fract_z
 _atom_site_occupancy
  Ba  Ba0  1  0.66666700  0.33333300  0.75000000  1
  Ba  Ba1  1  0.33333300  0.66666700  0.25000000  1
  Th  Th2  1  0.00000000  0.00000000  0.00000000  1
  Th  Th3  1  0.00000000  0.00000000  0.50000000  1
  N  N4  1  0.66666700  0.33333300  0.40315500  1
  N  N5  1  0.33333300  0.66666700  0.59684500  1
  N  N6  1  0.33333300  0.66666700  0.90315500  1
  N  N7  1  0.66666700  0.33333300  0.09684500  1
