# generated using pymatgen
data_AlSiMo
_symmetry_space_group_name_H-M   'P 1'
_cell_length_a   4.76467560
_cell_length_b   4.76467560
_cell_length_c   6.63385000
_cell_angle_alpha   90.00000000
_cell_angle_beta   90.00000000
_cell_angle_gamma   119.99999451
_symmetry_Int_Tables_number   1
_chemical_formula_structural   AlSiMo
_chemical_formula_sum   'Al3 Si3 Mo3'
_cell_volume   130.42564060
_cell_formula_units_Z   3
loop_
 _symmetry_equiv_pos_site_id
 _symmetry_equiv_pos_as_xyz
  1  'x, y, z'
loop_
 _atom_site_type_symbol
 _atom_site_label
 _atom_site_symmetry_multiplicity
 _atom_site_fract_x
 _atom_site_fract_y
 _atom_site_fract_z
 _atom_site_occupancy
  Al  Al0  1  0.32890700  0.16445400  0.50000000  1
  Al  Al1  1  0.83554600  0.16445400  0.16666700  1
  Al  Al2  1  0.83554600  0.67109300  0.83333300  1
  Si  Si3  1  0.67383100  0.83691500  0.50000000  1
  Si  Si4  1  0.16308500  0.83691500  0.16666700  1
  Si  Si5  1  0.16308500  0.32616900  0.83333300  1
  Mo  Mo6  1  0.00893200  0.50446600  0.50000000  1
  Mo  Mo7  1  0.49553400  0.50446600  0.16666700  1
  Mo  Mo8  1  0.49553400  0.99106800  0.83333300  1
