# generated using pymatgen
data_Rb2UCr2O10
_symmetry_space_group_name_H-M   'P 1'
_cell_length_a   8.37094600
_cell_length_b   10.73183068
_cell_length_c   13.90977991
_cell_angle_alpha   102.56936581
_cell_angle_beta   106.61318181
_cell_angle_gamma   93.65416864
_symmetry_Int_Tables_number   1
_chemical_formula_structural   Rb2UCr2O10
_chemical_formula_sum   'Rb8 U4 Cr8 O40'
_cell_volume   1158.08628172
_cell_formula_units_Z   4
loop_
 _symmetry_equiv_pos_site_id
 _symmetry_equiv_pos_as_xyz
  1  'x, y, z'
loop_
 _atom_site_type_symbol
 _atom_site_label
 _atom_site_symmetry_multiplicity
 _atom_site_fract_x
 _atom_site_fract_y
 _atom_site_fract_z
 _atom_site_occupancy
  Rb  Rb0  1  0.93990500  0.50109800  0.66727400  1
  Rb  Rb1  1  0.06009500  0.49890200  0.33272600  1
  Rb  Rb2  1  0.37247600  0.23702600  0.49314600  1
  Rb  Rb3  1  0.62752400  0.76297400  0.50685400  1
  Rb  Rb4  1  0.05232900  0.30786800  0.97215500  1
  Rb  Rb5  1  0.94767100  0.69213200  0.02784500  1
  Rb  Rb6  1  0.62810900  0.96142000  0.85528300  1
  Rb  Rb7  1  0.37189100  0.03858000  0.14471700  1
  U  U8  1  0.17274100  0.89592500  0.57911700  1
  U  U9  1  0.82725900  0.10407500  0.42088300  1
  U  U10  1  0.39119700  0.65153100  0.94457200  1
  U  U11  1  0.60880300  0.34846900  0.05542800  1
  Cr  Cr12  1  0.11842200  0.89595300  0.84245400  1
  Cr  Cr13  1  0.88157800  0.10404700  0.15754600  1
  Cr  Cr14  1  0.39058800  0.61885800  0.65640200  1
  Cr  Cr15  1  0.60941200  0.38114200  0.34359800  1
  Cr  Cr16  1  0.39146600  0.63444200  0.17018800  1
  Cr  Cr17  1  0.60853400  0.36555800  0.82981200  1
  Cr  Cr18  1  0.12324800  0.85688100  0.33727200  1
  Cr  Cr19  1  0.87675200  0.14311900  0.66272800  1
  O  O20  1  0.24233700  0.78852300  0.42713000  1
  O  O21  1  0.75766300  0.21147700  0.57287000  1
  O  O22  1  0.34506700  0.75101800  0.10487000  1
  O  O23  1  0.65493300  0.24898200  0.89513000  1
  O  O24  1  0.38343400  0.76987000  0.63629800  1
  O  O25  1  0.61656600  0.23013000  0.36370200  1
  O  O26  1  0.18228700  0.55848900  0.90784900  1
  O  O27  1  0.81771300  0.44151100  0.09215100  1
  O  O28  1  0.47615900  0.53806500  0.08596100  1
  O  O29  1  0.52384100  0.46193500  0.91403900  1
  O  O30  1  0.27585800  0.83793700  0.92250100  1
  O  O31  1  0.72414200  0.16206300  0.07749900  1
  O  O32  1  0.00562800  0.76326600  0.55036200  1
  O  O33  1  0.99437200  0.23673400  0.44963800  1
  O  O34  1  0.19041800  0.93746100  0.74862600  1
  O  O35  1  0.80958200  0.06253900  0.25137400  1
  O  O36  1  0.59805900  0.74798400  0.98367400  1
  O  O37  1  0.40194100  0.25201600  0.01632600  1
  O  O38  1  0.03127300  0.95566300  0.41583600  1
  O  O39  1  0.96872700  0.04433700  0.58416400  1
  O  O40  1  0.34030900  0.02617700  0.60391000  1
  O  O41  1  0.65969100  0.97382300  0.39609000  1
  O  O42  1  0.06735700  0.02196900  0.91049500  1
  O  O43  1  0.93264300  0.97803100  0.08950500  1
  O  O44  1  0.57020400  0.57583600  0.64806200  1
  O  O45  1  0.42979600  0.42416400  0.35193800  1
  O  O46  1  0.37106800  0.62394300  0.77665600  1
  O  O47  1  0.62893200  0.37605700  0.22334400  1
  O  O48  1  0.23779400  0.51795400  0.56864800  1
  O  O49  1  0.76220600  0.48204600  0.43135200  1
  O  O50  1  0.21900800  0.55756400  0.17296500  1
  O  O51  1  0.78099200  0.44243600  0.82703500  1
  O  O52  1  0.52463400  0.68885300  0.28413200  1
  O  O53  1  0.47536600  0.31114700  0.71586800  1
  O  O54  1  0.95426500  0.78632500  0.79104000  1
  O  O55  1  0.04573500  0.21367500  0.20896000  1
  O  O56  1  0.98625600  0.74847400  0.24640600  1
  O  O57  1  0.01374400  0.25152600  0.75359400  1
  O  O58  1  0.23814400  0.94177100  0.29150900  1
  O  O59  1  0.76185600  0.05822900  0.70849100  1
