# generated using pymatgen
data_MgSnF6
_symmetry_space_group_name_H-M   'P 1'
_cell_length_a   5.56924427
_cell_length_b   5.56924427
_cell_length_c   5.56924407
_cell_angle_alpha   58.11872167
_cell_angle_beta   58.11872167
_cell_angle_gamma   58.11871505
_symmetry_Int_Tables_number   1
_chemical_formula_structural   MgSnF6
_chemical_formula_sum   'Mg1 Sn1 F6'
_cell_volume   116.87677729
_cell_formula_units_Z   1
loop_
 _symmetry_equiv_pos_site_id
 _symmetry_equiv_pos_as_xyz
  1  'x, y, z'
loop_
 _atom_site_type_symbol
 _atom_site_label
 _atom_site_symmetry_multiplicity
 _atom_site_fract_x
 _atom_site_fract_y
 _atom_site_fract_z
 _atom_site_occupancy
  Mg  Mg0  1  0.50000000  0.50000000  0.50000000  1
  Sn  Sn1  1  0.00000000  0.00000000  0.00000000  1
  F  F2  1  0.66081800  0.83996900  0.24809600  1
  F  F3  1  0.83996900  0.24809600  0.66081800  1
  F  F4  1  0.75190400  0.33918200  0.16003100  1
  F  F5  1  0.16003100  0.75190400  0.33918200  1
  F  F6  1  0.33918200  0.16003100  0.75190400  1
  F  F7  1  0.24809600  0.66081800  0.83996900  1
