# generated using pymatgen
data_Cs2Pt3S4
_symmetry_space_group_name_H-M   'P 1'
_cell_length_a   9.02270060
_cell_length_b   7.83413787
_cell_length_c   6.43603076
_cell_angle_alpha   77.75536863
_cell_angle_beta   58.05078370
_cell_angle_gamma   44.19384767
_symmetry_Int_Tables_number   1
_chemical_formula_structural   Cs2Pt3S4
_chemical_formula_sum   'Cs2 Pt3 S4'
_cell_volume   258.09743279
_cell_formula_units_Z   1
loop_
 _symmetry_equiv_pos_site_id
 _symmetry_equiv_pos_as_xyz
  1  'x, y, z'
loop_
 _atom_site_type_symbol
 _atom_site_label
 _atom_site_symmetry_multiplicity
 _atom_site_fract_x
 _atom_site_fract_y
 _atom_site_fract_z
 _atom_site_occupancy
  Cs  Cs0  1  0.65278400  0.65278400  0.34721600  1
  Cs  Cs1  1  0.34721600  0.34721600  0.65278400  1
  Pt  Pt2  1  0.50000000  0.50000000  0.00000000  1
  Pt  Pt3  1  0.00000000  0.00000000  0.00000000  1
  Pt  Pt4  1  0.00000000  0.00000000  0.50000000  1
  S  S5  1  0.06501000  0.72883800  0.27116200  1
  S  S6  1  0.72883800  0.06501000  0.93499000  1
  S  S7  1  0.93499000  0.27116200  0.72883800  1
  S  S8  1  0.27116200  0.93499000  0.06501000  1
