# generated using pymatgen
data_Zr2Al3Zn
_symmetry_space_group_name_H-M   'P 1'
_cell_length_a   5.26217414
_cell_length_b   5.26217414
_cell_length_c   5.26217417
_cell_angle_alpha   60.90427690
_cell_angle_beta   60.90427690
_cell_angle_gamma   60.90428093
_symmetry_Int_Tables_number   1
_chemical_formula_structural   Zr2Al3Zn
_chemical_formula_sum   'Zr2 Al3 Zn1'
_cell_volume   105.13405188
_cell_formula_units_Z   1
loop_
 _symmetry_equiv_pos_site_id
 _symmetry_equiv_pos_as_xyz
  1  'x, y, z'
loop_
 _atom_site_type_symbol
 _atom_site_label
 _atom_site_symmetry_multiplicity
 _atom_site_fract_x
 _atom_site_fract_y
 _atom_site_fract_z
 _atom_site_occupancy
  Zr  Zr0  1  0.62466100  0.62466100  0.62466100  1
  Zr  Zr1  1  0.37533900  0.37533900  0.37533900  1
  Al  Al2  1  0.00000000  0.50000000  0.00000000  1
  Al  Al3  1  0.50000000  0.00000000  0.00000000  1
  Al  Al4  1  0.00000000  0.00000000  0.50000000  1
  Zn  Zn5  1  0.00000000  0.00000000  0.00000000  1
