# generated using pymatgen
data_LuVO4
_symmetry_space_group_name_H-M   'P 1'
_cell_length_a   5.90312196
_cell_length_b   5.90312196
_cell_length_c   5.90312196
_cell_angle_alpha   106.43442965
_cell_angle_beta   106.43442965
_cell_angle_gamma   115.73212662
_symmetry_Int_Tables_number   1
_chemical_formula_structural   LuVO4
_chemical_formula_sum   'Lu2 V2 O8'
_cell_volume   156.91857372
_cell_formula_units_Z   2
loop_
 _symmetry_equiv_pos_site_id
 _symmetry_equiv_pos_as_xyz
  1  'x, y, z'
loop_
 _atom_site_type_symbol
 _atom_site_label
 _atom_site_symmetry_multiplicity
 _atom_site_fract_x
 _atom_site_fract_y
 _atom_site_fract_z
 _atom_site_occupancy
  Lu  Lu0  1  0.00000000  0.00000000  0.00000000  1
  Lu  Lu1  1  0.25000000  0.75000000  0.50000000  1
  V  V2  1  0.75000000  0.25000000  0.50000000  1
  V  V3  1  0.50000000  0.50000000  0.00000000  1
  O  O4  1  0.32153800  0.50949700  0.18795900  1
  O  O5  1  0.38357900  0.07153800  0.31204100  1
  O  O6  1  0.75949700  0.07153800  0.68795900  1
  O  O7  1  0.32153800  0.13357900  0.81204100  1
  O  O8  1  0.86642100  0.67846200  0.18795900  1
  O  O9  1  0.92846200  0.24050300  0.31204100  1
  O  O10  1  0.92846200  0.61642100  0.68795900  1
  O  O11  1  0.49050300  0.67846200  0.81204100  1
