# generated using pymatgen
data_In2Se2O7
_symmetry_space_group_name_H-M   'P 1'
_cell_length_a   6.99941400
_cell_length_b   13.00219900
_cell_length_c   14.07063300
_cell_angle_alpha   90.00000000
_cell_angle_beta   90.00000000
_cell_angle_gamma   90.00000000
_symmetry_Int_Tables_number   1
_chemical_formula_structural   In2Se2O7
_chemical_formula_sum   'In16 Se16 O56'
_cell_volume   1280.53698404
_cell_formula_units_Z   8
loop_
 _symmetry_equiv_pos_site_id
 _symmetry_equiv_pos_as_xyz
  1  'x, y, z'
loop_
 _atom_site_type_symbol
 _atom_site_label
 _atom_site_symmetry_multiplicity
 _atom_site_fract_x
 _atom_site_fract_y
 _atom_site_fract_z
 _atom_site_occupancy
  In  In0  1  0.45100100  0.98765400  0.37219800  1
  In  In1  1  0.04899900  0.98765400  0.12780200  1
  In  In2  1  0.54899900  0.51234600  0.87219800  1
  In  In3  1  0.95100100  0.51234600  0.62780200  1
  In  In4  1  0.54899900  0.01234600  0.62780200  1
  In  In5  1  0.95100100  0.01234600  0.87219800  1
  In  In6  1  0.45100100  0.48765400  0.12780200  1
  In  In7  1  0.04899900  0.48765400  0.37219800  1
  In  In8  1  0.25000000  0.24748400  0.25000000  1
  In  In9  1  0.75000000  0.25251600  0.75000000  1
  In  In10  1  0.75000000  0.75251600  0.75000000  1
  In  In11  1  0.25000000  0.74748400  0.25000000  1
  In  In12  1  0.75000000  0.83463000  0.25000000  1
  In  In13  1  0.25000000  0.66537000  0.75000000  1
  In  In14  1  0.25000000  0.16537000  0.75000000  1
  In  In15  1  0.75000000  0.33463000  0.25000000  1
  Se  Se16  1  0.96867900  0.05737400  0.37078500  1
  Se  Se17  1  0.53132100  0.05737400  0.12921500  1
  Se  Se18  1  0.03132100  0.44262600  0.87078500  1
  Se  Se19  1  0.46867900  0.44262600  0.62921500  1
  Se  Se20  1  0.03132100  0.94262600  0.62921500  1
  Se  Se21  1  0.46867900  0.94262600  0.87078500  1
  Se  Se22  1  0.96867900  0.55737400  0.12921500  1
  Se  Se23  1  0.53132100  0.55737400  0.37078500  1
  Se  Se24  1  0.50961000  0.22902800  0.45904800  1
  Se  Se25  1  0.99039000  0.22902800  0.04095200  1
  Se  Se26  1  0.49039000  0.27097200  0.95904800  1
  Se  Se27  1  0.00961000  0.27097200  0.54095200  1
  Se  Se28  1  0.49039000  0.77097200  0.54095200  1
  Se  Se29  1  0.00961000  0.77097200  0.95904800  1
  Se  Se30  1  0.50961000  0.72902800  0.04095200  1
  Se  Se31  1  0.99039000  0.72902800  0.45904800  1
  O  O32  1  0.04074300  0.09546300  0.25530000  1
  O  O33  1  0.45925700  0.09546300  0.24470000  1
  O  O34  1  0.95925700  0.40453700  0.75530000  1
  O  O35  1  0.54074300  0.40453700  0.74470000  1
  O  O36  1  0.95925700  0.90453700  0.74470000  1
  O  O37  1  0.54074300  0.90453700  0.75530000  1
  O  O38  1  0.04074300  0.59546300  0.24470000  1
  O  O39  1  0.45925700  0.59546300  0.25530000  1
  O  O40  1  0.14598000  0.97169200  0.40103700  1
  O  O41  1  0.35402000  0.97169200  0.09896300  1
  O  O42  1  0.85402000  0.52830800  0.90103700  1
  O  O43  1  0.64598000  0.52830800  0.59896300  1
  O  O44  1  0.85402000  0.02830800  0.59896300  1
  O  O45  1  0.64598000  0.02830800  0.90103700  1
  O  O46  1  0.14598000  0.47169200  0.09896300  1
  O  O47  1  0.35402000  0.47169200  0.40103700  1
  O  O48  1  0.77961200  0.97245400  0.35230600  1
  O  O49  1  0.72038800  0.97245400  0.14769400  1
  O  O50  1  0.22038800  0.52754600  0.85230600  1
  O  O51  1  0.27961200  0.52754600  0.64769400  1
  O  O52  1  0.22038800  0.02754600  0.64769400  1
  O  O53  1  0.27961200  0.02754600  0.85230600  1
  O  O54  1  0.77961200  0.47245400  0.14769400  1
  O  O55  1  0.72038800  0.47245400  0.35230600  1
  O  O56  1  0.52861700  0.09677100  0.48589200  1
  O  O57  1  0.97138300  0.09677100  0.01410800  1
  O  O58  1  0.47138300  0.40322900  0.98589200  1
  O  O59  1  0.02861700  0.40322900  0.51410800  1
  O  O60  1  0.47138300  0.90322900  0.51410800  1
  O  O61  1  0.02861700  0.90322900  0.98589200  1
  O  O62  1  0.52861700  0.59677100  0.01410800  1
  O  O63  1  0.97138300  0.59677100  0.48589200  1
  O  O64  1  0.29786600  0.21825400  0.39702400  1
  O  O65  1  0.20213400  0.21825400  0.10297600  1
  O  O66  1  0.70213400  0.28174600  0.89702400  1
  O  O67  1  0.79786600  0.28174600  0.60297600  1
  O  O68  1  0.70213400  0.78174600  0.60297600  1
  O  O69  1  0.79786600  0.78174600  0.89702400  1
  O  O70  1  0.29786600  0.71825400  0.10297600  1
  O  O71  1  0.20213400  0.71825400  0.39702400  1
  O  O72  1  0.68482500  0.23635700  0.37467600  1
  O  O73  1  0.81517500  0.23635700  0.12532400  1
  O  O74  1  0.31517500  0.26364300  0.87467600  1
  O  O75  1  0.18482500  0.26364300  0.62532400  1
  O  O76  1  0.31517500  0.76364300  0.62532400  1
  O  O77  1  0.18482500  0.76364300  0.87467600  1
  O  O78  1  0.68482500  0.73635700  0.12532400  1
  O  O79  1  0.81517500  0.73635700  0.37467600  1
  O  O80  1  0.46932400  0.85000500  0.29308300  1
  O  O81  1  0.03067600  0.85000500  0.20691700  1
  O  O82  1  0.53067600  0.64999500  0.79308300  1
  O  O83  1  0.96932400  0.64999500  0.70691700  1
  O  O84  1  0.53067600  0.14999500  0.70691700  1
  O  O85  1  0.96932400  0.14999500  0.79308300  1
  O  O86  1  0.46932400  0.35000500  0.20691700  1
  O  O87  1  0.03067600  0.35000500  0.29308300  1
