# generated using pymatgen
data_Er(AlFe)6
_symmetry_space_group_name_H-M   'P 1'
_cell_length_a   6.53799059
_cell_length_b   6.53799059
_cell_length_c   6.53799059
_cell_angle_alpha   135.18577276
_cell_angle_beta   99.17861288
_cell_angle_gamma   97.53267348
_symmetry_Int_Tables_number   1
_chemical_formula_structural   Er(AlFe)6
_chemical_formula_sum   'Er1 Al6 Fe6'
_cell_volume   182.07547148
_cell_formula_units_Z   1
loop_
 _symmetry_equiv_pos_site_id
 _symmetry_equiv_pos_as_xyz
  1  'x, y, z'
loop_
 _atom_site_type_symbol
 _atom_site_label
 _atom_site_symmetry_multiplicity
 _atom_site_fract_x
 _atom_site_fract_y
 _atom_site_fract_z
 _atom_site_occupancy
  Er  Er0  1  0.00000000  0.00000000  0.00000000  1
  Al  Al1  1  0.34573800  0.34573800  0.00000000  1
  Al  Al2  1  0.65426200  0.65426200  0.00000000  1
  Al  Al3  1  0.66394000  0.00000000  0.66394000  1
  Al  Al4  1  0.33606000  0.00000000  0.33606000  1
  Al  Al5  1  0.80790200  0.30790200  0.50000000  1
  Al  Al6  1  0.19209800  0.69209800  0.50000000  1
  Fe  Fe7  1  0.50000000  0.00000000  0.00000000  1
  Fe  Fe8  1  0.50000000  0.50000000  0.50000000  1
  Fe  Fe9  1  0.00000000  0.00000000  0.50000000  1
  Fe  Fe10  1  0.00000000  0.50000000  0.00000000  1
  Fe  Fe11  1  0.23967500  0.50000000  0.73967500  1
  Fe  Fe12  1  0.76032500  0.50000000  0.26032500  1
