# generated using pymatgen
data_DyGePd
_symmetry_space_group_name_H-M   'P 1'
_cell_length_a   4.41449600
_cell_length_b   7.63555400
_cell_length_c   13.97329200
_cell_angle_alpha   90.00000000
_cell_angle_beta   90.00000000
_cell_angle_gamma   90.00000000
_symmetry_Int_Tables_number   1
_chemical_formula_structural   DyGePd
_chemical_formula_sum   'Dy8 Ge8 Pd8'
_cell_volume   470.99946644
_cell_formula_units_Z   8
loop_
 _symmetry_equiv_pos_site_id
 _symmetry_equiv_pos_as_xyz
  1  'x, y, z'
loop_
 _atom_site_type_symbol
 _atom_site_label
 _atom_site_symmetry_multiplicity
 _atom_site_fract_x
 _atom_site_fract_y
 _atom_site_fract_z
 _atom_site_occupancy
  Dy  Dy0  1  0.00000000  0.21400800  0.75110100  1
  Dy  Dy1  1  0.00000000  0.21400800  0.24889900  1
  Dy  Dy2  1  0.50000000  0.78599200  0.74889900  1
  Dy  Dy3  1  0.50000000  0.78599200  0.25110100  1
  Dy  Dy4  1  0.00000000  0.28925900  0.50000000  1
  Dy  Dy5  1  0.50000000  0.71074100  0.00000000  1
  Dy  Dy6  1  0.00000000  0.29603800  0.00000000  1
  Dy  Dy7  1  0.50000000  0.70396200  0.50000000  1
  Ge  Ge8  1  0.00000000  0.59060800  0.85661100  1
  Ge  Ge9  1  0.00000000  0.59060800  0.14338900  1
  Ge  Ge10  1  0.50000000  0.40939200  0.64338900  1
  Ge  Ge11  1  0.50000000  0.40939200  0.35661100  1
  Ge  Ge12  1  0.00000000  0.90993600  0.40201000  1
  Ge  Ge13  1  0.00000000  0.90993600  0.59799000  1
  Ge  Ge14  1  0.50000000  0.09006400  0.09799000  1
  Ge  Ge15  1  0.50000000  0.09006400  0.90201000  1
  Pd  Pd16  1  0.00000000  0.92286700  0.89147100  1
  Pd  Pd17  1  0.00000000  0.92286700  0.10852900  1
  Pd  Pd18  1  0.50000000  0.07713300  0.60852900  1
  Pd  Pd19  1  0.50000000  0.07713300  0.39147100  1
  Pd  Pd20  1  0.00000000  0.58140600  0.34600900  1
  Pd  Pd21  1  0.00000000  0.58140600  0.65399100  1
  Pd  Pd22  1  0.50000000  0.41859400  0.15399100  1
  Pd  Pd23  1  0.50000000  0.41859400  0.84600900  1
