# generated using pymatgen
data_KLa(WO4)2
_symmetry_space_group_name_H-M   'P 1'
_cell_length_a   7.62322927
_cell_length_b   7.62322927
_cell_length_c   7.67165087
_cell_angle_alpha   66.11732726
_cell_angle_beta   66.11732726
_cell_angle_gamma   92.97139375
_symmetry_Int_Tables_number   1
_chemical_formula_structural   KLa(WO4)2
_chemical_formula_sum   'K2 La2 W4 O16'
_cell_volume   360.12468531
_cell_formula_units_Z   2
loop_
 _symmetry_equiv_pos_site_id
 _symmetry_equiv_pos_as_xyz
  1  'x, y, z'
loop_
 _atom_site_type_symbol
 _atom_site_label
 _atom_site_symmetry_multiplicity
 _atom_site_fract_x
 _atom_site_fract_y
 _atom_site_fract_z
 _atom_site_occupancy
  K  K0  1  0.69061100  0.69061100  0.47181600  1
  K  K1  1  0.30938900  0.30938900  0.52818400  1
  La  La2  1  0.70085500  0.29914500  0.00000000  1
  La  La3  1  0.29914500  0.70085500  0.00000000  1
  W  W4  1  0.20424200  0.20424200  0.05781300  1
  W  W5  1  0.79575800  0.79575800  0.94218700  1
  W  W6  1  0.83997600  0.16002400  0.50000000  1
  W  W7  1  0.16002400  0.83997600  0.50000000  1
  O  O8  1  0.34336300  0.09376300  0.26051000  1
  O  O9  1  0.65663700  0.90623700  0.73949000  1
  O  O10  1  0.90623700  0.65663700  0.73949000  1
  O  O11  1  0.09376300  0.34336300  0.26051000  1
  O  O12  1  0.69304300  0.21384800  0.35704100  1
  O  O13  1  0.30695700  0.78615200  0.64295900  1
  O  O14  1  0.78615200  0.30695700  0.64295900  1
  O  O15  1  0.21384800  0.69304300  0.35704100  1
  O  O16  1  0.70597400  0.95720400  0.06297500  1
  O  O17  1  0.29402600  0.04279600  0.93702500  1
  O  O18  1  0.04279600  0.29402600  0.93702500  1
  O  O19  1  0.95720400  0.70597400  0.06297500  1
  O  O20  1  0.98398600  0.98398600  0.34456200  1
  O  O21  1  0.01601400  0.01601400  0.65543800  1
  O  O22  1  0.57525300  0.57525300  0.10858100  1
  O  O23  1  0.42474700  0.42474700  0.89141900  1
