# generated using pymatgen
data_CsRe2OsSe4Cl3
_symmetry_space_group_name_H-M   'P 1'
_cell_length_a   10.52345633
_cell_length_b   10.52345633
_cell_length_c   15.57382228
_cell_angle_alpha   89.79736173
_cell_angle_beta   89.79736173
_cell_angle_gamma   120.05711621
_symmetry_Int_Tables_number   1
_chemical_formula_structural   CsRe2OsSe4Cl3
_chemical_formula_sum   'Cs4 Re8 Os4 Se16 Cl12'
_cell_volume   1492.73091226
_cell_formula_units_Z   4
loop_
 _symmetry_equiv_pos_site_id
 _symmetry_equiv_pos_as_xyz
  1  'x, y, z'
loop_
 _atom_site_type_symbol
 _atom_site_label
 _atom_site_symmetry_multiplicity
 _atom_site_fract_x
 _atom_site_fract_y
 _atom_site_fract_z
 _atom_site_occupancy
  Cs  Cs0  1  0.99923500  0.99936300  0.49998300  1
  Cs  Cs1  1  0.99936300  0.99923500  0.99998300  1
  Cs  Cs2  1  0.33434700  0.66736200  0.24999200  1
  Cs  Cs3  1  0.66736200  0.33434700  0.74999200  1
  Re  Re4  1  0.66545400  0.47691500  0.31867000  1
  Re  Re5  1  0.52172600  0.18810700  0.31940400  1
  Re  Re6  1  0.47691500  0.66545400  0.81867000  1
  Re  Re7  1  0.18810700  0.52172600  0.81940400  1
  Re  Re8  1  0.18889700  0.66632400  0.68132500  1
  Re  Re9  1  0.47780100  0.81181600  0.68068100  1
  Re  Re10  1  0.66632400  0.18889700  0.18132500  1
  Re  Re11  1  0.81181600  0.47780100  0.18068100  1
  Os  Os12  1  0.81286300  0.33361000  0.32019900  1
  Os  Os13  1  0.33361000  0.81286300  0.82019900  1
  Os  Os14  1  0.33403900  0.52075600  0.67972200  1
  Os  Os15  1  0.52075600  0.33403900  0.17972200  1
  Se  Se16  1  0.66759900  0.33248200  0.44912100  1
  Se  Se17  1  0.33248200  0.66759900  0.94912100  1
  Se  Se18  1  0.33427400  0.66572900  0.55088700  1
  Se  Se19  1  0.66572900  0.33427400  0.05088700  1
  Se  Se20  1  0.94379500  0.60925200  0.31768700  1
  Se  Se21  1  0.38671600  0.33129200  0.31517200  1
  Se  Se22  1  0.67020700  0.05822100  0.31885100  1
  Se  Se23  1  0.33129200  0.38671600  0.81517200  1
  Se  Se24  1  0.60925200  0.94379500  0.81768700  1
  Se  Se25  1  0.05822100  0.67020700  0.81885100  1
  Se  Se26  1  0.05859200  0.38760800  0.68246300  1
  Se  Se27  1  0.60971600  0.66564500  0.68114200  1
  Se  Se28  1  0.33235200  0.94470800  0.68468000  1
  Se  Se29  1  0.66564500  0.60971600  0.18114200  1
  Se  Se30  1  0.38760800  0.05859200  0.18246300  1
  Se  Se31  1  0.94470800  0.33235200  0.18468000  1
  Cl  Cl32  1  0.00473800  0.33839500  0.40667200  1
  Cl  Cl33  1  0.66173800  0.66444000  0.40511100  1
  Cl  Cl34  1  0.33451700  0.99538900  0.40727800  1
  Cl  Cl35  1  0.66444000  0.66173800  0.90511100  1
  Cl  Cl36  1  0.33839500  0.00473800  0.90667200  1
  Cl  Cl37  1  0.99538900  0.33451700  0.90727800  1
  Cl  Cl38  1  0.99736100  0.66190500  0.59478600  1
  Cl  Cl39  1  0.33970700  0.33474200  0.59244500  1
  Cl  Cl40  1  0.66652600  0.00437300  0.59373300  1
  Cl  Cl41  1  0.33474200  0.33970700  0.09244500  1
  Cl  Cl42  1  0.66190500  0.99736100  0.09478600  1
  Cl  Cl43  1  0.00437300  0.66652600  0.09373300  1
