# generated using pymatgen
data_Li2CaTa2O7
_symmetry_space_group_name_H-M   'P 1'
_cell_length_a   5.50923900
_cell_length_b   5.56813300
_cell_length_c   18.46121600
_cell_angle_alpha   90.00000000
_cell_angle_beta   90.00000000
_cell_angle_gamma   90.00000000
_symmetry_Int_Tables_number   1
_chemical_formula_structural   Li2CaTa2O7
_chemical_formula_sum   'Li8 Ca4 Ta8 O28'
_cell_volume   566.31950160
_cell_formula_units_Z   4
loop_
 _symmetry_equiv_pos_site_id
 _symmetry_equiv_pos_as_xyz
  1  'x, y, z'
loop_
 _atom_site_type_symbol
 _atom_site_label
 _atom_site_symmetry_multiplicity
 _atom_site_fract_x
 _atom_site_fract_y
 _atom_site_fract_z
 _atom_site_occupancy
  Li  Li0  1  0.74315800  0.49503600  0.98696200  1
  Li  Li1  1  0.25684200  0.50496400  0.48696200  1
  Li  Li2  1  0.24315800  0.00496400  0.48696200  1
  Li  Li3  1  0.75684200  0.99503600  0.98696200  1
  Li  Li4  1  0.25684200  0.50496400  0.01303800  1
  Li  Li5  1  0.74315800  0.49503600  0.51303800  1
  Li  Li6  1  0.75684200  0.99503600  0.51303800  1
  Li  Li7  1  0.24315800  0.00496400  0.01303800  1
  Ca  Ca8  1  0.99983400  0.21034200  0.25000000  1
  Ca  Ca9  1  0.00016600  0.78965800  0.75000000  1
  Ca  Ca10  1  0.49983400  0.28965800  0.75000000  1
  Ca  Ca11  1  0.50016600  0.71034200  0.25000000  1
  Ta  Ta12  1  0.49819700  0.75604600  0.63792800  1
  Ta  Ta13  1  0.50180300  0.24395400  0.13792800  1
  Ta  Ta14  1  0.99819700  0.74395400  0.13792800  1
  Ta  Ta15  1  0.00180300  0.25604600  0.63792800  1
  Ta  Ta16  1  0.50180300  0.24395400  0.36207200  1
  Ta  Ta17  1  0.49819700  0.75604600  0.86207200  1
  Ta  Ta18  1  0.00180300  0.25604600  0.86207200  1
  Ta  Ta19  1  0.99819700  0.74395400  0.36207200  1
  O  O20  1  0.07815100  0.77202900  0.25000000  1
  O  O21  1  0.92184900  0.22797100  0.75000000  1
  O  O22  1  0.57815100  0.72797100  0.75000000  1
  O  O23  1  0.42184900  0.27202900  0.25000000  1
  O  O24  1  0.04604200  0.25509200  0.96278900  1
  O  O25  1  0.95395800  0.74490800  0.46278900  1
  O  O26  1  0.54604200  0.24490800  0.46278900  1
  O  O27  1  0.45395800  0.75509200  0.96278900  1
  O  O28  1  0.95395800  0.74490800  0.03721100  1
  O  O29  1  0.04604200  0.25509200  0.53721100  1
  O  O30  1  0.45395800  0.75509200  0.53721100  1
  O  O31  1  0.54604200  0.24490800  0.03721100  1
  O  O32  1  0.21337500  0.03784100  0.36747800  1
  O  O33  1  0.78662500  0.96215900  0.86747800  1
  O  O34  1  0.71337500  0.46215900  0.86747800  1
  O  O35  1  0.28662500  0.53784100  0.36747800  1
  O  O36  1  0.78662500  0.96215900  0.63252200  1
  O  O37  1  0.21337500  0.03784100  0.13252200  1
  O  O38  1  0.28662500  0.53784100  0.13252200  1
  O  O39  1  0.71337500  0.46215900  0.63252200  1
  O  O40  1  0.21785500  0.52867700  0.66485900  1
  O  O41  1  0.78214500  0.47132300  0.16485900  1
  O  O42  1  0.71785500  0.97132300  0.16485900  1
  O  O43  1  0.28214500  0.02867700  0.66485900  1
  O  O44  1  0.78214500  0.47132300  0.33514100  1
  O  O45  1  0.21785500  0.52867700  0.83514100  1
  O  O46  1  0.28214500  0.02867700  0.83514100  1
  O  O47  1  0.71785500  0.97132300  0.33514100  1
