# generated using pymatgen
data_K2LaBr5
_symmetry_space_group_name_H-M   'P 1'
_cell_length_a   8.65473700
_cell_length_b   9.36693800
_cell_length_c   13.72529400
_cell_angle_alpha   90.00000000
_cell_angle_beta   90.00000000
_cell_angle_gamma   90.00000000
_symmetry_Int_Tables_number   1
_chemical_formula_structural   K2LaBr5
_chemical_formula_sum   'K8 La4 Br20'
_cell_volume   1112.68741666
_cell_formula_units_Z   4
loop_
 _symmetry_equiv_pos_site_id
 _symmetry_equiv_pos_as_xyz
  1  'x, y, z'
loop_
 _atom_site_type_symbol
 _atom_site_label
 _atom_site_symmetry_multiplicity
 _atom_site_fract_x
 _atom_site_fract_y
 _atom_site_fract_z
 _atom_site_occupancy
  K  K0  1  0.95034100  0.00534600  0.82887400  1
  K  K1  1  0.04965900  0.99465400  0.17112600  1
  K  K2  1  0.45034100  0.99465400  0.67112600  1
  K  K3  1  0.04965900  0.50534600  0.17112600  1
  K  K4  1  0.54965900  0.00534600  0.32887400  1
  K  K5  1  0.95034100  0.49465400  0.82887400  1
  K  K6  1  0.54965900  0.49465400  0.32887400  1
  K  K7  1  0.45034100  0.50534600  0.67112600  1
  La  La8  1  0.92356900  0.75000000  0.50561600  1
  La  La9  1  0.07643100  0.25000000  0.49438400  1
  La  La10  1  0.42356900  0.25000000  0.99438400  1
  La  La11  1  0.57643100  0.75000000  0.00561600  1
  Br  Br12  1  0.12716800  0.75000000  0.68097100  1
  Br  Br13  1  0.87283200  0.25000000  0.31902900  1
  Br  Br14  1  0.62716800  0.25000000  0.81902900  1
  Br  Br15  1  0.37283200  0.75000000  0.18097100  1
  Br  Br16  1  0.83483600  0.04345500  0.57793300  1
  Br  Br17  1  0.16516400  0.95654500  0.42206700  1
  Br  Br18  1  0.33483600  0.95654500  0.92206700  1
  Br  Br19  1  0.16516400  0.54345500  0.42206700  1
  Br  Br20  1  0.66516400  0.04345500  0.07793300  1
  Br  Br21  1  0.83483600  0.45654500  0.57793300  1
  Br  Br22  1  0.66516400  0.45654500  0.07793300  1
  Br  Br23  1  0.33483600  0.54345500  0.92206700  1
  Br  Br24  1  0.57443100  0.75000000  0.50722700  1
  Br  Br25  1  0.42556900  0.25000000  0.49277300  1
  Br  Br26  1  0.07443100  0.25000000  0.99277300  1
  Br  Br27  1  0.92556900  0.75000000  0.00722700  1
  Br  Br28  1  0.66473500  0.75000000  0.79470800  1
  Br  Br29  1  0.33526500  0.25000000  0.20529200  1
  Br  Br30  1  0.16473500  0.25000000  0.70529200  1
  Br  Br31  1  0.83526500  0.75000000  0.29470800  1
