# generated using pymatgen
data_Tm5Co19P12
_symmetry_space_group_name_H-M   'P 1'
_cell_length_a   11.93929631
_cell_length_b   11.93929631
_cell_length_c   3.64627800
_cell_angle_alpha   90.00000000
_cell_angle_beta   90.00000000
_cell_angle_gamma   120.00000173
_symmetry_Int_Tables_number   1
_chemical_formula_structural   Tm5Co19P12
_chemical_formula_sum   'Tm5 Co19 P12'
_cell_volume   450.12990076
_cell_formula_units_Z   1
loop_
 _symmetry_equiv_pos_site_id
 _symmetry_equiv_pos_as_xyz
  1  'x, y, z'
loop_
 _atom_site_type_symbol
 _atom_site_label
 _atom_site_symmetry_multiplicity
 _atom_site_fract_x
 _atom_site_fract_y
 _atom_site_fract_z
 _atom_site_occupancy
  Tm  Tm0  1  0.66666700  0.33333300  0.00000000  1
  Tm  Tm1  1  0.33333300  0.66666700  0.00000000  1
  Tm  Tm2  1  0.18678300  0.18678300  0.50000000  1
  Tm  Tm3  1  0.81321700  0.00000000  0.50000000  1
  Tm  Tm4  1  0.00000000  0.81321700  0.50000000  1
  Co  Co5  1  0.82186800  0.19902100  0.00000000  1
  Co  Co6  1  0.80097900  0.62284600  0.00000000  1
  Co  Co7  1  0.37715400  0.17813200  0.00000000  1
  Co  Co8  1  0.19902100  0.82186800  0.00000000  1
  Co  Co9  1  0.62284600  0.80097900  0.00000000  1
  Co  Co10  1  0.17813200  0.37715400  0.00000000  1
  Co  Co11  1  0.55226700  0.55226700  0.00000000  1
  Co  Co12  1  0.44773300  0.00000000  0.00000000  1
  Co  Co13  1  0.00000000  0.44773300  0.00000000  1
  Co  Co14  1  0.64229200  0.12580100  0.50000000  1
  Co  Co15  1  0.87419900  0.51649100  0.50000000  1
  Co  Co16  1  0.48350900  0.35770800  0.50000000  1
  Co  Co17  1  0.12580100  0.64229200  0.50000000  1
  Co  Co18  1  0.51649100  0.87419900  0.50000000  1
  Co  Co19  1  0.35770800  0.48350900  0.50000000  1
  Co  Co20  1  0.71519100  0.71519100  0.50000000  1
  Co  Co21  1  0.28480900  0.00000000  0.50000000  1
  Co  Co22  1  0.00000000  0.28480900  0.50000000  1
  Co  Co23  1  0.00000000  0.00000000  0.00000000  1
  P  P24  1  0.36645600  0.36645600  0.00000000  1
  P  P25  1  0.63354400  0.00000000  0.00000000  1
  P  P26  1  0.00000000  0.63354400  0.00000000  1
  P  P27  1  0.83364800  0.31440800  0.50000000  1
  P  P28  1  0.68559200  0.51924000  0.50000000  1
  P  P29  1  0.48076000  0.16635200  0.50000000  1
  P  P30  1  0.31440800  0.83364800  0.50000000  1
  P  P31  1  0.51924000  0.68559200  0.50000000  1
  P  P32  1  0.16635200  0.48076000  0.50000000  1
  P  P33  1  0.81961800  0.81961800  0.00000000  1
  P  P34  1  0.18038200  0.00000000  0.00000000  1
  P  P35  1  0.00000000  0.18038200  0.00000000  1
