# generated using pymatgen
data_V2GePb5O12
_symmetry_space_group_name_H-M   'P 1'
_cell_length_a   7.47253000
_cell_length_b   10.24783900
_cell_length_c   10.30247155
_cell_angle_alpha   60.23318644
_cell_angle_beta   90.00000000
_cell_angle_gamma   90.00000000
_symmetry_Int_Tables_number   1
_chemical_formula_structural   V2GePb5O12
_chemical_formula_sum   'V4 Ge2 Pb10 O24'
_cell_volume   684.83777574
_cell_formula_units_Z   2
loop_
 _symmetry_equiv_pos_site_id
 _symmetry_equiv_pos_as_xyz
  1  'x, y, z'
loop_
 _atom_site_type_symbol
 _atom_site_label
 _atom_site_symmetry_multiplicity
 _atom_site_fract_x
 _atom_site_fract_y
 _atom_site_fract_z
 _atom_site_occupancy
  V  V0  1  0.50000000  0.98273600  0.39475200  1
  V  V1  1  0.00000000  0.37621500  0.01934700  1
  V  V2  1  0.00000000  0.60515800  0.37832500  1
  V  V3  1  0.00000000  0.01601000  0.60447800  1
  Ge  Ge4  1  0.50000000  0.62326500  0.98388900  1
  Ge  Ge5  1  0.50000000  0.39479800  0.62049000  1
  Pb  Pb6  1  0.73400700  0.33774400  0.33466800  1
  Pb  Pb7  1  0.24999500  0.65724100  0.67572800  1
  Pb  Pb8  1  0.75000500  0.65724100  0.67572800  1
  Pb  Pb9  1  0.26599300  0.33774400  0.33466800  1
  Pb  Pb10  1  0.50000000  0.98257800  0.75996400  1
  Pb  Pb11  1  0.50000000  0.26178300  0.97566700  1
  Pb  Pb12  1  0.50000000  0.74024200  0.25790000  1
  Pb  Pb13  1  0.00000000  0.00351200  0.25153300  1
  Pb  Pb14  1  0.00000000  0.74842500  0.99364800  1
  Pb  Pb15  1  0.00000000  0.25556400  0.74570800  1
  O  O16  1  0.50000000  0.51639600  0.18285300  1
  O  O17  1  0.50000000  0.30681300  0.50931500  1
  O  O18  1  0.50000000  0.17975900  0.30906100  1
  O  O19  1  0.00000000  0.48316800  0.82159200  1
  O  O20  1  0.00000000  0.69738500  0.48253600  1
  O  O21  1  0.00000000  0.81894800  0.69816000  1
  O  O22  1  0.50000000  0.51111300  0.89488700  1
  O  O23  1  0.50000000  0.59509900  0.50748900  1
  O  O24  1  0.50000000  0.89826400  0.59174300  1
  O  O25  1  0.00000000  0.49321600  0.09980900  1
  O  O26  1  0.00000000  0.40737000  0.49309600  1
  O  O27  1  0.00000000  0.09722900  0.40744800  1
  O  O28  1  0.68720500  0.74625500  0.90910100  1
  O  O29  1  0.68653900  0.34757400  0.74412900  1
  O  O30  1  0.68469100  0.91714300  0.34310700  1
  O  O31  1  0.18237200  0.25795800  0.08475300  1
  O  O32  1  0.18399800  0.65528200  0.26091500  1
  O  O33  1  0.18332200  0.08328000  0.65575400  1
  O  O34  1  0.81762800  0.25795800  0.08475300  1
  O  O35  1  0.81600200  0.65528200  0.26091500  1
  O  O36  1  0.81667800  0.08328000  0.65575400  1
  O  O37  1  0.31279500  0.74625500  0.90910100  1
  O  O38  1  0.31346100  0.34757400  0.74412900  1
  O  O39  1  0.31530900  0.91714300  0.34310700  1
