# generated using pymatgen
data_Rb3Sb2Br9
_symmetry_space_group_name_H-M   'P 1'
_cell_length_a   7.94563500
_cell_length_b   14.00039900
_cell_length_c   24.04423066
_cell_angle_alpha   54.61464812
_cell_angle_beta   90.00000000
_cell_angle_gamma   90.00000000
_symmetry_Int_Tables_number   1
_chemical_formula_structural   Rb3Sb2Br9
_chemical_formula_sum   'Rb12 Sb8 Br36'
_cell_volume   2180.64262201
_cell_formula_units_Z   4
loop_
 _symmetry_equiv_pos_site_id
 _symmetry_equiv_pos_as_xyz
  1  'x, y, z'
loop_
 _atom_site_type_symbol
 _atom_site_label
 _atom_site_symmetry_multiplicity
 _atom_site_fract_x
 _atom_site_fract_y
 _atom_site_fract_z
 _atom_site_occupancy
  Rb  Rb0  1  0.48425600  0.24231600  0.23488400  1
  Rb  Rb1  1  0.01574400  0.24231600  0.73488400  1
  Rb  Rb2  1  0.51574400  0.75768400  0.76511600  1
  Rb  Rb3  1  0.98425600  0.75768400  0.26511600  1
  Rb  Rb4  1  0.50226500  0.25246600  0.57464600  1
  Rb  Rb5  1  0.99773500  0.25246600  0.07464600  1
  Rb  Rb6  1  0.49773500  0.74753400  0.42535400  1
  Rb  Rb7  1  0.00226500  0.74753400  0.92535400  1
  Rb  Rb8  1  0.51291500  0.74410200  0.09643500  1
  Rb  Rb9  1  0.98708500  0.74410200  0.59643500  1
  Rb  Rb10  1  0.48708500  0.25589800  0.90356500  1
  Rb  Rb11  1  0.01291500  0.25589800  0.40356500  1
  Sb  Sb12  1  0.50516200  0.49036300  0.34290500  1
  Sb  Sb13  1  0.99483800  0.49036300  0.84290500  1
  Sb  Sb14  1  0.49483800  0.50963700  0.65709500  1
  Sb  Sb15  1  0.00516200  0.50963700  0.15709500  1
  Sb  Sb16  1  0.50059800  0.99213400  0.84460200  1
  Sb  Sb17  1  0.99940200  0.99213400  0.34460200  1
  Sb  Sb18  1  0.49940200  0.00786600  0.15539800  1
  Sb  Sb19  1  0.00059800  0.00786600  0.65539800  1
  Br  Br20  1  0.93529000  0.25025800  0.25253800  1
  Br  Br21  1  0.56471000  0.25025800  0.75253800  1
  Br  Br22  1  0.06471000  0.74974200  0.74746200  1
  Br  Br23  1  0.43529000  0.74974200  0.24746200  1
  Br  Br24  1  0.95977500  0.24445300  0.57913600  1
  Br  Br25  1  0.54022500  0.24445300  0.07913600  1
  Br  Br26  1  0.04022500  0.75554700  0.42086400  1
  Br  Br27  1  0.45977500  0.75554700  0.92086400  1
  Br  Br28  1  0.05083900  0.74410300  0.07871500  1
  Br  Br29  1  0.44916100  0.74410300  0.57871500  1
  Br  Br30  1  0.94916100  0.25589700  0.92128500  1
  Br  Br31  1  0.55083900  0.25589700  0.42128500  1
  Br  Br32  1  0.20677500  0.02106600  0.56288300  1
  Br  Br33  1  0.29322500  0.02106600  0.06288300  1
  Br  Br34  1  0.79322500  0.97893400  0.43711700  1
  Br  Br35  1  0.70677500  0.97893400  0.93711700  1
  Br  Br36  1  0.20954600  0.48043100  0.07796600  1
  Br  Br37  1  0.29045400  0.48043100  0.57796600  1
  Br  Br38  1  0.79045400  0.51956900  0.92203400  1
  Br  Br39  1  0.70954600  0.51956900  0.42203400  1
  Br  Br40  1  0.22381200  0.02338300  0.89800600  1
  Br  Br41  1  0.27618800  0.02338300  0.39800600  1
  Br  Br42  1  0.77618800  0.97661700  0.10199400  1
  Br  Br43  1  0.72381200  0.97661700  0.60199400  1
  Br  Br44  1  0.22954300  0.47270800  0.41461200  1
  Br  Br45  1  0.27045700  0.47270800  0.91461200  1
  Br  Br46  1  0.77045700  0.52729200  0.58538800  1
  Br  Br47  1  0.72954300  0.52729200  0.08538800  1
  Br  Br48  1  0.20178900  0.03041600  0.22486300  1
  Br  Br49  1  0.29821100  0.03041600  0.72486300  1
  Br  Br50  1  0.79821100  0.96958400  0.77513700  1
  Br  Br51  1  0.70178900  0.96958400  0.27513700  1
  Br  Br52  1  0.19108300  0.46416000  0.74482100  1
  Br  Br53  1  0.30891700  0.46416000  0.24482100  1
  Br  Br54  1  0.80891700  0.53584000  0.25517900  1
  Br  Br55  1  0.69108300  0.53584000  0.75517900  1
