# generated using pymatgen
data_Co(AsO3)2
_symmetry_space_group_name_H-M   'P 1'
_cell_length_a   4.86103700
_cell_length_b   4.86098520
_cell_length_c   9.11146800
_cell_angle_alpha   89.99980204
_cell_angle_beta   90.00040770
_cell_angle_gamma   120.00034574
_symmetry_Int_Tables_number   1
_chemical_formula_structural   Co(AsO3)2
_chemical_formula_sum   'Co2 As4 O12'
_cell_volume   186.45356780
_cell_formula_units_Z   2
loop_
 _symmetry_equiv_pos_site_id
 _symmetry_equiv_pos_as_xyz
  1  'x, y, z'
loop_
 _atom_site_type_symbol
 _atom_site_label
 _atom_site_symmetry_multiplicity
 _atom_site_fract_x
 _atom_site_fract_y
 _atom_site_fract_z
 _atom_site_occupancy
  Co  Co0  1  0.00000100  0.00000000  0.50000000  1
  Co  Co1  1  0.00000100  0.00000000  0.00000000  1
  As  As2  1  0.33333200  0.66666500  0.25000000  1
  As  As3  1  0.33333200  0.66666500  0.75000000  1
  As  As4  1  0.66666800  0.33333500  0.25000000  1
  As  As5  1  0.66666800  0.33333500  0.75000000  1
  O  O6  1  0.36277400  0.00000000  0.13715500  1
  O  O7  1  0.36277400  0.00000000  0.63715500  1
  O  O8  1  0.36278000  0.36277400  0.36284600  1
  O  O9  1  0.36278000  0.36277400  0.86284600  1
  O  O10  1  0.00000600  0.63722600  0.36284600  1
  O  O11  1  0.00000600  0.63722600  0.86284600  1
  O  O12  1  0.63722000  0.63722600  0.13715400  1
  O  O13  1  0.63722000  0.63722600  0.63715400  1
  O  O14  1  0.63722500  0.00000000  0.36284500  1
  O  O15  1  0.63722500  0.00000000  0.86284500  1
  O  O16  1  0.99999400  0.36277400  0.13715400  1
  O  O17  1  0.99999400  0.36277400  0.63715400  1
