# generated using pymatgen
data_Mg10TiSn(BO5)4
_symmetry_space_group_name_H-M   'P 1'
_cell_length_a   6.15114700
_cell_length_b   9.89246635
_cell_length_c   12.83385399
_cell_angle_alpha   85.62198446
_cell_angle_beta   76.39143602
_cell_angle_gamma   71.96661930
_symmetry_Int_Tables_number   1
_chemical_formula_structural   Mg10TiSn(BO5)4
_chemical_formula_sum   'Mg20 Ti2 Sn2 B8 O40'
_cell_volume   721.72513853
_cell_formula_units_Z   2
loop_
 _symmetry_equiv_pos_site_id
 _symmetry_equiv_pos_as_xyz
  1  'x, y, z'
loop_
 _atom_site_type_symbol
 _atom_site_label
 _atom_site_symmetry_multiplicity
 _atom_site_fract_x
 _atom_site_fract_y
 _atom_site_fract_z
 _atom_site_occupancy
  Mg  Mg0  1  0.89745200  0.99996800  0.71732700  1
  Mg  Mg1  1  0.10254800  0.00003200  0.28267300  1
  Mg  Mg2  1  0.75388200  0.99478000  0.49934200  1
  Mg  Mg3  1  0.24611800  0.00522000  0.50065800  1
  Mg  Mg4  1  0.76010900  0.00120200  0.99907000  1
  Mg  Mg5  1  0.23989100  0.99879800  0.00093000  1
  Mg  Mg6  1  0.75202400  0.49984100  0.49982500  1
  Mg  Mg7  1  0.24797600  0.50015900  0.50017500  1
  Mg  Mg8  1  0.59901300  0.49503800  0.78099200  1
  Mg  Mg9  1  0.40098700  0.50496200  0.21900800  1
  Mg  Mg10  1  0.75709300  0.48795900  0.99768200  1
  Mg  Mg11  1  0.24290700  0.51204100  0.00231800  1
  Mg  Mg12  1  0.39304400  0.00048500  0.71779000  1
  Mg  Mg13  1  0.60695600  0.99951500  0.28221000  1
  Mg  Mg14  1  0.89159800  0.50480200  0.21939600  1
  Mg  Mg15  1  0.10840200  0.49519800  0.78060400  1
  Mg  Mg16  1  0.17240300  0.76386800  0.88012400  1
  Mg  Mg17  1  0.82759700  0.23613200  0.11987600  1
  Mg  Mg18  1  0.93903400  0.73861700  0.38184300  1
  Mg  Mg19  1  0.06096600  0.26138300  0.61815700  1
  Ti  Ti20  1  0.43614600  0.73918200  0.38694300  1
  Ti  Ti21  1  0.56385400  0.26081800  0.61305700  1
  Sn  Sn22  1  0.67301200  0.76006200  0.88396400  1
  Sn  Sn23  1  0.32698800  0.23993800  0.11603600  1
  B  B24  1  0.45585000  0.23064700  0.85921300  1
  B  B25  1  0.54415000  0.76935300  0.14078700  1
  B  B26  1  0.81913100  0.72298500  0.63665900  1
  B  B27  1  0.18086900  0.27701500  0.36334100  1
  B  B28  1  0.96072600  0.22122800  0.85829400  1
  B  B29  1  0.03927400  0.77877200  0.14170600  1
  B  B30  1  0.31397000  0.72782800  0.64040700  1
  B  B31  1  0.68603000  0.27217200  0.35959300  1
  O  O32  1  0.48595700  0.61210700  0.92184700  1
  O  O33  1  0.51404300  0.38789300  0.07815300  1
  O  O34  1  0.94983400  0.85452000  0.23772600  1
  O  O35  1  0.05016600  0.14548000  0.76227400  1
  O  O36  1  0.24271200  0.87544100  0.64236200  1
  O  O37  1  0.75728800  0.12455900  0.35763800  1
  O  O38  1  0.95099900  0.14938000  0.95633000  1
  O  O39  1  0.04900100  0.85062000  0.04367000  1
  O  O40  1  0.86408600  0.89840900  0.85633100  1
  O  O41  1  0.13591400  0.10159100  0.14366900  1
  O  O42  1  0.40153700  0.65412700  0.54144400  1
  O  O43  1  0.59846300  0.34587300  0.45855600  1
  O  O44  1  0.58038200  0.88311200  0.42361900  1
  O  O45  1  0.41961800  0.11688800  0.57638100  1
  O  O46  1  0.45514100  0.84255100  0.23883300  1
  O  O47  1  0.54485900  0.15744900  0.76116700  1
  O  O48  1  0.30064100  0.64884600  0.73411000  1
  O  O49  1  0.69935900  0.35115400  0.26589000  1
  O  O50  1  0.74690200  0.86976300  0.64210700  1
  O  O51  1  0.25309800  0.13023700  0.35789300  1
  O  O52  1  0.37528900  0.37686700  0.86030400  1
  O  O53  1  0.62471100  0.62313300  0.13969600  1
  O  O54  1  0.74660700  0.61103500  0.35767300  1
  O  O55  1  0.25339300  0.38896500  0.64232700  1
  O  O56  1  0.71571000  0.38959700  0.64230000  1
  O  O57  1  0.28429000  0.61040300  0.35770000  1
  O  O58  1  0.89140900  0.11742100  0.57661300  1
  O  O59  1  0.10859100  0.88257900  0.42338700  1
  O  O60  1  0.90609500  0.64674500  0.54177200  1
  O  O61  1  0.09390500  0.35325500  0.45822800  1
  O  O62  1  0.45370700  0.14921600  0.95370200  1
  O  O63  1  0.54629300  0.85078400  0.04629800  1
  O  O64  1  0.37194300  0.89823700  0.85675300  1
  O  O65  1  0.62805700  0.10176300  0.14324700  1
  O  O66  1  0.88217700  0.36952000  0.85390900  1
  O  O67  1  0.11782300  0.63048000  0.14609100  1
  O  O68  1  0.97182200  0.61269400  0.92164900  1
  O  O69  1  0.02817800  0.38730600  0.07835100  1
  O  O70  1  0.80276000  0.64431900  0.73354600  1
  O  O71  1  0.19724000  0.35568100  0.26645400  1
