# generated using pymatgen
data_Pd3Se2S
_symmetry_space_group_name_H-M   'P 1'
_cell_length_a   11.57666800
_cell_length_b   11.57666800
_cell_length_c   7.04567800
_cell_angle_alpha   90.00000000
_cell_angle_beta   90.00000000
_cell_angle_gamma   90.00000000
_symmetry_Int_Tables_number   1
_chemical_formula_structural   Pd3Se2S
_chemical_formula_sum   'Pd24 Se16 S8'
_cell_volume   944.25642481
_cell_formula_units_Z   8
loop_
 _symmetry_equiv_pos_site_id
 _symmetry_equiv_pos_as_xyz
  1  'x, y, z'
loop_
 _atom_site_type_symbol
 _atom_site_label
 _atom_site_symmetry_multiplicity
 _atom_site_fract_x
 _atom_site_fract_y
 _atom_site_fract_z
 _atom_site_occupancy
  Pd  Pd0  1  0.36016200  0.22246200  0.00000000  1
  Pd  Pd1  1  0.63983800  0.77753800  0.00000000  1
  Pd  Pd2  1  0.22246200  0.63983800  0.50000000  1
  Pd  Pd3  1  0.86016200  0.27753800  0.00000000  1
  Pd  Pd4  1  0.77753800  0.36016200  0.50000000  1
  Pd  Pd5  1  0.13983800  0.72246200  0.00000000  1
  Pd  Pd6  1  0.72246200  0.86016200  0.50000000  1
  Pd  Pd7  1  0.27753800  0.13983800  0.50000000  1
  Pd  Pd8  1  0.60797100  0.10797100  0.25000000  1
  Pd  Pd9  1  0.39202900  0.89202900  0.75000000  1
  Pd  Pd10  1  0.39202900  0.89202900  0.25000000  1
  Pd  Pd11  1  0.10797100  0.39202900  0.75000000  1
  Pd  Pd12  1  0.60797100  0.10797100  0.75000000  1
  Pd  Pd13  1  0.89202900  0.60797100  0.25000000  1
  Pd  Pd14  1  0.89202900  0.60797100  0.75000000  1
  Pd  Pd15  1  0.10797100  0.39202900  0.25000000  1
  Pd  Pd16  1  0.13039400  0.04594200  0.00000000  1
  Pd  Pd17  1  0.86960600  0.95405800  0.00000000  1
  Pd  Pd18  1  0.04594200  0.86960600  0.50000000  1
  Pd  Pd19  1  0.63039400  0.45405800  0.00000000  1
  Pd  Pd20  1  0.95405800  0.13039400  0.50000000  1
  Pd  Pd21  1  0.36960600  0.54594200  0.00000000  1
  Pd  Pd22  1  0.54594200  0.63039400  0.50000000  1
  Pd  Pd23  1  0.45405800  0.36960600  0.50000000  1
  Se  Se24  1  0.11322600  0.17872800  0.27858100  1
  Se  Se25  1  0.88677400  0.82127200  0.72141900  1
  Se  Se26  1  0.88677400  0.82127200  0.27858100  1
  Se  Se27  1  0.17872800  0.88677400  0.77858100  1
  Se  Se28  1  0.61322600  0.32127200  0.72141900  1
  Se  Se29  1  0.11322600  0.17872800  0.72141900  1
  Se  Se30  1  0.82127200  0.11322600  0.22141900  1
  Se  Se31  1  0.38677400  0.67872800  0.27858100  1
  Se  Se32  1  0.82127200  0.11322600  0.77858100  1
  Se  Se33  1  0.38677400  0.67872800  0.72141900  1
  Se  Se34  1  0.17872800  0.88677400  0.22141900  1
  Se  Se35  1  0.61322600  0.32127200  0.27858100  1
  Se  Se36  1  0.67872800  0.61322600  0.22141900  1
  Se  Se37  1  0.32127200  0.38677400  0.77858100  1
  Se  Se38  1  0.32127200  0.38677400  0.22141900  1
  Se  Se39  1  0.67872800  0.61322600  0.77858100  1
  S  S40  1  0.09548400  0.59548400  0.25000000  1
  S  S41  1  0.90451600  0.40451600  0.75000000  1
  S  S42  1  0.90451600  0.40451600  0.25000000  1
  S  S43  1  0.59548400  0.90451600  0.75000000  1
  S  S44  1  0.09548400  0.59548400  0.75000000  1
  S  S45  1  0.40451600  0.09548400  0.25000000  1
  S  S46  1  0.40451600  0.09548400  0.75000000  1
  S  S47  1  0.59548400  0.90451600  0.25000000  1
