# generated using pymatgen
data_BaZr(SiO3)3
_symmetry_space_group_name_H-M   'P 1'
_cell_length_a   6.87007347
_cell_length_b   6.87007347
_cell_length_c   10.20547500
_cell_angle_alpha   90.00000000
_cell_angle_beta   90.00000000
_cell_angle_gamma   119.99999491
_symmetry_Int_Tables_number   1
_chemical_formula_structural   BaZr(SiO3)3
_chemical_formula_sum   'Ba2 Zr2 Si6 O18'
_cell_volume   417.14461388
_cell_formula_units_Z   2
loop_
 _symmetry_equiv_pos_site_id
 _symmetry_equiv_pos_as_xyz
  1  'x, y, z'
loop_
 _atom_site_type_symbol
 _atom_site_label
 _atom_site_symmetry_multiplicity
 _atom_site_fract_x
 _atom_site_fract_y
 _atom_site_fract_z
 _atom_site_occupancy
  Ba  Ba0  1  0.00000000  0.00000000  0.00000000  1
  Ba  Ba1  1  0.00000000  0.00000000  0.50000000  1
  Zr  Zr2  1  0.66666700  0.33333300  0.00000000  1
  Zr  Zr3  1  0.66666700  0.33333300  0.50000000  1
  Si  Si4  1  0.39142300  0.44638600  0.25000000  1
  Si  Si5  1  0.55361400  0.94503700  0.25000000  1
  Si  Si6  1  0.39142300  0.94503700  0.75000000  1
  Si  Si7  1  0.05496300  0.60857700  0.25000000  1
  Si  Si8  1  0.55361400  0.60857700  0.75000000  1
  Si  Si9  1  0.05496300  0.44638600  0.75000000  1
  O  O10  1  0.91567800  0.59100200  0.11716000  1
  O  O11  1  0.40899800  0.32467600  0.11716000  1
  O  O12  1  0.91567800  0.59100200  0.38284000  1
  O  O13  1  0.91567800  0.32467600  0.61716000  1
  O  O14  1  0.67532400  0.08432200  0.11716000  1
  O  O15  1  0.40899800  0.32467600  0.38284000  1
  O  O16  1  0.40899800  0.08432200  0.61716000  1
  O  O17  1  0.91567800  0.32467600  0.88284000  1
  O  O18  1  0.67532400  0.08432200  0.38284000  1
  O  O19  1  0.40899800  0.08432200  0.88284000  1
  O  O20  1  0.67532400  0.59100200  0.61716000  1
  O  O21  1  0.67532400  0.59100200  0.88284000  1
  O  O22  1  0.13887700  0.42144700  0.25000000  1
  O  O23  1  0.57855300  0.71743000  0.25000000  1
  O  O24  1  0.13887700  0.71743000  0.75000000  1
  O  O25  1  0.28257000  0.86112300  0.25000000  1
  O  O26  1  0.57855300  0.86112300  0.75000000  1
  O  O27  1  0.28257000  0.42144700  0.75000000  1
