# generated using pymatgen
data_Ce(FeP3)4
_symmetry_space_group_name_H-M   'P 1'
_cell_length_a   6.74329815
_cell_length_b   6.74329815
_cell_length_c   6.74329815
_cell_angle_alpha   109.47122063
_cell_angle_beta   109.47122063
_cell_angle_gamma   109.47122063
_symmetry_Int_Tables_number   1
_chemical_formula_structural   Ce(FeP3)4
_chemical_formula_sum   'Ce1 Fe4 P12'
_cell_volume   236.04521165
_cell_formula_units_Z   1
loop_
 _symmetry_equiv_pos_site_id
 _symmetry_equiv_pos_as_xyz
  1  'x, y, z'
loop_
 _atom_site_type_symbol
 _atom_site_label
 _atom_site_symmetry_multiplicity
 _atom_site_fract_x
 _atom_site_fract_y
 _atom_site_fract_z
 _atom_site_occupancy
  Ce  Ce0  1  0.00000000  0.00000000  0.00000000  1
  Fe  Fe1  1  0.00000000  0.00000000  0.50000000  1
  Fe  Fe2  1  0.00000000  0.50000000  0.00000000  1
  Fe  Fe3  1  0.50000000  0.00000000  0.00000000  1
  Fe  Fe4  1  0.50000000  0.50000000  0.50000000  1
  P  P5  1  0.84849300  0.64902800  0.49752100  1
  P  P6  1  0.84849300  0.35097200  0.19946600  1
  P  P7  1  0.15150700  0.64902800  0.80053400  1
  P  P8  1  0.35097200  0.50247900  0.15150700  1
  P  P9  1  0.50247900  0.15150700  0.35097200  1
  P  P10  1  0.15150700  0.35097200  0.50247900  1
  P  P11  1  0.64902800  0.80053400  0.15150700  1
  P  P12  1  0.19946600  0.84849300  0.35097200  1
  P  P13  1  0.64902800  0.49752100  0.84849300  1
  P  P14  1  0.80053400  0.15150700  0.64902800  1
  P  P15  1  0.35097200  0.19946600  0.84849300  1
  P  P16  1  0.49752100  0.84849300  0.64902800  1
