# generated using pymatgen
data_Eu(Al2Cu)4
_symmetry_space_group_name_H-M   'P 1'
_cell_length_a   6.77307347
_cell_length_b   6.77307347
_cell_length_c   6.77307347
_cell_angle_alpha   98.24808534
_cell_angle_beta   98.24808534
_cell_angle_gamma   135.48614181
_symmetry_Int_Tables_number   1
_chemical_formula_structural   Eu(Al2Cu)4
_chemical_formula_sum   'Eu1 Al8 Cu4'
_cell_volume   201.60438086
_cell_formula_units_Z   1
loop_
 _symmetry_equiv_pos_site_id
 _symmetry_equiv_pos_as_xyz
  1  'x, y, z'
loop_
 _atom_site_type_symbol
 _atom_site_label
 _atom_site_symmetry_multiplicity
 _atom_site_fract_x
 _atom_site_fract_y
 _atom_site_fract_z
 _atom_site_occupancy
  Eu  Eu0  1  0.00000000  0.00000000  0.00000000  1
  Al  Al1  1  0.00000000  0.34752200  0.34752200  1
  Al  Al2  1  0.00000000  0.65247800  0.65247800  1
  Al  Al3  1  0.65247800  0.00000000  0.65247800  1
  Al  Al4  1  0.34752200  0.00000000  0.34752200  1
  Al  Al5  1  0.50000000  0.27997800  0.77997800  1
  Al  Al6  1  0.50000000  0.72002200  0.22002200  1
  Al  Al7  1  0.72002200  0.50000000  0.22002200  1
  Al  Al8  1  0.27997800  0.50000000  0.77997800  1
  Cu  Cu9  1  0.00000000  0.00000000  0.50000000  1
  Cu  Cu10  1  0.50000000  0.50000000  0.50000000  1
  Cu  Cu11  1  0.50000000  0.00000000  0.00000000  1
  Cu  Cu12  1  0.00000000  0.50000000  0.00000000  1
