# generated using pymatgen
data_Sr2FeMoO6
_symmetry_space_group_name_H-M   'P 1'
_cell_length_a   5.63651455
_cell_length_b   5.62790908
_cell_length_c   68.17910381
_cell_angle_alpha   119.65357933
_cell_angle_beta   119.70618598
_cell_angle_gamma   90.04768580
_symmetry_Int_Tables_number   1
_chemical_formula_structural   Sr2FeMoO6
_chemical_formula_sum   'Sr24 Fe12 Mo12 O72'
_cell_volume   1543.36570275
_cell_formula_units_Z   12
loop_
 _symmetry_equiv_pos_site_id
 _symmetry_equiv_pos_as_xyz
  1  'x, y, z'
loop_
 _atom_site_type_symbol
 _atom_site_label
 _atom_site_symmetry_multiplicity
 _atom_site_fract_x
 _atom_site_fract_y
 _atom_site_fract_z
 _atom_site_occupancy
  Sr  Sr0  1  0.24404984  0.74314691  0.95732306  1
  Sr  Sr1  1  0.24870813  0.74892372  0.87475767  1
  Sr  Sr2  1  0.74853968  0.24922784  0.95818887  1
  Sr  Sr3  1  0.24269609  0.74263219  0.79061403  1
  Sr  Sr4  1  0.74844955  0.24816397  0.87474103  1
  Sr  Sr5  1  0.25048188  0.74859445  0.70823145  1
  Sr  Sr6  1  0.74063295  0.24244664  0.79027060  1
  Sr  Sr7  1  0.25801077  0.76159866  0.62668977  1
  Sr  Sr8  1  0.75198578  0.24965714  0.70844468  1
  Sr  Sr9  1  0.25451346  0.75388075  0.54220526  1
  Sr  Sr10  1  0.75526194  0.25695864  0.62620388  1
  Sr  Sr11  1  0.25068598  0.75006522  0.45847318  1
  Sr  Sr12  1  0.75545614  0.25487874  0.54233824  1
  Sr  Sr13  1  0.25042535  0.75007675  0.37501856  1
  Sr  Sr14  1  0.75088598  0.25019143  0.45847227  1
  Sr  Sr15  1  0.25078617  0.74940467  0.29166064  1
  Sr  Sr16  1  0.75070080  0.25016174  0.37504174  1
  Sr  Sr17  1  0.24946141  0.75013225  0.20836456  1
  Sr  Sr18  1  0.75072451  0.24951075  0.29166971  1
  Sr  Sr19  1  0.24923246  0.74965707  0.12490806  1
  Sr  Sr20  1  0.74948150  0.25018030  0.20836529  1
  Sr  Sr21  1  0.24941731  0.74935918  0.04154955  1
  Sr  Sr22  1  0.74957277  0.24993363  0.12496048  1
  Sr  Sr23  1  0.74692240  0.24679100  0.04111220  1
  Fe  Fe24  1  0.00160213  0.00199604  0.91694602  1
  Fe  Fe25  1  0.99727003  0.99798639  0.83283708  1
  Fe  Fe26  1  0.00012924  0.00057320  0.66683969  1
  Fe  Fe27  1  0.00368607  0.00397407  0.58378675  1
  Fe  Fe28  1  0.99952433  0.99938985  0.75003382  1
  Fe  Fe29  1  0.00057429  0.00012019  0.41673917  1
  Fe  Fe30  1  0.00061547  0.99927159  0.33331508  1
  Fe  Fe31  1  0.00263155  0.00196944  0.50036508  1
  Fe  Fe32  1  0.99554237  0.99631634  0.16599820  1
  Fe  Fe33  1  0.00126819  0.00098238  0.25022078  1
  Fe  Fe34  1  0.50536796  0.50544839  0.08422968  1
  Fe  Fe35  1  0.49166919  0.49132872  0.99855620  1
  Mo  Mo36  1  0.49402349  0.49453041  0.91569275  1
  Mo  Mo37  1  0.49773799  0.49884540  0.83299923  1
  Mo  Mo38  1  0.49660595  0.49598911  0.74948532  1
  Mo  Mo39  1  0.50267803  0.50287249  0.66722329  1
  Mo  Mo40  1  0.50474520  0.50548372  0.58403927  1
  Mo  Mo41  1  0.50207261  0.50129301  0.50026525  1
  Mo  Mo42  1  0.50060086  0.50035239  0.41676690  1
  Mo  Mo43  1  0.50136747  0.49996448  0.33344101  1
  Mo  Mo44  1  0.49949537  0.49932447  0.24993373  1
  Mo  Mo45  1  0.99473414  0.99488537  0.08246424  1
  Mo  Mo46  1  0.50294909  0.50381265  0.16723969  1
  Mo  Mo47  1  0.00261428  0.00225185  0.00037309  1
  O  O48  1  0.25024572  0.24955036  0.95798622  1
  O  O49  1  0.21511155  0.71723991  0.91600274  1
  O  O50  1  0.28751382  0.22547308  0.91637651  1
  O  O51  1  0.24640407  0.24855572  0.87457372  1
  O  O52  1  0.74856564  0.74805027  0.95804295  1
  O  O53  1  0.71102183  0.77308351  0.91664512  1
  O  O54  1  0.21793673  0.70301141  0.83291158  1
  O  O55  1  0.77681269  0.27541099  0.91600453  1
  O  O56  1  0.28409134  0.20904789  0.83313921  1
  O  O57  1  0.24787232  0.25275658  0.79145139  1
  O  O58  1  0.74791026  0.75027589  0.87488336  1
  O  O59  1  0.71349273  0.78919765  0.83301103  1
  O  O60  1  0.21440408  0.71511641  0.75005581  1
  O  O61  1  0.77610347  0.29388374  0.83292567  1
  O  O62  1  0.28041888  0.21247534  0.74920549  1
  O  O63  1  0.25023882  0.24489389  0.70907934  1
  O  O64  1  0.74736834  0.74893032  0.79077327  1
  O  O65  1  0.71077467  0.77890854  0.74968550  1
  O  O66  1  0.21145671  0.71213117  0.66650649  1
  O  O67  1  0.78102383  0.27964769  0.74919636  1
  O  O68  1  0.29299612  0.22117129  0.66772699  1
  O  O69  1  0.26145931  0.26178572  0.62628283  1
  O  O70  1  0.74063880  0.73908508  0.70771913  1
  O  O71  1  0.71450973  0.78706516  0.66719717  1
  O  O72  1  0.22862333  0.71288865  0.58432725  1
  O  O73  1  0.79447082  0.29409844  0.66786494  1
  O  O74  1  0.28968296  0.21513653  0.58398900  1
  O  O75  1  0.25396879  0.25274871  0.54207288  1
  O  O76  1  0.75203197  0.75848918  0.62552073  1
  O  O77  1  0.72220123  0.79485983  0.58415819  1
  O  O78  1  0.21276290  0.71600175  0.50023569  1
  O  O79  1  0.78294510  0.29922708  0.58412055  1
  O  O80  1  0.29598058  0.22352613  0.50022116  1
  O  O81  1  0.25006163  0.25044092  0.45838607  1
  O  O82  1  0.75496857  0.75223425  0.54223575  1
  O  O83  1  0.70833757  0.77988427  0.50040396  1
  O  O84  1  0.22308055  0.70614328  0.41677639  1
  O  O85  1  0.79096630  0.28646383  0.50028087  1
  O  O86  1  0.28537169  0.21136641  0.41673691  1
  O  O87  1  0.24995875  0.24897961  0.37488868  1
  O  O88  1  0.75104309  0.75135678  0.45862595  1
  O  O89  1  0.71516662  0.78900839  0.41670462  1
  O  O90  1  0.21195720  0.71429339  0.33337837  1
  O  O91  1  0.77778699  0.29429111  0.41669676  1
  O  O92  1  0.29452334  0.22147485  0.33329102  1
  O  O93  1  0.25000057  0.24778093  0.29152270  1
  O  O94  1  0.75206195  0.75035809  0.37519209  1
  O  O95  1  0.70640612  0.77754067  0.33340071  1
  O  O96  1  0.22179853  0.70535754  0.24992214  1
  O  O97  1  0.78963162  0.28492656  0.33337762  1
  O  O98  1  0.28392701  0.21045227  0.24990295  1
  O  O99  1  0.24827236  0.24913561  0.20809321  1
  O  O100  1  0.75017387  0.74950453  0.29176470  1
  O  O101  1  0.71483100  0.78819051  0.24993920  1
  O  O102  1  0.21263667  0.71540004  0.16698866  1
  O  O103  1  0.77851163  0.29483163  0.25017529  1
  O  O104  1  0.29469041  0.22224174  0.16660030  1
  O  O105  1  0.24869374  0.24909217  0.12481508  1
  O  O106  1  0.74971514  0.75165949  0.20844146  1
  O  O107  1  0.70393829  0.77766117  0.16661131  1
  O  O108  1  0.20374644  0.72110235  0.08317617  1
  O  O109  1  0.79034678  0.28913384  0.16696557  1
  O  O110  1  0.28684634  0.20995203  0.08287731  1
  O  O111  1  0.25023098  0.24967010  0.04160653  1
  O  O112  1  0.74948088  0.74982188  0.12495647  1
  O  O113  1  0.70783530  0.78488801  0.08290314  1
  O  O114  1  0.21376583  0.71355341  0.00003018  1
  O  O115  1  0.79446793  0.27729478  0.08319571  1
  O  O116  1  0.27763825  0.19836005  0.99924991  1
  O  O117  1  0.74685940  0.74692237  0.04113867  1
  O  O118  1  0.71489278  0.79368734  0.99935789  1
  O  O119  1  0.78775061  0.28728429  0.00010077  1
