# generated using pymatgen
data_EuSiNi2Ge
_symmetry_space_group_name_H-M   'P 1'
_cell_length_a   5.74762081
_cell_length_b   5.74762081
_cell_length_c   5.74762081
_cell_angle_alpha   138.44444614
_cell_angle_beta   138.44444614
_cell_angle_gamma   60.22298612
_symmetry_Int_Tables_number   1
_chemical_formula_structural   EuSiNi2Ge
_chemical_formula_sum   'Eu1 Si1 Ni2 Ge1'
_cell_volume   82.67932106
_cell_formula_units_Z   1
loop_
 _symmetry_equiv_pos_site_id
 _symmetry_equiv_pos_as_xyz
  1  'x, y, z'
loop_
 _atom_site_type_symbol
 _atom_site_label
 _atom_site_symmetry_multiplicity
 _atom_site_fract_x
 _atom_site_fract_y
 _atom_site_fract_z
 _atom_site_occupancy
  Eu  Eu0  1  0.99899000  0.99899000  0.00000000  1
  Si  Si1  1  0.36357700  0.36357700  0.00000000  1
  Ni  Ni2  1  0.75454400  0.25454400  0.50000000  1
  Ni  Ni3  1  0.25454400  0.75454400  0.50000000  1
  Ge  Ge4  1  0.62834400  0.62834400  0.00000000  1
