# generated using pymatgen
data_Tb2Si2O7
_symmetry_space_group_name_H-M   'P 1'
_cell_length_a   6.68614000
_cell_length_b   6.71931042
_cell_length_c   12.18556651
_cell_angle_alpha   94.24139773
_cell_angle_beta   91.20502160
_cell_angle_gamma   91.85688175
_symmetry_Int_Tables_number   1
_chemical_formula_structural   Tb2Si2O7
_chemical_formula_sum   'Tb8 Si8 O28'
_cell_volume   545.51508094
_cell_formula_units_Z   4
loop_
 _symmetry_equiv_pos_site_id
 _symmetry_equiv_pos_as_xyz
  1  'x, y, z'
loop_
 _atom_site_type_symbol
 _atom_site_label
 _atom_site_symmetry_multiplicity
 _atom_site_fract_x
 _atom_site_fract_y
 _atom_site_fract_z
 _atom_site_occupancy
  Tb  Tb0  1  0.67241100  0.17379200  0.89154600  1
  Tb  Tb1  1  0.32758900  0.82620800  0.10845400  1
  Tb  Tb2  1  0.36678600  0.22212100  0.63326300  1
  Tb  Tb3  1  0.63321400  0.77787900  0.36673700  1
  Tb  Tb4  1  0.88176900  0.91146200  0.64270100  1
  Tb  Tb5  1  0.11823100  0.08853800  0.35729900  1
  Tb  Tb6  1  0.94831900  0.67321500  0.88468700  1
  Tb  Tb7  1  0.05168100  0.32678500  0.11531300  1
  Si  Si8  1  0.14611600  0.62494500  0.37994000  1
  Si  Si9  1  0.85388400  0.37505500  0.62006000  1
  Si  Si10  1  0.37636700  0.72730300  0.59435600  1
  Si  Si11  1  0.62363300  0.27269700  0.40564400  1
  Si  Si12  1  0.48750500  0.66740000  0.82474100  1
  Si  Si13  1  0.51249500  0.33260000  0.17525900  1
  Si  Si14  1  0.15415000  0.14920100  0.88457600  1
  Si  Si15  1  0.84585000  0.85079900  0.11542400  1
  O  O16  1  0.00069500  0.98747700  0.81494200  1
  O  O17  1  0.99930500  0.01252300  0.18505800  1
  O  O18  1  0.99973400  0.33339600  0.91835500  1
  O  O19  1  0.00026600  0.66660400  0.08164500  1
  O  O20  1  0.34694800  0.21039900  0.81437600  1
  O  O21  1  0.65305200  0.78960100  0.18562400  1
  O  O22  1  0.23038800  0.08488900  0.00419600  1
  O  O23  1  0.76961200  0.91511100  0.99580400  1
  O  O24  1  0.07740900  0.41600300  0.31200200  1
  O  O25  1  0.92259100  0.58399700  0.68799800  1
  O  O26  1  0.96425400  0.77028900  0.42125800  1
  O  O27  1  0.03574600  0.22971100  0.57874200  1
  O  O28  1  0.29022000  0.77996100  0.31324100  1
  O  O29  1  0.70978000  0.22003900  0.68675900  1
  O  O30  1  0.28522300  0.57488700  0.49019300  1
  O  O31  1  0.71477700  0.42511300  0.50980700  1
  O  O32  1  0.35652200  0.48794000  0.12677800  1
  O  O33  1  0.64347800  0.51206000  0.87322200  1
  O  O34  1  0.38086600  0.13708800  0.21065200  1
  O  O35  1  0.61913400  0.86291200  0.78934800  1
  O  O36  1  0.69938900  0.29238100  0.09438400  1
  O  O37  1  0.30061100  0.70761900  0.90561600  1
  O  O38  1  0.60064800  0.42780300  0.30510900  1
  O  O39  1  0.39935200  0.57219700  0.69489100  1
  O  O40  1  0.41461500  0.17393300  0.44696500  1
  O  O41  1  0.58538500  0.82606700  0.55303500  1
  O  O42  1  0.77343000  0.09369800  0.37790000  1
  O  O43  1  0.22657000  0.90630200  0.62210000  1
