# generated using pymatgen
data_HoNiGe3
_symmetry_space_group_name_H-M   'P 1'
_cell_length_a   10.97532193
_cell_length_b   10.97532193
_cell_length_c   4.09015200
_cell_angle_alpha   90.00000000
_cell_angle_beta   90.00000000
_cell_angle_gamma   158.45429370
_symmetry_Int_Tables_number   1
_chemical_formula_structural   HoNiGe3
_chemical_formula_sum   'Ho2 Ni2 Ge6'
_cell_volume   180.93721339
_cell_formula_units_Z   2
loop_
 _symmetry_equiv_pos_site_id
 _symmetry_equiv_pos_as_xyz
  1  'x, y, z'
loop_
 _atom_site_type_symbol
 _atom_site_label
 _atom_site_symmetry_multiplicity
 _atom_site_fract_x
 _atom_site_fract_y
 _atom_site_fract_z
 _atom_site_occupancy
  Ho  Ho0  1  0.16879100  0.83120900  0.50000000  1
  Ho  Ho1  1  0.83120900  0.16879100  0.50000000  1
  Ni  Ni2  1  0.38934600  0.61065400  0.00000000  1
  Ni  Ni3  1  0.61065400  0.38934600  0.00000000  1
  Ge  Ge4  1  0.28313700  0.71686300  0.00000000  1
  Ge  Ge5  1  0.71686300  0.28313700  0.00000000  1
  Ge  Ge6  1  0.44250800  0.55749200  0.50000000  1
  Ge  Ge7  1  0.55749200  0.44250800  0.50000000  1
  Ge  Ge8  1  0.05760100  0.94239900  0.00000000  1
  Ge  Ge9  1  0.94239900  0.05760100  0.00000000  1
