# generated using pymatgen
data_PrGaNi
_symmetry_space_group_name_H-M   'P 1'
_cell_length_a   4.37322600
_cell_length_b   7.11610500
_cell_length_c   7.51838100
_cell_angle_alpha   90.00000000
_cell_angle_beta   90.00000000
_cell_angle_gamma   90.00000000
_symmetry_Int_Tables_number   1
_chemical_formula_structural   PrGaNi
_chemical_formula_sum   'Pr4 Ga4 Ni4'
_cell_volume   233.97453842
_cell_formula_units_Z   4
loop_
 _symmetry_equiv_pos_site_id
 _symmetry_equiv_pos_as_xyz
  1  'x, y, z'
loop_
 _atom_site_type_symbol
 _atom_site_label
 _atom_site_symmetry_multiplicity
 _atom_site_fract_x
 _atom_site_fract_y
 _atom_site_fract_z
 _atom_site_occupancy
  Pr  Pr0  1  0.25000000  0.02250200  0.80027200  1
  Pr  Pr1  1  0.25000000  0.52250200  0.69972800  1
  Pr  Pr2  1  0.75000000  0.97749800  0.19972800  1
  Pr  Pr3  1  0.75000000  0.47749800  0.30027200  1
  Ga  Ga4  1  0.25000000  0.17874900  0.41983200  1
  Ga  Ga5  1  0.25000000  0.67874900  0.08016800  1
  Ga  Ga6  1  0.75000000  0.82125100  0.58016800  1
  Ga  Ga7  1  0.75000000  0.32125100  0.91983200  1
  Ni  Ni8  1  0.25000000  0.79842000  0.41009000  1
  Ni  Ni9  1  0.25000000  0.29842000  0.08991000  1
  Ni  Ni10  1  0.75000000  0.20158000  0.58991000  1
  Ni  Ni11  1  0.75000000  0.70158000  0.91009000  1
