# generated using pymatgen
data_BaNb2Xe5F22
_symmetry_space_group_name_H-M   'P 1'
_cell_length_a   10.08458493
_cell_length_b   9.51850679
_cell_length_c   9.42126006
_cell_angle_alpha   64.34063963
_cell_angle_beta   58.29736744
_cell_angle_gamma   57.36199293
_symmetry_Int_Tables_number   1
_chemical_formula_structural   BaNb2Xe5F22
_chemical_formula_sum   'Ba1 Nb2 Xe5 F22'
_cell_volume   633.63276950
_cell_formula_units_Z   1
loop_
 _symmetry_equiv_pos_site_id
 _symmetry_equiv_pos_as_xyz
  1  'x, y, z'
loop_
 _atom_site_type_symbol
 _atom_site_label
 _atom_site_symmetry_multiplicity
 _atom_site_fract_x
 _atom_site_fract_y
 _atom_site_fract_z
 _atom_site_occupancy
  Ba  Ba0  1  0.50000000  0.50000000  0.50000000  1
  Nb  Nb1  1  0.00000000  0.50000000  0.00000000  1
  Nb  Nb2  1  0.50000000  0.00000000  0.50000000  1
  Xe  Xe3  1  0.00000000  0.00000000  0.00000000  1
  Xe  Xe4  1  0.00000000  0.00000000  0.50000000  1
  Xe  Xe5  1  0.50000000  0.50000000  0.00000000  1
  Xe  Xe6  1  0.00000000  0.50000000  0.50000000  1
  Xe  Xe7  1  0.50000000  0.00000000  0.00000000  1
  F  F8  1  0.14631200  0.85368800  0.14631200  1
  F  F9  1  0.85368800  0.14631200  0.85368800  1
  F  F10  1  0.19943000  0.80057000  0.57223100  1
  F  F11  1  0.42776900  0.57223100  0.80057000  1
  F  F12  1  0.57223100  0.42776900  0.19943000  1
  F  F13  1  0.80057000  0.19943000  0.42776900  1
  F  F14  1  0.80337500  0.44329200  0.55670800  1
  F  F15  1  0.19662500  0.55670800  0.44329200  1
  F  F16  1  0.55670800  0.19662500  0.80337500  1
  F  F17  1  0.44329200  0.80337500  0.19662500  1
  F  F18  1  0.20710200  0.45480100  0.79289800  1
  F  F19  1  0.54519900  0.79289800  0.45480100  1
  F  F20  1  0.79289800  0.54519900  0.20710200  1
  F  F21  1  0.45480100  0.20710200  0.54519900  1
  F  F22  1  0.91249900  0.73913200  0.89371100  1
  F  F23  1  0.45465800  0.89371100  0.73913200  1
  F  F24  1  0.89371100  0.45465800  0.91249900  1
  F  F25  1  0.73913200  0.91249900  0.45465800  1
  F  F26  1  0.08750100  0.26086800  0.10628900  1
  F  F27  1  0.54534200  0.10628900  0.26086800  1
  F  F28  1  0.10628900  0.54534200  0.08750100  1
  F  F29  1  0.26086800  0.08750100  0.54534200  1
