# generated using pymatgen
data_Er10In20Ni9
_symmetry_space_group_name_H-M   'P 1'
_cell_length_a   13.42703000
_cell_length_b   13.42703000
_cell_length_c   9.01267100
_cell_angle_alpha   90.00000000
_cell_angle_beta   90.00000000
_cell_angle_gamma   90.00000000
_symmetry_Int_Tables_number   1
_chemical_formula_structural   Er10In20Ni9
_chemical_formula_sum   'Er20 In40 Ni18'
_cell_volume   1624.85060453
_cell_formula_units_Z   2
loop_
 _symmetry_equiv_pos_site_id
 _symmetry_equiv_pos_as_xyz
  1  'x, y, z'
loop_
 _atom_site_type_symbol
 _atom_site_label
 _atom_site_symmetry_multiplicity
 _atom_site_fract_x
 _atom_site_fract_y
 _atom_site_fract_z
 _atom_site_occupancy
  Er  Er0  1  0.50000000  0.00000000  0.36044300  1
  Er  Er1  1  0.00000000  0.50000000  0.63955700  1
  Er  Er2  1  0.50000000  0.00000000  0.83757100  1
  Er  Er3  1  0.00000000  0.50000000  0.16242900  1
  Er  Er4  1  0.50000000  0.27650100  0.76734800  1
  Er  Er5  1  0.50000000  0.72349900  0.76734800  1
  Er  Er6  1  0.77650100  0.00000000  0.76734800  1
  Er  Er7  1  0.22349900  0.00000000  0.76734800  1
  Er  Er8  1  0.00000000  0.22349900  0.23265200  1
  Er  Er9  1  0.00000000  0.77650100  0.23265200  1
  Er  Er10  1  0.72349900  0.50000000  0.23265200  1
  Er  Er11  1  0.27650100  0.50000000  0.23265200  1
  Er  Er12  1  0.70280100  0.20280100  0.26554600  1
  Er  Er13  1  0.70280100  0.79719900  0.26554600  1
  Er  Er14  1  0.29719900  0.20280100  0.26554600  1
  Er  Er15  1  0.29719900  0.79719900  0.26554600  1
  Er  Er16  1  0.79719900  0.29719900  0.73445400  1
  Er  Er17  1  0.79719900  0.70280100  0.73445400  1
  Er  Er18  1  0.20280100  0.29719900  0.73445400  1
  Er  Er19  1  0.20280100  0.70280100  0.73445400  1
  In  In20  1  0.34654300  0.65345700  0.00000000  1
  In  In21  1  0.34654300  0.34654300  0.00000000  1
  In  In22  1  0.65345700  0.65345700  0.00000000  1
  In  In23  1  0.65345700  0.34654300  0.00000000  1
  In  In24  1  0.15345700  0.84654300  0.00000000  1
  In  In25  1  0.15345700  0.15345700  0.00000000  1
  In  In26  1  0.84654300  0.84654300  0.00000000  1
  In  In27  1  0.84654300  0.15345700  0.00000000  1
  In  In28  1  0.86884000  0.13116000  0.50000000  1
  In  In29  1  0.86884000  0.86884000  0.50000000  1
  In  In30  1  0.13116000  0.13116000  0.50000000  1
  In  In31  1  0.13116000  0.86884000  0.50000000  1
  In  In32  1  0.63116000  0.36884000  0.50000000  1
  In  In33  1  0.63116000  0.63116000  0.50000000  1
  In  In34  1  0.36884000  0.36884000  0.50000000  1
  In  In35  1  0.36884000  0.63116000  0.50000000  1
  In  In36  1  0.50000000  0.83347000  0.09359200  1
  In  In37  1  0.50000000  0.16653000  0.09359200  1
  In  In38  1  0.33347000  0.00000000  0.09359200  1
  In  In39  1  0.66653000  0.00000000  0.09359200  1
  In  In40  1  0.00000000  0.66653000  0.90640800  1
  In  In41  1  0.00000000  0.33347000  0.90640800  1
  In  In42  1  0.16653000  0.50000000  0.90640800  1
  In  In43  1  0.83347000  0.50000000  0.90640800  1
  In  In44  1  0.63193000  0.13193000  0.59021700  1
  In  In45  1  0.63193000  0.86807000  0.59021700  1
  In  In46  1  0.36807000  0.13193000  0.59021700  1
  In  In47  1  0.36807000  0.86807000  0.59021700  1
  In  In48  1  0.86807000  0.36807000  0.40978300  1
  In  In49  1  0.86807000  0.63193000  0.40978300  1
  In  In50  1  0.13193000  0.36807000  0.40978300  1
  In  In51  1  0.13193000  0.63193000  0.40978300  1
  In  In52  1  0.50000000  0.61608600  0.23565300  1
  In  In53  1  0.50000000  0.38391400  0.23565300  1
  In  In54  1  0.11608600  0.00000000  0.23565300  1
  In  In55  1  0.88391400  0.00000000  0.23565300  1
  In  In56  1  0.00000000  0.88391400  0.76434700  1
  In  In57  1  0.00000000  0.11608600  0.76434700  1
  In  In58  1  0.38391400  0.50000000  0.76434700  1
  In  In59  1  0.61608600  0.50000000  0.76434700  1
  Ni  Ni60  1  0.50000000  0.50000000  0.00000000  1
  Ni  Ni61  1  0.00000000  0.00000000  0.00000000  1
  Ni  Ni62  1  0.50000000  0.77691600  0.40935000  1
  Ni  Ni63  1  0.50000000  0.22308400  0.40935000  1
  Ni  Ni64  1  0.27691600  0.00000000  0.40935000  1
  Ni  Ni65  1  0.72308400  0.00000000  0.40935000  1
  Ni  Ni66  1  0.00000000  0.72308400  0.59065000  1
  Ni  Ni67  1  0.00000000  0.27691600  0.59065000  1
  Ni  Ni68  1  0.22308400  0.50000000  0.59065000  1
  Ni  Ni69  1  0.77691600  0.50000000  0.59065000  1
  Ni  Ni70  1  0.84405700  0.34405700  0.10190100  1
  Ni  Ni71  1  0.84405700  0.65594300  0.10190100  1
  Ni  Ni72  1  0.15594300  0.34405700  0.10190100  1
  Ni  Ni73  1  0.15594300  0.65594300  0.10190100  1
  Ni  Ni74  1  0.65594300  0.15594300  0.89809900  1
  Ni  Ni75  1  0.65594300  0.84405700  0.89809900  1
  Ni  Ni76  1  0.34405700  0.15594300  0.89809900  1
  Ni  Ni77  1  0.34405700  0.84405700  0.89809900  1
