# generated using pymatgen
data_Sc4C3
_symmetry_space_group_name_H-M   'P 1'
_cell_length_a   6.25822866
_cell_length_b   6.25822866
_cell_length_c   6.25822866
_cell_angle_alpha   109.47122063
_cell_angle_beta   109.47122063
_cell_angle_gamma   109.47122063
_symmetry_Int_Tables_number   1
_chemical_formula_structural   Sc4C3
_chemical_formula_sum   'Sc8 C6'
_cell_volume   188.68283375
_cell_formula_units_Z   2
loop_
 _symmetry_equiv_pos_site_id
 _symmetry_equiv_pos_as_xyz
  1  'x, y, z'
loop_
 _atom_site_type_symbol
 _atom_site_label
 _atom_site_symmetry_multiplicity
 _atom_site_fract_x
 _atom_site_fract_y
 _atom_site_fract_z
 _atom_site_occupancy
  Sc  Sc0  1  0.50000000  0.00000000  0.40143200  1
  Sc  Sc1  1  0.59856800  0.59856800  0.59856800  1
  Sc  Sc2  1  0.00000000  0.40143200  0.50000000  1
  Sc  Sc3  1  0.40143200  0.50000000  0.00000000  1
  Sc  Sc4  1  0.00000000  0.90143200  0.50000000  1
  Sc  Sc5  1  0.90143200  0.50000000  0.00000000  1
  Sc  Sc6  1  0.50000000  0.00000000  0.90143200  1
  Sc  Sc7  1  0.09856800  0.09856800  0.09856800  1
  C  C8  1  0.87500000  0.12500000  0.75000000  1
  C  C9  1  0.37500000  0.25000000  0.62500000  1
  C  C10  1  0.12500000  0.75000000  0.87500000  1
  C  C11  1  0.75000000  0.87500000  0.12500000  1
  C  C12  1  0.25000000  0.62500000  0.37500000  1
  C  C13  1  0.62500000  0.37500000  0.25000000  1
