# generated using pymatgen
data_Li6Sm(BO3)3
_symmetry_space_group_name_H-M   'P 1'
_cell_length_a   16.59493500
_cell_length_b   6.78963500
_cell_length_c   7.32250445
_cell_angle_alpha   74.28313376
_cell_angle_beta   90.00000000
_cell_angle_gamma   90.00000000
_symmetry_Int_Tables_number   1
_chemical_formula_structural   Li6Sm(BO3)3
_chemical_formula_sum   'Li24 Sm4 B12 O36'
_cell_volume   794.20555533
_cell_formula_units_Z   4
loop_
 _symmetry_equiv_pos_site_id
 _symmetry_equiv_pos_as_xyz
  1  'x, y, z'
loop_
 _atom_site_type_symbol
 _atom_site_label
 _atom_site_symmetry_multiplicity
 _atom_site_fract_x
 _atom_site_fract_y
 _atom_site_fract_z
 _atom_site_occupancy
  Li  Li0  1  0.96613500  0.94615000  0.19330900  1
  Li  Li1  1  0.03386500  0.05385000  0.80669100  1
  Li  Li2  1  0.46613500  0.55385000  0.80669100  1
  Li  Li3  1  0.53386500  0.44615000  0.19330900  1
  Li  Li4  1  0.55434900  0.91124100  0.63725300  1
  Li  Li5  1  0.44565100  0.08875900  0.36274700  1
  Li  Li6  1  0.05434900  0.58875900  0.36274700  1
  Li  Li7  1  0.94565100  0.41124100  0.63725300  1
  Li  Li8  1  0.46997800  0.83132200  0.04303400  1
  Li  Li9  1  0.53002200  0.16867800  0.95696600  1
  Li  Li10  1  0.96997800  0.66867800  0.95696600  1
  Li  Li11  1  0.03002200  0.33132200  0.04303400  1
  Li  Li12  1  0.70685300  0.86518900  0.79049900  1
  Li  Li13  1  0.29314700  0.13481100  0.20950100  1
  Li  Li14  1  0.20685300  0.63481100  0.20950100  1
  Li  Li15  1  0.79314700  0.36518900  0.79049900  1
  Li  Li16  1  0.79660000  0.95503500  0.06073500  1
  Li  Li17  1  0.20340000  0.04496500  0.93926500  1
  Li  Li18  1  0.29660000  0.54496500  0.93926500  1
  Li  Li19  1  0.70340000  0.45503500  0.06073500  1
  Li  Li20  1  0.99565700  0.82292500  0.57438900  1
  Li  Li21  1  0.00434300  0.17707500  0.42561100  1
  Li  Li22  1  0.49565700  0.67707500  0.42561100  1
  Li  Li23  1  0.50434300  0.32292500  0.57438900  1
  Sm  Sm24  1  0.68991000  0.65262400  0.42217700  1
  Sm  Sm25  1  0.31009000  0.34737600  0.57782300  1
  Sm  Sm26  1  0.18991000  0.84737600  0.57782300  1
  Sm  Sm27  1  0.81009000  0.15262400  0.42217700  1
  B  B28  1  0.88100200  0.00070400  0.79066900  1
  B  B29  1  0.11899800  0.99929600  0.20933100  1
  B  B30  1  0.38100200  0.49929600  0.20933100  1
  B  B31  1  0.61899800  0.50070400  0.79066900  1
  B  B32  1  0.61526500  0.81253500  0.05913200  1
  B  B33  1  0.38473500  0.18746500  0.94086800  1
  B  B34  1  0.11526500  0.68746500  0.94086800  1
  B  B35  1  0.88473500  0.31253500  0.05913200  1
  B  B36  1  0.86591000  0.66210700  0.41825900  1
  B  B37  1  0.13409000  0.33789300  0.58174100  1
  B  B38  1  0.36591000  0.83789300  0.58174100  1
  B  B39  1  0.63409000  0.16210700  0.41825900  1
  O  O40  1  0.94766400  0.67525700  0.41427000  1
  O  O41  1  0.05233600  0.32474300  0.58573000  1
  O  O42  1  0.44766400  0.82474300  0.58573000  1
  O  O43  1  0.55233600  0.17525700  0.41427000  1
  O  O44  1  0.69794400  0.77456400  0.07647500  1
  O  O45  1  0.30205600  0.22543600  0.92352500  1
  O  O46  1  0.19794400  0.72543600  0.92352500  1
  O  O47  1  0.80205600  0.27456400  0.07647500  1
  O  O48  1  0.81667000  0.83327500  0.35183900  1
  O  O49  1  0.18333000  0.16672500  0.64816100  1
  O  O50  1  0.31667000  0.66672500  0.64816100  1
  O  O51  1  0.68333000  0.33327500  0.35183900  1
  O  O52  1  0.56847100  0.72976700  0.22060400  1
  O  O53  1  0.43152900  0.27023300  0.77939600  1
  O  O54  1  0.06847100  0.77023300  0.77939600  1
  O  O55  1  0.93152900  0.22976700  0.22060400  1
  O  O56  1  0.41387600  0.58611300  0.03454100  1
  O  O57  1  0.58612400  0.41388700  0.96545900  1
  O  O58  1  0.91387600  0.91388700  0.96545900  1
  O  O59  1  0.08612400  0.08611300  0.03454100  1
  O  O60  1  0.57900700  0.92527800  0.89424800  1
  O  O61  1  0.42099300  0.07472200  0.10575200  1
  O  O62  1  0.07900700  0.57472200  0.10575200  1
  O  O63  1  0.92099300  0.42527800  0.89424800  1
  O  O64  1  0.42760200  0.45716200  0.37465800  1
  O  O65  1  0.57239800  0.54283800  0.62534200  1
  O  O66  1  0.92760200  0.04283800  0.62534200  1
  O  O67  1  0.07239800  0.95716200  0.37465800  1
  O  O68  1  0.67290600  0.97488500  0.49842400  1
  O  O69  1  0.32709400  0.02511500  0.50157600  1
  O  O70  1  0.17290600  0.52511500  0.50157600  1
  O  O71  1  0.82709400  0.47488500  0.49842400  1
  O  O72  1  0.20049100  0.94467500  0.23258400  1
  O  O73  1  0.79950900  0.05532500  0.76741600  1
  O  O74  1  0.70049100  0.55532500  0.76741600  1
  O  O75  1  0.29950900  0.44467500  0.23258400  1
