# generated using pymatgen
data_Ta11(SiSe4)2
_symmetry_space_group_name_H-M   'P 1'
_cell_length_a   3.49357000
_cell_length_b   11.98273400
_cell_length_c   19.53390000
_cell_angle_alpha   90.00000000
_cell_angle_beta   90.00000000
_cell_angle_gamma   90.00000000
_symmetry_Int_Tables_number   1
_chemical_formula_structural   Ta11(SiSe4)2
_chemical_formula_sum   'Ta22 Si4 Se16'
_cell_volume   817.73827983
_cell_formula_units_Z   2
loop_
 _symmetry_equiv_pos_site_id
 _symmetry_equiv_pos_as_xyz
  1  'x, y, z'
loop_
 _atom_site_type_symbol
 _atom_site_label
 _atom_site_symmetry_multiplicity
 _atom_site_fract_x
 _atom_site_fract_y
 _atom_site_fract_z
 _atom_site_occupancy
  Ta  Ta0  1  0.00000000  0.56232800  0.11341500  1
  Ta  Ta1  1  0.00000000  0.43767200  0.88658500  1
  Ta  Ta2  1  0.50000000  0.93767200  0.61341500  1
  Ta  Ta3  1  0.50000000  0.06232800  0.38658500  1
  Ta  Ta4  1  0.00000000  0.32016700  0.04663800  1
  Ta  Ta5  1  0.00000000  0.67983300  0.95336200  1
  Ta  Ta6  1  0.50000000  0.17983300  0.54663800  1
  Ta  Ta7  1  0.50000000  0.82016700  0.45336200  1
  Ta  Ta8  1  0.00000000  0.04596400  0.25798200  1
  Ta  Ta9  1  0.00000000  0.95403600  0.74201800  1
  Ta  Ta10  1  0.50000000  0.45403600  0.75798200  1
  Ta  Ta11  1  0.50000000  0.54596400  0.24201800  1
  Ta  Ta12  1  0.00000000  0.00000000  0.50000000  1
  Ta  Ta13  1  0.50000000  0.50000000  0.00000000  1
  Ta  Ta14  1  0.00000000  0.33733600  0.21328400  1
  Ta  Ta15  1  0.00000000  0.66266400  0.78671600  1
  Ta  Ta16  1  0.50000000  0.16266400  0.71328400  1
  Ta  Ta17  1  0.50000000  0.83733600  0.28671600  1
  Ta  Ta18  1  0.00000000  0.32323900  0.64403000  1
  Ta  Ta19  1  0.00000000  0.67676100  0.35597000  1
  Ta  Ta20  1  0.50000000  0.17676100  0.14403000  1
  Ta  Ta21  1  0.50000000  0.82323900  0.85597000  1
  Si  Si22  1  0.00000000  0.09414700  0.62784200  1
  Si  Si23  1  0.00000000  0.90585300  0.37215800  1
  Si  Si24  1  0.50000000  0.40585300  0.12784200  1
  Si  Si25  1  0.50000000  0.59414700  0.87215800  1
  Se  Se26  1  0.00000000  0.71316500  0.21387800  1
  Se  Se27  1  0.00000000  0.28683500  0.78612200  1
  Se  Se28  1  0.50000000  0.78683500  0.71387800  1
  Se  Se29  1  0.50000000  0.21316500  0.28612200  1
  Se  Se30  1  0.00000000  0.10740500  0.05358700  1
  Se  Se31  1  0.00000000  0.89259500  0.94641300  1
  Se  Se32  1  0.50000000  0.39259500  0.55358700  1
  Se  Se33  1  0.50000000  0.60740500  0.44641300  1
  Se  Se34  1  0.00000000  0.21178900  0.44199900  1
  Se  Se35  1  0.00000000  0.78821100  0.55800100  1
  Se  Se36  1  0.50000000  0.28821100  0.94199900  1
  Se  Se37  1  0.50000000  0.71178900  0.05800100  1
  Se  Se38  1  0.00000000  0.45765400  0.32741900  1
  Se  Se39  1  0.00000000  0.54234600  0.67258100  1
  Se  Se40  1  0.50000000  0.04234600  0.82741900  1
  Se  Se41  1  0.50000000  0.95765400  0.17258100  1
