# generated using pymatgen
data_YPaO4
_symmetry_space_group_name_H-M   'P 1'
_cell_length_a   6.60920138
_cell_length_b   6.60920138
_cell_length_c   6.60920138
_cell_angle_alpha   131.74294091
_cell_angle_beta   131.74294091
_cell_angle_gamma   70.63532801
_symmetry_Int_Tables_number   1
_chemical_formula_structural   YPaO4
_chemical_formula_sum   'Y2 Pa2 O8'
_cell_volume   157.45819733
_cell_formula_units_Z   2
loop_
 _symmetry_equiv_pos_site_id
 _symmetry_equiv_pos_as_xyz
  1  'x, y, z'
loop_
 _atom_site_type_symbol
 _atom_site_label
 _atom_site_symmetry_multiplicity
 _atom_site_fract_x
 _atom_site_fract_y
 _atom_site_fract_z
 _atom_site_occupancy
  Y  Y0  1  0.00000000  0.00000000  0.00000000  1
  Y  Y1  1  0.75000000  0.25000000  0.50000000  1
  Pa  Pa2  1  0.50000000  0.50000000  0.00000000  1
  Pa  Pa3  1  0.25000000  0.75000000  0.50000000  1
  O  O4  1  0.37500000  0.38621200  0.51121200  1
  O  O5  1  0.87500000  0.86378800  0.48878800  1
  O  O6  1  0.13621200  0.12500000  0.51121200  1
  O  O7  1  0.61378800  0.12500000  0.98878800  1
  O  O8  1  0.87500000  0.38621200  0.01121200  1
  O  O9  1  0.61378800  0.62500000  0.48878800  1
  O  O10  1  0.13621200  0.62500000  0.01121200  1
  O  O11  1  0.37500000  0.86378800  0.98878800  1
