# generated using pymatgen
data_Ba3Ca3(MoN4)2
_symmetry_space_group_name_H-M   'P 1'
_cell_length_a   9.70586400
_cell_length_b   10.36019400
_cell_length_c   11.90264300
_cell_angle_alpha   90.00000000
_cell_angle_beta   90.00000000
_cell_angle_gamma   90.00000000
_symmetry_Int_Tables_number   1
_chemical_formula_structural   Ba3Ca3(MoN4)2
_chemical_formula_sum   'Ba12 Ca12 Mo8 N32'
_cell_volume   1196.86591023
_cell_formula_units_Z   4
loop_
 _symmetry_equiv_pos_site_id
 _symmetry_equiv_pos_as_xyz
  1  'x, y, z'
loop_
 _atom_site_type_symbol
 _atom_site_label
 _atom_site_symmetry_multiplicity
 _atom_site_fract_x
 _atom_site_fract_y
 _atom_site_fract_z
 _atom_site_occupancy
  Ba  Ba0  1  0.31430900  0.76238100  0.61665100  1
  Ba  Ba1  1  0.18569100  0.26238100  0.38334900  1
  Ba  Ba2  1  0.81430900  0.23761900  0.88334900  1
  Ba  Ba3  1  0.68569100  0.73761900  0.11665100  1
  Ba  Ba4  1  0.68111600  0.23280500  0.37966300  1
  Ba  Ba5  1  0.81888400  0.73280500  0.62033700  1
  Ba  Ba6  1  0.18111600  0.76719500  0.12033700  1
  Ba  Ba7  1  0.31888400  0.26719500  0.87966300  1
  Ba  Ba8  1  0.62845200  0.02849300  0.64761000  1
  Ba  Ba9  1  0.87154800  0.52849300  0.35239000  1
  Ba  Ba10  1  0.12845200  0.97150700  0.85239000  1
  Ba  Ba11  1  0.37154800  0.47150700  0.14761000  1
  Ca  Ca12  1  0.96763500  0.12174100  0.59990600  1
  Ca  Ca13  1  0.53236500  0.62174100  0.40009400  1
  Ca  Ca14  1  0.46763500  0.87825900  0.90009400  1
  Ca  Ca15  1  0.03236500  0.37825900  0.09990600  1
  Ca  Ca16  1  0.03132200  0.88101100  0.39588000  1
  Ca  Ca17  1  0.46867800  0.38101100  0.60412000  1
  Ca  Ca18  1  0.53132200  0.11898900  0.10412000  1
  Ca  Ca19  1  0.96867800  0.61898900  0.89588000  1
  Ca  Ca20  1  0.38629000  0.95512600  0.36482300  1
  Ca  Ca21  1  0.11371000  0.45512600  0.63517700  1
  Ca  Ca22  1  0.88629000  0.04487400  0.13517700  1
  Ca  Ca23  1  0.61371000  0.54487400  0.86482300  1
  Mo  Mo24  1  0.29307100  0.09872700  0.61131400  1
  Mo  Mo25  1  0.20692900  0.59872700  0.38868600  1
  Mo  Mo26  1  0.79307100  0.90127300  0.88868600  1
  Mo  Mo27  1  0.70692900  0.40127300  0.11131400  1
  Mo  Mo28  1  0.70428900  0.90524300  0.37960700  1
  Mo  Mo29  1  0.79571100  0.40524300  0.62039300  1
  Mo  Mo30  1  0.20428900  0.09475700  0.12039300  1
  Mo  Mo31  1  0.29571100  0.59475700  0.87960700  1
  N  N32  1  0.37489600  0.99952100  0.72711300  1
  N  N33  1  0.12510400  0.49952100  0.27288700  1
  N  N34  1  0.87489600  0.00047900  0.77288700  1
  N  N35  1  0.62510400  0.50047900  0.22711300  1
  N  N36  1  0.61137000  0.00395000  0.27055800  1
  N  N37  1  0.88863000  0.50395000  0.72944200  1
  N  N38  1  0.11137000  0.99605000  0.22944200  1
  N  N39  1  0.38863000  0.49605000  0.77055800  1
  N  N40  1  0.18616800  0.23204300  0.67400000  1
  N  N41  1  0.31383200  0.73204300  0.32600000  1
  N  N42  1  0.68616800  0.76795700  0.82600000  1
  N  N43  1  0.81383200  0.26795700  0.17400000  1
  N  N44  1  0.81497400  0.77936500  0.31425900  1
  N  N45  1  0.68502600  0.27936500  0.68574100  1
  N  N46  1  0.31497400  0.22063500  0.18574100  1
  N  N47  1  0.18502600  0.72063500  0.81425900  1
  N  N48  1  0.17472500  0.99220100  0.52690700  1
  N  N49  1  0.32527500  0.49220100  0.47309300  1
  N  N50  1  0.67472500  0.00779900  0.97309300  1
  N  N51  1  0.82527500  0.50779900  0.02690700  1
  N  N52  1  0.82413900  0.01034300  0.46530100  1
  N  N53  1  0.67586100  0.51034300  0.53469900  1
  N  N54  1  0.32413900  0.98965700  0.03469900  1
  N  N55  1  0.17586100  0.48965700  0.96530100  1
  N  N56  1  0.42816600  0.16329800  0.51247900  1
  N  N57  1  0.07183400  0.66329800  0.48752100  1
  N  N58  1  0.92816600  0.83670200  0.98752100  1
  N  N59  1  0.57183400  0.33670200  0.01247900  1
  N  N60  1  0.56761200  0.83614000  0.47607000  1
  N  N61  1  0.93238800  0.33614000  0.52393000  1
  N  N62  1  0.06761200  0.16386000  0.02393000  1
  N  N63  1  0.43238800  0.66386000  0.97607000  1
