# generated using pymatgen
data_Li5In4
_symmetry_space_group_name_H-M   'P 1'
_cell_length_a   4.77484469
_cell_length_b   4.77484469
_cell_length_c   8.97549700
_cell_angle_alpha   90.00000000
_cell_angle_beta   90.00000000
_cell_angle_gamma   120.00000956
_symmetry_Int_Tables_number   1
_chemical_formula_structural   Li5In4
_chemical_formula_sum   'Li5 In4'
_cell_volume   177.21790407
_cell_formula_units_Z   1
loop_
 _symmetry_equiv_pos_site_id
 _symmetry_equiv_pos_as_xyz
  1  'x, y, z'
loop_
 _atom_site_type_symbol
 _atom_site_label
 _atom_site_symmetry_multiplicity
 _atom_site_fract_x
 _atom_site_fract_y
 _atom_site_fract_z
 _atom_site_occupancy
  Li  Li0  1  0.66666700  0.33333300  0.38258900  1
  Li  Li1  1  0.33333300  0.66666700  0.61741100  1
  Li  Li2  1  0.00000000  0.00000000  0.50000000  1
  Li  Li3  1  0.66666700  0.33333300  0.04833000  1
  Li  Li4  1  0.33333300  0.66666700  0.95167000  1
  In  In5  1  0.00000000  0.00000000  0.83499400  1
  In  In6  1  0.00000000  0.00000000  0.16500600  1
  In  In7  1  0.66666700  0.33333300  0.70286600  1
  In  In8  1  0.33333300  0.66666700  0.29713400  1
