# generated using pymatgen
data_RbTb(MoO4)2
_symmetry_space_group_name_H-M   'P 1'
_cell_length_a   7.55528701
_cell_length_b   7.55528701
_cell_length_c   7.78514992
_cell_angle_alpha   61.92655392
_cell_angle_beta   61.92655392
_cell_angle_gamma   88.45403584
_symmetry_Int_Tables_number   1
_chemical_formula_structural   RbTb(MoO4)2
_chemical_formula_sum   'Rb2 Tb2 Mo4 O16'
_cell_volume   335.00633399
_cell_formula_units_Z   2
loop_
 _symmetry_equiv_pos_site_id
 _symmetry_equiv_pos_as_xyz
  1  'x, y, z'
loop_
 _atom_site_type_symbol
 _atom_site_label
 _atom_site_symmetry_multiplicity
 _atom_site_fract_x
 _atom_site_fract_y
 _atom_site_fract_z
 _atom_site_occupancy
  Rb  Rb0  1  0.19902500  0.80097500  0.75000000  1
  Rb  Rb1  1  0.80097500  0.19902500  0.25000000  1
  Tb  Tb2  1  0.77068100  0.22931900  0.75000000  1
  Tb  Tb3  1  0.22931900  0.77068100  0.25000000  1
  Mo  Mo4  1  0.69514900  0.69607000  0.76287200  1
  Mo  Mo5  1  0.30485100  0.30393000  0.23712800  1
  Mo  Mo6  1  0.30393000  0.30485100  0.73712800  1
  Mo  Mo7  1  0.69607000  0.69514900  0.26287200  1
  O  O8  1  0.61515300  0.76506300  0.56165400  1
  O  O9  1  0.38484700  0.23493700  0.43834600  1
  O  O10  1  0.23493700  0.38484700  0.93834600  1
  O  O11  1  0.76506300  0.61515300  0.06165400  1
  O  O12  1  0.38335600  0.06849600  0.87466300  1
  O  O13  1  0.61664400  0.93150400  0.12533700  1
  O  O14  1  0.93150400  0.61664400  0.62533700  1
  O  O15  1  0.06849600  0.38335600  0.37466300  1
  O  O16  1  0.58453800  0.36758700  0.97046000  1
  O  O17  1  0.41546200  0.63241300  0.02954000  1
  O  O18  1  0.63241300  0.41546200  0.52954000  1
  O  O19  1  0.36758700  0.58453800  0.47046000  1
  O  O20  1  0.79273800  0.95181100  0.69207200  1
  O  O21  1  0.20726200  0.04818900  0.30792800  1
  O  O22  1  0.04818900  0.20726200  0.80792800  1
  O  O23  1  0.95181100  0.79273800  0.19207200  1
