# generated using pymatgen
data_Sr2CoWO6
_symmetry_space_group_name_H-M   'P 1'
_cell_length_a   5.67187276
_cell_length_b   9.84037627
_cell_length_c   5.67142283
_cell_angle_alpha   73.90117736
_cell_angle_beta   119.89018847
_cell_angle_gamma   106.09637542
_symmetry_Int_Tables_number   1
_chemical_formula_structural   Sr2CoWO6
_chemical_formula_sum   'Sr4 Co2 W2 O12'
_cell_volume   259.97292162
_cell_formula_units_Z   2
loop_
 _symmetry_equiv_pos_site_id
 _symmetry_equiv_pos_as_xyz
  1  'x, y, z'
loop_
 _atom_site_type_symbol
 _atom_site_label
 _atom_site_symmetry_multiplicity
 _atom_site_fract_x
 _atom_site_fract_y
 _atom_site_fract_z
 _atom_site_occupancy
  Sr  Sr0  1  0.87832900  0.12727900  0.12167500  1
  Sr  Sr1  1  0.37680200  0.62697200  0.62316800  1
  Sr  Sr2  1  0.12167300  0.87272200  0.87832300  1
  Sr  Sr3  1  0.62319700  0.37302800  0.37683300  1
  Co  Co4  1  0.50000000  0.00000000  0.50000100  1
  Co  Co5  1  0.00000000  0.49999900  0.00000000  1
  W  W6  1  0.74982000  0.75019900  0.25014700  1
  W  W7  1  0.25018000  0.24980000  0.74985300  1
  O  O8  1  0.83970900  0.59910800  0.16030500  1
  O  O9  1  0.33991900  0.09926900  0.66010200  1
  O  O10  1  0.16029100  0.40089400  0.83969500  1
  O  O11  1  0.66008000  0.90073000  0.33989900  1
  O  O12  1  0.62729700  0.35297800  0.85687400  1
  O  O13  1  0.12678300  0.85343700  0.35534300  1
  O  O14  1  0.37270300  0.64702200  0.14312500  1
  O  O15  1  0.87321600  0.14656400  0.64465700  1
  O  O16  1  0.35533900  0.14652300  0.12685500  1
  O  O17  1  0.85691700  0.64700700  0.62739100  1
  O  O18  1  0.64466100  0.85347800  0.87314600  1
  O  O19  1  0.14308300  0.35299300  0.37260800  1
