# generated using pymatgen
data_LiHoSn
_symmetry_space_group_name_H-M   'P 1'
_cell_length_a   9.35728653
_cell_length_b   9.35728653
_cell_length_c   7.29504900
_cell_angle_alpha   90.00000000
_cell_angle_beta   90.00000000
_cell_angle_gamma   120.00000376
_symmetry_Int_Tables_number   1
_chemical_formula_structural   LiHoSn
_chemical_formula_sum   'Li8 Ho8 Sn8'
_cell_volume   553.17008427
_cell_formula_units_Z   8
loop_
 _symmetry_equiv_pos_site_id
 _symmetry_equiv_pos_as_xyz
  1  'x, y, z'
loop_
 _atom_site_type_symbol
 _atom_site_label
 _atom_site_symmetry_multiplicity
 _atom_site_fract_x
 _atom_site_fract_y
 _atom_site_fract_z
 _atom_site_occupancy
  Li  Li0  1  0.16585200  0.33170500  0.28858700  1
  Li  Li1  1  0.16585200  0.83414800  0.28858700  1
  Li  Li2  1  0.66829500  0.83414800  0.28858700  1
  Li  Li3  1  0.83414800  0.66829500  0.78858700  1
  Li  Li4  1  0.83414800  0.16585200  0.78858700  1
  Li  Li5  1  0.33170500  0.16585200  0.78858700  1
  Li  Li6  1  0.33333300  0.66666700  0.65982500  1
  Li  Li7  1  0.66666700  0.33333300  0.15982500  1
  Ho  Ho8  1  0.51345000  0.02689900  0.49498000  1
  Ho  Ho9  1  0.51345000  0.48655000  0.49498000  1
  Ho  Ho10  1  0.97310100  0.48655000  0.49498000  1
  Ho  Ho11  1  0.48655000  0.97310100  0.99498000  1
  Ho  Ho12  1  0.48655000  0.51345000  0.99498000  1
  Ho  Ho13  1  0.02689900  0.51345000  0.99498000  1
  Ho  Ho14  1  0.00000000  0.00000000  0.50231500  1
  Ho  Ho15  1  0.00000000  0.00000000  0.00231500  1
  Sn  Sn16  1  0.16686500  0.33373100  0.73089800  1
  Sn  Sn17  1  0.16686500  0.83313500  0.73089800  1
  Sn  Sn18  1  0.66626900  0.83313500  0.73089800  1
  Sn  Sn19  1  0.83313500  0.66626900  0.23089800  1
  Sn  Sn20  1  0.83313500  0.16686500  0.23089800  1
  Sn  Sn21  1  0.33373100  0.16686500  0.23089800  1
  Sn  Sn22  1  0.33333300  0.66666700  0.26545000  1
  Sn  Sn23  1  0.66666700  0.33333300  0.76545000  1
