# generated using pymatgen
data_Zn3Ni4(SbO6)2
_symmetry_space_group_name_H-M   'P 1'
_cell_length_a   6.10271126
_cell_length_b   6.10271126
_cell_length_c   13.52596662
_cell_angle_alpha   77.78653653
_cell_angle_beta   77.78653653
_cell_angle_gamma   89.83424421
_symmetry_Int_Tables_number   1
_chemical_formula_structural   Zn3Ni4(SbO6)2
_chemical_formula_sum   'Zn6 Ni8 Sb4 O24'
_cell_volume   480.74099914
_cell_formula_units_Z   2
loop_
 _symmetry_equiv_pos_site_id
 _symmetry_equiv_pos_as_xyz
  1  'x, y, z'
loop_
 _atom_site_type_symbol
 _atom_site_label
 _atom_site_symmetry_multiplicity
 _atom_site_fract_x
 _atom_site_fract_y
 _atom_site_fract_z
 _atom_site_occupancy
  Zn  Zn0  1  0.63526900  0.36473100  0.75000000  1
  Zn  Zn1  1  0.29956900  0.01571000  0.42462100  1
  Zn  Zn2  1  0.98429000  0.70043100  0.07537900  1
  Zn  Zn3  1  0.36473100  0.63526900  0.25000000  1
  Zn  Zn4  1  0.01571000  0.29956900  0.92462100  1
  Zn  Zn5  1  0.70043100  0.98429000  0.57537900  1
  Ni  Ni6  1  0.50000000  0.50000000  0.00000000  1
  Ni  Ni7  1  0.17403200  0.66625700  0.66285300  1
  Ni  Ni8  1  0.82596800  0.33374300  0.33714700  1
  Ni  Ni9  1  0.50000000  0.00000000  0.00000000  1
  Ni  Ni10  1  0.50000000  0.50000000  0.50000000  1
  Ni  Ni11  1  0.00000000  0.50000000  0.50000000  1
  Ni  Ni12  1  0.66625700  0.17403200  0.16285300  1
  Ni  Ni13  1  0.33374300  0.82596800  0.83714700  1
  Sb  Sb14  1  0.17674300  0.17138400  0.66324400  1
  Sb  Sb15  1  0.82325700  0.82861600  0.33675600  1
  Sb  Sb16  1  0.17138400  0.17674300  0.16324400  1
  Sb  Sb17  1  0.82861600  0.82325700  0.83675600  1
  O  O18  1  0.24650100  0.71721600  0.50800400  1
  O  O19  1  0.92266400  0.39102700  0.17334000  1
  O  O20  1  0.59374100  0.05264700  0.83747300  1
  O  O21  1  0.24607600  0.25221300  0.50895500  1
  O  O22  1  0.92167700  0.93092500  0.17522400  1
  O  O23  1  0.59267600  0.60165900  0.83361700  1
  O  O24  1  0.94735300  0.40625900  0.66252700  1
  O  O25  1  0.60897300  0.07733600  0.32666000  1
  O  O26  1  0.28278400  0.75349900  0.99199600  1
  O  O27  1  0.39834100  0.40732400  0.66638300  1
  O  O28  1  0.06907500  0.07832200  0.32477600  1
  O  O29  1  0.74778700  0.75392400  0.99104500  1
  O  O30  1  0.75349900  0.28278400  0.49199600  1
  O  O31  1  0.40625900  0.94735300  0.16252700  1
  O  O32  1  0.07733600  0.60897300  0.82666000  1
  O  O33  1  0.75392400  0.74778700  0.49104500  1
  O  O34  1  0.40732400  0.39834100  0.16638300  1
  O  O35  1  0.07832200  0.06907500  0.82477600  1
  O  O36  1  0.05264700  0.59374100  0.33747300  1
  O  O37  1  0.71721600  0.24650100  0.00800400  1
  O  O38  1  0.39102700  0.92266400  0.67334000  1
  O  O39  1  0.60165900  0.59267600  0.33361700  1
  O  O40  1  0.25221300  0.24607600  0.00895500  1
  O  O41  1  0.93092500  0.92167800  0.67522400  1
