# generated using pymatgen
data_Na3Ca3AlSb4
_symmetry_space_group_name_H-M   'P 1'
_cell_length_a   10.11289031
_cell_length_b   10.11289031
_cell_length_c   7.60009200
_cell_angle_alpha   90.00000000
_cell_angle_beta   90.00000000
_cell_angle_gamma   120.00000201
_symmetry_Int_Tables_number   1
_chemical_formula_structural   Na3Ca3AlSb4
_chemical_formula_sum   'Na6 Ca6 Al2 Sb8'
_cell_volume   673.13173421
_cell_formula_units_Z   2
loop_
 _symmetry_equiv_pos_site_id
 _symmetry_equiv_pos_as_xyz
  1  'x, y, z'
loop_
 _atom_site_type_symbol
 _atom_site_label
 _atom_site_symmetry_multiplicity
 _atom_site_fract_x
 _atom_site_fract_y
 _atom_site_fract_z
 _atom_site_occupancy
  Na  Na0  1  0.85513200  0.14486800  0.54893900  1
  Na  Na1  1  0.28973500  0.14486800  0.54893900  1
  Na  Na2  1  0.85513200  0.71026500  0.54893900  1
  Na  Na3  1  0.14486800  0.85513200  0.04893900  1
  Na  Na4  1  0.71026500  0.85513200  0.04893900  1
  Na  Na5  1  0.14486800  0.28973500  0.04893900  1
  Ca  Ca6  1  0.47932500  0.52067500  0.73039100  1
  Ca  Ca7  1  0.04135000  0.52067500  0.73039100  1
  Ca  Ca8  1  0.47932500  0.95865000  0.73039100  1
  Ca  Ca9  1  0.52067500  0.47932500  0.23039100  1
  Ca  Ca10  1  0.95865000  0.47932500  0.23039100  1
  Ca  Ca11  1  0.52067500  0.04135000  0.23039100  1
  Al  Al12  1  0.66666700  0.33333300  0.85938400  1
  Al  Al13  1  0.33333300  0.66666700  0.35938400  1
  Sb  Sb14  1  0.81233500  0.18766500  0.96366700  1
  Sb  Sb15  1  0.37533000  0.18766500  0.96366700  1
  Sb  Sb16  1  0.81233500  0.62467000  0.96366700  1
  Sb  Sb17  1  0.18766500  0.81233500  0.46366700  1
  Sb  Sb18  1  0.62467000  0.81233500  0.46366700  1
  Sb  Sb19  1  0.18766500  0.37533000  0.46366700  1
  Sb  Sb20  1  0.66666700  0.33333300  0.49698900  1
  Sb  Sb21  1  0.33333300  0.66666700  0.99698900  1
