# generated using pymatgen
data_Tb11Cd45
_symmetry_space_group_name_H-M   'P 1'
_cell_length_a   15.42686662
_cell_length_b   15.42686662
_cell_length_c   15.42686662
_cell_angle_alpha   60.00000000
_cell_angle_beta   60.00000000
_cell_angle_gamma   60.00000000
_symmetry_Int_Tables_number   1
_chemical_formula_structural   Tb11Cd45
_chemical_formula_sum   'Tb22 Cd90'
_cell_volume   2596.08062621
_cell_formula_units_Z   2
loop_
 _symmetry_equiv_pos_site_id
 _symmetry_equiv_pos_as_xyz
  1  'x, y, z'
loop_
 _atom_site_type_symbol
 _atom_site_label
 _atom_site_symmetry_multiplicity
 _atom_site_fract_x
 _atom_site_fract_y
 _atom_site_fract_z
 _atom_site_occupancy
  Tb  Tb0  1  0.00000000  0.00000000  0.00000000  1
  Tb  Tb1  1  0.01363700  0.33346100  0.63926600  1
  Tb  Tb2  1  0.01363700  0.01363700  0.63926600  1
  Tb  Tb3  1  0.33346100  0.01363700  0.63926600  1
  Tb  Tb4  1  0.01363700  0.63926600  0.33346100  1
  Tb  Tb5  1  0.33346100  0.63926600  0.01363700  1
  Tb  Tb6  1  0.01363700  0.63926600  0.01363700  1
  Tb  Tb7  1  0.63926600  0.01363700  0.01363700  1
  Tb  Tb8  1  0.63926600  0.33346100  0.01363700  1
  Tb  Tb9  1  0.63926600  0.01363700  0.33346100  1
  Tb  Tb10  1  0.33346100  0.01363700  0.01363700  1
  Tb  Tb11  1  0.01363700  0.01363700  0.33346100  1
  Tb  Tb12  1  0.01363700  0.33346100  0.01363700  1
  Tb  Tb13  1  0.25000000  0.25000000  0.25000000  1
  Tb  Tb14  1  0.40638400  0.40638400  0.78084800  1
  Tb  Tb15  1  0.40638400  0.78084800  0.40638400  1
  Tb  Tb16  1  0.78084800  0.40638400  0.40638400  1
  Tb  Tb17  1  0.40638400  0.40638400  0.40638400  1
  Tb  Tb18  1  0.66219500  0.66219500  0.01341500  1
  Tb  Tb19  1  0.66219500  0.01341500  0.66219500  1
  Tb  Tb20  1  0.01341500  0.66219500  0.66219500  1
  Tb  Tb21  1  0.66219500  0.66219500  0.66219500  1
  Cd  Cd22  1  0.08334700  0.08334700  0.74996000  1
  Cd  Cd23  1  0.08334700  0.74996000  0.08334700  1
  Cd  Cd24  1  0.74996000  0.08334700  0.08334700  1
  Cd  Cd25  1  0.08334700  0.08334700  0.08334700  1
  Cd  Cd26  1  0.91331600  0.91331600  0.26005300  1
  Cd  Cd27  1  0.91331600  0.26005300  0.91331600  1
  Cd  Cd28  1  0.26005300  0.91331600  0.91331600  1
  Cd  Cd29  1  0.91331600  0.91331600  0.91331600  1
  Cd  Cd30  1  0.15633800  0.15633800  0.84366200  1
  Cd  Cd31  1  0.84366200  0.15633800  0.84366200  1
  Cd  Cd32  1  0.15633800  0.84366200  0.84366200  1
  Cd  Cd33  1  0.84366200  0.84366200  0.15633800  1
  Cd  Cd34  1  0.15633800  0.84366200  0.15633800  1
  Cd  Cd35  1  0.84366200  0.15633800  0.15633800  1
  Cd  Cd36  1  0.39074000  0.20077400  0.01774600  1
  Cd  Cd37  1  0.39074000  0.39074000  0.01774600  1
  Cd  Cd38  1  0.20077400  0.39074000  0.01774600  1
  Cd  Cd39  1  0.39074000  0.01774600  0.20077400  1
  Cd  Cd40  1  0.20077400  0.01774600  0.39074000  1
  Cd  Cd41  1  0.39074000  0.01774600  0.39074000  1
  Cd  Cd42  1  0.01774600  0.39074000  0.39074000  1
  Cd  Cd43  1  0.01774600  0.20077400  0.39074000  1
  Cd  Cd44  1  0.01774600  0.39074000  0.20077400  1
  Cd  Cd45  1  0.20077400  0.39074000  0.39074000  1
  Cd  Cd46  1  0.39074000  0.39074000  0.20077400  1
  Cd  Cd47  1  0.39074000  0.20077400  0.39074000  1
  Cd  Cd48  1  0.16334000  0.16334000  0.50998100  1
  Cd  Cd49  1  0.16334000  0.50998100  0.16334000  1
  Cd  Cd50  1  0.50998100  0.16334000  0.16334000  1
  Cd  Cd51  1  0.16334000  0.16334000  0.16334000  1
  Cd  Cd52  1  0.26322300  0.61160200  0.86195300  1
  Cd  Cd53  1  0.26322300  0.26322300  0.86195300  1
  Cd  Cd54  1  0.61160200  0.26322300  0.86195300  1
  Cd  Cd55  1  0.26322300  0.86195300  0.61160200  1
  Cd  Cd56  1  0.61160200  0.86195300  0.26322300  1
  Cd  Cd57  1  0.26322300  0.86195300  0.26322300  1
  Cd  Cd58  1  0.86195300  0.26322300  0.26322300  1
  Cd  Cd59  1  0.86195300  0.61160200  0.26322300  1
  Cd  Cd60  1  0.86195300  0.26322300  0.61160200  1
  Cd  Cd61  1  0.61160200  0.26322300  0.26322300  1
  Cd  Cd62  1  0.26322300  0.26322300  0.61160200  1
  Cd  Cd63  1  0.26322300  0.61160200  0.26322300  1
  Cd  Cd64  1  0.50000000  0.50000000  0.50000000  1
  Cd  Cd65  1  0.64059300  0.45007500  0.26873900  1
  Cd  Cd66  1  0.64059300  0.64059300  0.26873900  1
  Cd  Cd67  1  0.45007500  0.64059300  0.26873900  1
  Cd  Cd68  1  0.64059300  0.26873900  0.45007500  1
  Cd  Cd69  1  0.45007500  0.26873900  0.64059300  1
  Cd  Cd70  1  0.64059300  0.26873900  0.64059300  1
  Cd  Cd71  1  0.26873900  0.64059300  0.64059300  1
  Cd  Cd72  1  0.26873900  0.45007500  0.64059300  1
  Cd  Cd73  1  0.26873900  0.64059300  0.45007500  1
  Cd  Cd74  1  0.45007500  0.64059300  0.64059300  1
  Cd  Cd75  1  0.64059300  0.64059300  0.45007500  1
  Cd  Cd76  1  0.64059300  0.45007500  0.64059300  1
  Cd  Cd77  1  0.51249100  0.83361100  0.14140600  1
  Cd  Cd78  1  0.51249100  0.51249100  0.14140600  1
  Cd  Cd79  1  0.83361100  0.51249100  0.14140600  1
  Cd  Cd80  1  0.51249100  0.14140600  0.83361100  1
  Cd  Cd81  1  0.83361100  0.14140600  0.51249100  1
  Cd  Cd82  1  0.51249100  0.14140600  0.51249100  1
  Cd  Cd83  1  0.14140600  0.51249100  0.51249100  1
  Cd  Cd84  1  0.14140600  0.83361100  0.51249100  1
  Cd  Cd85  1  0.14140600  0.51249100  0.83361100  1
  Cd  Cd86  1  0.83361100  0.51249100  0.51249100  1
  Cd  Cd87  1  0.51249100  0.51249100  0.83361100  1
  Cd  Cd88  1  0.51249100  0.83361100  0.51249100  1
  Cd  Cd89  1  0.75000000  0.75000000  0.75000000  1
  Cd  Cd90  1  0.83005100  0.83005100  0.50984700  1
  Cd  Cd91  1  0.83005100  0.50984700  0.83005100  1
  Cd  Cd92  1  0.50984700  0.83005100  0.83005100  1
  Cd  Cd93  1  0.83005100  0.83005100  0.83005100  1
  Cd  Cd94  1  0.91159000  0.91159000  0.58841000  1
  Cd  Cd95  1  0.58841000  0.91159000  0.58841000  1
  Cd  Cd96  1  0.91159000  0.58841000  0.58841000  1
  Cd  Cd97  1  0.58841000  0.58841000  0.91159000  1
  Cd  Cd98  1  0.91159000  0.58841000  0.91159000  1
  Cd  Cd99  1  0.58841000  0.91159000  0.91159000  1
  Cd  Cd100  1  0.76396000  0.06763600  0.40444400  1
  Cd  Cd101  1  0.76396000  0.76396000  0.40444400  1
  Cd  Cd102  1  0.06763600  0.76396000  0.40444400  1
  Cd  Cd103  1  0.76396000  0.40444400  0.06763600  1
  Cd  Cd104  1  0.06763600  0.40444400  0.76396000  1
  Cd  Cd105  1  0.76396000  0.40444400  0.76396000  1
  Cd  Cd106  1  0.40444400  0.76396000  0.76396000  1
  Cd  Cd107  1  0.40444400  0.06763600  0.76396000  1
  Cd  Cd108  1  0.40444400  0.76396000  0.06763600  1
  Cd  Cd109  1  0.06763600  0.76396000  0.76396000  1
  Cd  Cd110  1  0.76396000  0.76396000  0.06763600  1
  Cd  Cd111  1  0.76396000  0.06763600  0.76396000  1
