# generated using pymatgen
data_Be15(Nb3Cu4)2
_symmetry_space_group_name_H-M   'P 1'
_cell_length_a   7.66341399
_cell_length_b   7.66341399
_cell_length_c   7.66341399
_cell_angle_alpha   60.00000000
_cell_angle_beta   60.00000000
_cell_angle_gamma   60.00000000
_symmetry_Int_Tables_number   1
_chemical_formula_structural   Be15(Nb3Cu4)2
_chemical_formula_sum   'Be15 Nb6 Cu8'
_cell_volume   318.23787421
_cell_formula_units_Z   1
loop_
 _symmetry_equiv_pos_site_id
 _symmetry_equiv_pos_as_xyz
  1  'x, y, z'
loop_
 _atom_site_type_symbol
 _atom_site_label
 _atom_site_symmetry_multiplicity
 _atom_site_fract_x
 _atom_site_fract_y
 _atom_site_fract_z
 _atom_site_occupancy
  Be  Be0  1  0.32659900  0.32659900  0.32659900  1
  Be  Be1  1  0.67340100  0.67340100  0.67340100  1
  Be  Be2  1  0.32659900  0.32659900  0.02020400  1
  Be  Be3  1  0.32659900  0.02020400  0.32659900  1
  Be  Be4  1  0.67340100  0.67340100  0.97979600  1
  Be  Be5  1  0.67340100  0.97979600  0.67340100  1
  Be  Be6  1  0.02020400  0.32659900  0.32659900  1
  Be  Be7  1  0.97979600  0.67340100  0.67340100  1
  Be  Be8  1  0.50000000  0.00000000  0.00000000  1
  Be  Be9  1  0.00000000  0.50000000  0.50000000  1
  Be  Be10  1  0.00000000  0.50000000  0.00000000  1
  Be  Be11  1  0.50000000  0.00000000  0.50000000  1
  Be  Be12  1  0.00000000  0.00000000  0.50000000  1
  Be  Be13  1  0.50000000  0.50000000  0.00000000  1
  Be  Be14  1  0.00000000  0.00000000  0.00000000  1
  Nb  Nb15  1  0.69306400  0.30693600  0.30693600  1
  Nb  Nb16  1  0.30693600  0.69306400  0.69306400  1
  Nb  Nb17  1  0.30693600  0.69306400  0.30693600  1
  Nb  Nb18  1  0.69306400  0.30693600  0.69306400  1
  Nb  Nb19  1  0.30693600  0.30693600  0.69306400  1
  Nb  Nb20  1  0.69306400  0.69306400  0.30693600  1
  Cu  Cu21  1  0.12256000  0.12256000  0.12256000  1
  Cu  Cu22  1  0.87744000  0.87744000  0.87744000  1
  Cu  Cu23  1  0.12256000  0.12256000  0.63232000  1
  Cu  Cu24  1  0.12256000  0.63232000  0.12256000  1
  Cu  Cu25  1  0.87744000  0.87744000  0.36768000  1
  Cu  Cu26  1  0.87744000  0.36768000  0.87744000  1
  Cu  Cu27  1  0.63232000  0.12256000  0.12256000  1
  Cu  Cu28  1  0.36768000  0.87744000  0.87744000  1
