# generated using pymatgen
data_Tb2B6Ru
_symmetry_space_group_name_H-M   'P 1'
_cell_length_a   3.68698400
_cell_length_b   9.18120100
_cell_length_c   11.54549500
_cell_angle_alpha   90.00000000
_cell_angle_beta   90.00000000
_cell_angle_gamma   90.00000000
_symmetry_Int_Tables_number   1
_chemical_formula_structural   Tb2B6Ru
_chemical_formula_sum   'Tb8 B24 Ru4'
_cell_volume   390.82587223
_cell_formula_units_Z   4
loop_
 _symmetry_equiv_pos_site_id
 _symmetry_equiv_pos_as_xyz
  1  'x, y, z'
loop_
 _atom_site_type_symbol
 _atom_site_label
 _atom_site_symmetry_multiplicity
 _atom_site_fract_x
 _atom_site_fract_y
 _atom_site_fract_z
 _atom_site_occupancy
  Tb  Tb0  1  0.00000000  0.32309800  0.41393700  1
  Tb  Tb1  1  0.00000000  0.67690200  0.58606300  1
  Tb  Tb2  1  0.00000000  0.82309800  0.08606300  1
  Tb  Tb3  1  0.00000000  0.17690200  0.91393700  1
  Tb  Tb4  1  0.00000000  0.94407500  0.37260500  1
  Tb  Tb5  1  0.00000000  0.05592500  0.62739500  1
  Tb  Tb6  1  0.00000000  0.44407500  0.12739500  1
  Tb  Tb7  1  0.00000000  0.55592500  0.87260500  1
  B  B8  1  0.50000000  0.55417600  0.43251200  1
  B  B9  1  0.50000000  0.44582400  0.56748800  1
  B  B10  1  0.50000000  0.05417600  0.06748800  1
  B  B11  1  0.50000000  0.94582400  0.93251200  1
  B  B12  1  0.50000000  0.74743300  0.41987900  1
  B  B13  1  0.50000000  0.25256700  0.58012100  1
  B  B14  1  0.50000000  0.24743300  0.08012100  1
  B  B15  1  0.50000000  0.75256700  0.91987900  1
  B  B16  1  0.50000000  0.79043400  0.26708300  1
  B  B17  1  0.50000000  0.20956600  0.73291700  1
  B  B18  1  0.50000000  0.29043400  0.23291700  1
  B  B19  1  0.50000000  0.70956600  0.76708300  1
  B  B20  1  0.50000000  0.63261200  0.18537200  1
  B  B21  1  0.50000000  0.36738800  0.81462800  1
  B  B22  1  0.50000000  0.13261200  0.31462800  1
  B  B23  1  0.50000000  0.86738800  0.68537200  1
  B  B24  1  0.50000000  0.98485400  0.21297400  1
  B  B25  1  0.50000000  0.01514600  0.78702600  1
  B  B26  1  0.50000000  0.48485400  0.28702600  1
  B  B27  1  0.50000000  0.51514600  0.71297400  1
  B  B28  1  0.50000000  0.61214400  0.03083800  1
  B  B29  1  0.50000000  0.38785600  0.96916200  1
  B  B30  1  0.50000000  0.11214400  0.46916200  1
  B  B31  1  0.50000000  0.88785600  0.53083800  1
  Ru  Ru32  1  0.00000000  0.63816500  0.32121700  1
  Ru  Ru33  1  0.00000000  0.36183500  0.67878300  1
  Ru  Ru34  1  0.00000000  0.13816500  0.17878300  1
  Ru  Ru35  1  0.00000000  0.86183500  0.82121700  1
