# generated using pymatgen
data_Li2Ca(SiN2)2
_symmetry_space_group_name_H-M   'P 1'
_cell_length_a   10.63827100
_cell_length_b   10.63827100
_cell_length_c   10.63827100
_cell_angle_alpha   90.00000000
_cell_angle_beta   90.00000000
_cell_angle_gamma   90.00000000
_symmetry_Int_Tables_number   1
_chemical_formula_structural   Li2Ca(SiN2)2
_chemical_formula_sum   'Li24 Ca12 Si24 N48'
_cell_volume   1203.96302122
_cell_formula_units_Z   12
loop_
 _symmetry_equiv_pos_site_id
 _symmetry_equiv_pos_as_xyz
  1  'x, y, z'
loop_
 _atom_site_type_symbol
 _atom_site_label
 _atom_site_symmetry_multiplicity
 _atom_site_fract_x
 _atom_site_fract_y
 _atom_site_fract_z
 _atom_site_occupancy
  Li  Li0  1  0.38628300  0.72182300  0.95236400  1
  Li  Li1  1  0.61371700  0.22182300  0.54763600  1
  Li  Li2  1  0.11371700  0.27817700  0.45236400  1
  Li  Li3  1  0.88628300  0.77817700  0.04763600  1
  Li  Li4  1  0.95236400  0.38628300  0.72182300  1
  Li  Li5  1  0.54763600  0.61371700  0.22182300  1
  Li  Li6  1  0.45236400  0.11371700  0.27817700  1
  Li  Li7  1  0.04763600  0.88628300  0.77817700  1
  Li  Li8  1  0.72182300  0.95236400  0.38628300  1
  Li  Li9  1  0.22182300  0.54763600  0.61371700  1
  Li  Li10  1  0.27817700  0.45236400  0.11371700  1
  Li  Li11  1  0.77817700  0.04763600  0.88628300  1
  Li  Li12  1  0.61371700  0.27817700  0.04763600  1
  Li  Li13  1  0.38628300  0.77817700  0.45236400  1
  Li  Li14  1  0.88628300  0.72182300  0.54763600  1
  Li  Li15  1  0.11371700  0.22182300  0.95236400  1
  Li  Li16  1  0.04763600  0.61371700  0.27817700  1
  Li  Li17  1  0.45236400  0.38628300  0.77817700  1
  Li  Li18  1  0.54763600  0.88628300  0.72182300  1
  Li  Li19  1  0.95236400  0.11371700  0.22182300  1
  Li  Li20  1  0.27817700  0.04763600  0.61371700  1
  Li  Li21  1  0.77817700  0.45236400  0.38628300  1
  Li  Li22  1  0.72182300  0.54763600  0.88628300  1
  Li  Li23  1  0.22182300  0.95236400  0.11371700  1
  Ca  Ca24  1  0.29502800  0.70497200  0.20497200  1
  Ca  Ca25  1  0.70497200  0.20497200  0.29502800  1
  Ca  Ca26  1  0.20497200  0.29502800  0.70497200  1
  Ca  Ca27  1  0.79502800  0.79502800  0.79502800  1
  Ca  Ca28  1  0.70497200  0.29502800  0.79502800  1
  Ca  Ca29  1  0.29502800  0.79502800  0.70497200  1
  Ca  Ca30  1  0.79502800  0.70497200  0.29502800  1
  Ca  Ca31  1  0.20497200  0.20497200  0.20497200  1
  Ca  Ca32  1  0.50000000  0.00000000  0.00000000  1
  Ca  Ca33  1  0.50000000  0.50000000  0.50000000  1
  Ca  Ca34  1  0.00000000  0.00000000  0.50000000  1
  Ca  Ca35  1  0.00000000  0.50000000  0.00000000  1
  Si  Si36  1  0.24838100  0.98463300  0.37247000  1
  Si  Si37  1  0.75161900  0.48463300  0.12753000  1
  Si  Si38  1  0.25161900  0.01536700  0.87247000  1
  Si  Si39  1  0.74838100  0.51536700  0.62753000  1
  Si  Si40  1  0.37247000  0.24838100  0.98463300  1
  Si  Si41  1  0.12753000  0.75161900  0.48463300  1
  Si  Si42  1  0.87247000  0.25161900  0.01536700  1
  Si  Si43  1  0.62753000  0.74838100  0.51536700  1
  Si  Si44  1  0.98463300  0.37247000  0.24838100  1
  Si  Si45  1  0.48463300  0.12753000  0.75161900  1
  Si  Si46  1  0.01536700  0.87247000  0.25161900  1
  Si  Si47  1  0.51536700  0.62753000  0.74838100  1
  Si  Si48  1  0.75161900  0.01536700  0.62753000  1
  Si  Si49  1  0.24838100  0.51536700  0.87247000  1
  Si  Si50  1  0.74838100  0.98463300  0.12753000  1
  Si  Si51  1  0.25161900  0.48463300  0.37247000  1
  Si  Si52  1  0.62753000  0.75161900  0.01536700  1
  Si  Si53  1  0.87247000  0.24838100  0.51536700  1
  Si  Si54  1  0.12753000  0.74838100  0.98463300  1
  Si  Si55  1  0.37247000  0.25161900  0.48463300  1
  Si  Si56  1  0.01536700  0.62753000  0.75161900  1
  Si  Si57  1  0.51536700  0.87247000  0.24838100  1
  Si  Si58  1  0.98463300  0.12753000  0.74838100  1
  Si  Si59  1  0.48463300  0.37247000  0.25161900  1
  N  N60  1  0.49617800  0.78118400  0.10963900  1
  N  N61  1  0.50382200  0.28118400  0.39036100  1
  N  N62  1  0.00382200  0.21881600  0.60963900  1
  N  N63  1  0.99617800  0.71881600  0.89036100  1
  N  N64  1  0.10963900  0.49617800  0.78118400  1
  N  N65  1  0.39036100  0.50382200  0.28118400  1
  N  N66  1  0.60963900  0.00382200  0.21881600  1
  N  N67  1  0.89036100  0.99617800  0.71881600  1
  N  N68  1  0.78118400  0.10963900  0.49617800  1
  N  N69  1  0.28118400  0.39036100  0.50382200  1
  N  N70  1  0.21881600  0.60963900  0.00382200  1
  N  N71  1  0.71881600  0.89036100  0.99617800  1
  N  N72  1  0.50382200  0.21881600  0.89036100  1
  N  N73  1  0.49617800  0.71881600  0.60963900  1
  N  N74  1  0.99617800  0.78118400  0.39036100  1
  N  N75  1  0.00382200  0.28118400  0.10963900  1
  N  N76  1  0.89036100  0.50382200  0.21881600  1
  N  N77  1  0.60963900  0.49617800  0.71881600  1
  N  N78  1  0.39036100  0.99617800  0.78118400  1
  N  N79  1  0.10963900  0.00382200  0.28118400  1
  N  N80  1  0.21881600  0.89036100  0.50382200  1
  N  N81  1  0.71881600  0.60963900  0.49617800  1
  N  N82  1  0.78118400  0.39036100  0.99617800  1
  N  N83  1  0.28118400  0.10963900  0.00382200  1
  N  N84  1  0.07873800  0.77572900  0.13775700  1
  N  N85  1  0.92126200  0.27572900  0.36224300  1
  N  N86  1  0.42126200  0.22427100  0.63775700  1
  N  N87  1  0.57873800  0.72427100  0.86224300  1
  N  N88  1  0.13775700  0.07873800  0.77572900  1
  N  N89  1  0.36224300  0.92126200  0.27572900  1
  N  N90  1  0.63775700  0.42126200  0.22427100  1
  N  N91  1  0.86224300  0.57873800  0.72427100  1
  N  N92  1  0.77572900  0.13775700  0.07873800  1
  N  N93  1  0.27572900  0.36224300  0.92126200  1
  N  N94  1  0.22427100  0.63775700  0.42126200  1
  N  N95  1  0.72427100  0.86224300  0.57873800  1
  N  N96  1  0.92126200  0.22427100  0.86224300  1
  N  N97  1  0.07873800  0.72427100  0.63775700  1
  N  N98  1  0.57873800  0.77572900  0.36224300  1
  N  N99  1  0.42126200  0.27572900  0.13775700  1
  N  N100  1  0.86224300  0.92126200  0.22427100  1
  N  N101  1  0.63775700  0.07873800  0.72427100  1
  N  N102  1  0.36224300  0.57873800  0.77572900  1
  N  N103  1  0.13775700  0.42126200  0.27572900  1
  N  N104  1  0.22427100  0.86224300  0.92126200  1
  N  N105  1  0.72427100  0.63775700  0.07873800  1
  N  N106  1  0.77572900  0.36224300  0.57873800  1
  N  N107  1  0.27572900  0.13775700  0.42126200  1
