# generated using pymatgen
data_K3Ta2Cu3Se8
_symmetry_space_group_name_H-M   'P 1'
_cell_length_a   5.73873500
_cell_length_b   12.66718307
_cell_length_c   14.19988365
_cell_angle_alpha   68.43745352
_cell_angle_beta   78.34198121
_cell_angle_gamma   76.90773963
_symmetry_Int_Tables_number   1
_chemical_formula_structural   K3Ta2Cu3Se8
_chemical_formula_sum   'K6 Ta4 Cu6 Se16'
_cell_volume   926.96865763
_cell_formula_units_Z   2
loop_
 _symmetry_equiv_pos_site_id
 _symmetry_equiv_pos_as_xyz
  1  'x, y, z'
loop_
 _atom_site_type_symbol
 _atom_site_label
 _atom_site_symmetry_multiplicity
 _atom_site_fract_x
 _atom_site_fract_y
 _atom_site_fract_z
 _atom_site_occupancy
  K  K0  1  0.73027200  0.71138100  0.90552500  1
  K  K1  1  0.34717800  0.78861900  0.59447500  1
  K  K2  1  0.26972800  0.28861900  0.09447500  1
  K  K3  1  0.65282200  0.21138100  0.40552500  1
  K  K4  1  0.00000000  0.50000000  0.50000000  1
  K  K5  1  0.00000000  0.00000000  0.00000000  1
  Ta  Ta6  1  0.15770300  0.46992500  0.77936800  1
  Ta  Ta7  1  0.40699600  0.03007500  0.72063200  1
  Ta  Ta8  1  0.84229700  0.53007500  0.22063200  1
  Ta  Ta9  1  0.59300400  0.96992500  0.27936800  1
  Cu  Cu10  1  0.27721600  0.25000000  0.75000000  1
  Cu  Cu11  1  0.72278400  0.75000000  0.25000000  1
  Cu  Cu12  1  0.90478400  0.03510000  0.71913000  1
  Cu  Cu13  1  0.65901400  0.46490000  0.78087000  1
  Cu  Cu14  1  0.09521600  0.96490000  0.28087000  1
  Cu  Cu15  1  0.34098600  0.53510000  0.21913000  1
  Se  Se16  1  0.95323700  0.30461800  0.87585500  1
  Se  Se17  1  0.13371000  0.19538200  0.62414500  1
  Se  Se18  1  0.04676300  0.69538200  0.12414500  1
  Se  Se19  1  0.86629000  0.80461800  0.37585500  1
  Se  Se20  1  0.48660200  0.41633000  0.65743300  1
  Se  Se21  1  0.56036500  0.08367000  0.84256700  1
  Se  Se22  1  0.51339800  0.58367000  0.34256700  1
  Se  Se23  1  0.43963500  0.91633000  0.15743300  1
  Se  Se24  1  0.87249200  0.62939400  0.68618800  1
  Se  Se25  1  0.18807400  0.87060600  0.81381200  1
  Se  Se26  1  0.12750800  0.37060600  0.31381200  1
  Se  Se27  1  0.81192600  0.12939400  0.18618800  1
  Se  Se28  1  0.74110400  0.97007700  0.60729000  1
  Se  Se29  1  0.31847200  0.52992300  0.89271000  1
  Se  Se30  1  0.25889600  0.02992300  0.39271000  1
  Se  Se31  1  0.68152800  0.47007700  0.10729000  1
