# generated using pymatgen
data_K2Co(SeO3)2
_symmetry_space_group_name_H-M   'P 1'
_cell_length_a   5.59962857
_cell_length_b   7.07860961
_cell_length_c   9.04428127
_cell_angle_alpha   72.86970828
_cell_angle_beta   89.69390176
_cell_angle_gamma   89.26184660
_symmetry_Int_Tables_number   1
_chemical_formula_structural   K2Co(SeO3)2
_chemical_formula_sum   'K4 Co2 Se4 O12'
_cell_volume   342.56089129
_cell_formula_units_Z   2
loop_
 _symmetry_equiv_pos_site_id
 _symmetry_equiv_pos_as_xyz
  1  'x, y, z'
loop_
 _atom_site_type_symbol
 _atom_site_label
 _atom_site_symmetry_multiplicity
 _atom_site_fract_x
 _atom_site_fract_y
 _atom_site_fract_z
 _atom_site_occupancy
  K  K0  1  0.99979800  0.61092700  0.80536100  1
  K  K1  1  0.49979800  0.11093000  0.30535900  1
  K  K2  1  0.00020200  0.38907400  0.19463900  1
  K  K3  1  0.50020200  0.88907100  0.69464100  1
  Co  Co4  1  0.50000000  0.50000000  0.50000000  1
  Co  Co5  1  0.00000000  0.00000000  0.00000000  1
  Se  Se6  1  0.99952200  0.26261900  0.63154000  1
  Se  Se7  1  0.49952900  0.76261200  0.13153400  1
  Se  Se8  1  0.00047800  0.73738100  0.36846000  1
  Se  Se9  1  0.50047100  0.23738800  0.86846600  1
  O  O10  1  0.24425100  0.73128200  0.48770400  1
  O  O11  1  0.74425700  0.23128200  0.98770300  1
  O  O12  1  0.75575000  0.26871900  0.51229600  1
  O  O13  1  0.25574300  0.76871900  0.01229700  1
  O  O14  1  0.24142000  0.26584900  0.51132000  1
  O  O15  1  0.74140700  0.76584300  0.01132400  1
  O  O16  1  0.75858000  0.73415100  0.48868000  1
  O  O17  1  0.25859300  0.23415700  0.98867500  1
  O  O18  1  0.00078700  0.97662200  0.24569400  1
  O  O19  1  0.50078700  0.47661700  0.74570500  1
  O  O20  1  0.99921300  0.02337900  0.75430700  1
  O  O21  1  0.49921300  0.52338300  0.25429600  1
