# generated using pymatgen
data_Ba2FeMoO6
_symmetry_space_group_name_H-M   'P 1'
_cell_length_a   5.80056409
_cell_length_b   5.80076706
_cell_length_c   10.03382888
_cell_angle_alpha   90.04039950
_cell_angle_beta   106.73852204
_cell_angle_gamma   120.03941138
_symmetry_Int_Tables_number   1
_chemical_formula_structural   Ba2FeMoO6
_chemical_formula_sum   'Ba4 Fe2 Mo2 O12'
_cell_volume   275.57648782
_cell_formula_units_Z   2
loop_
 _symmetry_equiv_pos_site_id
 _symmetry_equiv_pos_as_xyz
  1  'x, y, z'
loop_
 _atom_site_type_symbol
 _atom_site_label
 _atom_site_symmetry_multiplicity
 _atom_site_fract_x
 _atom_site_fract_y
 _atom_site_fract_z
 _atom_site_occupancy
  Ba  Ba0  1  0.75234900  0.37680000  0.12441500  1
  Ba  Ba1  1  0.74820100  0.87294500  0.62586400  1
  Ba  Ba2  1  0.25233900  0.62799600  0.87537200  1
  Ba  Ba3  1  0.24725400  0.12239600  0.37429300  1
  Fe  Fe4  1  0.01096000  0.51122100  0.49989700  1
  Fe  Fe5  1  0.99162200  0.99184600  0.00007800  1
  Mo  Mo6  1  0.50071300  0.74941000  0.25099700  1
  Mo  Mo7  1  0.49853400  0.24977100  0.74901900  1
  O  O8  1  0.75349700  0.62767500  0.87313200  1
  O  O9  1  0.73419300  0.10390500  0.37066400  1
  O  O10  1  0.26467800  0.39554300  0.12908700  1
  O  O11  1  0.24603700  0.87272400  0.62644700  1
  O  O12  1  0.73403000  0.36351900  0.62947200  1
  O  O13  1  0.75418400  0.88038300  0.12665600  1
  O  O14  1  0.24207000  0.36780600  0.62427300  1
  O  O15  1  0.25535200  0.88233600  0.12418600  1
  O  O16  1  0.26579300  0.13562500  0.87078700  1
  O  O17  1  0.24670400  0.61943700  0.37376800  1
  O  O18  1  0.75799900  0.13131600  0.87599100  1
  O  O19  1  0.74349100  0.61734800  0.37560300  1
