# generated using pymatgen
data_Zr6NiTe2
_symmetry_space_group_name_H-M   'P 1'
_cell_length_a   3.71612300
_cell_length_b   7.72381748
_cell_length_c   7.72381748
_cell_angle_alpha   119.99999553
_cell_angle_beta   90.00000000
_cell_angle_gamma   90.00000000
_symmetry_Int_Tables_number   1
_chemical_formula_structural   Zr6NiTe2
_chemical_formula_sum   'Zr6 Ni1 Te2'
_cell_volume   191.99270893
_cell_formula_units_Z   1
loop_
 _symmetry_equiv_pos_site_id
 _symmetry_equiv_pos_as_xyz
  1  'x, y, z'
loop_
 _atom_site_type_symbol
 _atom_site_label
 _atom_site_symmetry_multiplicity
 _atom_site_fract_x
 _atom_site_fract_y
 _atom_site_fract_z
 _atom_site_occupancy
  Zr  Zr0  1  0.50000000  0.76019000  0.76019000  1
  Zr  Zr1  1  0.50000000  0.00000000  0.23981000  1
  Zr  Zr2  1  0.50000000  0.23981000  0.00000000  1
  Zr  Zr3  1  0.00000000  0.40575600  0.40575600  1
  Zr  Zr4  1  0.00000000  0.00000000  0.59424400  1
  Zr  Zr5  1  0.00000000  0.59424400  0.00000000  1
  Ni  Ni6  1  0.00000000  0.00000000  0.00000000  1
  Te  Te7  1  0.50000000  0.66666700  0.33333300  1
  Te  Te8  1  0.50000000  0.33333300  0.66666700  1
