# generated using pymatgen
data_DyAsSe
_symmetry_space_group_name_H-M   'P 1'
_cell_length_a   3.91451200
_cell_length_b   3.93998700
_cell_length_c   17.58992000
_cell_angle_alpha   90.00000000
_cell_angle_beta   90.00000000
_cell_angle_gamma   90.00000000
_symmetry_Int_Tables_number   1
_chemical_formula_structural   DyAsSe
_chemical_formula_sum   'Dy4 As4 Se4'
_cell_volume   271.29155937
_cell_formula_units_Z   4
loop_
 _symmetry_equiv_pos_site_id
 _symmetry_equiv_pos_as_xyz
  1  'x, y, z'
loop_
 _atom_site_type_symbol
 _atom_site_label
 _atom_site_symmetry_multiplicity
 _atom_site_fract_x
 _atom_site_fract_y
 _atom_site_fract_z
 _atom_site_occupancy
  Dy  Dy0  1  0.75000000  0.72959500  0.63927800  1
  Dy  Dy1  1  0.25000000  0.27040500  0.36072200  1
  Dy  Dy2  1  0.75000000  0.77040500  0.13927800  1
  Dy  Dy3  1  0.25000000  0.22959500  0.86072200  1
  As  As4  1  0.25000000  0.71407700  0.99785500  1
  As  As5  1  0.75000000  0.28592300  0.00214500  1
  As  As6  1  0.25000000  0.78592300  0.49785500  1
  As  As7  1  0.75000000  0.21407700  0.50214500  1
  Se  Se8  1  0.75000000  0.73126900  0.81228900  1
  Se  Se9  1  0.25000000  0.26873100  0.18771100  1
  Se  Se10  1  0.75000000  0.76873100  0.31228900  1
  Se  Se11  1  0.25000000  0.23126900  0.68771100  1
