# generated using pymatgen
data_SbN(OF3)2
_symmetry_space_group_name_H-M   'P 1'
_cell_length_a   5.27500694
_cell_length_b   5.27500694
_cell_length_c   5.61831900
_cell_angle_alpha   90.00000000
_cell_angle_beta   90.00000000
_cell_angle_gamma   96.56772194
_symmetry_Int_Tables_number   1
_chemical_formula_structural   SbN(OF3)2
_chemical_formula_sum   'Sb1 N1 O2 F6'
_cell_volume   155.30768750
_cell_formula_units_Z   1
loop_
 _symmetry_equiv_pos_site_id
 _symmetry_equiv_pos_as_xyz
  1  'x, y, z'
loop_
 _atom_site_type_symbol
 _atom_site_label
 _atom_site_symmetry_multiplicity
 _atom_site_fract_x
 _atom_site_fract_y
 _atom_site_fract_z
 _atom_site_occupancy
  Sb  Sb0  1  0.50000000  0.50000000  0.00000000  1
  N  N1  1  0.00000000  0.00000000  0.50000000  1
  O  O2  1  0.14464500  0.85535500  0.50000000  1
  O  O3  1  0.85535500  0.14464500  0.50000000  1
  F  F4  1  0.69353200  0.69353200  0.24224700  1
  F  F5  1  0.30646800  0.30646800  0.24224700  1
  F  F6  1  0.69353200  0.69353200  0.75775300  1
  F  F7  1  0.30646800  0.30646800  0.75775300  1
  F  F8  1  0.74329700  0.25670300  0.00000000  1
  F  F9  1  0.25670300  0.74329700  0.00000000  1
