# generated using pymatgen
data_TiNb(PO4)3
_symmetry_space_group_name_H-M   'P 1'
_cell_length_a   8.94924640
_cell_length_b   8.94924640
_cell_length_c   8.94924567
_cell_angle_alpha   58.41166844
_cell_angle_beta   58.41166844
_cell_angle_gamma   58.41167223
_symmetry_Int_Tables_number   1
_chemical_formula_structural   TiNb(PO4)3
_chemical_formula_sum   'Ti2 Nb2 P6 O24'
_cell_volume   488.38534133
_cell_formula_units_Z   2
loop_
 _symmetry_equiv_pos_site_id
 _symmetry_equiv_pos_as_xyz
  1  'x, y, z'
loop_
 _atom_site_type_symbol
 _atom_site_label
 _atom_site_symmetry_multiplicity
 _atom_site_fract_x
 _atom_site_fract_y
 _atom_site_fract_z
 _atom_site_occupancy
  Ti  Ti0  1  0.35863700  0.35863700  0.35863700  1
  Ti  Ti1  1  0.85863700  0.85863700  0.85863700  1
  Nb  Nb2  1  0.63997500  0.63997500  0.63997500  1
  Nb  Nb3  1  0.13997500  0.13997500  0.13997500  1
  P  P4  1  0.97194500  0.53634700  0.24392800  1
  P  P5  1  0.24392800  0.97194500  0.53634700  1
  P  P6  1  0.53634700  0.24392800  0.97194500  1
  P  P7  1  0.74392800  0.03634700  0.47194500  1
  P  P8  1  0.47194500  0.74392800  0.03634700  1
  P  P9  1  0.03634700  0.47194500  0.74392800  1
  O  O10  1  0.13906000  0.50341300  0.27719000  1
  O  O11  1  0.27719000  0.13906000  0.50341300  1
  O  O12  1  0.50341300  0.27719000  0.13906000  1
  O  O13  1  0.77719000  0.00341300  0.63906000  1
  O  O14  1  0.63906000  0.77719000  0.00341300  1
  O  O15  1  0.00341300  0.63906000  0.77719000  1
  O  O16  1  0.86363100  0.49719800  0.72072100  1
  O  O17  1  0.72072100  0.86363100  0.49719800  1
  O  O18  1  0.49719800  0.72072100  0.86363100  1
  O  O19  1  0.22072100  0.99719800  0.36363100  1
  O  O20  1  0.36363100  0.22072100  0.99719800  1
  O  O21  1  0.99719800  0.36363100  0.22072100  1
  O  O22  1  0.21119400  0.43795800  0.57437900  1
  O  O23  1  0.57437900  0.21119400  0.43795800  1
  O  O24  1  0.43795800  0.57437900  0.21119400  1
  O  O25  1  0.07437900  0.93795800  0.71119400  1
  O  O26  1  0.71119400  0.07437900  0.93795800  1
  O  O27  1  0.93795800  0.71119400  0.07437900  1
  O  O28  1  0.79246400  0.56300200  0.41896000  1
  O  O29  1  0.41896000  0.79246400  0.56300200  1
  O  O30  1  0.56300200  0.41896000  0.79246400  1
  O  O31  1  0.91896000  0.06300200  0.29246400  1
  O  O32  1  0.29246400  0.91896000  0.06300200  1
  O  O33  1  0.06300200  0.29246400  0.91896000  1
