# generated using pymatgen
data_Th4C3
_symmetry_space_group_name_H-M   'P 1'
_cell_length_a   12.70619589
_cell_length_b   12.70619589
_cell_length_c   12.70619612
_cell_angle_alpha   16.97167997
_cell_angle_beta   16.97167997
_cell_angle_gamma   16.97168387
_symmetry_Int_Tables_number   1
_chemical_formula_structural   Th4C3
_chemical_formula_sum   'Th4 C3'
_cell_volume   152.47757980
_cell_formula_units_Z   1
loop_
 _symmetry_equiv_pos_site_id
 _symmetry_equiv_pos_as_xyz
  1  'x, y, z'
loop_
 _atom_site_type_symbol
 _atom_site_label
 _atom_site_symmetry_multiplicity
 _atom_site_fract_x
 _atom_site_fract_y
 _atom_site_fract_z
 _atom_site_occupancy
  Th  Th0  1  0.62643500  0.62643500  0.62643500  1
  Th  Th1  1  0.37356500  0.37356500  0.37356500  1
  Th  Th2  1  0.88006200  0.88006200  0.88006200  1
  Th  Th3  1  0.11993800  0.11993800  0.11993800  1
  C  C4  1  0.75360600  0.75360600  0.75360600  1
  C  C5  1  0.00000000  0.00000000  0.00000000  1
  C  C6  1  0.24639500  0.24639400  0.24639400  1
