# generated using pymatgen
data_Zn3WN4
_symmetry_space_group_name_H-M   'P 1'
_cell_length_a   6.58537200
_cell_length_b   5.69963500
_cell_length_c   5.37817900
_cell_angle_alpha   90.00000000
_cell_angle_beta   90.00000000
_cell_angle_gamma   90.00000000
_symmetry_Int_Tables_number   1
_chemical_formula_structural   Zn3WN4
_chemical_formula_sum   'Zn6 W2 N8'
_cell_volume   201.86573625
_cell_formula_units_Z   2
loop_
 _symmetry_equiv_pos_site_id
 _symmetry_equiv_pos_as_xyz
  1  'x, y, z'
loop_
 _atom_site_type_symbol
 _atom_site_label
 _atom_site_symmetry_multiplicity
 _atom_site_fract_x
 _atom_site_fract_y
 _atom_site_fract_z
 _atom_site_occupancy
  Zn  Zn0  1  0.25138600  0.83222700  0.73062900  1
  Zn  Zn1  1  0.24861400  0.16777300  0.23062900  1
  Zn  Zn2  1  0.74861400  0.83222700  0.73062900  1
  Zn  Zn3  1  0.75138600  0.16777300  0.23062900  1
  Zn  Zn4  1  0.00000000  0.33352600  0.72970800  1
  Zn  Zn5  1  0.50000000  0.66647400  0.22970800  1
  W  W6  1  0.00000000  0.67021700  0.22937600  1
  W  W7  1  0.50000000  0.32978300  0.72937600  1
  N  N8  1  0.76365600  0.82647300  0.11357100  1
  N  N9  1  0.73634400  0.17352700  0.61357100  1
  N  N10  1  0.23634400  0.82647300  0.11357100  1
  N  N11  1  0.26365600  0.17352700  0.61357100  1
  N  N12  1  0.00000000  0.35746700  0.11311300  1
  N  N13  1  0.50000000  0.64253300  0.61311300  1
  N  N14  1  0.00000000  0.67128400  0.57866300  1
  N  N15  1  0.50000000  0.32871600  0.07866300  1
