# generated using pymatgen
data_Rb2Ti(Si2O5)3
_symmetry_space_group_name_H-M   'P 1'
_cell_length_a   7.47886845
_cell_length_b   7.47886845
_cell_length_c   15.37896474
_cell_angle_alpha   76.80591962
_cell_angle_beta   76.80591962
_cell_angle_gamma   60.12212869
_symmetry_Int_Tables_number   1
_chemical_formula_structural   Rb2Ti(Si2O5)3
_chemical_formula_sum   'Rb4 Ti2 Si12 O30'
_cell_volume   719.46424352
_cell_formula_units_Z   2
loop_
 _symmetry_equiv_pos_site_id
 _symmetry_equiv_pos_as_xyz
  1  'x, y, z'
loop_
 _atom_site_type_symbol
 _atom_site_label
 _atom_site_symmetry_multiplicity
 _atom_site_fract_x
 _atom_site_fract_y
 _atom_site_fract_z
 _atom_site_occupancy
  Rb  Rb0  1  0.41354100  0.14198100  0.68911300  1
  Rb  Rb1  1  0.14198100  0.41354100  0.18911300  1
  Rb  Rb2  1  0.63443400  0.88186600  0.02104500  1
  Rb  Rb3  1  0.88186600  0.63443400  0.52104500  1
  Ti  Ti4  1  0.78196000  0.30237000  0.09645100  1
  Ti  Ti5  1  0.30237000  0.78196000  0.59645100  1
  Si  Si6  1  0.54751500  0.41667500  0.45836800  1
  Si  Si7  1  0.41667500  0.54751500  0.95836800  1
  Si  Si8  1  0.64020100  0.99583100  0.25616000  1
  Si  Si9  1  0.99583100  0.64020100  0.75616000  1
  Si  Si10  1  0.36019000  0.14973400  0.44500200  1
  Si  Si11  1  0.14973400  0.36019000  0.94500200  1
  Si  Si12  1  0.52866900  0.64090300  0.25413200  1
  Si  Si13  1  0.64090300  0.52866900  0.75413200  1
  Si  Si14  1  0.07704000  0.01650400  0.93457200  1
  Si  Si15  1  0.01650400  0.07704000  0.43457200  1
  Si  Si16  1  0.06641700  0.92609200  0.24712800  1
  Si  Si17  1  0.92609200  0.06641700  0.74712800  1
  O  O18  1  0.95686200  0.43389700  0.02428900  1
  O  O19  1  0.43389700  0.95686200  0.52428900  1
  O  O20  1  0.70381000  0.48786500  0.18547400  1
  O  O21  1  0.48786500  0.70381000  0.68547400  1
  O  O22  1  0.03068600  0.08975400  0.15640600  1
  O  O23  1  0.08975400  0.03068600  0.65640600  1
  O  O24  1  0.54382100  0.51173200  0.03715100  1
  O  O25  1  0.51173200  0.54382100  0.53715100  1
  O  O26  1  0.76546600  0.19678300  0.46615500  1
  O  O27  1  0.19678300  0.76546600  0.96615500  1
  O  O28  1  0.61635600  0.17362000  0.17103100  1
  O  O29  1  0.17362000  0.61635600  0.67103100  1
  O  O30  1  0.88677500  0.84529200  0.27288400  1
  O  O31  1  0.84529200  0.88677500  0.77288400  1
  O  O32  1  0.36038200  0.35207100  0.47073200  1
  O  O33  1  0.35207100  0.36038200  0.97073200  1
  O  O34  1  0.50673200  0.09693400  0.34805300  1
  O  O35  1  0.09693400  0.50673200  0.84805300  1
  O  O36  1  0.86581500  0.12385900  0.00201300  1
  O  O37  1  0.12385900  0.86581500  0.50201300  1
  O  O38  1  0.70919100  0.28937500  0.73987900  1
  O  O39  1  0.28937500  0.70919100  0.23987900  1
  O  O40  1  0.54583000  0.56363000  0.85877300  1
  O  O41  1  0.56363000  0.54583000  0.35877300  1
  O  O42  1  0.03493000  0.05660200  0.83026500  1
  O  O43  1  0.05660200  0.03493000  0.33026500  1
  O  O44  1  0.11570500  0.23504100  0.43064100  1
  O  O45  1  0.23504100  0.11570500  0.93064100  1
  O  O46  1  0.85682500  0.54843600  0.73318500  1
  O  O47  1  0.54843600  0.85682500  0.23318500  1
