# generated using pymatgen
data_K6Co2O7
_symmetry_space_group_name_H-M   'P 1'
_cell_length_a   9.20836700
_cell_length_b   6.63697800
_cell_length_c   11.21827803
_cell_angle_alpha   56.10266867
_cell_angle_beta   90.00000000
_cell_angle_gamma   90.00000000
_symmetry_Int_Tables_number   1
_chemical_formula_structural   K6Co2O7
_chemical_formula_sum   'K12 Co4 O14'
_cell_volume   569.08522397
_cell_formula_units_Z   2
loop_
 _symmetry_equiv_pos_site_id
 _symmetry_equiv_pos_as_xyz
  1  'x, y, z'
loop_
 _atom_site_type_symbol
 _atom_site_label
 _atom_site_symmetry_multiplicity
 _atom_site_fract_x
 _atom_site_fract_y
 _atom_site_fract_z
 _atom_site_occupancy
  K  K0  1  0.79802000  0.42211400  0.21277200  1
  K  K1  1  0.29802000  0.57788600  0.28722800  1
  K  K2  1  0.34894700  0.93141700  0.43314900  1
  K  K3  1  0.84894700  0.06858300  0.06685100  1
  K  K4  1  0.65105300  0.06858300  0.56685100  1
  K  K5  1  0.15105300  0.93141700  0.93314900  1
  K  K6  1  0.47307400  0.19675400  0.05706600  1
  K  K7  1  0.97307400  0.80324600  0.44293400  1
  K  K8  1  0.52692600  0.80324600  0.94293400  1
  K  K9  1  0.02692600  0.19675400  0.55706600  1
  K  K10  1  0.20198000  0.57788600  0.78722800  1
  K  K11  1  0.70198000  0.42211400  0.71277200  1
  Co  Co12  1  0.35662100  0.30998100  0.63570700  1
  Co  Co13  1  0.85662100  0.69001900  0.86429300  1
  Co  Co14  1  0.64337900  0.69001900  0.36429300  1
  Co  Co15  1  0.14337900  0.30998100  0.13570700  1
  O  O16  1  0.50000000  0.50000000  0.50000000  1
  O  O17  1  0.00000000  0.50000000  0.00000000  1
  O  O18  1  0.66747800  0.96529000  0.35761300  1
  O  O19  1  0.16747800  0.03471000  0.14238700  1
  O  O20  1  0.30164000  0.49987500  0.07186000  1
  O  O21  1  0.80164000  0.50012500  0.42814000  1
  O  O22  1  0.69836000  0.50012500  0.92814000  1
  O  O23  1  0.19836000  0.49987500  0.57186000  1
  O  O24  1  0.40412400  0.24393600  0.80857200  1
  O  O25  1  0.90412400  0.75606400  0.69142800  1
  O  O26  1  0.59587600  0.75606400  0.19142800  1
  O  O27  1  0.09587600  0.24393600  0.30857200  1
  O  O28  1  0.83252200  0.96529000  0.85761300  1
  O  O29  1  0.33252200  0.03471000  0.64238700  1
