# generated using pymatgen
data_BaTiSe3
_symmetry_space_group_name_H-M   'P 1'
_cell_length_a   7.12279216
_cell_length_b   7.12279216
_cell_length_c   6.06651300
_cell_angle_alpha   90.00000000
_cell_angle_beta   90.00000000
_cell_angle_gamma   120.00000147
_symmetry_Int_Tables_number   1
_chemical_formula_structural   BaTiSe3
_chemical_formula_sum   'Ba2 Ti2 Se6'
_cell_volume   266.54485357
_cell_formula_units_Z   2
loop_
 _symmetry_equiv_pos_site_id
 _symmetry_equiv_pos_as_xyz
  1  'x, y, z'
loop_
 _atom_site_type_symbol
 _atom_site_label
 _atom_site_symmetry_multiplicity
 _atom_site_fract_x
 _atom_site_fract_y
 _atom_site_fract_z
 _atom_site_occupancy
  Ba  Ba0  1  0.33333300  0.66666700  0.75000000  1
  Ba  Ba1  1  0.66666700  0.33333300  0.25000000  1
  Ti  Ti2  1  0.00000000  0.00000000  0.50000000  1
  Ti  Ti3  1  0.00000000  0.00000000  0.00000000  1
  Se  Se4  1  0.16850600  0.83149400  0.25000000  1
  Se  Se5  1  0.16850600  0.33701300  0.25000000  1
  Se  Se6  1  0.66298700  0.83149400  0.25000000  1
  Se  Se7  1  0.83149400  0.16850600  0.75000000  1
  Se  Se8  1  0.83149400  0.66298700  0.75000000  1
  Se  Se9  1  0.33701300  0.16850600  0.75000000  1
