# generated using pymatgen
data_BaFe2(PO4)2
_symmetry_space_group_name_H-M   'P 1'
_cell_length_a   4.94748552
_cell_length_b   8.56034700
_cell_length_c   8.46182720
_cell_angle_alpha   109.67610201
_cell_angle_beta   89.84772120
_cell_angle_gamma   90.02987119
_symmetry_Int_Tables_number   1
_chemical_formula_structural   BaFe2(PO4)2
_chemical_formula_sum   'Ba2 Fe4 P4 O16'
_cell_volume   337.45047071
_cell_formula_units_Z   2
loop_
 _symmetry_equiv_pos_site_id
 _symmetry_equiv_pos_as_xyz
  1  'x, y, z'
loop_
 _atom_site_type_symbol
 _atom_site_label
 _atom_site_symmetry_multiplicity
 _atom_site_fract_x
 _atom_site_fract_y
 _atom_site_fract_z
 _atom_site_occupancy
  Ba  Ba0  1  0.00027000  0.99946200  0.99955300  1
  Ba  Ba1  1  0.49970900  0.50053100  0.00042500  1
  Fe  Fe2  1  0.00029000  0.83212600  0.48951700  1
  Fe  Fe3  1  0.49929400  0.66790600  0.51035000  1
  Fe  Fe4  1  0.50018700  0.32575300  0.48994700  1
  Fe  Fe5  1  0.00125000  0.17415000  0.51031600  1
  P  P6  1  0.99851800  0.42618300  0.27557400  1
  P  P7  1  0.50004300  0.92395500  0.27543900  1
  P  P8  1  0.99990100  0.57607100  0.72444700  1
  P  P9  1  0.50156600  0.07377600  0.72450200  1
  O  O10  1  0.99811100  0.36080500  0.08377200  1
  O  O11  1  0.50023400  0.86135000  0.08359600  1
  O  O12  1  0.99959200  0.63888600  0.91630100  1
  O  O13  1  0.50204200  0.13880000  0.91629400  1
  O  O14  1  0.15699800  0.59437300  0.33953600  1
  O  O15  1  0.66037500  0.09259200  0.34043700  1
  O  O16  1  0.14038900  0.29448400  0.34047300  1
  O  O17  1  0.63876900  0.79206900  0.33971200  1
  O  O18  1  0.69886200  0.45402000  0.34136300  1
  O  O19  1  0.20000800  0.95224500  0.34024900  1
  O  O20  1  0.83790300  0.40807800  0.65965800  1
  O  O21  1  0.34408600  0.90516000  0.66019200  1
  O  O22  1  0.86217600  0.70818800  0.65988800  1
  O  O23  1  0.35825300  0.20518200  0.66010000  1
  O  O24  1  0.29987300  0.54719500  0.65972900  1
  O  O25  1  0.80130000  0.04665700  0.65862900  1
