# generated using pymatgen
data_SrFe3(P2O7)2
_symmetry_space_group_name_H-M   'P 1'
_cell_length_a   7.65758956
_cell_length_b   7.87450300
_cell_length_c   9.71010616
_cell_angle_alpha   90.00000000
_cell_angle_beta   112.25252024
_cell_angle_gamma   90.00000000
_symmetry_Int_Tables_number   1
_chemical_formula_structural   SrFe3(P2O7)2
_chemical_formula_sum   'Sr2 Fe6 P8 O28'
_cell_volume   541.90958100
_cell_formula_units_Z   2
loop_
 _symmetry_equiv_pos_site_id
 _symmetry_equiv_pos_as_xyz
  1  'x, y, z'
loop_
 _atom_site_type_symbol
 _atom_site_label
 _atom_site_symmetry_multiplicity
 _atom_site_fract_x
 _atom_site_fract_y
 _atom_site_fract_z
 _atom_site_occupancy
  Sr  Sr0  1  0.50000000  0.50000000  0.50000000  1
  Sr  Sr1  1  0.50000000  0.00000000  0.00000000  1
  Fe  Fe2  1  0.18872700  0.62434700  0.02651800  1
  Fe  Fe3  1  0.00000000  0.00000000  0.00000000  1
  Fe  Fe4  1  0.18872700  0.87565300  0.52651800  1
  Fe  Fe5  1  0.81127300  0.37565300  0.97348200  1
  Fe  Fe6  1  0.81127300  0.12434700  0.47348200  1
  Fe  Fe7  1  0.00000000  0.50000000  0.50000000  1
  P  P8  1  0.60384000  0.05463500  0.70356500  1
  P  P9  1  0.39616000  0.55463500  0.79643500  1
  P  P10  1  0.39616000  0.94536500  0.29643500  1
  P  P11  1  0.60384000  0.44536500  0.20356500  1
  P  P12  1  0.88749000  0.79673300  0.69218600  1
  P  P13  1  0.11251000  0.29673300  0.80781400  1
  P  P14  1  0.88749000  0.70326700  0.19218600  1
  P  P15  1  0.11251000  0.20326700  0.30781400  1
  O  O16  1  0.84054700  0.62676600  0.61021000  1
  O  O17  1  0.15945300  0.12676600  0.88979000  1
  O  O18  1  0.15945300  0.37323400  0.38979000  1
  O  O19  1  0.84054700  0.87323400  0.11021000  1
  O  O20  1  0.27527200  0.60982900  0.63390200  1
  O  O21  1  0.72472800  0.10982900  0.86609800  1
  O  O22  1  0.72472800  0.39017100  0.36609800  1
  O  O23  1  0.27527200  0.89017000  0.13390200  1
  O  O24  1  0.62009100  0.17998000  0.58982800  1
  O  O25  1  0.37990900  0.67998000  0.91017200  1
  O  O26  1  0.37991000  0.82002000  0.41017200  1
  O  O27  1  0.62009100  0.32002000  0.08982800  1
  O  O28  1  0.68469800  0.87214300  0.67758500  1
  O  O29  1  0.31530200  0.37214300  0.82241400  1
  O  O30  1  0.31530200  0.12785700  0.32241500  1
  O  O31  1  0.68469800  0.62785700  0.17758500  1
  O  O32  1  0.40460300  0.48955000  0.19419800  1
  O  O33  1  0.59539700  0.98955000  0.30580200  1
  O  O34  1  0.59539700  0.51045000  0.80580200  1
  O  O35  1  0.40460300  0.01045000  0.69419800  1
  O  O36  1  0.00055900  0.21357100  0.13923200  1
  O  O37  1  0.99944100  0.71357100  0.36076800  1
  O  O38  1  0.97205600  0.92149100  0.61310500  1
  O  O39  1  0.00055900  0.28642900  0.63923200  1
  O  O40  1  0.97205600  0.57850700  0.11310500  1
  O  O41  1  0.02794400  0.07850900  0.38689500  1
  O  O42  1  0.02794400  0.42149100  0.88689500  1
  O  O43  1  0.99944100  0.78642900  0.86076800  1
