# generated using pymatgen
data_Na5Nd4Ge4O16F
_symmetry_space_group_name_H-M   'P 1'
_cell_length_a   9.08038747
_cell_length_b   9.08038747
_cell_length_c   9.08038747
_cell_angle_alpha   95.73386286
_cell_angle_beta   95.73386286
_cell_angle_gamma   143.14770943
_symmetry_Int_Tables_number   1
_chemical_formula_structural   Na5Nd4Ge4O16F
_chemical_formula_sum   'Na5 Nd4 Ge4 O16 F1'
_cell_volume   426.01989617
_cell_formula_units_Z   1
loop_
 _symmetry_equiv_pos_site_id
 _symmetry_equiv_pos_as_xyz
  1  'x, y, z'
loop_
 _atom_site_type_symbol
 _atom_site_label
 _atom_site_symmetry_multiplicity
 _atom_site_fract_x
 _atom_site_fract_y
 _atom_site_fract_z
 _atom_site_occupancy
  Na  Na0  1  0.00000000  0.00000000  0.00000000  1
  Na  Na1  1  0.87730600  0.39437100  0.30755300  1
  Na  Na2  1  0.08681800  0.56975300  0.69244700  1
  Na  Na3  1  0.43024700  0.12269400  0.51706500  1
  Na  Na4  1  0.60562900  0.91318200  0.48293500  1
  Nd  Nd5  1  0.29354200  0.36022100  0.70262100  1
  Nd  Nd6  1  0.65760100  0.59092200  0.29737900  1
  Nd  Nd7  1  0.40907800  0.70645800  0.06667900  1
  Nd  Nd8  1  0.63977900  0.34239900  0.93332100  1
  Ge  Ge9  1  0.74247900  0.09298800  0.85621100  1
  Ge  Ge10  1  0.23677700  0.88626800  0.14378900  1
  Ge  Ge11  1  0.11373200  0.25752100  0.35050800  1
  Ge  Ge12  1  0.90701200  0.76322300  0.64949200  1
  O  O13  1  0.05471000  0.28001900  0.86983900  1
  O  O14  1  0.41018000  0.18487100  0.13016100  1
  O  O15  1  0.81512900  0.94529000  0.22530900  1
  O  O16  1  0.71998100  0.58982000  0.77469100  1
  O  O17  1  0.63708400  0.13633900  0.71691400  1
  O  O18  1  0.41942600  0.92017000  0.28308600  1
  O  O19  1  0.07983000  0.36291600  0.49925600  1
  O  O20  1  0.86366100  0.58057400  0.50074400  1
  O  O21  1  0.52059900  0.76363700  0.82458900  1
  O  O22  1  0.93904800  0.69600900  0.17541100  1
  O  O23  1  0.30399100  0.47940100  0.24303800  1
  O  O24  1  0.23636300  0.06095200  0.75696200  1
  O  O25  1  0.71940800  0.16373800  0.03649300  1
  O  O26  1  0.12724500  0.68291500  0.96350700  1
  O  O27  1  0.31708500  0.28059200  0.44433000  1
  O  O28  1  0.83626200  0.87275500  0.55567000  1
  F  F29  1  0.50000000  0.50000000  0.00000000  1
