# generated using pymatgen
data_Tm2Be2SiO7
_symmetry_space_group_name_H-M   'P 1'
_cell_length_a   7.26224800
_cell_length_b   7.26224800
_cell_length_c   4.74145900
_cell_angle_alpha   90.00000000
_cell_angle_beta   90.00000000
_cell_angle_gamma   90.00000000
_symmetry_Int_Tables_number   1
_chemical_formula_structural   Tm2Be2SiO7
_chemical_formula_sum   'Tm4 Be4 Si2 O14'
_cell_volume   250.06571412
_cell_formula_units_Z   2
loop_
 _symmetry_equiv_pos_site_id
 _symmetry_equiv_pos_as_xyz
  1  'x, y, z'
loop_
 _atom_site_type_symbol
 _atom_site_label
 _atom_site_symmetry_multiplicity
 _atom_site_fract_x
 _atom_site_fract_y
 _atom_site_fract_z
 _atom_site_occupancy
  Tm  Tm0  1  0.15784500  0.34215500  0.51077100  1
  Tm  Tm1  1  0.84215500  0.65784500  0.51077100  1
  Tm  Tm2  1  0.65784500  0.15784500  0.48922900  1
  Tm  Tm3  1  0.34215500  0.84215500  0.48922900  1
  Be  Be4  1  0.63709300  0.86290700  0.95786900  1
  Be  Be5  1  0.36290700  0.13709300  0.95786900  1
  Be  Be6  1  0.13709300  0.63709300  0.04213100  1
  Be  Be7  1  0.86290700  0.36290700  0.04213100  1
  Si  Si8  1  0.00000000  0.00000000  0.00000000  1
  Si  Si9  1  0.50000000  0.50000000  0.00000000  1
  O  O10  1  0.00000000  0.50000000  0.18748100  1
  O  O11  1  0.50000000  0.00000000  0.81251900  1
  O  O12  1  0.64094700  0.85905300  0.29322000  1
  O  O13  1  0.35905300  0.14094700  0.29322000  1
  O  O14  1  0.14094700  0.64094700  0.70678000  1
  O  O15  1  0.85905300  0.35905300  0.70678000  1
  O  O16  1  0.08356600  0.83757900  0.20376900  1
  O  O17  1  0.91643400  0.16242100  0.20376900  1
  O  O18  1  0.16242100  0.08356600  0.79623100  1
  O  O19  1  0.41643400  0.33757900  0.79623100  1
  O  O20  1  0.83757900  0.91643400  0.79623100  1
  O  O21  1  0.58356600  0.66242100  0.79623100  1
  O  O22  1  0.33757900  0.58356600  0.20376900  1
  O  O23  1  0.66242100  0.41643400  0.20376900  1
