# generated using pymatgen
data_GeAs2
_symmetry_space_group_name_H-M   'P 1'
_cell_length_a   3.77233000
_cell_length_b   10.66309700
_cell_length_c   15.53091100
_cell_angle_alpha   90.00000000
_cell_angle_beta   90.00000000
_cell_angle_gamma   90.00000000
_symmetry_Int_Tables_number   1
_chemical_formula_structural   GeAs2
_chemical_formula_sum   'Ge8 As16'
_cell_volume   624.72655728
_cell_formula_units_Z   8
loop_
 _symmetry_equiv_pos_site_id
 _symmetry_equiv_pos_as_xyz
  1  'x, y, z'
loop_
 _atom_site_type_symbol
 _atom_site_label
 _atom_site_symmetry_multiplicity
 _atom_site_fract_x
 _atom_site_fract_y
 _atom_site_fract_z
 _atom_site_occupancy
  Ge  Ge0  1  0.00000000  0.57658900  0.85128800  1
  Ge  Ge1  1  0.00000000  0.42341100  0.14871200  1
  Ge  Ge2  1  0.00000000  0.07658900  0.64871200  1
  Ge  Ge3  1  0.00000000  0.92341100  0.35128800  1
  Ge  Ge4  1  0.50000000  0.79107300  0.72830100  1
  Ge  Ge5  1  0.50000000  0.20892700  0.27169900  1
  Ge  Ge6  1  0.50000000  0.29107300  0.77169900  1
  Ge  Ge7  1  0.50000000  0.70892700  0.22830100  1
  As  As8  1  0.00000000  0.64542300  0.69946000  1
  As  As9  1  0.00000000  0.35457700  0.30054000  1
  As  As10  1  0.00000000  0.14542300  0.80054000  1
  As  As11  1  0.00000000  0.85457700  0.19946000  1
  As  As12  1  0.00000000  0.76337100  0.94798500  1
  As  As13  1  0.00000000  0.23662900  0.05201500  1
  As  As14  1  0.00000000  0.26337100  0.55201500  1
  As  As15  1  0.00000000  0.73662900  0.44798500  1
  As  As16  1  0.50000000  0.88451000  0.87889400  1
  As  As17  1  0.50000000  0.11549000  0.12110600  1
  As  As18  1  0.50000000  0.38451000  0.62110600  1
  As  As19  1  0.50000000  0.61549000  0.37889400  1
  As  As20  1  0.50000000  0.94028000  0.60440700  1
  As  As21  1  0.50000000  0.05972000  0.39559300  1
  As  As22  1  0.50000000  0.44028000  0.89559300  1
  As  As23  1  0.50000000  0.55972000  0.10440700  1
