# generated using pymatgen
data_Sr2FeCu(PbO3)2
_symmetry_space_group_name_H-M   'P 1'
_cell_length_a   5.55699000
_cell_length_b   5.63500800
_cell_length_c   12.33564800
_cell_angle_alpha   90.00000000
_cell_angle_beta   90.00000000
_cell_angle_gamma   90.00000000
_symmetry_Int_Tables_number   1
_chemical_formula_structural   Sr2FeCu(PbO3)2
_chemical_formula_sum   'Sr4 Fe2 Cu2 Pb4 O12'
_cell_volume   386.27457238
_cell_formula_units_Z   2
loop_
 _symmetry_equiv_pos_site_id
 _symmetry_equiv_pos_as_xyz
  1  'x, y, z'
loop_
 _atom_site_type_symbol
 _atom_site_label
 _atom_site_symmetry_multiplicity
 _atom_site_fract_x
 _atom_site_fract_y
 _atom_site_fract_z
 _atom_site_occupancy
  Sr  Sr0  1  0.50576700  0.50183400  0.64185900  1
  Sr  Sr1  1  0.50576700  0.49816600  0.35814100  1
  Sr  Sr2  1  0.00576700  0.00183400  0.35814100  1
  Sr  Sr3  1  0.00576700  0.99816600  0.64185900  1
  Fe  Fe4  1  0.00319700  0.50000000  0.50000000  1
  Fe  Fe5  1  0.50319700  0.00000000  0.50000000  1
  Cu  Cu6  1  0.54925900  0.50000000  0.00000000  1
  Cu  Cu7  1  0.04925900  0.00000000  0.00000000  1
  Pb  Pb8  1  0.50158900  0.98933800  0.85390900  1
  Pb  Pb9  1  0.50158900  0.01066200  0.14609100  1
  Pb  Pb10  1  0.00158900  0.48933800  0.14609100  1
  Pb  Pb11  1  0.00158900  0.51066200  0.85390900  1
  O  O12  1  0.56762100  0.58283300  0.85435000  1
  O  O13  1  0.56762100  0.41716700  0.14565000  1
  O  O14  1  0.06762100  0.08283300  0.14565000  1
  O  O15  1  0.06762100  0.91716700  0.85435000  1
  O  O16  1  0.50485200  0.00547800  0.67598800  1
  O  O17  1  0.50485200  0.99452200  0.32401200  1
  O  O18  1  0.00485200  0.50547800  0.32401200  1
  O  O19  1  0.00485200  0.49452200  0.67598800  1
  O  O20  1  0.75194300  0.25085000  0.49892900  1
  O  O21  1  0.75194300  0.74915000  0.50107100  1
  O  O22  1  0.25194300  0.75085000  0.50107100  1
  O  O23  1  0.25194300  0.24915000  0.49892900  1
