# generated using pymatgen
data_Cs2CdI4
_symmetry_space_group_name_H-M   'P 1'
_cell_length_a   8.68309400
_cell_length_b   8.10429600
_cell_length_c   11.37090291
_cell_angle_alpha   68.59073172
_cell_angle_beta   90.00000000
_cell_angle_gamma   90.00000000
_symmetry_Int_Tables_number   1
_chemical_formula_structural   Cs2CdI4
_chemical_formula_sum   'Cs4 Cd2 I8'
_cell_volume   744.95995449
_cell_formula_units_Z   2
loop_
 _symmetry_equiv_pos_site_id
 _symmetry_equiv_pos_as_xyz
  1  'x, y, z'
loop_
 _atom_site_type_symbol
 _atom_site_label
 _atom_site_symmetry_multiplicity
 _atom_site_fract_x
 _atom_site_fract_y
 _atom_site_fract_z
 _atom_site_occupancy
  Cs  Cs0  1  0.75000000  0.71782200  0.59153900  1
  Cs  Cs1  1  0.25000000  0.28217800  0.40846100  1
  Cs  Cs2  1  0.75000000  0.15926700  0.03255200  1
  Cs  Cs3  1  0.25000000  0.84073300  0.96744800  1
  Cd  Cd4  1  0.25000000  0.40937200  0.77687500  1
  Cd  Cd5  1  0.75000000  0.59062800  0.22312500  1
  I  I6  1  0.99091800  0.24737400  0.71463700  1
  I  I7  1  0.49091800  0.75262600  0.28536300  1
  I  I8  1  0.00908200  0.75262600  0.28536300  1
  I  I9  1  0.50908200  0.24737400  0.71463700  1
  I  I10  1  0.75000000  0.68649400  0.95568800  1
  I  I11  1  0.25000000  0.31350600  0.04431200  1
  I  I12  1  0.75000000  0.22262000  0.35468500  1
  I  I13  1  0.25000000  0.77738000  0.64531500  1
