# generated using pymatgen
data_Cs5(SO4)4
_symmetry_space_group_name_H-M   'P 1'
_cell_length_a   6.28148384
_cell_length_b   6.28148384
_cell_length_c   30.57606700
_cell_angle_alpha   90.00000000
_cell_angle_beta   90.00000000
_cell_angle_gamma   116.92196016
_symmetry_Int_Tables_number   1
_chemical_formula_structural   Cs5(SO4)4
_chemical_formula_sum   'Cs10 S8 O32'
_cell_volume   1075.69188535
_cell_formula_units_Z   2
loop_
 _symmetry_equiv_pos_site_id
 _symmetry_equiv_pos_as_xyz
  1  'x, y, z'
loop_
 _atom_site_type_symbol
 _atom_site_label
 _atom_site_symmetry_multiplicity
 _atom_site_fract_x
 _atom_site_fract_y
 _atom_site_fract_z
 _atom_site_occupancy
  Cs  Cs0  1  0.97931500  0.02068500  0.25000000  1
  Cs  Cs1  1  0.02068500  0.97931500  0.75000000  1
  Cs  Cs2  1  0.64850000  0.35150000  0.13349200  1
  Cs  Cs3  1  0.35150000  0.64850000  0.86650800  1
  Cs  Cs4  1  0.64850000  0.35150000  0.36650800  1
  Cs  Cs5  1  0.35150000  0.64850000  0.63349200  1
  Cs  Cs6  1  0.32953700  0.67046300  0.03184900  1
  Cs  Cs7  1  0.67046300  0.32953700  0.96815100  1
  Cs  Cs8  1  0.32953700  0.67046300  0.46815100  1
  Cs  Cs9  1  0.67046300  0.32953700  0.53184900  1
  S  S10  1  0.00120900  0.99879100  0.07351100  1
  S  S11  1  0.99879100  0.00120900  0.92648900  1
  S  S12  1  0.00120900  0.99879100  0.42648900  1
  S  S13  1  0.99879100  0.00120900  0.57351100  1
  S  S14  1  0.69171900  0.30828100  0.81692400  1
  S  S15  1  0.30828100  0.69171900  0.18307600  1
  S  S16  1  0.69171900  0.30828100  0.68307600  1
  S  S17  1  0.30828100  0.69171900  0.31692400  1
  O  O18  1  0.99646300  0.00353700  0.12221300  1
  O  O19  1  0.00353700  0.99646300  0.87778700  1
  O  O20  1  0.99646300  0.00353700  0.37778700  1
  O  O21  1  0.00353700  0.99646300  0.62221300  1
  O  O22  1  0.86786000  0.13214000  0.05829300  1
  O  O23  1  0.13214000  0.86786000  0.94170700  1
  O  O24  1  0.86786000  0.13214000  0.44170700  1
  O  O25  1  0.13214000  0.86786000  0.55829300  1
  O  O26  1  0.25189900  0.12005300  0.05742600  1
  O  O27  1  0.12005300  0.25189900  0.94257400  1
  O  O28  1  0.25189900  0.12005300  0.44257400  1
  O  O29  1  0.12005300  0.25189900  0.55742600  1
  O  O30  1  0.74810100  0.87994700  0.94257400  1
  O  O31  1  0.87994700  0.74810100  0.05742600  1
  O  O32  1  0.74810100  0.87994700  0.55742600  1
  O  O33  1  0.87994700  0.74810100  0.44257400  1
  O  O34  1  0.67487400  0.32512600  0.86545700  1
  O  O35  1  0.32512600  0.67487400  0.13454300  1
  O  O36  1  0.67487400  0.32512600  0.63454300  1
  O  O37  1  0.32512600  0.67487400  0.36545700  1
  O  O38  1  0.56397400  0.43602600  0.79720400  1
  O  O39  1  0.43602600  0.56397400  0.20279600  1
  O  O40  1  0.56397400  0.43602600  0.70279600  1
  O  O41  1  0.43602600  0.56397400  0.29720400  1
  O  O42  1  0.94604900  0.42581000  0.80349900  1
  O  O43  1  0.42581000  0.94604900  0.19650100  1
  O  O44  1  0.94604900  0.42581000  0.69650100  1
  O  O45  1  0.42581000  0.94604900  0.30349900  1
  O  O46  1  0.05395100  0.57419000  0.19650100  1
  O  O47  1  0.57419000  0.05395100  0.80349900  1
  O  O48  1  0.05395100  0.57419000  0.30349900  1
  O  O49  1  0.57419000  0.05395100  0.69650100  1
