# generated using pymatgen
data_Ho(ZnP)3
_symmetry_space_group_name_H-M   'P 1'
_cell_length_a   3.98327892
_cell_length_b   3.98327892
_cell_length_c   19.76121000
_cell_angle_alpha   90.00000000
_cell_angle_beta   90.00000000
_cell_angle_gamma   120.00001527
_symmetry_Int_Tables_number   1
_chemical_formula_structural   Ho(ZnP)3
_chemical_formula_sum   'Ho2 Zn6 P6'
_cell_volume   271.53482326
_cell_formula_units_Z   2
loop_
 _symmetry_equiv_pos_site_id
 _symmetry_equiv_pos_as_xyz
  1  'x, y, z'
loop_
 _atom_site_type_symbol
 _atom_site_label
 _atom_site_symmetry_multiplicity
 _atom_site_fract_x
 _atom_site_fract_y
 _atom_site_fract_z
 _atom_site_occupancy
  Ho  Ho0  1  0.00000000  0.00000000  0.00000000  1
  Ho  Ho1  1  0.00000000  0.00000000  0.50000000  1
  Zn  Zn2  1  0.33333300  0.66666700  0.75000000  1
  Zn  Zn3  1  0.66666700  0.33333300  0.25000000  1
  Zn  Zn4  1  0.33333300  0.66666700  0.12850100  1
  Zn  Zn5  1  0.66666700  0.33333300  0.87149900  1
  Zn  Zn6  1  0.66666700  0.33333300  0.62850100  1
  Zn  Zn7  1  0.33333300  0.66666700  0.37149900  1
  P  P8  1  0.33333300  0.66666700  0.58341100  1
  P  P9  1  0.66666700  0.33333300  0.41658900  1
  P  P10  1  0.66666700  0.33333300  0.08341100  1
  P  P11  1  0.33333300  0.66666700  0.91658900  1
  P  P12  1  0.33333300  0.66666700  0.25000000  1
  P  P13  1  0.66666700  0.33333300  0.75000000  1
