# generated using pymatgen
data_K38Nb7As24
_symmetry_space_group_name_H-M   'P 1'
_cell_length_a   10.58266497
_cell_length_b   13.24444777
_cell_length_c   36.52699305
_cell_angle_alpha   90.00000000
_cell_angle_beta   90.00000000
_cell_angle_gamma   66.45224658
_symmetry_Int_Tables_number   1
_chemical_formula_structural   K38Nb7As24
_chemical_formula_sum   'K76 Nb14 As48'
_cell_volume   4693.35110258
_cell_formula_units_Z   2
loop_
 _symmetry_equiv_pos_site_id
 _symmetry_equiv_pos_as_xyz
  1  'x, y, z'
loop_
 _atom_site_type_symbol
 _atom_site_label
 _atom_site_symmetry_multiplicity
 _atom_site_fract_x
 _atom_site_fract_y
 _atom_site_fract_z
 _atom_site_occupancy
  K  K0  1  0.83790438  0.32419124  0.09724516  1
  K  K1  1  0.16194108  0.67611785  0.90285343  1
  K  K2  1  0.83805892  0.32388215  0.40285343  1
  K  K3  1  0.16209562  0.67580876  0.59724516  1
  K  K4  1  0.31102111  0.79677969  0.08619878  1
  K  K5  1  0.10590824  0.20394815  0.91318899  1
  K  K6  1  0.30985639  0.79605185  0.41318899  1
  K  K7  1  0.10780080  0.20322031  0.58619878  1
  K  K8  1  0.69014361  0.20394815  0.91318899  1
  K  K9  1  0.89219920  0.79677969  0.08619878  1
  K  K10  1  0.68897889  0.20322031  0.58619878  1
  K  K11  1  0.89409176  0.79605185  0.41318899  1
  K  K12  1  0.79987307  0.83765853  0.30766864  1
  K  K13  1  0.63711386  0.16247337  0.69263807  1
  K  K14  1  0.79958723  0.83752663  0.19263807  1
  K  K15  1  0.63753161  0.16234147  0.80766864  1
  K  K16  1  0.20041277  0.16247337  0.69263807  1
  K  K17  1  0.36246839  0.83765853  0.30766864  1
  K  K18  1  0.20012693  0.16234147  0.80766864  1
  K  K19  1  0.36288614  0.83752663  0.19263807  1
  K  K20  1  0.40282445  0.70421650  0.98196000  1
  K  K21  1  0.08850497  0.30061314  0.01291115  1
  K  K22  1  0.38911811  0.69938686  0.51291115  1
  K  K23  1  0.10704095  0.29578350  0.48196000  1
  K  K24  1  0.61088189  0.30061314  0.01291115  1
  K  K25  1  0.89295905  0.70421650  0.98196000  1
  K  K26  1  0.59717555  0.29578350  0.48196000  1
  K  K27  1  0.91149503  0.69938686  0.51291115  1
  K  K28  1  0.54194278  0.36418949  0.25006251  1
  K  K29  1  0.90613227  0.63581051  0.75006251  1
  K  K30  1  0.45805722  0.63581051  0.75006251  1
  K  K31  1  0.09386773  0.36418949  0.25006251  1
  K  K32  1  0.75561596  0.48876808  0.99269949  1
  K  K33  1  0.23949238  0.52101524  0.00585336  1
  K  K34  1  0.76050762  0.47898476  0.50585336  1
  K  K35  1  0.24438404  0.51123192  0.49269949  1
  K  K36  1  0.06723497  0.86553007  0.25016608  1
  K  K37  1  0.93276503  0.13446993  0.75016608  1
  K  K38  1  0.62929531  0.21047399  0.16475851  1
  K  K39  1  0.83391392  0.78738850  0.83804707  1
  K  K40  1  0.62130242  0.21261150  0.33804707  1
  K  K41  1  0.83976930  0.78952601  0.66475851  1
  K  K42  1  0.37869758  0.78738850  0.83804707  1
  K  K43  1  0.16023070  0.21047399  0.16475851  1
  K  K44  1  0.37070469  0.78952601  0.66475851  1
  K  K45  1  0.16608608  0.21261150  0.33804707  1
  K  K46  1  0.30790708  0.99866190  0.99980307  1
  K  K47  1  0.30656898  0.00133810  0.49980307  1
  K  K48  1  0.69343102  0.99866190  0.99980307  1
  K  K49  1  0.69209292  0.00133810  0.49980307  1
  K  K50  1  0.98472804  0.03054393  0.15621175  1
  K  K51  1  0.01530231  0.96939538  0.84376858  1
  K  K52  1  0.98469769  0.03060462  0.34376858  1
  K  K53  1  0.01527196  0.96945607  0.65621175  1
  K  K54  1  0.51621756  0.96756489  0.09089530  1
  K  K55  1  0.49268656  0.01462688  0.91089216  1
  K  K56  1  0.50731344  0.98537312  0.41089216  1
  K  K57  1  0.48378244  0.03243511  0.59089530  1
  K  K58  1  0.22885477  0.54229046  0.10253751  1
  K  K59  1  0.75791832  0.48416336  0.89756691  1
  K  K60  1  0.24208168  0.51583664  0.39756691  1
  K  K61  1  0.77114523  0.45770954  0.60253751  1
  K  K62  1  0.53192448  0.53622174  0.15785287  1
  K  K63  1  0.06834116  0.46224023  0.84257201  1
  K  K64  1  0.53058140  0.53775977  0.34257201  1
  K  K65  1  0.06814623  0.46377826  0.65785287  1
  K  K66  1  0.46941860  0.46224023  0.84257201  1
  K  K67  1  0.93185377  0.53622174  0.15785287  1
  K  K68  1  0.46807552  0.46377826  0.65785287  1
  K  K69  1  0.93165884  0.53775977  0.34257201  1
  K  K70  1  0.42587878  0.14824245  0.25015030  1
  K  K71  1  0.57412122  0.85175755  0.75015030  1
  K  K72  1  0.72672015  0.54655969  0.24993363  1
  K  K73  1  0.27327985  0.45344031  0.74993363  1
  K  K74  1  0.37236215  0.25527571  0.07748211  1
  K  K75  1  0.62763785  0.74472429  0.57748211  1
  Nb  Nb76  1  0.90316579  0.19366842  0.25020928  1
  Nb  Nb77  1  0.09683421  0.80633158  0.75020928  1
  Nb  Nb78  1  0.67981973  0.64036053  0.07417565  1
  Nb  Nb79  1  0.32287352  0.35425297  0.92727082  1
  Nb  Nb80  1  0.67712648  0.64574703  0.42727082  1
  Nb  Nb81  1  0.32018027  0.35963947  0.57417565  1
  Nb  Nb82  1  0.20529261  0.58941478  0.20613478  1
  Nb  Nb83  1  0.79564687  0.40870627  0.79303718  1
  Nb  Nb84  1  0.20435313  0.59129373  0.29303718  1
  Nb  Nb85  1  0.79470739  0.41058522  0.70613478  1
  Nb  Nb86  1  0.97625057  0.04749885  0.04660568  1
  Nb  Nb87  1  0.02298791  0.95402418  0.95384205  1
  Nb  Nb88  1  0.97701209  0.04597582  0.45384205  1
  Nb  Nb89  1  0.02374943  0.95250115  0.54660568  1
  As  As90  1  0.76079528  0.07550305  0.24994549  1
  As  As91  1  0.83629833  0.92449695  0.74994549  1
  As  As92  1  0.23920472  0.92449695  0.74994549  1
  As  As93  1  0.16370167  0.07550305  0.24994549  1
  As  As94  1  0.53384707  0.52814908  0.06498993  1
  As  As95  1  0.06671699  0.46907139  0.93499888  1
  As  As96  1  0.53578839  0.53092861  0.43499888  1
  As  As97  1  0.06199615  0.47185092  0.56498993  1
  As  As98  1  0.46421161  0.46907139  0.93499888  1
  As  As99  1  0.93800385  0.52814908  0.06498993  1
  As  As100  1  0.46615293  0.47185092  0.56498993  1
  As  As101  1  0.93328301  0.53092861  0.43499888  1
  As  As102  1  0.13001762  0.73996475  0.16068044  1
  As  As103  1  0.86800773  0.26398455  0.84058320  1
  As  As104  1  0.13199227  0.73601545  0.34058320  1
  As  As105  1  0.86998238  0.26003525  0.66068044  1
  As  As106  1  0.75739135  0.09074645  0.08229058  1
  As  As107  1  0.85010846  0.91594495  0.91715190  1
  As  As108  1  0.76605341  0.08405505  0.41715190  1
  As  As109  1  0.84813780  0.90925355  0.58229058  1
  As  As110  1  0.23394659  0.91594495  0.91715190  1
  As  As111  1  0.15186220  0.09074645  0.08229058  1
  As  As112  1  0.24260865  0.90925355  0.58229058  1
  As  As113  1  0.14989154  0.08405505  0.41715190  1
  As  As114  1  0.30201984  0.39596031  0.18004874  1
  As  As115  1  0.69889846  0.60220309  0.81641626  1
  As  As116  1  0.30110154  0.39779691  0.31641626  1
  As  As117  1  0.69798016  0.60403969  0.68004874  1
  As  As118  1  0.63014663  0.73970673  0.13585717  1
  As  As119  1  0.37246060  0.25507881  0.86562210  1
  As  As120  1  0.62753940  0.74492119  0.36562210  1
  As  As121  1  0.36985337  0.26029327  0.63585717  1
  As  As122  1  0.07206564  0.85586872  0.01644276  1
  As  As123  1  0.92740703  0.14518594  0.98477894  1
  As  As124  1  0.07259297  0.85481406  0.48477894  1
  As  As125  1  0.92793436  0.14413128  0.51644276  1
  As  As126  1  0.60697523  0.78604954  0.02643405  1
  As  As127  1  0.39326125  0.21347750  0.97798690  1
  As  As128  1  0.60673875  0.78652250  0.47798690  1
  As  As129  1  0.39302477  0.21395046  0.52643405  1
  As  As130  1  0.84074961  0.31850078  0.19498721  1
  As  As131  1  0.15898805  0.68202390  0.80550502  1
  As  As132  1  0.84101195  0.31797610  0.30550502  1
  As  As133  1  0.15925039  0.68149922  0.69498721  1
  As  As134  1  0.37116598  0.63162441  0.24947457  1
  As  As135  1  0.00279039  0.36837559  0.74947457  1
  As  As136  1  0.62883402  0.36837559  0.74947457  1
  As  As137  1  0.99720961  0.63162441  0.24947457  1
