# generated using pymatgen
data_NbS2
_symmetry_space_group_name_H-M   'P 1'
_cell_length_a   3.36275366
_cell_length_b   3.36275366
_cell_length_c   13.24899700
_cell_angle_alpha   90.00000000
_cell_angle_beta   90.00000000
_cell_angle_gamma   119.99999334
_symmetry_Int_Tables_number   1
_chemical_formula_structural   NbS2
_chemical_formula_sum   'Nb2 S4'
_cell_volume   129.74892584
_cell_formula_units_Z   2
loop_
 _symmetry_equiv_pos_site_id
 _symmetry_equiv_pos_as_xyz
  1  'x, y, z'
loop_
 _atom_site_type_symbol
 _atom_site_label
 _atom_site_symmetry_multiplicity
 _atom_site_fract_x
 _atom_site_fract_y
 _atom_site_fract_z
 _atom_site_occupancy
  Nb  Nb0  1  0.00000000  0.00000000  0.25000000  1
  Nb  Nb1  1  0.00000000  0.00000000  0.75000000  1
  S  S2  1  0.33333300  0.66666700  0.36823800  1
  S  S3  1  0.66666700  0.33333300  0.63176200  1
  S  S4  1  0.66666700  0.33333300  0.86823800  1
  S  S5  1  0.33333300  0.66666700  0.13176200  1
