# generated using pymatgen
data_La4In21Pd10
_symmetry_space_group_name_H-M   'P 1'
_cell_length_a   12.28251501
_cell_length_b   12.28251501
_cell_length_c   17.96443573
_cell_angle_alpha   55.91011450
_cell_angle_beta   55.91011450
_cell_angle_gamma   21.57035015
_symmetry_Int_Tables_number   1
_chemical_formula_structural   La4In21Pd10
_chemical_formula_sum   'La4 In21 Pd10'
_cell_volume   818.25596070
_cell_formula_units_Z   1
loop_
 _symmetry_equiv_pos_site_id
 _symmetry_equiv_pos_as_xyz
  1  'x, y, z'
loop_
 _atom_site_type_symbol
 _atom_site_label
 _atom_site_symmetry_multiplicity
 _atom_site_fract_x
 _atom_site_fract_y
 _atom_site_fract_z
 _atom_site_occupancy
  La  La0  1  0.22886300  0.22886300  0.67500200  1
  La  La1  1  0.77113700  0.77113700  0.32499800  1
  La  La2  1  0.87814800  0.87814800  0.83359000  1
  La  La3  1  0.12185200  0.12185200  0.16641000  1
  In  In4  1  0.50000000  0.50000000  0.00000000  1
  In  In5  1  0.11463400  0.11463400  0.94885800  1
  In  In6  1  0.88536600  0.88536600  0.05114200  1
  In  In7  1  0.45882100  0.45882100  0.86752600  1
  In  In8  1  0.54117900  0.54117900  0.13247400  1
  In  In9  1  0.06472600  0.06472600  0.70279400  1
  In  In10  1  0.93527400  0.93527400  0.29720500  1
  In  In11  1  0.36947100  0.36947100  0.69907600  1
  In  In12  1  0.63052900  0.63052900  0.30092400  1
  In  In13  1  0.98969100  0.98969100  0.59298400  1
  In  In14  1  0.01030900  0.01030900  0.40701600  1
  In  In15  1  0.74939000  0.74939000  0.79505200  1
  In  In16  1  0.25061000  0.25061000  0.20494800  1
  In  In17  1  0.61475700  0.61475700  0.79644900  1
  In  In18  1  0.38524300  0.38524300  0.20355100  1
  In  In19  1  0.60161000  0.60161000  0.50299200  1
  In  In20  1  0.39839000  0.39839000  0.49700800  1
  In  In21  1  0.20055700  0.20055700  0.49645500  1
  In  In22  1  0.79944300  0.79944300  0.50354500  1
  In  In23  1  0.70205500  0.70205500  0.99881700  1
  In  In24  1  0.29794500  0.29794500  0.00118300  1
  Pd  Pd25  1  0.24897800  0.24897800  0.88615100  1
  Pd  Pd26  1  0.75102200  0.75102200  0.11384900  1
  Pd  Pd27  1  0.02473000  0.02473000  0.88843900  1
  Pd  Pd28  1  0.97527000  0.97527000  0.11156100  1
  Pd  Pd29  1  0.65305900  0.65305900  0.61259200  1
  Pd  Pd30  1  0.34694100  0.34694100  0.38740800  1
  Pd  Pd31  1  0.86418900  0.86418900  0.60624500  1
  Pd  Pd32  1  0.13581100  0.13581100  0.39375500  1
  Pd  Pd33  1  0.49574500  0.49574500  0.68578600  1
  Pd  Pd34  1  0.50425500  0.50425500  0.31421400  1
