# generated using pymatgen
data_NdGa6
_symmetry_space_group_name_H-M   'P 1'
_cell_length_a   6.08304600
_cell_length_b   6.08304600
_cell_length_c   7.66549900
_cell_angle_alpha   90.00000000
_cell_angle_beta   90.00000000
_cell_angle_gamma   90.00000000
_symmetry_Int_Tables_number   1
_chemical_formula_structural   NdGa6
_chemical_formula_sum   'Nd2 Ga12'
_cell_volume   283.64989853
_cell_formula_units_Z   2
loop_
 _symmetry_equiv_pos_site_id
 _symmetry_equiv_pos_as_xyz
  1  'x, y, z'
loop_
 _atom_site_type_symbol
 _atom_site_label
 _atom_site_symmetry_multiplicity
 _atom_site_fract_x
 _atom_site_fract_y
 _atom_site_fract_z
 _atom_site_occupancy
  Nd  Nd0  1  0.50000000  0.00000000  0.00000000  1
  Nd  Nd1  1  0.00000000  0.50000000  0.00000000  1
  Ga  Ga2  1  0.50000000  0.50000000  0.16174900  1
  Ga  Ga3  1  0.00000000  0.00000000  0.16174900  1
  Ga  Ga4  1  0.00000000  0.00000000  0.83825100  1
  Ga  Ga5  1  0.50000000  0.50000000  0.83825100  1
  Ga  Ga6  1  0.80774400  0.69225600  0.34950500  1
  Ga  Ga7  1  0.30774400  0.80774400  0.34950500  1
  Ga  Ga8  1  0.69225600  0.19225600  0.34950500  1
  Ga  Ga9  1  0.19225600  0.30774400  0.34950500  1
  Ga  Ga10  1  0.69225600  0.80774400  0.65049500  1
  Ga  Ga11  1  0.19225600  0.69225600  0.65049500  1
  Ga  Ga12  1  0.80774400  0.30774400  0.65049500  1
  Ga  Ga13  1  0.30774400  0.19225600  0.65049500  1
