# generated using pymatgen
data_Zn11(B4Rh9)2
_symmetry_space_group_name_H-M   'P 1'
_cell_length_a   17.89961900
_cell_length_b   17.89961900
_cell_length_c   2.88206800
_cell_angle_alpha   90.00000000
_cell_angle_beta   90.00000000
_cell_angle_gamma   90.00000000
_symmetry_Int_Tables_number   1
_chemical_formula_structural   Zn11(B4Rh9)2
_chemical_formula_sum   'Zn22 B16 Rh36'
_cell_volume   923.40409747
_cell_formula_units_Z   2
loop_
 _symmetry_equiv_pos_site_id
 _symmetry_equiv_pos_as_xyz
  1  'x, y, z'
loop_
 _atom_site_type_symbol
 _atom_site_label
 _atom_site_symmetry_multiplicity
 _atom_site_fract_x
 _atom_site_fract_y
 _atom_site_fract_z
 _atom_site_occupancy
  Zn  Zn0  1  0.03227000  0.18757400  0.00000000  1
  Zn  Zn1  1  0.96773000  0.81242600  0.00000000  1
  Zn  Zn2  1  0.18757400  0.96773000  0.00000000  1
  Zn  Zn3  1  0.53227000  0.31242600  0.00000000  1
  Zn  Zn4  1  0.81242600  0.03227000  0.00000000  1
  Zn  Zn5  1  0.46773000  0.68757400  0.00000000  1
  Zn  Zn6  1  0.68757400  0.53227000  0.00000000  1
  Zn  Zn7  1  0.31242600  0.46773000  0.00000000  1
  Zn  Zn8  1  0.20892400  0.70892400  0.00000000  1
  Zn  Zn9  1  0.79107600  0.29107600  0.00000000  1
  Zn  Zn10  1  0.70892400  0.79107600  0.00000000  1
  Zn  Zn11  1  0.29107600  0.20892400  0.00000000  1
  Zn  Zn12  1  0.66859100  0.16859100  0.00000000  1
  Zn  Zn13  1  0.33140900  0.83140900  0.00000000  1
  Zn  Zn14  1  0.16859100  0.33140900  0.00000000  1
  Zn  Zn15  1  0.83140900  0.66859100  0.00000000  1
  Zn  Zn16  1  0.55049900  0.05049900  0.00000000  1
  Zn  Zn17  1  0.44950100  0.94950100  0.00000000  1
  Zn  Zn18  1  0.05049900  0.44950100  0.00000000  1
  Zn  Zn19  1  0.94950100  0.55049900  0.00000000  1
  Zn  Zn20  1  0.00000000  0.00000000  0.00000000  1
  Zn  Zn21  1  0.50000000  0.50000000  0.00000000  1
  B  B22  1  0.16650600  0.12380600  0.00000000  1
  B  B23  1  0.83349400  0.87619400  0.00000000  1
  B  B24  1  0.12380600  0.83349400  0.00000000  1
  B  B25  1  0.66650600  0.37619400  0.00000000  1
  B  B26  1  0.87619400  0.16650600  0.00000000  1
  B  B27  1  0.33349400  0.62380600  0.00000000  1
  B  B28  1  0.62380600  0.66650600  0.00000000  1
  B  B29  1  0.37619400  0.33349400  0.00000000  1
  B  B30  1  0.33438600  0.03893200  0.00000000  1
  B  B31  1  0.66561400  0.96106800  0.00000000  1
  B  B32  1  0.03893200  0.66561400  0.00000000  1
  B  B33  1  0.83438600  0.46106800  0.00000000  1
  B  B34  1  0.96106800  0.33438600  0.00000000  1
  B  B35  1  0.16561400  0.53893200  0.00000000  1
  B  B36  1  0.53893200  0.83438600  0.00000000  1
  B  B37  1  0.46106800  0.16561400  0.00000000  1
  Rh  Rh38  1  0.25588300  0.08770300  0.50000000  1
  Rh  Rh39  1  0.74411700  0.91229700  0.50000000  1
  Rh  Rh40  1  0.08770300  0.74411700  0.50000000  1
  Rh  Rh41  1  0.75588300  0.41229700  0.50000000  1
  Rh  Rh42  1  0.91229700  0.25588300  0.50000000  1
  Rh  Rh43  1  0.24411700  0.58770300  0.50000000  1
  Rh  Rh44  1  0.58770300  0.75588300  0.50000000  1
  Rh  Rh45  1  0.41229700  0.24411700  0.50000000  1
  Rh  Rh46  1  0.04763200  0.32549400  0.50000000  1
  Rh  Rh47  1  0.95236800  0.67450600  0.50000000  1
  Rh  Rh48  1  0.32549400  0.95236800  0.50000000  1
  Rh  Rh49  1  0.54763200  0.17450600  0.50000000  1
  Rh  Rh50  1  0.67450600  0.04763200  0.50000000  1
  Rh  Rh51  1  0.45236800  0.82549400  0.50000000  1
  Rh  Rh52  1  0.82549400  0.54763200  0.50000000  1
  Rh  Rh53  1  0.17450600  0.45236800  0.50000000  1
  Rh  Rh54  1  0.09946900  0.06780100  0.50000000  1
  Rh  Rh55  1  0.90053100  0.93219900  0.50000000  1
  Rh  Rh56  1  0.06780100  0.90053100  0.50000000  1
  Rh  Rh57  1  0.59946900  0.43219900  0.50000000  1
  Rh  Rh58  1  0.93219900  0.09946900  0.50000000  1
  Rh  Rh59  1  0.40053100  0.56780100  0.50000000  1
  Rh  Rh60  1  0.56780100  0.59946900  0.50000000  1
  Rh  Rh61  1  0.43219900  0.40053100  0.50000000  1
  Rh  Rh62  1  0.08213100  0.58213100  0.50000000  1
  Rh  Rh63  1  0.91786900  0.41786900  0.50000000  1
  Rh  Rh64  1  0.58213100  0.91786900  0.50000000  1
  Rh  Rh65  1  0.41786900  0.08213100  0.50000000  1
  Rh  Rh66  1  0.16108900  0.21125200  0.50000000  1
  Rh  Rh67  1  0.83891100  0.78874800  0.50000000  1
  Rh  Rh68  1  0.21125200  0.83891100  0.50000000  1
  Rh  Rh69  1  0.66108900  0.28874800  0.50000000  1
  Rh  Rh70  1  0.78874800  0.16108900  0.50000000  1
  Rh  Rh71  1  0.33891100  0.71125200  0.50000000  1
  Rh  Rh72  1  0.71125200  0.66108900  0.50000000  1
  Rh  Rh73  1  0.28874800  0.33891100  0.50000000  1
