# generated using pymatgen
data_Pr2Ni3P4
_symmetry_space_group_name_H-M   'P 1'
_cell_length_a   3.96015300
_cell_length_b   3.96015300
_cell_length_c   9.34562200
_cell_angle_alpha   90.00000000
_cell_angle_beta   90.00000000
_cell_angle_gamma   90.00000000
_symmetry_Int_Tables_number   1
_chemical_formula_structural   Pr2Ni3P4
_chemical_formula_sum   'Pr2 Ni3 P4'
_cell_volume   146.56563082
_cell_formula_units_Z   1
loop_
 _symmetry_equiv_pos_site_id
 _symmetry_equiv_pos_as_xyz
  1  'x, y, z'
loop_
 _atom_site_type_symbol
 _atom_site_label
 _atom_site_symmetry_multiplicity
 _atom_site_fract_x
 _atom_site_fract_y
 _atom_site_fract_z
 _atom_site_occupancy
  Pr  Pr0  1  0.50000000  0.00000000  0.76175200  1
  Pr  Pr1  1  0.00000000  0.50000000  0.23824800  1
  Ni  Ni2  1  0.00000000  0.00000000  0.50000000  1
  Ni  Ni3  1  0.00000000  0.00000000  0.00000000  1
  Ni  Ni4  1  0.50000000  0.50000000  0.50000000  1
  P  P5  1  0.00000000  0.50000000  0.87850900  1
  P  P6  1  0.50000000  0.00000000  0.37678700  1
  P  P7  1  0.50000000  0.00000000  0.12149100  1
  P  P8  1  0.00000000  0.50000000  0.62321300  1
