# generated using pymatgen
data_Ca3YTi4O12
_symmetry_space_group_name_H-M   'P 1'
_cell_length_a   7.72402000
_cell_length_b   5.40202100
_cell_length_c   5.53335039
_cell_angle_alpha   89.80096296
_cell_angle_beta   90.00000000
_cell_angle_gamma   90.00000000
_symmetry_Int_Tables_number   1
_chemical_formula_structural   Ca3YTi4O12
_chemical_formula_sum   'Ca3 Y1 Ti4 O12'
_cell_volume   230.87941277
_cell_formula_units_Z   1
loop_
 _symmetry_equiv_pos_site_id
 _symmetry_equiv_pos_as_xyz
  1  'x, y, z'
loop_
 _atom_site_type_symbol
 _atom_site_label
 _atom_site_symmetry_multiplicity
 _atom_site_fract_x
 _atom_site_fract_y
 _atom_site_fract_z
 _atom_site_occupancy
  Ca  Ca0  1  0.50000000  0.49090600  0.54723300  1
  Ca  Ca1  1  0.00000000  0.99183200  0.95321800  1
  Ca  Ca2  1  0.00000000  0.50925200  0.45395400  1
  Y  Y3  1  0.50000000  0.00790100  0.05519600  1
  Ti  Ti4  1  0.24800500  0.99869700  0.50111100  1
  Ti  Ti5  1  0.75226100  0.50171400  0.99924500  1
  Ti  Ti6  1  0.75199500  0.99869700  0.50111100  1
  Ti  Ti7  1  0.24773900  0.50171400  0.99924500  1
  O  O8  1  0.50000000  0.59122600  0.97888700  1
  O  O9  1  0.50000000  0.92140000  0.47180500  1
  O  O10  1  0.00000000  0.42268300  0.02160700  1
  O  O11  1  0.00000000  0.07999700  0.52183600  1
  O  O12  1  0.78716500  0.79979400  0.20199000  1
  O  O13  1  0.20892800  0.70228600  0.70413600  1
  O  O14  1  0.29729900  0.19753900  0.80118500  1
  O  O15  1  0.70425500  0.29237200  0.29046500  1
  O  O16  1  0.70270100  0.19753900  0.80118500  1
  O  O17  1  0.29574500  0.29237200  0.29046500  1
  O  O18  1  0.21283500  0.79979400  0.20199000  1
  O  O19  1  0.79107200  0.70228600  0.70413600  1
