# generated using pymatgen
data_Ho2Si2O7
_symmetry_space_group_name_H-M   'P 1'
_cell_length_a   5.07739500
_cell_length_b   8.15874900
_cell_length_c   13.75106800
_cell_angle_alpha   90.00000000
_cell_angle_beta   90.00000000
_cell_angle_gamma   90.00000000
_symmetry_Int_Tables_number   1
_chemical_formula_structural   Ho2Si2O7
_chemical_formula_sum   'Ho8 Si8 O28'
_cell_volume   569.64062356
_cell_formula_units_Z   4
loop_
 _symmetry_equiv_pos_site_id
 _symmetry_equiv_pos_as_xyz
  1  'x, y, z'
loop_
 _atom_site_type_symbol
 _atom_site_label
 _atom_site_symmetry_multiplicity
 _atom_site_fract_x
 _atom_site_fract_y
 _atom_site_fract_z
 _atom_site_occupancy
  Ho  Ho0  1  0.84254200  0.51004600  0.62560900  1
  Ho  Ho1  1  0.15745800  0.01004600  0.37439100  1
  Ho  Ho2  1  0.65745800  0.51004600  0.12560900  1
  Ho  Ho3  1  0.34254200  0.01004600  0.87439100  1
  Ho  Ho4  1  0.84254200  0.98995400  0.62560900  1
  Ho  Ho5  1  0.15745800  0.48995400  0.37439100  1
  Ho  Ho6  1  0.65745800  0.98995400  0.12560900  1
  Ho  Ho7  1  0.34254200  0.48995400  0.87439100  1
  Si  Si8  1  0.12581500  0.25000000  0.04081700  1
  Si  Si9  1  0.87418500  0.75000000  0.95918300  1
  Si  Si10  1  0.37418500  0.25000000  0.54081700  1
  Si  Si11  1  0.62581500  0.75000000  0.45918300  1
  Si  Si12  1  0.88016400  0.25000000  0.81821300  1
  Si  Si13  1  0.11983600  0.75000000  0.18178700  1
  Si  Si14  1  0.61983600  0.25000000  0.31821300  1
  Si  Si15  1  0.38016400  0.75000000  0.68178700  1
  O  O16  1  0.84783600  0.25000000  0.10017900  1
  O  O17  1  0.15216400  0.75000000  0.89982100  1
  O  O18  1  0.65216400  0.25000000  0.60017900  1
  O  O19  1  0.34783600  0.75000000  0.39982100  1
  O  O20  1  0.29400300  0.41967200  0.04766100  1
  O  O21  1  0.70599700  0.91967200  0.95233900  1
  O  O22  1  0.20599700  0.41967200  0.54766100  1
  O  O23  1  0.79400300  0.91967200  0.45233900  1
  O  O24  1  0.29400300  0.08032800  0.04766100  1
  O  O25  1  0.70599700  0.58032800  0.95233900  1
  O  O26  1  0.20599700  0.08032800  0.54766100  1
  O  O27  1  0.79400300  0.58032800  0.45233900  1
  O  O28  1  0.06644900  0.25000000  0.91951100  1
  O  O29  1  0.93355100  0.75000000  0.08048900  1
  O  O30  1  0.43355100  0.25000000  0.41951100  1
  O  O31  1  0.56644900  0.75000000  0.58048900  1
  O  O32  1  0.49152300  0.58442600  0.73350500  1
  O  O33  1  0.50847700  0.08442600  0.26649500  1
  O  O34  1  0.00847700  0.58442600  0.23350500  1
  O  O35  1  0.99152300  0.08442600  0.76649500  1
  O  O36  1  0.49152300  0.91557400  0.73350500  1
  O  O37  1  0.50847700  0.41557400  0.26649500  1
  O  O38  1  0.00847700  0.91557400  0.23350500  1
  O  O39  1  0.99152300  0.41557400  0.76649500  1
  O  O40  1  0.06874000  0.75000000  0.65509800  1
  O  O41  1  0.93126000  0.25000000  0.34490200  1
  O  O42  1  0.43126000  0.75000000  0.15509800  1
  O  O43  1  0.56874000  0.25000000  0.84490200  1
