# generated using pymatgen
data_P3RuW2O15
_symmetry_space_group_name_H-M   'P 1'
_cell_length_a   9.62887897
_cell_length_b   13.04457120
_cell_length_c   19.92732731
_cell_angle_alpha   109.10519398
_cell_angle_beta   101.51194872
_cell_angle_gamma   90.00000000
_symmetry_Int_Tables_number   1
_chemical_formula_structural   P3RuW2O15
_chemical_formula_sum   'P24 Ru8 W16 O120'
_cell_volume   2311.74604573
_cell_formula_units_Z   8
loop_
 _symmetry_equiv_pos_site_id
 _symmetry_equiv_pos_as_xyz
  1  'x, y, z'
loop_
 _atom_site_type_symbol
 _atom_site_label
 _atom_site_symmetry_multiplicity
 _atom_site_fract_x
 _atom_site_fract_y
 _atom_site_fract_z
 _atom_site_occupancy
  P  P0  1  0.91493674  0.42297550  0.26615716  1
  P  P1  1  0.58506326  0.15681834  0.73384284  1
  P  P2  1  0.08506326  0.57702450  0.73384284  1
  P  P3  1  0.41493674  0.84318166  0.26615716  1
  P  P4  1  0.93711051  0.90905711  0.27423893  1
  P  P5  1  0.56288949  0.63481818  0.72576107  1
  P  P6  1  0.06288949  0.09094289  0.72576107  1
  P  P7  1  0.43711051  0.36518182  0.27423893  1
  P  P8  1  0.54947036  0.14065750  0.23002889  1
  P  P9  1  0.95052964  0.91062860  0.76997111  1
  P  P10  1  0.45052964  0.85934250  0.76997111  1
  P  P11  1  0.04947036  0.08937140  0.23002889  1
  P  P12  1  0.73550189  0.93679481  0.50848670  1
  P  P13  1  0.76449811  0.42830810  0.49151330  1
  P  P14  1  0.26449811  0.06320519  0.49151330  1
  P  P15  1  0.23550189  0.57169190  0.50848670  1
  P  P16  1  0.08914130  0.58091280  0.22839760  1
  P  P17  1  0.41085870  0.35251520  0.77160240  1
  P  P18  1  0.91085870  0.41908720  0.77160240  1
  P  P19  1  0.58914130  0.64748480  0.22839760  1
  P  P20  1  0.75000000  0.92952570  0.00000000  1
  P  P21  1  0.25000000  0.07047430  1.00000000  1
  P  P22  1  0.75000000  0.43251333  0.00000000  1
  P  P23  1  0.25000000  0.56748667  1.00000000  1
  Ru  Ru24  1  0.50343897  0.25832136  0.48864004  1
  Ru  Ru25  1  0.99656103  0.76968132  0.51135996  1
  Ru  Ru26  1  0.49656103  0.74167864  0.51135996  1
  Ru  Ru27  1  0.00343897  0.23031868  0.48864004  1
  Ru  Ru28  1  0.49695697  0.24592293  0.98912673  1
  Ru  Ru29  1  0.00304303  0.25679620  0.01087327  1
  Ru  Ru30  1  0.50304303  0.75407707  0.01087327  1
  Ru  Ru31  1  0.99695697  0.74320380  0.98912673  1
  W  W32  1  0.79839865  0.19713412  0.61874130  1
  W  W33  1  0.70160135  0.57839282  0.38125870  1
  W  W34  1  0.20160135  0.80286588  0.38125870  1
  W  W35  1  0.29839865  0.42160718  0.61874130  1
  W  W36  1  0.78504822  0.18828883  0.12424508  1
  W  W37  1  0.71495178  0.06404375  0.87575492  1
  W  W38  1  0.21495178  0.81171117  0.87575492  1
  W  W39  1  0.28504822  0.93595625  0.12424508  1
  W  W40  1  0.81779688  0.68640743  0.12366432  1
  W  W41  1  0.68220312  0.56274312  0.87633568  1
  W  W42  1  0.18220312  0.31359257  0.87633568  1
  W  W43  1  0.31779688  0.43725688  0.12366432  1
  W  W44  1  0.19291492  0.32215944  0.37056595  1
  W  W45  1  0.30708508  0.95159349  0.62943405  1
  W  W46  1  0.80708508  0.67784056  0.62943405  1
  W  W47  1  0.69291492  0.04840651  0.37056595  1
  O  O48  1  0.88283956  0.90130529  0.53351570  1
  O  O49  1  0.61716044  0.36778959  0.46648430  1
  O  O50  1  0.11716044  0.09869471  0.46648430  1
  O  O51  1  0.38283956  0.63221041  0.53351570  1
  O  O52  1  0.50357081  0.25450659  0.27841861  1
  O  O53  1  0.99642919  0.97608798  0.72158139  1
  O  O54  1  0.49642919  0.74549341  0.72158139  1
  O  O55  1  0.00357081  0.02391202  0.27841861  1
  O  O56  1  0.61421733  0.35760158  0.97103501  1
  O  O57  1  0.88578267  0.38656656  0.02896499  1
  O  O58  1  0.38578267  0.64239842  0.02896499  1
  O  O59  1  0.11421733  0.61343344  0.97103501  1
  O  O60  1  0.11783740  0.65438741  0.30853226  1
  O  O61  1  0.38216260  0.34585515  0.69146774  1
  O  O62  1  0.88216260  0.34561259  0.69146774  1
  O  O63  1  0.61783740  0.65414485  0.30853226  1
  O  O64  1  0.00244323  0.47243594  0.22239711  1
  O  O65  1  0.49755677  0.25003883  0.77760289  1
  O  O66  1  0.99755677  0.52756406  0.77760289  1
  O  O67  1  0.50244323  0.74996117  0.22239711  1
  O  O68  1  0.71669929  0.04460616  0.56995814  1
  O  O69  1  0.78330071  0.47464802  0.43004186  1
  O  O70  1  0.28330071  0.95539384  0.43004186  1
  O  O71  1  0.21669929  0.52535198  0.56995814  1
  O  O72  1  0.02032947  0.38008436  0.31609918  1
  O  O73  1  0.47967053  0.06398518  0.68390082  1
  O  O74  1  0.97967053  0.61991564  0.68390082  1
  O  O75  1  0.52032947  0.93601482  0.31609918  1
  O  O76  1  0.76351005  0.47079082  0.93449076  1
  O  O77  1  0.73648995  0.53630007  0.06550924  1
  O  O78  1  0.23648995  0.52920918  0.06550924  1
  O  O79  1  0.26351005  0.46369993  0.93449076  1
  O  O80  1  0.89737295  0.83605006  0.19442480  1
  O  O81  1  0.60262705  0.64162526  0.80557520  1
  O  O82  1  0.10262705  0.16394994  0.80557520  1
  O  O83  1  0.39737295  0.35837474  0.19442480  1
  O  O84  1  0.88721114  0.87642527  0.01623621  1
  O  O85  1  0.61278886  0.86018906  0.98376379  1
  O  O86  1  0.11278886  0.12357473  0.98376379  1
  O  O87  1  0.38721114  0.13981094  0.01623621  1
  O  O88  1  0.81741018  0.33186764  0.20592485  1
  O  O89  1  0.68258982  0.12594279  0.79407515  1
  O  O90  1  0.18258982  0.66813236  0.79407515  1
  O  O91  1  0.31741018  0.87405721  0.20592485  1
  O  O92  1  0.80601542  0.93136398  0.30718747  1
  O  O93  1  0.69398458  0.62417651  0.69281253  1
  O  O94  1  0.19398458  0.06863602  0.69281253  1
  O  O95  1  0.30601542  0.37582349  0.30718747  1
  O  O96  1  0.99607139  0.62989376  0.17737651  1
  O  O97  1  0.50392861  0.45251724  0.82262349  1
  O  O98  1  0.00392861  0.37010624  0.82262349  1
  O  O99  1  0.49607139  0.54748276  0.17737651  1
  O  O100  1  0.22796048  0.54297368  0.20543513  1
  O  O101  1  0.27203952  0.33753854  0.79456487  1
  O  O102  1  0.77203952  0.45702632  0.79456487  1
  O  O103  1  0.72796048  0.66246146  0.20543513  1
  O  O104  1  0.65201236  0.10056700  0.28401061  1
  O  O105  1  0.84798764  0.81655639  0.71598939  1
  O  O106  1  0.34798764  0.89943300  0.71598939  1
  O  O107  1  0.15201236  0.18344361  0.28401061  1
  O  O108  1  0.05549162  0.86331540  0.31589528  1
  O  O109  1  0.44450838  0.54742012  0.68410472  1
  O  O110  1  0.94450838  0.13668460  0.68410472  1
  O  O111  1  0.55549162  0.45257988  0.31589528  1
  O  O112  1  0.82706012  0.50985454  0.30533266  1
  O  O113  1  0.67293988  0.20452188  0.69466734  1
  O  O114  1  0.17293988  0.49014546  0.69466734  1
  O  O115  1  0.32706012  0.79547812  0.30533266  1
  O  O116  1  0.73269810  0.96693014  0.43851959  1
  O  O117  1  0.76730190  0.52841055  0.56148041  1
  O  O118  1  0.26730190  0.03306986  0.56148041  1
  O  O119  1  0.23269810  0.47158945  0.43851959  1
  O  O120  1  0.74736202  0.03388181  0.06605822  1
  O  O121  1  0.75263798  0.96782358  0.93394178  1
  O  O122  1  0.25263798  0.96611819  0.93394178  1
  O  O123  1  0.24736202  0.03217642  0.06605822  1
  O  O124  1  0.62271373  0.15949489  0.17445230  1
  O  O125  1  0.87728627  0.98504259  0.82554770  1
  O  O126  1  0.37728627  0.84050511  0.82554770  1
  O  O127  1  0.12271373  0.01495741  0.17445230  1
  O  O128  1  0.61169131  0.85426389  0.49087026  1
  O  O129  1  0.88830869  0.36339363  0.50912974  1
  O  O130  1  0.38830869  0.14573611  0.50912974  1
  O  O131  1  0.11169131  0.63660637  0.49087026  1
  O  O132  1  0.41301132  0.06751444  0.19837183  1
  O  O133  1  0.08698868  0.86914262  0.80162817  1
  O  O134  1  0.58698868  0.93248556  0.80162817  1
  O  O135  1  0.91301132  0.13085738  0.19837183  1
  O  O136  1  0.65904785  0.24903997  0.56744767  1
  O  O137  1  0.84095215  0.68159231  0.43255233  1
  O  O138  1  0.34095215  0.75096003  0.43255233  1
  O  O139  1  0.15904785  0.31840769  0.56744767  1
  O  O140  1  0.92242997  0.69785554  0.06035798  1
  O  O141  1  0.57757003  0.63749756  0.93964202  1
  O  O142  1  0.07757003  0.30214446  0.93964202  1
  O  O143  1  0.42242997  0.36250244  0.06035798  1
  O  O144  1  0.92505640  0.19065181  0.56171430  1
  O  O145  1  0.57494360  0.62893751  0.43828570  1
  O  O146  1  0.07494360  0.80934819  0.43828570  1
  O  O147  1  0.42505640  0.37106249  0.56171430  1
  O  O148  1  0.35025174  0.27329889  0.41165415  1
  O  O149  1  0.14974826  0.86164474  0.58834585  1
  O  O150  1  0.64974826  0.72670111  0.58834585  1
  O  O151  1  0.85025174  0.13835526  0.41165415  1
  O  O152  1  0.07652862  0.27923488  0.41878358  1
  O  O153  1  0.42347138  0.86045130  0.58121642  1
  O  O154  1  0.92347138  0.72076512  0.58121642  1
  O  O155  1  0.57652862  0.13954870  0.41878358  1
  O  O156  1  0.93253672  0.21102312  0.08518199  1
  O  O157  1  0.56746328  0.12584113  0.91481801  1
  O  O158  1  0.06746328  0.78897688  0.91481801  1
  O  O159  1  0.43253672  0.87415887  0.08518199  1
  O  O160  1  0.66061234  0.74224666  0.08839323  1
  O  O161  1  0.83938766  0.65385342  0.91160677  1
  O  O162  1  0.33938766  0.25775334  0.91160677  1
  O  O163  1  0.16061234  0.34614658  0.08839323  1
  O  O164  1  0.65275174  0.23413435  0.06574382  1
  O  O165  1  0.84724826  0.16839053  0.93425618  1
  O  O166  1  0.34724826  0.76586565  0.93425618  1
  O  O167  1  0.15275174  0.83160947  0.06574382  1
