# generated using pymatgen
data_LaAs2Au
_symmetry_space_group_name_H-M   'P 1'
_cell_length_a   10.90542878
_cell_length_b   10.89947163
_cell_length_c   4.17103771
_cell_angle_alpha   79.05231219
_cell_angle_beta   78.89167247
_cell_angle_gamma   22.05601534
_symmetry_Int_Tables_number   1
_chemical_formula_structural   LaAs2Au
_chemical_formula_sum   'La2 As4 Au2'
_cell_volume   182.59852312
_cell_formula_units_Z   2
loop_
 _symmetry_equiv_pos_site_id
 _symmetry_equiv_pos_as_xyz
  1  'x, y, z'
loop_
 _atom_site_type_symbol
 _atom_site_label
 _atom_site_symmetry_multiplicity
 _atom_site_fract_x
 _atom_site_fract_y
 _atom_site_fract_z
 _atom_site_occupancy
  La  La0  1  0.11122200  0.12571200  0.88877800  1
  La  La1  1  0.87428800  0.88877800  0.12571200  1
  As  As2  1  0.33121900  0.34534300  0.66878100  1
  As  As3  1  0.65465700  0.66878100  0.34534300  1
  As  As4  1  0.50677400  0.49322600  0.06171500  1
  As  As5  1  0.93828500  0.06171500  0.49322600  1
  Au  Au6  1  0.75012700  0.74987300  0.74987300  1
  Au  Au7  1  0.25012700  0.24987300  0.24987300  1
