# generated using pymatgen
data_Sr(AlAu)2
_symmetry_space_group_name_H-M   'P 1'
_cell_length_a   4.52949800
_cell_length_b   4.52949800
_cell_length_c   10.53904000
_cell_angle_alpha   90.00000000
_cell_angle_beta   90.00000000
_cell_angle_gamma   90.00000000
_symmetry_Int_Tables_number   1
_chemical_formula_structural   Sr(AlAu)2
_chemical_formula_sum   'Sr2 Al4 Au4'
_cell_volume   216.22265577
_cell_formula_units_Z   2
loop_
 _symmetry_equiv_pos_site_id
 _symmetry_equiv_pos_as_xyz
  1  'x, y, z'
loop_
 _atom_site_type_symbol
 _atom_site_label
 _atom_site_symmetry_multiplicity
 _atom_site_fract_x
 _atom_site_fract_y
 _atom_site_fract_z
 _atom_site_occupancy
  Sr  Sr0  1  0.00000000  0.50000000  0.24939000  1
  Sr  Sr1  1  0.50000000  0.00000000  0.75061000  1
  Al  Al2  1  0.00000000  0.00000000  0.50000000  1
  Al  Al3  1  0.50000000  0.50000000  0.50000000  1
  Al  Al4  1  0.00000000  0.50000000  0.87488300  1
  Al  Al5  1  0.50000000  0.00000000  0.12511700  1
  Au  Au6  1  0.00000000  0.00000000  0.00000000  1
  Au  Au7  1  0.50000000  0.50000000  0.00000000  1
  Au  Au8  1  0.00000000  0.50000000  0.62988300  1
  Au  Au9  1  0.50000000  0.00000000  0.37011700  1
