# generated using pymatgen
data_KY2CuS4
_symmetry_space_group_name_H-M   'P 1'
_cell_length_a   7.05305512
_cell_length_b   7.05305512
_cell_length_c   13.75467700
_cell_angle_alpha   90.00000000
_cell_angle_beta   90.00000000
_cell_angle_gamma   147.37311435
_symmetry_Int_Tables_number   1
_chemical_formula_structural   KY2CuS4
_chemical_formula_sum   'K2 Y4 Cu2 S8'
_cell_volume   368.91599321
_cell_formula_units_Z   2
loop_
 _symmetry_equiv_pos_site_id
 _symmetry_equiv_pos_as_xyz
  1  'x, y, z'
loop_
 _atom_site_type_symbol
 _atom_site_label
 _atom_site_symmetry_multiplicity
 _atom_site_fract_x
 _atom_site_fract_y
 _atom_site_fract_z
 _atom_site_occupancy
  K  K0  1  0.10946100  0.89053900  0.25000000  1
  K  K1  1  0.89053900  0.10946100  0.75000000  1
  Y  Y2  1  0.63428600  0.36571400  0.93698300  1
  Y  Y3  1  0.36571400  0.63428600  0.43698300  1
  Y  Y4  1  0.63428600  0.36571400  0.56301700  1
  Y  Y5  1  0.36571400  0.63428600  0.06301700  1
  Cu  Cu6  1  0.16255100  0.83744900  0.75000000  1
  Cu  Cu7  1  0.83744900  0.16255100  0.25000000  1
  S  S8  1  0.00000000  0.00000000  0.50000000  1
  S  S9  1  0.00000000  0.00000000  0.00000000  1
  S  S10  1  0.73725700  0.26274300  0.11119800  1
  S  S11  1  0.26274300  0.73725700  0.88880200  1
  S  S12  1  0.56901100  0.43098900  0.75000000  1
  S  S13  1  0.73725700  0.26274300  0.38880200  1
  S  S14  1  0.43098900  0.56901100  0.25000000  1
  S  S15  1  0.26274300  0.73725700  0.61119800  1
