# generated using pymatgen
data_Tb4(Al8Pt3)3
_symmetry_space_group_name_H-M   'P 1'
_cell_length_a   7.51564642
_cell_length_b   7.55051801
_cell_length_c   13.22481792
_cell_angle_alpha   84.59319067
_cell_angle_beta   79.21890398
_cell_angle_gamma   59.92573715
_symmetry_Int_Tables_number   1
_chemical_formula_structural   Tb4(Al8Pt3)3
_chemical_formula_sum   'Tb4 Al24 Pt9'
_cell_volume   637.97503955
_cell_formula_units_Z   1
loop_
 _symmetry_equiv_pos_site_id
 _symmetry_equiv_pos_as_xyz
  1  'x, y, z'
loop_
 _atom_site_type_symbol
 _atom_site_label
 _atom_site_symmetry_multiplicity
 _atom_site_fract_x
 _atom_site_fract_y
 _atom_site_fract_z
 _atom_site_occupancy
  Tb  Tb0  1  0.39354200  0.16845000  0.80785000  1
  Tb  Tb1  1  0.60645800  0.83155000  0.19215000  1
  Tb  Tb2  1  0.73414500  0.49838600  0.80758700  1
  Tb  Tb3  1  0.26585500  0.50161400  0.19241300  1
  Al  Al4  1  0.68479600  0.83344200  0.94446300  1
  Al  Al5  1  0.31520400  0.16655800  0.05553700  1
  Al  Al6  1  0.14728700  0.83212200  0.56083500  1
  Al  Al7  1  0.85271300  0.16787800  0.43916500  1
  Al  Al8  1  0.47977600  0.16691100  0.55872100  1
  Al  Al9  1  0.52022400  0.83308900  0.44127900  1
  Al  Al10  1  0.21699300  0.16546500  0.32995100  1
  Al  Al11  1  0.78300700  0.83453500  0.67004900  1
  Al  Al12  1  0.43783800  0.50608800  0.66999500  1
  Al  Al13  1  0.56216200  0.49391200  0.33000500  1
  Al  Al14  1  0.10996600  0.15979900  0.66932100  1
  Al  Al15  1  0.89003400  0.84020100  0.33067900  1
  Al  Al16  1  0.35341500  0.49883200  0.94479900  1
  Al  Al17  1  0.64658500  0.50116800  0.05520100  1
  Al  Al18  1  0.01422100  0.16813700  0.95330600  1
  Al  Al19  1  0.98577900  0.83186300  0.04669400  1
  Al  Al20  1  0.18677500  0.49863600  0.44110800  1
  Al  Al21  1  0.81322500  0.50136400  0.55889200  1
  Al  Al22  1  0.73421700  0.16410300  0.18299600  1
  Al  Al23  1  0.26578300  0.83589700  0.81700400  1
  Al  Al24  1  0.06189400  0.63196100  0.81571400  1
  Al  Al25  1  0.93810600  0.36803900  0.18428600  1
  Al  Al26  1  0.85448200  0.04149300  0.81608700  1
  Al  Al27  1  0.14551800  0.95850700  0.18391400  1
  Pt  Pt28  1  0.12031000  0.49296100  0.63855100  1
  Pt  Pt29  1  0.87969000  0.50703900  0.36144900  1
  Pt  Pt30  1  0.65747100  0.17094100  0.99990500  1
  Pt  Pt31  1  0.34252900  0.82905900  0.00009500  1
  Pt  Pt32  1  0.53877800  0.16671900  0.36136200  1
  Pt  Pt33  1  0.46122200  0.83328100  0.63863800  1
  Pt  Pt34  1  0.77989300  0.17421100  0.63683800  1
  Pt  Pt35  1  0.22010700  0.82578900  0.36316200  1
  Pt  Pt36  1  0.00000000  0.50000000  0.00000000  1
