# generated using pymatgen
data_Fe3Sb5(IO3)3
_symmetry_space_group_name_H-M   'P 1'
_cell_length_a   8.14555100
_cell_length_b   9.09179960
_cell_length_c   12.39656360
_cell_angle_alpha   78.95351784
_cell_angle_beta   85.73097272
_cell_angle_gamma   70.49383642
_symmetry_Int_Tables_number   1
_chemical_formula_structural   Fe3Sb5(IO3)3
_chemical_formula_sum   'Fe6 Sb10 I6 O18'
_cell_volume   849.28179587
_cell_formula_units_Z   2
loop_
 _symmetry_equiv_pos_site_id
 _symmetry_equiv_pos_as_xyz
  1  'x, y, z'
loop_
 _atom_site_type_symbol
 _atom_site_label
 _atom_site_symmetry_multiplicity
 _atom_site_fract_x
 _atom_site_fract_y
 _atom_site_fract_z
 _atom_site_occupancy
  Fe  Fe0  1  0.70794700  0.98939200  0.35268300  1
  Fe  Fe1  1  0.29205300  0.01060800  0.64731700  1
  Fe  Fe2  1  0.02211000  0.96309400  0.12863300  1
  Fe  Fe3  1  0.97789000  0.03690600  0.87136700  1
  Fe  Fe4  1  0.61293500  0.09451600  0.05867700  1
  Fe  Fe5  1  0.38706500  0.90548400  0.94132300  1
  Sb  Sb6  1  0.87835300  0.18462600  0.50099200  1
  Sb  Sb7  1  0.12164700  0.81537400  0.49900800  1
  Sb  Sb8  1  0.24383300  0.16572100  0.25718800  1
  Sb  Sb9  1  0.75616700  0.83427900  0.74281200  1
  Sb  Sb10  1  0.53179400  0.21023900  0.75439700  1
  Sb  Sb11  1  0.46820600  0.78976100  0.24560300  1
  Sb  Sb12  1  0.18811400  0.27042600  0.98021300  1
  Sb  Sb13  1  0.81188600  0.72957400  0.01978700  1
  Sb  Sb14  1  0.78843900  0.32134000  0.20175500  1
  Sb  Sb15  1  0.21156100  0.67866000  0.79824500  1
  I  I16  1  0.71917800  0.36078700  0.92455000  1
  I  I17  1  0.28082200  0.63921300  0.07545000  1
  I  I18  1  0.90201900  0.67495600  0.31575300  1
  I  I19  1  0.09798100  0.32504400  0.68424700  1
  I  I20  1  0.48891400  0.30484300  0.41976200  1
  I  I21  1  0.51108600  0.69515700  0.58023800  1
  O  O22  1  0.14766000  0.06106900  0.98256300  1
  O  O23  1  0.85234000  0.93893100  0.01743700  1
  O  O24  1  0.85974900  0.97113100  0.47985000  1
  O  O25  1  0.14025100  0.02886900  0.52015000  1
  O  O26  1  0.77930000  0.10494600  0.19587900  1
  O  O27  1  0.22070000  0.89505400  0.80412100  1
  O  O28  1  0.43980700  0.14045700  0.90542900  1
  O  O29  1  0.56019300  0.85954300  0.09457100  1
  O  O30  1  0.78527500  0.04619200  0.76974500  1
  O  O31  1  0.21472500  0.95380800  0.23025500  1
  O  O32  1  0.50823600  0.02576600  0.69800000  1
  O  O33  1  0.49176400  0.97423400  0.30200000  1
  O  O34  1  0.03270300  0.27023100  0.13515900  1
  O  O35  1  0.96729700  0.72976900  0.86484100  1
  O  O36  1  0.06988000  0.76018300  0.65785400  1
  O  O37  1  0.93012000  0.23981700  0.34214600  1
  O  O38  1  0.63704400  0.79835100  0.89461500  1
  O  O39  1  0.36295600  0.20164900  0.10538500  1
