# generated using pymatgen
data_Ti(NbSe2)3
_symmetry_space_group_name_H-M   'P 1'
_cell_length_a   6.05378337
_cell_length_b   6.05378337
_cell_length_c   13.12580300
_cell_angle_alpha   90.00000000
_cell_angle_beta   90.00000000
_cell_angle_gamma   119.99999306
_symmetry_Int_Tables_number   1
_chemical_formula_structural   Ti(NbSe2)3
_chemical_formula_sum   'Ti2 Nb6 Se12'
_cell_volume   416.59139515
_cell_formula_units_Z   2
loop_
 _symmetry_equiv_pos_site_id
 _symmetry_equiv_pos_as_xyz
  1  'x, y, z'
loop_
 _atom_site_type_symbol
 _atom_site_label
 _atom_site_symmetry_multiplicity
 _atom_site_fract_x
 _atom_site_fract_y
 _atom_site_fract_z
 _atom_site_occupancy
  Ti  Ti0  1  0.33333300  0.66666700  0.25000000  1
  Ti  Ti1  1  0.66666700  0.33333300  0.75000000  1
  Nb  Nb2  1  0.00000000  0.00000000  0.50000000  1
  Nb  Nb3  1  0.00000000  0.00000000  0.00000000  1
  Nb  Nb4  1  0.33333300  0.66666700  0.00016800  1
  Nb  Nb5  1  0.66666700  0.33333300  0.99983200  1
  Nb  Nb6  1  0.66666700  0.33333300  0.50016800  1
  Nb  Nb7  1  0.33333300  0.66666700  0.49983200  1
  Se  Se8  1  0.33320700  0.32953900  0.37159200  1
  Se  Se9  1  0.67046100  0.00366800  0.37159200  1
  Se  Se10  1  0.99633200  0.66679300  0.37159200  1
  Se  Se11  1  0.32953900  0.33320700  0.62840800  1
  Se  Se12  1  0.00366800  0.67046100  0.62840800  1
  Se  Se13  1  0.66679300  0.99633200  0.62840800  1
  Se  Se14  1  0.66679300  0.67046100  0.87159200  1
  Se  Se15  1  0.32953900  0.99633200  0.87159200  1
  Se  Se16  1  0.00366800  0.33320700  0.87159200  1
  Se  Se17  1  0.67046100  0.66679300  0.12840800  1
  Se  Se18  1  0.99633200  0.32953900  0.12840800  1
  Se  Se19  1  0.33320700  0.00366800  0.12840800  1
