# generated using pymatgen
data_Na2ZnS2
_symmetry_space_group_name_H-M   'P 1'
_cell_length_a   7.08512000
_cell_length_b   6.87895400
_cell_length_c   9.01732132
_cell_angle_alpha   86.88371009
_cell_angle_beta   90.00000000
_cell_angle_gamma   90.00000000
_symmetry_Int_Tables_number   1
_chemical_formula_structural   Na2ZnS2
_chemical_formula_sum   'Na8 Zn4 S8'
_cell_volume   438.83825034
_cell_formula_units_Z   4
loop_
 _symmetry_equiv_pos_site_id
 _symmetry_equiv_pos_as_xyz
  1  'x, y, z'
loop_
 _atom_site_type_symbol
 _atom_site_label
 _atom_site_symmetry_multiplicity
 _atom_site_fract_x
 _atom_site_fract_y
 _atom_site_fract_z
 _atom_site_occupancy
  Na  Na0  1  0.16576300  0.94666500  0.67697600  1
  Na  Na1  1  0.66576300  0.55333500  0.32302400  1
  Na  Na2  1  0.83423700  0.05333500  0.32302400  1
  Na  Na3  1  0.33423700  0.44666500  0.67697600  1
  Na  Na4  1  0.26187500  0.99095200  0.04483300  1
  Na  Na5  1  0.76187500  0.50904800  0.95516700  1
  Na  Na6  1  0.73812500  0.00904800  0.95516700  1
  Na  Na7  1  0.23812500  0.49095200  0.04483300  1
  Zn  Zn8  1  0.09311200  0.65358800  0.37183100  1
  Zn  Zn9  1  0.59311200  0.84641200  0.62816900  1
  Zn  Zn10  1  0.90688800  0.34641200  0.62816900  1
  Zn  Zn11  1  0.40688800  0.15358800  0.37183100  1
  S  S12  1  0.61440200  0.19357400  0.58582500  1
  S  S13  1  0.11440200  0.30642600  0.41417500  1
  S  S14  1  0.38559800  0.80642600  0.41417500  1
  S  S15  1  0.88559800  0.69357400  0.58582500  1
  S  S16  1  0.54123100  0.25276100  0.14799700  1
  S  S17  1  0.04123100  0.24723900  0.85200300  1
  S  S18  1  0.45876900  0.74723900  0.85200300  1
  S  S19  1  0.95876900  0.75276100  0.14799700  1
