# generated using pymatgen
data_Na3As4H5O14
_symmetry_space_group_name_H-M   'P 1'
_cell_length_a   9.64639100
_cell_length_b   10.22805700
_cell_length_c   12.04823200
_cell_angle_alpha   90.00000000
_cell_angle_beta   90.00000000
_cell_angle_gamma   90.00000000
_symmetry_Int_Tables_number   1
_chemical_formula_structural   Na3As4H5O14
_chemical_formula_sum   'Na12 As16 H20 O56'
_cell_volume   1188.72479809
_cell_formula_units_Z   4
loop_
 _symmetry_equiv_pos_site_id
 _symmetry_equiv_pos_as_xyz
  1  'x, y, z'
loop_
 _atom_site_type_symbol
 _atom_site_label
 _atom_site_symmetry_multiplicity
 _atom_site_fract_x
 _atom_site_fract_y
 _atom_site_fract_z
 _atom_site_occupancy
  Na  Na0  1  0.87473600  0.92551600  0.64225400  1
  Na  Na1  1  0.88291600  0.08687200  0.35802600  1
  Na  Na2  1  0.11708400  0.91312800  0.85802600  1
  Na  Na3  1  0.12526400  0.07448400  0.14225400  1
  Na  Na4  1  0.61708400  0.58687200  0.35802600  1
  Na  Na5  1  0.62526400  0.42551600  0.64225400  1
  Na  Na6  1  0.37473600  0.57448400  0.14225400  1
  Na  Na7  1  0.38291600  0.41312800  0.85802600  1
  Na  Na8  1  0.99338400  0.54030900  0.74244700  1
  Na  Na9  1  0.00661600  0.45969100  0.24244700  1
  Na  Na10  1  0.49338400  0.95969100  0.24244700  1
  Na  Na11  1  0.50661600  0.04030900  0.74244700  1
  As  As12  1  0.79415900  0.78299100  0.89387800  1
  As  As13  1  0.79549800  0.21539700  0.10887500  1
  As  As14  1  0.20450200  0.78460300  0.60887500  1
  As  As15  1  0.20584100  0.21700900  0.39387800  1
  As  As16  1  0.70450200  0.71539700  0.10887500  1
  As  As17  1  0.70584100  0.28299100  0.89387800  1
  As  As18  1  0.29415900  0.71700900  0.39387800  1
  As  As19  1  0.29549800  0.28460300  0.60887500  1
  As  As20  1  0.47141900  0.78089500  0.93180500  1
  As  As21  1  0.46969400  0.20550300  0.06949000  1
  As  As22  1  0.53030600  0.79449700  0.56949000  1
  As  As23  1  0.52858100  0.21910500  0.43180500  1
  As  As24  1  0.03030600  0.70550300  0.06949000  1
  As  As25  1  0.02858100  0.28089500  0.93180500  1
  As  As26  1  0.97141900  0.71910500  0.43180500  1
  As  As27  1  0.96969400  0.29449700  0.56949000  1
  H  H28  1  0.83403200  0.00784200  0.88704600  1
  H  H29  1  0.83571900  0.99110900  0.11501200  1
  H  H30  1  0.16428100  0.00889100  0.61501200  1
  H  H31  1  0.16596800  0.99215800  0.38704600  1
  H  H32  1  0.66428100  0.49110900  0.11501200  1
  H  H33  1  0.66596800  0.50784200  0.88704600  1
  H  H34  1  0.33403200  0.49215800  0.38704600  1
  H  H35  1  0.33571900  0.50889100  0.61501200  1
  H  H36  1  0.72776100  0.69107500  0.71829300  1
  H  H37  1  0.73116100  0.31575200  0.28013200  1
  H  H38  1  0.26883900  0.68424800  0.78013200  1
  H  H39  1  0.27223900  0.30892500  0.21829300  1
  H  H40  1  0.76883900  0.81575200  0.28013200  1
  H  H41  1  0.77223900  0.19107500  0.71829300  1
  H  H42  1  0.22776100  0.80892500  0.21829300  1
  H  H43  1  0.23116100  0.18424800  0.78013200  1
  H  H44  1  0.36625900  0.97955900  0.99038200  1
  H  H45  1  0.63374100  0.02044100  0.49038200  1
  H  H46  1  0.13374100  0.47955900  0.99038200  1
  H  H47  1  0.86625900  0.52044100  0.49038200  1
  O  O48  1  0.86533300  0.93375300  0.83864800  1
  O  O49  1  0.86841800  0.06472200  0.16331500  1
  O  O50  1  0.13158200  0.93527800  0.66331500  1
  O  O51  1  0.13466700  0.06624700  0.33864800  1
  O  O52  1  0.63158200  0.56472200  0.16331500  1
  O  O53  1  0.63466700  0.43375300  0.83864800  1
  O  O54  1  0.36533300  0.56624700  0.33864800  1
  O  O55  1  0.36841800  0.43527800  0.66331500  1
  O  O56  1  0.39502100  0.64579900  0.88395400  1
  O  O57  1  0.39083300  0.34282900  0.11397700  1
  O  O58  1  0.60916700  0.65717100  0.61397700  1
  O  O59  1  0.60497900  0.35420100  0.38395400  1
  O  O60  1  0.10916700  0.84282900  0.11397700  1
  O  O61  1  0.10497900  0.14579900  0.88395400  1
  O  O62  1  0.89502100  0.85420100  0.38395400  1
  O  O63  1  0.89083300  0.15717100  0.61397700  1
  O  O64  1  0.61051200  0.84291700  0.85308300  1
  O  O65  1  0.61508600  0.15780800  0.15021400  1
  O  O66  1  0.38491400  0.84219200  0.65021400  1
  O  O67  1  0.38948800  0.15708300  0.35308300  1
  O  O68  1  0.88491400  0.65780800  0.15021400  1
  O  O69  1  0.88948800  0.34291700  0.85308300  1
  O  O70  1  0.11051200  0.65708300  0.35308300  1
  O  O71  1  0.11508600  0.34219200  0.65021400  1
  O  O72  1  0.35228100  0.90960300  0.92458000  1
  O  O73  1  0.36534600  0.07117600  0.07860600  1
  O  O74  1  0.63465400  0.92882400  0.57860600  1
  O  O75  1  0.64771900  0.09039700  0.42458000  1
  O  O76  1  0.13465400  0.57117600  0.07860600  1
  O  O77  1  0.14771900  0.40960300  0.92458000  1
  O  O78  1  0.85228100  0.59039700  0.42458000  1
  O  O79  1  0.86534600  0.42882400  0.57860600  1
  O  O80  1  0.97723200  0.72111600  0.92924500  1
  O  O81  1  0.98270400  0.27333600  0.07311400  1
  O  O82  1  0.01729600  0.72666400  0.57311400  1
  O  O83  1  0.02276800  0.27888400  0.42924500  1
  O  O84  1  0.51729600  0.77333600  0.07311400  1
  O  O85  1  0.52276800  0.22111600  0.92924500  1
  O  O86  1  0.47723200  0.77888400  0.42924500  1
  O  O87  1  0.48270400  0.22666400  0.57311400  1
  O  O88  1  0.81583200  0.69976200  0.76271400  1
  O  O89  1  0.82085800  0.30025700  0.23930000  1
  O  O90  1  0.17914200  0.69974300  0.73930000  1
  O  O91  1  0.18416800  0.30023800  0.26271400  1
  O  O92  1  0.67914200  0.80025700  0.23930000  1
  O  O93  1  0.68416800  0.19976200  0.76271400  1
  O  O94  1  0.31583200  0.80023800  0.26271400  1
  O  O95  1  0.32085800  0.19974300  0.73930000  1
  O  O96  1  0.71512200  0.64181700  0.96568200  1
  O  O97  1  0.72127300  0.35774700  0.03592700  1
  O  O98  1  0.27872700  0.64225300  0.53592700  1
  O  O99  1  0.28487800  0.35818300  0.46568200  1
  O  O100  1  0.77872700  0.85774700  0.03592700  1
  O  O101  1  0.78487800  0.14181700  0.96568200  1
  O  O102  1  0.21512200  0.85818300  0.46568200  1
  O  O103  1  0.22127300  0.14225300  0.53592700  1
