# generated using pymatgen
data_CsGaTe2
_symmetry_space_group_name_H-M   'P 1'
_cell_length_a   8.57666521
_cell_length_b   8.57666521
_cell_length_c   18.31801627
_cell_angle_alpha   83.28645438
_cell_angle_beta   83.28645438
_cell_angle_gamma   89.97609770
_symmetry_Int_Tables_number   1
_chemical_formula_structural   CsGaTe2
_chemical_formula_sum   'Cs8 Ga8 Te16'
_cell_volume   1328.92286344
_cell_formula_units_Z   8
loop_
 _symmetry_equiv_pos_site_id
 _symmetry_equiv_pos_as_xyz
  1  'x, y, z'
loop_
 _atom_site_type_symbol
 _atom_site_label
 _atom_site_symmetry_multiplicity
 _atom_site_fract_x
 _atom_site_fract_y
 _atom_site_fract_z
 _atom_site_occupancy
  Cs  Cs0  1  0.77529600  0.14964800  0.40058200  1
  Cs  Cs1  1  0.85035200  0.22470400  0.09941800  1
  Cs  Cs2  1  0.22470400  0.85035200  0.59941800  1
  Cs  Cs3  1  0.14964800  0.77529600  0.90058200  1
  Cs  Cs4  1  0.34802400  0.22278100  0.10828100  1
  Cs  Cs5  1  0.77721900  0.65197600  0.39171900  1
  Cs  Cs6  1  0.65197600  0.77721900  0.89171900  1
  Cs  Cs7  1  0.22278100  0.34802400  0.60828100  1
  Ga  Ga8  1  0.29254900  0.91494700  0.32889300  1
  Ga  Ga9  1  0.57952400  0.70720000  0.17163300  1
  Ga  Ga10  1  0.29280000  0.42047600  0.32836700  1
  Ga  Ga11  1  0.42047600  0.29280000  0.82836700  1
  Ga  Ga12  1  0.70720000  0.57952400  0.67163300  1
  Ga  Ga13  1  0.08505300  0.70745100  0.17110700  1
  Ga  Ga14  1  0.70745100  0.08505300  0.67110700  1
  Ga  Ga15  1  0.91494700  0.29254900  0.82889300  1
  Te  Te16  1  0.94748700  0.57246700  0.75037000  1
  Te  Te17  1  0.42753300  0.05251300  0.74963000  1
  Te  Te18  1  0.05251300  0.42753300  0.24963000  1
  Te  Te19  1  0.57279800  0.42720200  0.25000000  1
  Te  Te20  1  0.57246700  0.94748700  0.25037000  1
  Te  Te21  1  0.94760000  0.05240000  0.75000000  1
  Te  Te22  1  0.05240000  0.94760000  0.25000000  1
  Te  Te23  1  0.42720200  0.57279800  0.75000000  1
  Te  Te24  1  0.72995300  0.35557600  0.58037800  1
  Te  Te25  1  0.64442400  0.27004800  0.91962200  1
  Te  Te26  1  0.27004800  0.64442400  0.41962200  1
  Te  Te27  1  0.35557600  0.72995200  0.08037800  1
  Te  Te28  1  0.14608700  0.27034800  0.91750400  1
  Te  Te29  1  0.72965200  0.85391300  0.58249600  1
  Te  Te30  1  0.85391300  0.72965200  0.08249600  1
  Te  Te31  1  0.27034800  0.14608700  0.41750400  1
