# generated using pymatgen
data_CsCeF5
_symmetry_space_group_name_H-M   'P 1'
_cell_length_a   8.47371400
_cell_length_b   14.58409300
_cell_length_c   8.69805437
_cell_angle_alpha   90.00000000
_cell_angle_beta   105.35686024
_cell_angle_gamma   90.00000000
_symmetry_Int_Tables_number   1
_chemical_formula_structural   CsCeF5
_chemical_formula_sum   'Cs8 Ce8 F40'
_cell_volume   1036.53815732
_cell_formula_units_Z   8
loop_
 _symmetry_equiv_pos_site_id
 _symmetry_equiv_pos_as_xyz
  1  'x, y, z'
loop_
 _atom_site_type_symbol
 _atom_site_label
 _atom_site_symmetry_multiplicity
 _atom_site_fract_x
 _atom_site_fract_y
 _atom_site_fract_z
 _atom_site_occupancy
  Cs  Cs0  1  0.72319300  0.52565500  0.29564200  1
  Cs  Cs1  1  0.27680700  0.02565500  0.20435800  1
  Cs  Cs2  1  0.27680700  0.47434500  0.70435800  1
  Cs  Cs3  1  0.72319300  0.97434500  0.79564200  1
  Cs  Cs4  1  0.23499400  0.47274700  0.21324700  1
  Cs  Cs5  1  0.76500600  0.97274700  0.28675300  1
  Cs  Cs6  1  0.76500600  0.52725300  0.78675300  1
  Cs  Cs7  1  0.23499400  0.02725300  0.71324700  1
  Ce  Ce8  1  0.55599200  0.25399400  0.03649200  1
  Ce  Ce9  1  0.44400800  0.75399400  0.46350800  1
  Ce  Ce10  1  0.44400800  0.74600600  0.96350800  1
  Ce  Ce11  1  0.55599200  0.24600600  0.53649200  1
  Ce  Ce12  1  0.98031800  0.24397800  0.38481800  1
  Ce  Ce13  1  0.01968200  0.74397800  0.11518200  1
  Ce  Ce14  1  0.01968200  0.75602200  0.61518200  1
  Ce  Ce15  1  0.98031800  0.25602200  0.88481800  1
  F  F16  1  0.05638900  0.10142100  0.38883700  1
  F  F17  1  0.94361100  0.60142100  0.11116300  1
  F  F18  1  0.94361100  0.89857900  0.61116300  1
  F  F19  1  0.05638900  0.39857900  0.88883700  1
  F  F20  1  0.03358100  0.38873200  0.42614400  1
  F  F21  1  0.96641900  0.88873200  0.07385600  1
  F  F22  1  0.96641900  0.61126800  0.57385600  1
  F  F23  1  0.03358100  0.11126800  0.92614400  1
  F  F24  1  0.50578900  0.11064200  0.97869300  1
  F  F25  1  0.49421100  0.61064200  0.52130700  1
  F  F26  1  0.49421100  0.88935800  0.02130700  1
  F  F27  1  0.50578900  0.38935800  0.47869300  1
  F  F28  1  0.27151800  0.24804000  0.96039600  1
  F  F29  1  0.72848200  0.74804000  0.53960400  1
  F  F30  1  0.72848200  0.75196000  0.03960400  1
  F  F31  1  0.27151800  0.25196000  0.46039600  1
  F  F32  1  0.47909900  0.21446700  0.26290900  1
  F  F33  1  0.52090100  0.71446700  0.23709100  1
  F  F34  1  0.52090100  0.78553300  0.73709100  1
  F  F35  1  0.47909900  0.28553300  0.76290900  1
  F  F36  1  0.79663000  0.17359000  0.15385300  1
  F  F37  1  0.20337000  0.67359000  0.34614700  1
  F  F38  1  0.20337000  0.82641000  0.84614700  1
  F  F39  1  0.79663000  0.32641000  0.65385300  1
  F  F40  1  0.77396300  0.33090200  0.97427500  1
  F  F41  1  0.22603700  0.83090200  0.52572500  1
  F  F42  1  0.22603700  0.66909800  0.02572500  1
  F  F43  1  0.77396300  0.16909800  0.47427500  1
  F  F44  1  0.48561600  0.39497400  0.05280800  1
  F  F45  1  0.51438400  0.89497400  0.44719200  1
  F  F46  1  0.51438400  0.60502600  0.94719200  1
  F  F47  1  0.48561600  0.10502600  0.55280800  1
  F  F48  1  0.73765700  0.32014200  0.29122100  1
  F  F49  1  0.26234300  0.82014200  0.20877900  1
  F  F50  1  0.26234300  0.67985800  0.70877900  1
  F  F51  1  0.73765700  0.17985800  0.79122100  1
  F  F52  1  0.06493400  0.22787600  0.65933200  1
  F  F53  1  0.93506600  0.72787600  0.84066800  1
  F  F54  1  0.93506600  0.77212400  0.34066800  1
  F  F55  1  0.06493400  0.27212400  0.15933200  1
