# generated using pymatgen
data_Mn3Al2(GeO4)3
_symmetry_space_group_name_H-M   'P 1'
_cell_length_a   10.42918367
_cell_length_b   10.42918367
_cell_length_c   10.42918367
_cell_angle_alpha   109.47122063
_cell_angle_beta   109.47122063
_cell_angle_gamma   109.47122063
_symmetry_Int_Tables_number   1
_chemical_formula_structural   Mn3Al2(GeO4)3
_chemical_formula_sum   'Mn12 Al8 Ge12 O48'
_cell_volume   873.23082376
_cell_formula_units_Z   4
loop_
 _symmetry_equiv_pos_site_id
 _symmetry_equiv_pos_as_xyz
  1  'x, y, z'
loop_
 _atom_site_type_symbol
 _atom_site_label
 _atom_site_symmetry_multiplicity
 _atom_site_fract_x
 _atom_site_fract_y
 _atom_site_fract_z
 _atom_site_occupancy
  Mn  Mn0  1  0.25000000  0.37500000  0.12500000  1
  Mn  Mn1  1  0.75000000  0.62500000  0.87500000  1
  Mn  Mn2  1  0.75000000  0.12500000  0.37500000  1
  Mn  Mn3  1  0.12500000  0.25000000  0.37500000  1
  Mn  Mn4  1  0.37500000  0.75000000  0.12500000  1
  Mn  Mn5  1  0.25000000  0.87500000  0.62500000  1
  Mn  Mn6  1  0.87500000  0.75000000  0.62500000  1
  Mn  Mn7  1  0.62500000  0.25000000  0.87500000  1
  Mn  Mn8  1  0.37500000  0.12500000  0.25000000  1
  Mn  Mn9  1  0.62500000  0.87500000  0.75000000  1
  Mn  Mn10  1  0.12500000  0.37500000  0.75000000  1
  Mn  Mn11  1  0.87500000  0.62500000  0.25000000  1
  Al  Al12  1  0.00000000  0.00000000  0.00000000  1
  Al  Al13  1  0.50000000  0.00000000  0.50000000  1
  Al  Al14  1  0.00000000  0.50000000  0.50000000  1
  Al  Al15  1  0.50000000  0.00000000  0.00000000  1
  Al  Al16  1  0.50000000  0.50000000  0.00000000  1
  Al  Al17  1  0.50000000  0.50000000  0.50000000  1
  Al  Al18  1  0.00000000  0.00000000  0.50000000  1
  Al  Al19  1  0.00000000  0.50000000  0.00000000  1
  Ge  Ge20  1  0.25000000  0.62500000  0.37500000  1
  Ge  Ge21  1  0.75000000  0.37500000  0.62500000  1
  Ge  Ge22  1  0.75000000  0.87500000  0.12500000  1
  Ge  Ge23  1  0.37500000  0.25000000  0.62500000  1
  Ge  Ge24  1  0.62500000  0.75000000  0.37500000  1
  Ge  Ge25  1  0.25000000  0.12500000  0.87500000  1
  Ge  Ge26  1  0.12500000  0.75000000  0.87500000  1
  Ge  Ge27  1  0.87500000  0.25000000  0.12500000  1
  Ge  Ge28  1  0.62500000  0.37500000  0.25000000  1
  Ge  Ge29  1  0.37500000  0.62500000  0.75000000  1
  Ge  Ge30  1  0.87500000  0.12500000  0.75000000  1
  Ge  Ge31  1  0.12500000  0.87500000  0.25000000  1
  O  O32  1  0.48022500  0.37954800  0.30212700  1
  O  O33  1  0.51977500  0.62045200  0.69787300  1
  O  O34  1  0.57742000  0.17809800  0.19787300  1
  O  O35  1  0.92258000  0.12045200  0.60067800  1
  O  O36  1  0.30212700  0.48022500  0.37954800  1
  O  O37  1  0.32190200  0.92258000  0.30212700  1
  O  O38  1  0.42258000  0.82190200  0.80212700  1
  O  O39  1  0.07742000  0.87954800  0.39932200  1
  O  O40  1  0.69787300  0.51977500  0.62045200  1
  O  O41  1  0.67809800  0.07742000  0.69787300  1
  O  O42  1  0.01977500  0.32190200  0.89932200  1
  O  O43  1  0.19787300  0.57742000  0.17809800  1
  O  O44  1  0.12045200  0.01977500  0.19787300  1
  O  O45  1  0.98022500  0.67809800  0.10067800  1
  O  O46  1  0.80212700  0.42258000  0.82190200  1
  O  O47  1  0.87954800  0.98022500  0.80212700  1
  O  O48  1  0.60067800  0.92258000  0.12045200  1
  O  O49  1  0.17809800  0.48022500  0.60067800  1
  O  O50  1  0.39932200  0.07742000  0.87954800  1
  O  O51  1  0.82190200  0.51977500  0.39932200  1
  O  O52  1  0.89932200  0.01977500  0.32190200  1
  O  O53  1  0.37954800  0.57742000  0.89932200  1
  O  O54  1  0.10067800  0.98022500  0.67809800  1
  O  O55  1  0.62045200  0.42258000  0.10067800  1
  O  O56  1  0.37954800  0.30212700  0.48022500  1
  O  O57  1  0.57742000  0.89932200  0.37954800  1
  O  O58  1  0.62045200  0.69787300  0.51977500  1
  O  O59  1  0.42258000  0.10067800  0.62045200  1
  O  O60  1  0.12045200  0.60067800  0.92258000  1
  O  O61  1  0.01977500  0.19787300  0.12045200  1
  O  O62  1  0.87954800  0.39932200  0.07742000  1
  O  O63  1  0.98022500  0.80212700  0.87954800  1
  O  O64  1  0.32190200  0.89932200  0.01977500  1
  O  O65  1  0.92258000  0.30212700  0.32190200  1
  O  O66  1  0.67809800  0.10067800  0.98022500  1
  O  O67  1  0.07742000  0.69787300  0.67809800  1
  O  O68  1  0.17809800  0.19787300  0.57742000  1
  O  O69  1  0.48022500  0.60067800  0.17809800  1
  O  O70  1  0.82190200  0.80212700  0.42258000  1
  O  O71  1  0.51977500  0.39932200  0.82190200  1
  O  O72  1  0.30212700  0.32190200  0.92258000  1
  O  O73  1  0.69787300  0.67809800  0.07742000  1
  O  O74  1  0.19787300  0.12045200  0.01977500  1
  O  O75  1  0.80212700  0.87954800  0.98022500  1
  O  O76  1  0.89932200  0.37954800  0.57742000  1
  O  O77  1  0.10067800  0.62045200  0.42258000  1
  O  O78  1  0.60067800  0.17809800  0.48022500  1
  O  O79  1  0.39932200  0.82190200  0.51977500  1
