# generated using pymatgen
data_Dy5(CoB3)2
_symmetry_space_group_name_H-M   'P 1'
_cell_length_a   5.39013042
_cell_length_b   5.39013042
_cell_length_c   8.39797955
_cell_angle_alpha   71.28153297
_cell_angle_beta   71.28153297
_cell_angle_gamma   59.99999479
_symmetry_Int_Tables_number   1
_chemical_formula_structural   Dy5(CoB3)2
_chemical_formula_sum   'Dy5 Co2 B6'
_cell_volume   196.25888503
_cell_formula_units_Z   1
loop_
 _symmetry_equiv_pos_site_id
 _symmetry_equiv_pos_as_xyz
  1  'x, y, z'
loop_
 _atom_site_type_symbol
 _atom_site_label
 _atom_site_symmetry_multiplicity
 _atom_site_fract_x
 _atom_site_fract_y
 _atom_site_fract_z
 _atom_site_occupancy
  Dy  Dy0  1  0.00000000  0.00000000  0.00000000  1
  Dy  Dy1  1  0.25075700  0.25075700  0.24772900  1
  Dy  Dy2  1  0.74924300  0.74924300  0.75227100  1
  Dy  Dy3  1  0.41689300  0.41689300  0.74932000  1
  Dy  Dy4  1  0.58310700  0.58310700  0.25068000  1
  Co  Co5  1  0.11983000  0.11983000  0.64051000  1
  Co  Co6  1  0.88017000  0.88017000  0.35949000  1
  B  B7  1  0.16850000  0.83150000  0.50000000  1
  B  B8  1  0.83150000  0.50000000  0.50000000  1
  B  B9  1  0.50000000  0.16850000  0.50000000  1
  B  B10  1  0.16850000  0.50000000  0.50000000  1
  B  B11  1  0.50000000  0.83150000  0.50000000  1
  B  B12  1  0.83150000  0.16850000  0.50000000  1
