# generated using pymatgen
data_Co(PdSe)2
_symmetry_space_group_name_H-M   'P 1'
_cell_length_a   6.61953783
_cell_length_b   6.61953783
_cell_length_c   6.61953783
_cell_angle_alpha   135.22261329
_cell_angle_beta   125.67141983
_cell_angle_gamma   72.96326115
_symmetry_Int_Tables_number   1
_chemical_formula_structural   Co(PdSe)2
_chemical_formula_sum   'Co2 Pd4 Se4'
_cell_volume   162.21988292
_cell_formula_units_Z   2
loop_
 _symmetry_equiv_pos_site_id
 _symmetry_equiv_pos_as_xyz
  1  'x, y, z'
loop_
 _atom_site_type_symbol
 _atom_site_label
 _atom_site_symmetry_multiplicity
 _atom_site_fract_x
 _atom_site_fract_y
 _atom_site_fract_z
 _atom_site_occupancy
  Co  Co0  1  0.00000000  0.75000000  0.75000000  1
  Co  Co1  1  0.00000000  0.25000000  0.25000000  1
  Pd  Pd2  1  0.26295700  0.88719600  0.37576100  1
  Pd  Pd3  1  0.73704300  0.11280400  0.62423900  1
  Pd  Pd4  1  0.48856500  0.61280400  0.87576100  1
  Pd  Pd5  1  0.51143500  0.38719600  0.12423900  1
  Se  Se6  1  0.93137400  0.64127800  0.29009600  1
  Se  Se7  1  0.06862600  0.35872200  0.70990400  1
  Se  Se8  1  0.35118200  0.14127800  0.20990400  1
  Se  Se9  1  0.64881800  0.85872200  0.79009600  1
