# generated using pymatgen
data_KNaTi2(PO5)2
_symmetry_space_group_name_H-M   'P 1'
_cell_length_a   6.37466200
_cell_length_b   10.70559600
_cell_length_c   12.91110400
_cell_angle_alpha   90.00000000
_cell_angle_beta   90.00000000
_cell_angle_gamma   90.00000000
_symmetry_Int_Tables_number   1
_chemical_formula_structural   KNaTi2(PO5)2
_chemical_formula_sum   'K4 Na4 Ti8 P8 O40'
_cell_volume   881.11256006
_cell_formula_units_Z   4
loop_
 _symmetry_equiv_pos_site_id
 _symmetry_equiv_pos_as_xyz
  1  'x, y, z'
loop_
 _atom_site_type_symbol
 _atom_site_label
 _atom_site_symmetry_multiplicity
 _atom_site_fract_x
 _atom_site_fract_y
 _atom_site_fract_z
 _atom_site_occupancy
  K  K0  1  0.18075500  0.58041300  0.10072100  1
  K  K1  1  0.81924500  0.08041300  0.89927900  1
  K  K2  1  0.31924500  0.58041300  0.60072100  1
  K  K3  1  0.68075500  0.08041300  0.39927900  1
  Na  Na4  1  0.76733300  0.29983000  0.14937700  1
  Na  Na5  1  0.23266700  0.79983000  0.85062300  1
  Na  Na6  1  0.73266700  0.29983000  0.64937700  1
  Na  Na7  1  0.26733300  0.79983000  0.35062300  1
  Ti  Ti8  1  0.49292500  0.01320900  0.12798100  1
  Ti  Ti9  1  0.50707500  0.51320900  0.87201900  1
  Ti  Ti10  1  0.00707500  0.01320900  0.62798100  1
  Ti  Ti11  1  0.99292500  0.51320900  0.37201900  1
  Ti  Ti12  1  0.26017700  0.26602300  0.25431400  1
  Ti  Ti13  1  0.73982300  0.76602300  0.74568600  1
  Ti  Ti14  1  0.23982300  0.26602300  0.75431400  1
  Ti  Ti15  1  0.76017700  0.76602300  0.24568600  1
  P  P16  1  0.99868300  0.02435600  0.18409600  1
  P  P17  1  0.00131700  0.52435600  0.81590400  1
  P  P18  1  0.50131700  0.02435600  0.68409600  1
  P  P19  1  0.49868300  0.52435600  0.31590400  1
  P  P20  1  0.33889000  0.27583000  0.00388200  1
  P  P21  1  0.66111000  0.77583000  0.99611800  1
  P  P22  1  0.16111000  0.27583000  0.50388200  1
  P  P23  1  0.83889000  0.77583000  0.49611800  1
  O  O24  1  0.03012900  0.39797200  0.27490900  1
  O  O25  1  0.96987100  0.89797200  0.72509100  1
  O  O26  1  0.46987100  0.39797200  0.77490900  1
  O  O27  1  0.53012900  0.89797200  0.22509100  1
  O  O28  1  0.30531600  0.55336200  0.38379600  1
  O  O29  1  0.69468400  0.05336200  0.61620400  1
  O  O30  1  0.19468400  0.55336200  0.88379600  1
  O  O31  1  0.80531600  0.05336200  0.11620400  1
  O  O32  1  0.46213500  0.15445300  0.22416600  1
  O  O33  1  0.53786500  0.65445300  0.77583400  1
  O  O34  1  0.03786500  0.15445300  0.72416600  1
  O  O35  1  0.96213500  0.65445300  0.27583400  1
  O  O36  1  0.30064800  0.25462200  0.40578900  1
  O  O37  1  0.69935200  0.75462200  0.59421100  1
  O  O38  1  0.19935200  0.25462200  0.90578900  1
  O  O39  1  0.80064800  0.75462200  0.09421100  1
  O  O40  1  0.03195200  0.39925400  0.49294100  1
  O  O41  1  0.96804800  0.89925400  0.50705900  1
  O  O42  1  0.46804800  0.39925400  0.99294100  1
  O  O43  1  0.53195200  0.89925400  0.00705900  1
  O  O44  1  0.03169200  0.14054800  0.25513000  1
  O  O45  1  0.96830800  0.64054800  0.74487000  1
  O  O46  1  0.46830800  0.14054800  0.75513000  1
  O  O47  1  0.53169200  0.64054800  0.24487000  1
  O  O48  1  0.18971900  0.29287700  0.09876000  1
  O  O49  1  0.81028100  0.79287700  0.90124000  1
  O  O50  1  0.31028100  0.29287700  0.59876000  1
  O  O51  1  0.68971900  0.79287700  0.40124000  1
  O  O52  1  0.49331500  0.16726700  0.01734500  1
  O  O53  1  0.50668500  0.66726700  0.98265500  1
  O  O54  1  0.00668500  0.16726700  0.51734500  1
  O  O55  1  0.99331500  0.66726700  0.48265500  1
  O  O56  1  0.46504800  0.41013400  0.24391000  1
  O  O57  1  0.53495200  0.91013400  0.75609000  1
  O  O58  1  0.03495200  0.41013400  0.74391000  1
  O  O59  1  0.96504800  0.91013400  0.25609000  1
  O  O60  1  0.18717500  0.00085000  0.11222100  1
  O  O61  1  0.81282500  0.50085000  0.88777900  1
  O  O62  1  0.31282500  0.00085000  0.61222100  1
  O  O63  1  0.68717500  0.50085000  0.38777900  1
