# generated using pymatgen
data_K16Na9(Tl6Cd)3
_symmetry_space_group_name_H-M   'P 1'
_cell_length_a   11.44962825
_cell_length_b   11.44962825
_cell_length_c   30.15141300
_cell_angle_alpha   90.00000000
_cell_angle_beta   90.00000000
_cell_angle_gamma   120.00000144
_symmetry_Int_Tables_number   1
_chemical_formula_structural   K16Na9(Tl6Cd)3
_chemical_formula_sum   'K32 Na18 Tl36 Cd6'
_cell_volume   3423.11166976
_cell_formula_units_Z   2
loop_
 _symmetry_equiv_pos_site_id
 _symmetry_equiv_pos_as_xyz
  1  'x, y, z'
loop_
 _atom_site_type_symbol
 _atom_site_label
 _atom_site_symmetry_multiplicity
 _atom_site_fract_x
 _atom_site_fract_y
 _atom_site_fract_z
 _atom_site_occupancy
  K  K0  1  0.12947400  0.87052600  0.94133800  1
  K  K1  1  0.12947400  0.25894700  0.94133800  1
  K  K2  1  0.74105300  0.87052600  0.94133800  1
  K  K3  1  0.87052600  0.12947400  0.05866200  1
  K  K4  1  0.87052600  0.74105300  0.05866200  1
  K  K5  1  0.25894700  0.12947400  0.05866200  1
  K  K6  1  0.87052600  0.12947400  0.44133800  1
  K  K7  1  0.87052600  0.74105300  0.44133800  1
  K  K8  1  0.25894700  0.12947400  0.44133800  1
  K  K9  1  0.12947400  0.87052600  0.55866200  1
  K  K10  1  0.12947400  0.25894700  0.55866200  1
  K  K11  1  0.74105300  0.87052600  0.55866200  1
  K  K12  1  0.45533800  0.54466200  0.25000000  1
  K  K13  1  0.45533800  0.91067600  0.25000000  1
  K  K14  1  0.08932400  0.54466200  0.25000000  1
  K  K15  1  0.54466200  0.45533800  0.75000000  1
  K  K16  1  0.54466200  0.08932400  0.75000000  1
  K  K17  1  0.91067600  0.45533800  0.75000000  1
  K  K18  1  0.46313800  0.53686200  0.87544200  1
  K  K19  1  0.46313800  0.92627700  0.87544200  1
  K  K20  1  0.07372300  0.53686200  0.87544200  1
  K  K21  1  0.53686200  0.46313800  0.12455800  1
  K  K22  1  0.53686200  0.07372300  0.12455800  1
  K  K23  1  0.92627700  0.46313800  0.12455800  1
  K  K24  1  0.53686200  0.46313800  0.37544200  1
  K  K25  1  0.53686200  0.07372300  0.37544200  1
  K  K26  1  0.92627700  0.46313800  0.37544200  1
  K  K27  1  0.46313800  0.53686200  0.62455800  1
  K  K28  1  0.46313800  0.92627700  0.62455800  1
  K  K29  1  0.07372300  0.53686200  0.62455800  1
  K  K30  1  0.33333300  0.66666700  0.75000000  1
  K  K31  1  0.66666700  0.33333300  0.25000000  1
  Na  Na32  1  0.16383200  0.83616800  0.15268100  1
  Na  Na33  1  0.16383200  0.32766400  0.15268100  1
  Na  Na34  1  0.67233600  0.83616800  0.15268100  1
  Na  Na35  1  0.83616800  0.16383200  0.84731900  1
  Na  Na36  1  0.83616800  0.67233600  0.84731900  1
  Na  Na37  1  0.32766400  0.16383200  0.84731900  1
  Na  Na38  1  0.83616800  0.16383200  0.65268100  1
  Na  Na39  1  0.83616800  0.67233600  0.65268100  1
  Na  Na40  1  0.32766400  0.16383200  0.65268100  1
  Na  Na41  1  0.16383200  0.83616800  0.34731900  1
  Na  Na42  1  0.16383200  0.32766400  0.34731900  1
  Na  Na43  1  0.67233600  0.83616800  0.34731900  1
  Na  Na44  1  0.50000000  0.50000000  0.00000000  1
  Na  Na45  1  0.50000000  0.00000000  0.00000000  1
  Na  Na46  1  0.00000000  0.50000000  0.00000000  1
  Na  Na47  1  0.50000000  0.50000000  0.50000000  1
  Na  Na48  1  0.50000000  0.00000000  0.50000000  1
  Na  Na49  1  0.00000000  0.50000000  0.50000000  1
  Tl  Tl50  1  0.23353500  0.76646500  0.05474500  1
  Tl  Tl51  1  0.23353500  0.46706900  0.05474500  1
  Tl  Tl52  1  0.53293100  0.76646500  0.05474500  1
  Tl  Tl53  1  0.76646500  0.23353500  0.94525500  1
  Tl  Tl54  1  0.76646500  0.53293100  0.94525500  1
  Tl  Tl55  1  0.46706900  0.23353500  0.94525500  1
  Tl  Tl56  1  0.76646500  0.23353500  0.55474500  1
  Tl  Tl57  1  0.76646500  0.53293100  0.55474500  1
  Tl  Tl58  1  0.46706900  0.23353500  0.55474500  1
  Tl  Tl59  1  0.23353500  0.76646500  0.44525500  1
  Tl  Tl60  1  0.23353500  0.46706900  0.44525500  1
  Tl  Tl61  1  0.53293100  0.76646500  0.44525500  1
  Tl  Tl62  1  0.33333300  0.66666700  0.96948900  1
  Tl  Tl63  1  0.66666700  0.33333300  0.03051100  1
  Tl  Tl64  1  0.66666700  0.33333300  0.46948900  1
  Tl  Tl65  1  0.33333300  0.66666700  0.53051100  1
  Tl  Tl66  1  0.33333300  0.66666700  0.14022800  1
  Tl  Tl67  1  0.66666700  0.33333300  0.85977200  1
  Tl  Tl68  1  0.66666700  0.33333300  0.64022800  1
  Tl  Tl69  1  0.33333300  0.66666700  0.35977200  1
  Tl  Tl70  1  0.00000000  0.00000000  0.84008900  1
  Tl  Tl71  1  0.00000000  0.00000000  0.15991100  1
  Tl  Tl72  1  0.00000000  0.00000000  0.34008900  1
  Tl  Tl73  1  0.00000000  0.00000000  0.65991100  1
  Tl  Tl74  1  0.15751500  0.84248500  0.80315200  1
  Tl  Tl75  1  0.15751500  0.31502900  0.80315200  1
  Tl  Tl76  1  0.68497100  0.84248500  0.80315200  1
  Tl  Tl77  1  0.84248500  0.15751500  0.19684800  1
  Tl  Tl78  1  0.84248500  0.68497100  0.19684800  1
  Tl  Tl79  1  0.31502900  0.15751500  0.19684800  1
  Tl  Tl80  1  0.84248500  0.15751500  0.30315200  1
  Tl  Tl81  1  0.84248500  0.68497100  0.30315200  1
  Tl  Tl82  1  0.31502900  0.15751500  0.30315200  1
  Tl  Tl83  1  0.15751500  0.84248500  0.69684800  1
  Tl  Tl84  1  0.15751500  0.31502900  0.69684800  1
  Tl  Tl85  1  0.68497100  0.84248500  0.69684800  1
  Cd  Cd86  1  0.10260300  0.89739700  0.25000000  1
  Cd  Cd87  1  0.10260300  0.20520600  0.25000000  1
  Cd  Cd88  1  0.79479400  0.89739700  0.25000000  1
  Cd  Cd89  1  0.89739700  0.10260300  0.75000000  1
  Cd  Cd90  1  0.89739700  0.79479400  0.75000000  1
  Cd  Cd91  1  0.20520600  0.10260300  0.75000000  1
