# generated using pymatgen
data_ErRe2SiC
_symmetry_space_group_name_H-M   'P 1'
_cell_length_a   5.79725439
_cell_length_b   5.79725439
_cell_length_c   7.30025300
_cell_angle_alpha   90.00000000
_cell_angle_beta   90.00000000
_cell_angle_gamma   140.36936590
_symmetry_Int_Tables_number   1
_chemical_formula_structural   ErRe2SiC
_chemical_formula_sum   'Er2 Re4 Si2 C2'
_cell_volume   156.49179214
_cell_formula_units_Z   2
loop_
 _symmetry_equiv_pos_site_id
 _symmetry_equiv_pos_as_xyz
  1  'x, y, z'
loop_
 _atom_site_type_symbol
 _atom_site_label
 _atom_site_symmetry_multiplicity
 _atom_site_fract_x
 _atom_site_fract_y
 _atom_site_fract_z
 _atom_site_occupancy
  Er  Er0  1  0.54310400  0.45689600  0.25000000  1
  Er  Er1  1  0.45689600  0.54310400  0.75000000  1
  Re  Re2  1  0.82629900  0.17370100  0.06059700  1
  Re  Re3  1  0.17370100  0.82629900  0.93940300  1
  Re  Re4  1  0.17370100  0.82629900  0.56059700  1
  Re  Re5  1  0.82629900  0.17370100  0.43940300  1
  Si  Si6  1  0.26523300  0.73476700  0.25000000  1
  Si  Si7  1  0.73476700  0.26523300  0.75000000  1
  C  C8  1  0.00000000  0.00000000  0.00000000  1
  C  C9  1  0.00000000  0.00000000  0.50000000  1
