# generated using pymatgen
data_B3Pb6BrO10
_symmetry_space_group_name_H-M   'P 1'
_cell_length_a   7.30205100
_cell_length_b   11.14773500
_cell_length_c   17.60164900
_cell_angle_alpha   90.00000000
_cell_angle_beta   90.00000000
_cell_angle_gamma   90.00000000
_symmetry_Int_Tables_number   1
_chemical_formula_structural   B3Pb6BrO10
_chemical_formula_sum   'B12 Pb24 Br4 O40'
_cell_volume   1432.79763007
_cell_formula_units_Z   4
loop_
 _symmetry_equiv_pos_site_id
 _symmetry_equiv_pos_as_xyz
  1  'x, y, z'
loop_
 _atom_site_type_symbol
 _atom_site_label
 _atom_site_symmetry_multiplicity
 _atom_site_fract_x
 _atom_site_fract_y
 _atom_site_fract_z
 _atom_site_occupancy
  B  B0  1  0.30304900  0.25000000  0.27064200  1
  B  B1  1  0.69695100  0.75000000  0.72935800  1
  B  B2  1  0.30304900  0.75000000  0.22935800  1
  B  B3  1  0.69695100  0.25000000  0.77064200  1
  B  B4  1  0.71800600  0.99907700  0.99804800  1
  B  B5  1  0.28199400  0.49907700  0.00195200  1
  B  B6  1  0.71800600  0.00092300  0.50195200  1
  B  B7  1  0.28199400  0.50092300  0.49804800  1
  B  B8  1  0.28199400  0.00092300  0.00195200  1
  B  B9  1  0.71800600  0.50092300  0.99804800  1
  B  B10  1  0.28199400  0.99907700  0.49804800  1
  B  B11  1  0.71800600  0.49907700  0.50195200  1
  Pb  Pb12  1  0.92076900  0.25000000  0.97505000  1
  Pb  Pb13  1  0.07923100  0.75000000  0.02495000  1
  Pb  Pb14  1  0.92076900  0.75000000  0.52495000  1
  Pb  Pb15  1  0.07923100  0.25000000  0.47505000  1
  Pb  Pb16  1  0.40927800  0.25000000  0.06301800  1
  Pb  Pb17  1  0.59072200  0.75000000  0.93698200  1
  Pb  Pb18  1  0.40927800  0.75000000  0.43698200  1
  Pb  Pb19  1  0.59072200  0.25000000  0.56301800  1
  Pb  Pb20  1  0.03398700  0.07882600  0.15853800  1
  Pb  Pb21  1  0.96601300  0.57882600  0.84146200  1
  Pb  Pb22  1  0.03398700  0.92117400  0.34146200  1
  Pb  Pb23  1  0.96601300  0.42117400  0.65853800  1
  Pb  Pb24  1  0.96601300  0.92117400  0.84146200  1
  Pb  Pb25  1  0.03398700  0.42117400  0.15853800  1
  Pb  Pb26  1  0.96601300  0.07882600  0.65853800  1
  Pb  Pb27  1  0.03398700  0.57882600  0.34146200  1
  Pb  Pb28  1  0.47602300  0.43665300  0.84529400  1
  Pb  Pb29  1  0.52397700  0.93665300  0.15470600  1
  Pb  Pb30  1  0.47602300  0.56334700  0.65470600  1
  Pb  Pb31  1  0.52397700  0.06334700  0.34529400  1
  Pb  Pb32  1  0.52397700  0.56334700  0.15470600  1
  Pb  Pb33  1  0.47602300  0.06334700  0.84529400  1
  Pb  Pb34  1  0.52397700  0.43665300  0.34529400  1
  Pb  Pb35  1  0.47602300  0.93665300  0.65470600  1
  Br  Br36  1  0.81770500  0.25000000  0.27215500  1
  Br  Br37  1  0.18229500  0.75000000  0.72784500  1
  Br  Br38  1  0.81770500  0.75000000  0.22784500  1
  Br  Br39  1  0.18229500  0.25000000  0.77215500  1
  O  O40  1  0.76886600  0.09794500  0.03980100  1
  O  O41  1  0.23113400  0.59794500  0.96019900  1
  O  O42  1  0.76886600  0.90205500  0.46019900  1
  O  O43  1  0.23113400  0.40205500  0.53980100  1
  O  O44  1  0.23113400  0.90205500  0.96019900  1
  O  O45  1  0.76886600  0.40205500  0.03980100  1
  O  O46  1  0.23113400  0.09794500  0.53980100  1
  O  O47  1  0.76886600  0.59794500  0.46019900  1
  O  O48  1  0.08899000  0.25000000  0.08914200  1
  O  O49  1  0.91101000  0.75000000  0.91085800  1
  O  O50  1  0.08899000  0.75000000  0.41085800  1
  O  O51  1  0.91101000  0.25000000  0.58914200  1
  O  O52  1  0.34361600  0.39452000  0.96680400  1
  O  O53  1  0.65638400  0.89452100  0.03319600  1
  O  O54  1  0.34361600  0.60547900  0.53319600  1
  O  O55  1  0.65638400  0.10548000  0.46680400  1
  O  O56  1  0.65638400  0.60547900  0.03319600  1
  O  O57  1  0.34361600  0.10548000  0.96680400  1
  O  O58  1  0.65638400  0.39452000  0.46680400  1
  O  O59  1  0.34361600  0.89452100  0.53319600  1
  O  O60  1  0.27415800  0.13931000  0.23847600  1
  O  O61  1  0.72584200  0.63931000  0.76152400  1
  O  O62  1  0.27415800  0.86069000  0.26152400  1
  O  O63  1  0.72584200  0.36069000  0.73847600  1
  O  O64  1  0.72584200  0.86069000  0.76152400  1
  O  O65  1  0.27415800  0.36069000  0.23847600  1
  O  O66  1  0.72584200  0.13931000  0.73847600  1
  O  O67  1  0.27415800  0.63931000  0.26152400  1
  O  O68  1  0.61228500  0.25000000  0.84416000  1
  O  O69  1  0.38771500  0.75000000  0.15584000  1
  O  O70  1  0.61228500  0.75000000  0.65584000  1
  O  O71  1  0.38771500  0.25000000  0.34416000  1
  O  O72  1  0.27255500  0.00115500  0.08162600  1
  O  O73  1  0.72744500  0.50115500  0.91837400  1
  O  O74  1  0.27255500  0.99884500  0.41837400  1
  O  O75  1  0.72744500  0.49884500  0.58162600  1
  O  O76  1  0.72744500  0.99884500  0.91837400  1
  O  O77  1  0.27255500  0.49884500  0.08162600  1
  O  O78  1  0.72744500  0.00115500  0.58162600  1
  O  O79  1  0.27255500  0.50115500  0.41837400  1
