# generated using pymatgen
data_Hf2Se
_symmetry_space_group_name_H-M   'P 1'
_cell_length_a   3.44984936
_cell_length_b   3.44984936
_cell_length_c   12.27101000
_cell_angle_alpha   90.00000000
_cell_angle_beta   90.00000000
_cell_angle_gamma   119.99998772
_symmetry_Int_Tables_number   1
_chemical_formula_structural   Hf2Se
_chemical_formula_sum   'Hf4 Se2'
_cell_volume   126.47691355
_cell_formula_units_Z   2
loop_
 _symmetry_equiv_pos_site_id
 _symmetry_equiv_pos_as_xyz
  1  'x, y, z'
loop_
 _atom_site_type_symbol
 _atom_site_label
 _atom_site_symmetry_multiplicity
 _atom_site_fract_x
 _atom_site_fract_y
 _atom_site_fract_z
 _atom_site_occupancy
  Hf  Hf0  1  0.33333300  0.66666700  0.09381200  1
  Hf  Hf1  1  0.66666700  0.33333300  0.90618800  1
  Hf  Hf2  1  0.66666700  0.33333300  0.59381200  1
  Hf  Hf3  1  0.33333300  0.66666700  0.40618800  1
  Se  Se4  1  0.00000000  0.00000000  0.25000000  1
  Se  Se5  1  0.00000000  0.00000000  0.75000000  1
