# generated using pymatgen
data_Sm3IrO7
_symmetry_space_group_name_H-M   'P 1'
_cell_length_a   6.56706041
_cell_length_b   6.56706041
_cell_length_c   7.52813800
_cell_angle_alpha   90.00000000
_cell_angle_beta   90.00000000
_cell_angle_gamma   110.64195557
_symmetry_Int_Tables_number   1
_chemical_formula_structural   Sm3IrO7
_chemical_formula_sum   'Sm6 Ir2 O14'
_cell_volume   303.81792835
_cell_formula_units_Z   2
loop_
 _symmetry_equiv_pos_site_id
 _symmetry_equiv_pos_as_xyz
  1  'x, y, z'
loop_
 _atom_site_type_symbol
 _atom_site_label
 _atom_site_symmetry_multiplicity
 _atom_site_fract_x
 _atom_site_fract_y
 _atom_site_fract_z
 _atom_site_occupancy
  Sm  Sm0  1  0.00000000  0.00000000  0.00000000  1
  Sm  Sm1  1  0.00000000  0.00000000  0.50000000  1
  Sm  Sm2  1  0.47842200  0.92523500  0.75000000  1
  Sm  Sm3  1  0.52157800  0.07476500  0.25000000  1
  Sm  Sm4  1  0.92523500  0.47842200  0.75000000  1
  Sm  Sm5  1  0.07476500  0.52157800  0.25000000  1
  Ir  Ir6  1  0.50000000  0.50000000  0.00000000  1
  Ir  Ir7  1  0.50000000  0.50000000  0.50000000  1
  O  O8  1  0.59189000  0.59189000  0.75000000  1
  O  O9  1  0.40811000  0.40811000  0.25000000  1
  O  O10  1  0.84498200  0.11012000  0.75000000  1
  O  O11  1  0.15501800  0.88987900  0.25000000  1
  O  O12  1  0.11012000  0.84498200  0.75000000  1
  O  O13  1  0.88988000  0.15501800  0.25000000  1
  O  O14  1  0.43867800  0.18431800  0.96231300  1
  O  O15  1  0.56132200  0.81568200  0.46231300  1
  O  O16  1  0.18431800  0.43867800  0.96231300  1
  O  O17  1  0.81568200  0.56132200  0.46231300  1
  O  O18  1  0.43867800  0.18431800  0.53768700  1
  O  O19  1  0.56132200  0.81568200  0.03768700  1
  O  O20  1  0.81568200  0.56132200  0.03768700  1
  O  O21  1  0.18431800  0.43867800  0.53768700  1
