# generated using pymatgen
data_CuReO4
_symmetry_space_group_name_H-M   'P 1'
_cell_length_a   10.54359316
_cell_length_b   10.54359316
_cell_length_c   10.54359316
_cell_angle_alpha   97.92206174
_cell_angle_beta   97.92206174
_cell_angle_gamma   136.41464750
_symmetry_Int_Tables_number   1
_chemical_formula_structural   CuReO4
_chemical_formula_sum   'Cu8 Re8 O32'
_cell_volume   750.33695993
_cell_formula_units_Z   8
loop_
 _symmetry_equiv_pos_site_id
 _symmetry_equiv_pos_as_xyz
  1  'x, y, z'
loop_
 _atom_site_type_symbol
 _atom_site_label
 _atom_site_symmetry_multiplicity
 _atom_site_fract_x
 _atom_site_fract_y
 _atom_site_fract_z
 _atom_site_occupancy
  Cu  Cu0  1  0.54926900  0.09665900  0.77839900  1
  Cu  Cu1  1  0.04926900  0.27087000  0.45261000  1
  Cu  Cu2  1  0.34665900  0.06826000  0.04739000  1
  Cu  Cu3  1  0.52087000  0.56826000  0.72160100  1
  Cu  Cu4  1  0.31826000  0.77087000  0.22160100  1
  Cu  Cu5  1  0.81826000  0.59665900  0.54739000  1
  Cu  Cu6  1  0.02087000  0.29926900  0.95261000  1
  Cu  Cu7  1  0.84665900  0.79926900  0.27839900  1
  Re  Re8  1  0.64212400  0.90053000  0.54591600  1
  Re  Re9  1  0.14212400  0.59620800  0.74159400  1
  Re  Re10  1  0.15053000  0.10461400  0.75840600  1
  Re  Re11  1  0.84620800  0.60461400  0.95408400  1
  Re  Re12  1  0.35461400  0.09620800  0.45408400  1
  Re  Re13  1  0.85461400  0.40053000  0.25840600  1
  Re  Re14  1  0.34620800  0.39212400  0.24159400  1
  Re  Re15  1  0.65053000  0.89212400  0.04591600  1
  O  O16  1  0.59880100  0.73436800  0.61580800  1
  O  O17  1  0.09880100  0.48299300  0.86443300  1
  O  O18  1  0.98436800  0.86856100  0.63556700  1
  O  O19  1  0.73299300  0.36856100  0.88419200  1
  O  O20  1  0.11856100  0.98299300  0.38419200  1
  O  O21  1  0.61856100  0.23436800  0.13556700  1
  O  O22  1  0.23299300  0.34880100  0.36443300  1
  O  O23  1  0.48436800  0.84880100  0.11580800  1
  O  O24  1  0.66730500  0.05857300  0.66538700  1
  O  O25  1  0.16730500  0.50191800  0.60873200  1
  O  O26  1  0.30857300  0.14318600  0.89126800  1
  O  O27  1  0.75191800  0.64318600  0.83461300  1
  O  O28  1  0.39318600  0.00191800  0.33461300  1
  O  O29  1  0.89318600  0.55857300  0.39126800  1
  O  O30  1  0.25191800  0.41730500  0.10873200  1
  O  O31  1  0.80857300  0.91730500  0.16538700  1
  O  O32  1  0.86015600  0.04309200  0.50606700  1
  O  O33  1  0.36015600  0.85408900  0.81706300  1
  O  O34  1  0.29309200  0.28702500  0.68293700  1
  O  O35  1  0.10408900  0.78702500  0.99393300  1
  O  O36  1  0.53702500  0.35408900  0.49393300  1
  O  O37  1  0.03702500  0.54309200  0.18293700  1
  O  O38  1  0.60408900  0.61015600  0.31706300  1
  O  O39  1  0.79309200  0.11015600  0.00606700  1
  O  O40  1  0.44270000  0.76955600  0.39557800  1
  O  O41  1  0.94270000  0.54712200  0.67314400  1
  O  O42  1  0.01955600  0.12397800  0.82685600  1
  O  O43  1  0.79712200  0.62397800  0.10442200  1
  O  O44  1  0.37397800  0.04712200  0.60442200  1
  O  O45  1  0.87397800  0.26955600  0.32685600  1
  O  O46  1  0.29712200  0.19270000  0.17314400  1
  O  O47  1  0.51955600  0.69270000  0.89557800  1
