# generated using pymatgen
data_Th(BOs)2
_symmetry_space_group_name_H-M   'P 1'
_cell_length_a   6.83738066
_cell_length_b   6.06892586
_cell_length_c   5.63166796
_cell_angle_alpha   71.40453116
_cell_angle_beta   57.27456627
_cell_angle_gamma   51.32090258
_symmetry_Int_Tables_number   1
_chemical_formula_structural   Th(BOs)2
_chemical_formula_sum   'Th2 B4 Os4'
_cell_volume   153.41018232
_cell_formula_units_Z   2
loop_
 _symmetry_equiv_pos_site_id
 _symmetry_equiv_pos_as_xyz
  1  'x, y, z'
loop_
 _atom_site_type_symbol
 _atom_site_label
 _atom_site_symmetry_multiplicity
 _atom_site_fract_x
 _atom_site_fract_y
 _atom_site_fract_z
 _atom_site_occupancy
  Th  Th0  1  0.00000000  0.00000000  0.00000000  1
  Th  Th1  1  0.25000000  0.25000000  0.25000000  1
  B  B2  1  0.31642000  0.68358000  0.31642000  1
  B  B3  1  0.68358000  0.31642000  0.68358000  1
  B  B4  1  0.56642000  0.93358000  0.56642000  1
  B  B5  1  0.93358000  0.56642000  0.93358000  1
  Os  Os6  1  0.63701400  0.63701400  0.36298600  1
  Os  Os7  1  0.36298600  0.36298600  0.63701400  1
  Os  Os8  1  0.61298600  0.61298600  0.88701400  1
  Os  Os9  1  0.88701400  0.88701400  0.61298600  1
