# generated using pymatgen
data_RbVSeO5
_symmetry_space_group_name_H-M   'P 1'
_cell_length_a   7.84800200
_cell_length_b   7.93913100
_cell_length_c   9.59781105
_cell_angle_alpha   87.02616850
_cell_angle_beta   90.00000000
_cell_angle_gamma   90.00000000
_symmetry_Int_Tables_number   1
_chemical_formula_structural   RbVSeO5
_chemical_formula_sum   'Rb4 V4 Se4 O20'
_cell_volume   597.19893562
_cell_formula_units_Z   4
loop_
 _symmetry_equiv_pos_site_id
 _symmetry_equiv_pos_as_xyz
  1  'x, y, z'
loop_
 _atom_site_type_symbol
 _atom_site_label
 _atom_site_symmetry_multiplicity
 _atom_site_fract_x
 _atom_site_fract_y
 _atom_site_fract_z
 _atom_site_occupancy
  Rb  Rb0  1  0.98822800  0.90685000  0.13500200  1
  Rb  Rb1  1  0.48822800  0.09315000  0.86499800  1
  Rb  Rb2  1  0.76196900  0.62428200  0.61386700  1
  Rb  Rb3  1  0.26196900  0.37571800  0.38613300  1
  V  V4  1  0.82075200  0.42908300  0.23762800  1
  V  V5  1  0.32075200  0.57091700  0.76237200  1
  V  V6  1  0.45037200  0.91984000  0.26721200  1
  V  V7  1  0.95037200  0.08016000  0.73278800  1
  Se  Se8  1  0.53157300  0.61904400  0.06901900  1
  Se  Se9  1  0.03157300  0.38095600  0.93098100  1
  Se  Se10  1  0.24980900  0.88210100  0.55340200  1
  Se  Se11  1  0.74980900  0.11789900  0.44659800  1
  O  O12  1  0.85516700  0.93113400  0.83179700  1
  O  O13  1  0.35516700  0.06886600  0.16820300  1
  O  O14  1  0.62518000  0.41331000  0.31035400  1
  O  O15  1  0.12518000  0.58669000  0.68964600  1
  O  O16  1  0.68821400  0.96836000  0.33205700  1
  O  O17  1  0.18821400  0.03164000  0.66794300  1
  O  O18  1  0.32062500  0.75198800  0.29033800  1
  O  O19  1  0.82062500  0.24801200  0.70966200  1
  O  O20  1  0.88909400  0.99050600  0.54625600  1
  O  O21  1  0.38909400  0.00949400  0.45374400  1
  O  O22  1  0.92371500  0.58124400  0.31347800  1
  O  O23  1  0.42371500  0.41875600  0.68652200  1
  O  O24  1  0.90293700  0.22183200  0.34030400  1
  O  O25  1  0.40293700  0.77816800  0.65969600  1
  O  O26  1  0.73538000  0.52909200  0.05835400  1
  O  O27  1  0.23538000  0.47090800  0.94164600  1
  O  O28  1  0.59098400  0.81798500  0.12152200  1
  O  O29  1  0.09098400  0.18201500  0.87847800  1
  O  O30  1  0.99680100  0.32971400  0.10459700  1
  O  O31  1  0.49680100  0.67028600  0.89540300  1
