# generated using pymatgen
data_Pr5Zr3(Ni4As3)4
_symmetry_space_group_name_H-M   'P 1'
_cell_length_a   12.82914124
_cell_length_b   12.82914124
_cell_length_c   4.01198900
_cell_angle_alpha   90.00000000
_cell_angle_beta   90.00000000
_cell_angle_gamma   119.99999607
_symmetry_Int_Tables_number   1
_chemical_formula_structural   Pr5Zr3(Ni4As3)4
_chemical_formula_sum   'Pr5 Zr3 Ni16 As12'
_cell_volume   571.85451612
_cell_formula_units_Z   1
loop_
 _symmetry_equiv_pos_site_id
 _symmetry_equiv_pos_as_xyz
  1  'x, y, z'
loop_
 _atom_site_type_symbol
 _atom_site_label
 _atom_site_symmetry_multiplicity
 _atom_site_fract_x
 _atom_site_fract_y
 _atom_site_fract_z
 _atom_site_occupancy
  Pr  Pr0  1  0.81260100  0.00000000  0.50000000  1
  Pr  Pr1  1  0.00000000  0.81260100  0.50000000  1
  Pr  Pr2  1  0.18739900  0.18739900  0.50000000  1
  Pr  Pr3  1  0.33333300  0.66666700  0.00000000  1
  Pr  Pr4  1  0.66666700  0.33333300  0.00000000  1
  Zr  Zr5  1  0.43098300  0.00000000  0.00000000  1
  Zr  Zr6  1  0.00000000  0.43098300  0.00000000  1
  Zr  Zr7  1  0.56901700  0.56901700  0.00000000  1
  Ni  Ni8  1  0.27579400  0.00000000  0.50000000  1
  Ni  Ni9  1  0.00000000  0.27579400  0.50000000  1
  Ni  Ni10  1  0.72420600  0.72420600  0.50000000  1
  Ni  Ni11  1  0.62048900  0.80673400  0.00000000  1
  Ni  Ni12  1  0.19326600  0.81375600  0.00000000  1
  Ni  Ni13  1  0.18624400  0.37951100  0.00000000  1
  Ni  Ni14  1  0.37951100  0.18624400  0.00000000  1
  Ni  Ni15  1  0.80673400  0.62048900  0.00000000  1
  Ni  Ni16  1  0.81375600  0.19326600  0.00000000  1
  Ni  Ni17  1  0.51489200  0.88141200  0.50000000  1
  Ni  Ni18  1  0.11858800  0.63348000  0.50000000  1
  Ni  Ni19  1  0.36652000  0.48510800  0.50000000  1
  Ni  Ni20  1  0.48510800  0.36652000  0.50000000  1
  Ni  Ni21  1  0.88141200  0.51489200  0.50000000  1
  Ni  Ni22  1  0.63348000  0.11858800  0.50000000  1
  Ni  Ni23  1  0.00000000  0.00000000  0.00000000  1
  As  As24  1  0.18083000  0.00000000  0.00000000  1
  As  As25  1  0.00000000  0.18083000  0.00000000  1
  As  As26  1  0.81917000  0.81917000  0.00000000  1
  As  As27  1  0.52587500  0.69701500  0.50000000  1
  As  As28  1  0.30298500  0.82886000  0.50000000  1
  As  As29  1  0.17114000  0.47412500  0.50000000  1
  As  As30  1  0.47412500  0.17114000  0.50000000  1
  As  As31  1  0.69701500  0.52587500  0.50000000  1
  As  As32  1  0.82886000  0.30298500  0.50000000  1
  As  As33  1  0.63684700  0.00000000  0.00000000  1
  As  As34  1  0.00000000  0.63684700  0.00000000  1
  As  As35  1  0.36315300  0.36315300  0.00000000  1
