# generated using pymatgen
data_Na3B2PO5F4
_symmetry_space_group_name_H-M   'P 1'
_cell_length_a   12.33265500
_cell_length_b   6.61579900
_cell_length_c   9.94132627
_cell_angle_alpha   61.63746021
_cell_angle_beta   90.00000000
_cell_angle_gamma   90.00000000
_symmetry_Int_Tables_number   1
_chemical_formula_structural   Na3B2PO5F4
_chemical_formula_sum   'Na12 B8 P4 O20 F16'
_cell_volume   713.74950832
_cell_formula_units_Z   4
loop_
 _symmetry_equiv_pos_site_id
 _symmetry_equiv_pos_as_xyz
  1  'x, y, z'
loop_
 _atom_site_type_symbol
 _atom_site_label
 _atom_site_symmetry_multiplicity
 _atom_site_fract_x
 _atom_site_fract_y
 _atom_site_fract_z
 _atom_site_occupancy
  Na  Na0  1  0.73034900  0.70219700  0.41105300  1
  Na  Na1  1  0.76965100  0.70219700  0.91105300  1
  Na  Na2  1  0.26965100  0.29780300  0.58894700  1
  Na  Na3  1  0.23034900  0.29780300  0.08894700  1
  Na  Na4  1  0.42055500  0.83111400  0.33664300  1
  Na  Na5  1  0.07944500  0.83111400  0.83664300  1
  Na  Na6  1  0.57944500  0.16888600  0.66335700  1
  Na  Na7  1  0.92055500  0.16888600  0.16335700  1
  Na  Na8  1  0.14304400  0.83050700  0.45896900  1
  Na  Na9  1  0.35695600  0.83050700  0.95896900  1
  Na  Na10  1  0.85695600  0.16949300  0.54103100  1
  Na  Na11  1  0.64304400  0.16949300  0.04103100  1
  B  B12  1  0.43501200  0.33176300  0.87123900  1
  B  B13  1  0.06498800  0.33176300  0.37123900  1
  B  B14  1  0.56498800  0.66823700  0.12876100  1
  B  B15  1  0.93501200  0.66823700  0.62876100  1
  B  B16  1  0.55312300  0.65806200  0.69523500  1
  B  B17  1  0.94687700  0.65806200  0.19523500  1
  B  B18  1  0.44687700  0.34193800  0.30476500  1
  B  B19  1  0.05312300  0.34193800  0.80476500  1
  P  P20  1  0.33882100  0.72472900  0.68980300  1
  P  P21  1  0.16117900  0.72472900  0.18980300  1
  P  P22  1  0.66117900  0.27527100  0.31019700  1
  P  P23  1  0.83882100  0.27527100  0.81019700  1
  O  O24  1  0.34523300  0.49062500  0.85006800  1
  O  O25  1  0.15476700  0.49062500  0.35006800  1
  O  O26  1  0.65476700  0.50937500  0.14993200  1
  O  O27  1  0.84523300  0.50937500  0.64993200  1
  O  O28  1  0.46076800  0.81601000  0.66876500  1
  O  O29  1  0.03923200  0.81601000  0.16876500  1
  O  O30  1  0.53923200  0.18399000  0.33123500  1
  O  O31  1  0.96076800  0.18399000  0.83123500  1
  O  O32  1  0.53918600  0.43468400  0.82505500  1
  O  O33  1  0.96081400  0.43468400  0.32505500  1
  O  O34  1  0.46081400  0.56531600  0.17494500  1
  O  O35  1  0.03918600  0.56531600  0.67494500  1
  O  O36  1  0.30861300  0.67281400  0.56125700  1
  O  O37  1  0.19138700  0.67281400  0.06125700  1
  O  O38  1  0.69138700  0.32718600  0.43874300  1
  O  O39  1  0.80861300  0.32718600  0.93874300  1
  O  O40  1  0.26527800  0.88871900  0.71272900  1
  O  O41  1  0.23472200  0.88871900  0.21272900  1
  O  O42  1  0.73472200  0.11128100  0.28727100  1
  O  O43  1  0.76527800  0.11128100  0.78727100  1
  F  F44  1  0.57080700  0.63523800  0.55762300  1
  F  F45  1  0.92919300  0.63523800  0.05762300  1
  F  F46  1  0.42919300  0.36476200  0.44237700  1
  F  F47  1  0.07080700  0.36476200  0.94237700  1
  F  F48  1  0.64723400  0.77241800  0.71075600  1
  F  F49  1  0.85276600  0.77241800  0.21075600  1
  F  F50  1  0.35276600  0.22758200  0.28924400  1
  F  F51  1  0.14723400  0.22758200  0.78924400  1
  F  F52  1  0.40854300  0.20219400  0.78813300  1
  F  F53  1  0.09145700  0.20219400  0.28813300  1
  F  F54  1  0.59145700  0.79780600  0.21186700  1
  F  F55  1  0.90854300  0.79780600  0.71186700  1
  F  F56  1  0.43561200  0.16102600  0.02963900  1
  F  F57  1  0.06438800  0.16102600  0.52963900  1
  F  F58  1  0.56438800  0.83897400  0.97036100  1
  F  F59  1  0.93561200  0.83897400  0.47036100  1
