# generated using pymatgen
data_LiMoN2
_symmetry_space_group_name_H-M   'P 1'
_cell_length_a   5.58436205
_cell_length_b   5.58436205
_cell_length_c   5.58436172
_cell_angle_alpha   30.26088121
_cell_angle_beta   30.26088121
_cell_angle_gamma   30.26088640
_symmetry_Int_Tables_number   1
_chemical_formula_structural   LiMoN2
_chemical_formula_sum   'Li1 Mo1 N2'
_cell_volume   39.18956556
_cell_formula_units_Z   1
loop_
 _symmetry_equiv_pos_site_id
 _symmetry_equiv_pos_as_xyz
  1  'x, y, z'
loop_
 _atom_site_type_symbol
 _atom_site_label
 _atom_site_symmetry_multiplicity
 _atom_site_fract_x
 _atom_site_fract_y
 _atom_site_fract_z
 _atom_site_occupancy
  Li  Li0  1  0.41373400  0.41373400  0.41373400  1
  Mo  Mo1  1  0.58581400  0.58581400  0.58581400  1
  N  N2  1  0.84214200  0.84214200  0.84214200  1
  N  N3  1  0.99701000  0.99701000  0.99701000  1
