# generated using pymatgen
data_Na5NpO6
_symmetry_space_group_name_H-M   'P 1'
_cell_length_a   5.84723020
_cell_length_b   5.84723020
_cell_length_c   5.81978759
_cell_angle_alpha   79.90169719
_cell_angle_beta   79.90169719
_cell_angle_gamma   119.68819627
_symmetry_Int_Tables_number   1
_chemical_formula_structural   Na5NpO6
_chemical_formula_sum   'Na5 Np1 O6'
_cell_volume   161.98886373
_cell_formula_units_Z   1
loop_
 _symmetry_equiv_pos_site_id
 _symmetry_equiv_pos_as_xyz
  1  'x, y, z'
loop_
 _atom_site_type_symbol
 _atom_site_label
 _atom_site_symmetry_multiplicity
 _atom_site_fract_x
 _atom_site_fract_y
 _atom_site_fract_z
 _atom_site_occupancy
  Na  Na0  1  0.33311700  0.66688300  0.00000000  1
  Na  Na1  1  0.66688300  0.33311700  0.00000000  1
  Na  Na2  1  0.50000000  0.50000000  0.50000000  1
  Na  Na3  1  0.17032000  0.82968000  0.50000000  1
  Na  Na4  1  0.82968000  0.17032000  0.50000000  1
  Np  Np5  1  0.00000000  0.00000000  0.00000000  1
  O  O6  1  0.92634400  0.63958200  0.22242000  1
  O  O7  1  0.63958200  0.92634400  0.22242000  1
  O  O8  1  0.07365600  0.36041800  0.77758000  1
  O  O9  1  0.36041800  0.07365600  0.77758000  1
  O  O10  1  0.79004500  0.79004500  0.79034300  1
  O  O11  1  0.20995500  0.20995500  0.20965700  1
