# generated using pymatgen
data_LiBeB
_symmetry_space_group_name_H-M   'P 1'
_cell_length_a   3.00125200
_cell_length_b   3.70561000
_cell_length_c   5.69386775
_cell_angle_alpha   81.37647449
_cell_angle_beta   90.00000000
_cell_angle_gamma   90.00000000
_symmetry_Int_Tables_number   1
_chemical_formula_structural   LiBeB
_chemical_formula_sum   'Li2 Be2 B2'
_cell_volume   62.60828988
_cell_formula_units_Z   2
loop_
 _symmetry_equiv_pos_site_id
 _symmetry_equiv_pos_as_xyz
  1  'x, y, z'
loop_
 _atom_site_type_symbol
 _atom_site_label
 _atom_site_symmetry_multiplicity
 _atom_site_fract_x
 _atom_site_fract_y
 _atom_site_fract_z
 _atom_site_occupancy
  Li  Li0  1  0.75000000  0.77347500  0.34166000  1
  Li  Li1  1  0.25000000  0.22652500  0.65834000  1
  Be  Be2  1  0.75000000  0.64741300  0.88792700  1
  Be  Be3  1  0.25000000  0.35258700  0.11207300  1
  B  B4  1  0.75000000  0.11810700  0.97363100  1
  B  B5  1  0.25000000  0.88189300  0.02636900  1
