# generated using pymatgen
data_TmSbRh
_symmetry_space_group_name_H-M   'P 1'
_cell_length_a   4.55129300
_cell_length_b   7.09491200
_cell_length_c   7.80965500
_cell_angle_alpha   90.00000000
_cell_angle_beta   90.00000000
_cell_angle_gamma   90.00000000
_symmetry_Int_Tables_number   1
_chemical_formula_structural   TmSbRh
_chemical_formula_sum   'Tm4 Sb4 Rh4'
_cell_volume   252.18175174
_cell_formula_units_Z   4
loop_
 _symmetry_equiv_pos_site_id
 _symmetry_equiv_pos_as_xyz
  1  'x, y, z'
loop_
 _atom_site_type_symbol
 _atom_site_label
 _atom_site_symmetry_multiplicity
 _atom_site_fract_x
 _atom_site_fract_y
 _atom_site_fract_z
 _atom_site_occupancy
  Tm  Tm0  1  0.25000000  0.50945500  0.19837500  1
  Tm  Tm1  1  0.75000000  0.49054500  0.80162500  1
  Tm  Tm2  1  0.75000000  0.99054500  0.69837500  1
  Tm  Tm3  1  0.25000000  0.00945500  0.30162500  1
  Sb  Sb4  1  0.25000000  0.68941700  0.59183300  1
  Sb  Sb5  1  0.75000000  0.31058300  0.40816700  1
  Sb  Sb6  1  0.75000000  0.81058300  0.09183300  1
  Sb  Sb7  1  0.25000000  0.18941700  0.90816700  1
  Rh  Rh8  1  0.25000000  0.79789100  0.91816200  1
  Rh  Rh9  1  0.75000000  0.20210900  0.08183800  1
  Rh  Rh10  1  0.75000000  0.70210900  0.41816200  1
  Rh  Rh11  1  0.25000000  0.29789100  0.58183800  1
