# generated using pymatgen
data_LaFeGe2O7
_symmetry_space_group_name_H-M   'P 1'
_cell_length_a   6.72827800
_cell_length_b   7.42080700
_cell_length_c   13.24634423
_cell_angle_alpha   62.70281283
_cell_angle_beta   90.00000000
_cell_angle_gamma   90.00000000
_symmetry_Int_Tables_number   1
_chemical_formula_structural   LaFeGe2O7
_chemical_formula_sum   'La4 Fe4 Ge8 O28'
_cell_volume   587.72861482
_cell_formula_units_Z   4
loop_
 _symmetry_equiv_pos_site_id
 _symmetry_equiv_pos_as_xyz
  1  'x, y, z'
loop_
 _atom_site_type_symbol
 _atom_site_label
 _atom_site_symmetry_multiplicity
 _atom_site_fract_x
 _atom_site_fract_y
 _atom_site_fract_z
 _atom_site_occupancy
  La  La0  1  0.64671900  0.75842600  0.47595600  1
  La  La1  1  0.14671900  0.24157400  0.02404400  1
  La  La2  1  0.35328100  0.24157400  0.52404400  1
  La  La3  1  0.85328100  0.75842600  0.97595600  1
  Fe  Fe4  1  0.89731100  0.78701400  0.23189700  1
  Fe  Fe5  1  0.60268900  0.78701400  0.73189700  1
  Fe  Fe6  1  0.10268900  0.21298600  0.76810300  1
  Fe  Fe7  1  0.39731100  0.21298600  0.26810300  1
  Ge  Ge8  1  0.65743500  0.21451600  0.04125500  1
  Ge  Ge9  1  0.90902700  0.29773400  0.28080200  1
  Ge  Ge10  1  0.84256500  0.21451600  0.54125500  1
  Ge  Ge11  1  0.34256500  0.78548400  0.95874500  1
  Ge  Ge12  1  0.09097300  0.70226600  0.71919800  1
  Ge  Ge13  1  0.59097300  0.29773400  0.78080200  1
  Ge  Ge14  1  0.40902700  0.70226600  0.21919800  1
  Ge  Ge15  1  0.15743500  0.78548400  0.45874500  1
  O  O16  1  0.68616200  0.15608500  0.31317900  1
  O  O17  1  0.18616200  0.84391500  0.18682100  1
  O  O18  1  0.31383800  0.84391500  0.68682100  1
  O  O19  1  0.81383800  0.15608500  0.81317900  1
  O  O20  1  0.95325200  0.79374000  0.37347700  1
  O  O21  1  0.45325200  0.20626000  0.12652300  1
  O  O22  1  0.04674800  0.20626000  0.62652300  1
  O  O23  1  0.54674800  0.79374000  0.87347700  1
  O  O24  1  0.49513000  0.74754300  0.07851500  1
  O  O25  1  0.99513000  0.25245700  0.42148500  1
  O  O26  1  0.50487000  0.25245700  0.92148500  1
  O  O27  1  0.00487000  0.74754300  0.57851500  1
  O  O28  1  0.83271400  0.01015900  0.07894500  1
  O  O29  1  0.33271400  0.98984100  0.42105500  1
  O  O30  1  0.16728600  0.98984100  0.92105500  1
  O  O31  1  0.66728600  0.01015900  0.57894500  1
  O  O32  1  0.17721500  0.59091700  0.98305000  1
  O  O33  1  0.67721500  0.40908300  0.51695000  1
  O  O34  1  0.82278500  0.40908300  0.01695000  1
  O  O35  1  0.32278500  0.59091700  0.48305000  1
  O  O36  1  0.89334200  0.77896500  0.77886400  1
  O  O37  1  0.39334200  0.22103500  0.72113600  1
  O  O38  1  0.10665800  0.22103500  0.22113600  1
  O  O39  1  0.60665800  0.77896500  0.27886400  1
  O  O40  1  0.62630600  0.56315000  0.69681000  1
  O  O41  1  0.12630600  0.43685000  0.80319000  1
  O  O42  1  0.37369400  0.43685000  0.30319000  1
  O  O43  1  0.87369400  0.56315000  0.19681000  1
