# generated using pymatgen
data_KPSe6
_symmetry_space_group_name_H-M   'P 1'
_cell_length_a   7.03671000
_cell_length_b   11.74066000
_cell_length_c   12.06590500
_cell_angle_alpha   90.00000000
_cell_angle_beta   90.00000000
_cell_angle_gamma   90.00000000
_symmetry_Int_Tables_number   1
_chemical_formula_structural   KPSe6
_chemical_formula_sum   'K4 P4 Se24'
_cell_volume   996.83221795
_cell_formula_units_Z   4
loop_
 _symmetry_equiv_pos_site_id
 _symmetry_equiv_pos_as_xyz
  1  'x, y, z'
loop_
 _atom_site_type_symbol
 _atom_site_label
 _atom_site_symmetry_multiplicity
 _atom_site_fract_x
 _atom_site_fract_y
 _atom_site_fract_z
 _atom_site_occupancy
  K  K0  1  0.85291800  0.33479000  0.87850500  1
  K  K1  1  0.14708200  0.83479000  0.12149500  1
  K  K2  1  0.14708200  0.33479000  0.37850500  1
  K  K3  1  0.85291800  0.83479000  0.62149500  1
  P  P4  1  0.22074400  0.66447800  0.83341900  1
  P  P5  1  0.77925600  0.16447800  0.16658100  1
  P  P6  1  0.77925600  0.66447800  0.33341900  1
  P  P7  1  0.22074400  0.16447800  0.66658100  1
  Se  Se8  1  0.92352500  0.69829500  0.87380300  1
  Se  Se9  1  0.07647500  0.19829500  0.12619700  1
  Se  Se10  1  0.07647500  0.69829500  0.37380300  1
  Se  Se11  1  0.92352500  0.19829500  0.62619700  1
  Se  Se12  1  0.93592900  0.45706700  0.13234400  1
  Se  Se13  1  0.06407100  0.95706700  0.86765600  1
  Se  Se14  1  0.06407100  0.45706700  0.63234400  1
  Se  Se15  1  0.93592900  0.95706700  0.36765600  1
  Se  Se16  1  0.57754300  0.30262100  0.13921600  1
  Se  Se17  1  0.42245700  0.80262100  0.86078400  1
  Se  Se18  1  0.42245700  0.30262100  0.63921600  1
  Se  Se19  1  0.57754300  0.80262100  0.36078400  1
  Se  Se20  1  0.73971700  0.62571700  0.14946100  1
  Se  Se21  1  0.26028300  0.12571700  0.85053900  1
  Se  Se22  1  0.26028300  0.62571700  0.64946100  1
  Se  Se23  1  0.73971700  0.12571700  0.35053900  1
  Se  Se24  1  0.74606000  0.53813200  0.60388000  1
  Se  Se25  1  0.25394000  0.03813200  0.39612000  1
  Se  Se26  1  0.25394000  0.53813200  0.10388000  1
  Se  Se27  1  0.74606000  0.03813200  0.89612000  1
  Se  Se28  1  0.31843400  0.49461000  0.91597100  1
  Se  Se29  1  0.68156600  0.99461000  0.08402900  1
  Se  Se30  1  0.68156600  0.49461000  0.41597100  1
  Se  Se31  1  0.31843400  0.99461000  0.58402900  1
