# generated using pymatgen
data_Zr(Zn10Ni)2
_symmetry_space_group_name_H-M   'P 1'
_cell_length_a   9.86326279
_cell_length_b   9.86326279
_cell_length_c   9.86326279
_cell_angle_alpha   60.00000000
_cell_angle_beta   60.00000000
_cell_angle_gamma   60.00000000
_symmetry_Int_Tables_number   1
_chemical_formula_structural   Zr(Zn10Ni)2
_chemical_formula_sum   'Zr2 Zn40 Ni4'
_cell_volume   678.49525451
_cell_formula_units_Z   2
loop_
 _symmetry_equiv_pos_site_id
 _symmetry_equiv_pos_as_xyz
  1  'x, y, z'
loop_
 _atom_site_type_symbol
 _atom_site_label
 _atom_site_symmetry_multiplicity
 _atom_site_fract_x
 _atom_site_fract_y
 _atom_site_fract_z
 _atom_site_occupancy
  Zr  Zr0  1  0.50000000  0.50000000  0.50000000  1
  Zr  Zr1  1  0.75000000  0.75000000  0.75000000  1
  Zn  Zn2  1  0.56795900  0.30194000  0.30194000  1
  Zn  Zn3  1  0.30194000  0.56795900  0.82816000  1
  Zn  Zn4  1  0.30194000  0.82816000  0.56795900  1
  Zn  Zn5  1  0.82816000  0.30194000  0.30194000  1
  Zn  Zn6  1  0.30194000  0.30194000  0.56795900  1
  Zn  Zn7  1  0.56795900  0.82816000  0.30194000  1
  Zn  Zn8  1  0.82816000  0.56795900  0.30194000  1
  Zn  Zn9  1  0.30194000  0.30194000  0.82816000  1
  Zn  Zn10  1  0.30194000  0.56795900  0.30194000  1
  Zn  Zn11  1  0.82816000  0.30194000  0.56795900  1
  Zn  Zn12  1  0.56795900  0.30194000  0.82816000  1
  Zn  Zn13  1  0.30194000  0.82816000  0.30194000  1
  Zn  Zn14  1  0.68204100  0.94806000  0.94806000  1
  Zn  Zn15  1  0.94806000  0.68204100  0.42184000  1
  Zn  Zn16  1  0.94806000  0.42184000  0.68204100  1
  Zn  Zn17  1  0.42184000  0.94806000  0.94806000  1
  Zn  Zn18  1  0.94806000  0.94806000  0.68204100  1
  Zn  Zn19  1  0.68204100  0.42184000  0.94806000  1
  Zn  Zn20  1  0.42184000  0.68204100  0.94806000  1
  Zn  Zn21  1  0.94806000  0.94806000  0.42184000  1
  Zn  Zn22  1  0.94806000  0.68204100  0.94806000  1
  Zn  Zn23  1  0.42184000  0.94806000  0.68204100  1
  Zn  Zn24  1  0.68204100  0.94806000  0.42184000  1
  Zn  Zn25  1  0.94806000  0.42184000  0.94806000  1
  Zn  Zn26  1  0.86229200  0.86229200  0.13770800  1
  Zn  Zn27  1  0.13770800  0.13770800  0.86229200  1
  Zn  Zn28  1  0.86229200  0.13770800  0.86229200  1
  Zn  Zn29  1  0.13770800  0.86229200  0.13770800  1
  Zn  Zn30  1  0.13770800  0.86229200  0.86229200  1
  Zn  Zn31  1  0.86229200  0.13770800  0.13770800  1
  Zn  Zn32  1  0.38770800  0.38770800  0.11229200  1
  Zn  Zn33  1  0.11229200  0.11229200  0.38770800  1
  Zn  Zn34  1  0.38770800  0.11229200  0.38770800  1
  Zn  Zn35  1  0.11229200  0.38770800  0.11229200  1
  Zn  Zn36  1  0.11229200  0.38770800  0.38770800  1
  Zn  Zn37  1  0.38770800  0.11229200  0.11229200  1
  Zn  Zn38  1  0.12500000  0.62500000  0.62500000  1
  Zn  Zn39  1  0.62500000  0.12500000  0.62500000  1
  Zn  Zn40  1  0.62500000  0.62500000  0.12500000  1
  Zn  Zn41  1  0.62500000  0.62500000  0.62500000  1
  Ni  Ni42  1  0.62500000  0.12500000  0.12500000  1
  Ni  Ni43  1  0.12500000  0.62500000  0.12500000  1
  Ni  Ni44  1  0.12500000  0.12500000  0.62500000  1
  Ni  Ni45  1  0.12500000  0.12500000  0.12500000  1
