# generated using pymatgen
data_SiIr3
_symmetry_space_group_name_H-M   'P 1'
_cell_length_a   5.49261481
_cell_length_b   5.49261481
_cell_length_c   5.49261481
_cell_angle_alpha   122.50652090
_cell_angle_beta   122.50652090
_cell_angle_gamma   85.71077564
_symmetry_Int_Tables_number   1
_chemical_formula_structural   SiIr3
_chemical_formula_sum   'Si2 Ir6'
_cell_volume   112.38911264
_cell_formula_units_Z   2
loop_
 _symmetry_equiv_pos_site_id
 _symmetry_equiv_pos_as_xyz
  1  'x, y, z'
loop_
 _atom_site_type_symbol
 _atom_site_label
 _atom_site_symmetry_multiplicity
 _atom_site_fract_x
 _atom_site_fract_y
 _atom_site_fract_z
 _atom_site_occupancy
  Si  Si0  1  0.75000000  0.25000000  0.50000000  1
  Si  Si1  1  0.25000000  0.75000000  0.50000000  1
  Ir  Ir2  1  0.25000000  0.25000000  0.00000000  1
  Ir  Ir3  1  0.75000000  0.75000000  0.00000000  1
  Ir  Ir4  1  0.68484900  0.18484900  0.86969800  1
  Ir  Ir5  1  0.18484900  0.31515100  0.50000000  1
  Ir  Ir6  1  0.81515100  0.68484900  0.50000000  1
  Ir  Ir7  1  0.31515100  0.81515100  0.13030200  1
