# generated using pymatgen
data_NaNi2H3(SO5)2
_symmetry_space_group_name_H-M   'P 1'
_cell_length_a   5.35499435
_cell_length_b   5.35490404
_cell_length_c   7.40890232
_cell_angle_alpha   69.71493615
_cell_angle_beta   69.71428716
_cell_angle_gamma   71.70010294
_symmetry_Int_Tables_number   1
_chemical_formula_structural   NaNi2H3(SO5)2
_chemical_formula_sum   'Na1 Ni2 H3 S2 O10'
_cell_volume   182.32640904
_cell_formula_units_Z   1
loop_
 _symmetry_equiv_pos_site_id
 _symmetry_equiv_pos_as_xyz
  1  'x, y, z'
loop_
 _atom_site_type_symbol
 _atom_site_label
 _atom_site_symmetry_multiplicity
 _atom_site_fract_x
 _atom_site_fract_y
 _atom_site_fract_z
 _atom_site_occupancy
  Na  Na0  1  0.49810500  0.49811600  0.50102200  1
  Ni  Ni1  1  0.99614500  0.49775800  0.00053600  1
  Ni  Ni2  1  0.49772600  0.99619800  0.00054900  1
  H  H3  1  0.30124300  0.30125000  0.23571800  1
  H  H4  1  0.68775800  0.68776500  0.77198100  1
  H  H5  1  0.49051700  0.49052600  0.00752100  1
  S  S6  1  0.90488200  0.90485200  0.29385400  1
  S  S7  1  0.09055700  0.09057500  0.70838500  1
  O  O8  1  0.34160200  0.34161900  0.08908000  1
  O  O9  1  0.64866900  0.64869000  0.91795600  1
  O  O10  1  0.20885600  0.81604300  0.24880500  1
  O  O11  1  0.81606900  0.20882800  0.24880700  1
  O  O12  1  0.78669600  0.17797100  0.75328200  1
  O  O13  1  0.17797500  0.78671900  0.75326800  1
  O  O14  1  0.77722600  0.77719600  0.50133600  1
  O  O15  1  0.21887200  0.21888400  0.50115300  1
  O  O16  1  0.80964500  0.80954400  0.16059800  1
  O  O17  1  0.18745500  0.18746700  0.84015000  1
