# generated using pymatgen
data_Rb3DyCl6
_symmetry_space_group_name_H-M   'P 1'
_cell_length_a   13.67638629
_cell_length_b   13.67638629
_cell_length_c   12.96614049
_cell_angle_alpha   80.83343249
_cell_angle_beta   80.83343249
_cell_angle_gamma   34.05015164
_symmetry_Int_Tables_number   1
_chemical_formula_structural   Rb3DyCl6
_chemical_formula_sum   'Rb12 Dy4 Cl24'
_cell_volume   1338.95321911
_cell_formula_units_Z   4
loop_
 _symmetry_equiv_pos_site_id
 _symmetry_equiv_pos_as_xyz
  1  'x, y, z'
loop_
 _atom_site_type_symbol
 _atom_site_label
 _atom_site_symmetry_multiplicity
 _atom_site_fract_x
 _atom_site_fract_y
 _atom_site_fract_z
 _atom_site_occupancy
  Rb  Rb0  1  0.30246200  0.79666000  0.06679200  1
  Rb  Rb1  1  0.69753800  0.20334000  0.93320800  1
  Rb  Rb2  1  0.20334000  0.69753800  0.43320800  1
  Rb  Rb3  1  0.79666000  0.30246200  0.56679200  1
  Rb  Rb4  1  0.46582300  0.84168900  0.35592300  1
  Rb  Rb5  1  0.53417700  0.15831100  0.64407700  1
  Rb  Rb6  1  0.15831100  0.53417700  0.14407700  1
  Rb  Rb7  1  0.84168900  0.46582300  0.85592300  1
  Rb  Rb8  1  0.65083600  0.02540300  0.29972300  1
  Rb  Rb9  1  0.34916400  0.97459700  0.70027700  1
  Rb  Rb10  1  0.97459700  0.34916400  0.20027700  1
  Rb  Rb11  1  0.02540300  0.65083600  0.79972300  1
  Dy  Dy12  1  0.78369500  0.21630500  0.25000000  1
  Dy  Dy13  1  0.21630500  0.78369500  0.75000000  1
  Dy  Dy14  1  0.50000000  0.00000000  0.00000000  1
  Dy  Dy15  1  0.00000000  0.50000000  0.50000000  1
  Cl  Cl16  1  0.62262200  0.72269600  0.08122400  1
  Cl  Cl17  1  0.37737800  0.27730400  0.91877600  1
  Cl  Cl18  1  0.27730400  0.37737800  0.41877600  1
  Cl  Cl19  1  0.72269600  0.62262200  0.58122400  1
  Cl  Cl20  1  0.49572000  0.38646600  0.17902900  1
  Cl  Cl21  1  0.50428000  0.61353400  0.82097100  1
  Cl  Cl22  1  0.61353400  0.50428000  0.32097100  1
  Cl  Cl23  1  0.38646600  0.49572000  0.67902900  1
  Cl  Cl24  1  0.78331100  0.86263300  0.03460500  1
  Cl  Cl25  1  0.21668900  0.13736700  0.96539500  1
  Cl  Cl26  1  0.13736700  0.21668900  0.46539500  1
  Cl  Cl27  1  0.86263300  0.78331100  0.53460500  1
  Cl  Cl28  1  0.91361200  0.96847500  0.69614200  1
  Cl  Cl29  1  0.08638800  0.03152500  0.30385800  1
  Cl  Cl30  1  0.03152500  0.08638800  0.80385800  1
  Cl  Cl31  1  0.96847500  0.91361200  0.19614200  1
  Cl  Cl32  1  0.71714700  0.16701300  0.43443600  1
  Cl  Cl33  1  0.28285300  0.83298700  0.56556400  1
  Cl  Cl34  1  0.83298700  0.28285300  0.06556400  1
  Cl  Cl35  1  0.16701300  0.71714700  0.93443600  1
  Cl  Cl36  1  0.36004400  0.14078900  0.18582200  1
  Cl  Cl37  1  0.63995600  0.85921100  0.81417800  1
  Cl  Cl38  1  0.85921100  0.63995600  0.31417800  1
  Cl  Cl39  1  0.14078900  0.36004400  0.68582200  1
