# generated using pymatgen
data_Hf2Al3Au
_symmetry_space_group_name_H-M   'P 1'
_cell_length_a   5.27383529
_cell_length_b   5.27383529
_cell_length_c   5.27383533
_cell_angle_alpha   60.63474296
_cell_angle_beta   60.63474296
_cell_angle_gamma   60.63474266
_symmetry_Int_Tables_number   1
_chemical_formula_structural   Hf2Al3Au
_chemical_formula_sum   'Hf2 Al3 Au1'
_cell_volume   105.20708956
_cell_formula_units_Z   1
loop_
 _symmetry_equiv_pos_site_id
 _symmetry_equiv_pos_as_xyz
  1  'x, y, z'
loop_
 _atom_site_type_symbol
 _atom_site_label
 _atom_site_symmetry_multiplicity
 _atom_site_fract_x
 _atom_site_fract_y
 _atom_site_fract_z
 _atom_site_occupancy
  Hf  Hf0  1  0.37720100  0.37720100  0.37720100  1
  Hf  Hf1  1  0.62279900  0.62279900  0.62279900  1
  Al  Al2  1  0.50000000  0.00000000  0.00000000  1
  Al  Al3  1  0.00000000  0.00000000  0.50000000  1
  Al  Al4  1  0.00000000  0.50000000  0.00000000  1
  Au  Au5  1  0.00000000  0.00000000  0.00000000  1
