# generated using pymatgen
data_Ti3As
_symmetry_space_group_name_H-M   'P 1'
_cell_length_a   10.16675500
_cell_length_b   10.16675500
_cell_length_c   5.11682900
_cell_angle_alpha   90.00000000
_cell_angle_beta   90.00000000
_cell_angle_gamma   90.00000000
_symmetry_Int_Tables_number   1
_chemical_formula_structural   Ti3As
_chemical_formula_sum   'Ti24 As8'
_cell_volume   528.89032124
_cell_formula_units_Z   8
loop_
 _symmetry_equiv_pos_site_id
 _symmetry_equiv_pos_as_xyz
  1  'x, y, z'
loop_
 _atom_site_type_symbol
 _atom_site_label
 _atom_site_symmetry_multiplicity
 _atom_site_fract_x
 _atom_site_fract_y
 _atom_site_fract_z
 _atom_site_occupancy
  Ti  Ti0  1  0.89528900  0.58140800  0.03531600  1
  Ti  Ti1  1  0.10471100  0.41859200  0.03531600  1
  Ti  Ti2  1  0.91859200  0.39528900  0.53531600  1
  Ti  Ti3  1  0.08140800  0.60471100  0.53531600  1
  Ti  Ti4  1  0.60471100  0.91859200  0.46468400  1
  Ti  Ti5  1  0.39528900  0.08140800  0.46468400  1
  Ti  Ti6  1  0.58140800  0.10471100  0.96468400  1
  Ti  Ti7  1  0.41859200  0.89528900  0.96468400  1
  Ti  Ti8  1  0.85736000  0.02793500  0.71392700  1
  Ti  Ti9  1  0.14264000  0.97206500  0.71392700  1
  Ti  Ti10  1  0.47206500  0.35736000  0.21392700  1
  Ti  Ti11  1  0.52793500  0.64264000  0.21392700  1
  Ti  Ti12  1  0.64264000  0.47206500  0.78607300  1
  Ti  Ti13  1  0.35736000  0.52793500  0.78607300  1
  Ti  Ti14  1  0.02793500  0.14264000  0.28607300  1
  Ti  Ti15  1  0.97206500  0.85736000  0.28607300  1
  Ti  Ti16  1  0.28423100  0.18218800  0.99549800  1
  Ti  Ti17  1  0.71576900  0.81781200  0.99549800  1
  Ti  Ti18  1  0.31781200  0.78423100  0.49549800  1
  Ti  Ti19  1  0.68218800  0.21576900  0.49549800  1
  Ti  Ti20  1  0.21576900  0.31781200  0.50450200  1
  Ti  Ti21  1  0.78423100  0.68218800  0.50450200  1
  Ti  Ti22  1  0.18218800  0.71576900  0.00450200  1
  Ti  Ti23  1  0.81781200  0.28423100  0.00450200  1
  As  As24  1  0.79419300  0.04141800  0.21184400  1
  As  As25  1  0.20580700  0.95858200  0.21184400  1
  As  As26  1  0.45858200  0.29419300  0.71184400  1
  As  As27  1  0.54141800  0.70580700  0.71184400  1
  As  As28  1  0.70580700  0.45858200  0.28815600  1
  As  As29  1  0.29419300  0.54141800  0.28815600  1
  As  As30  1  0.04141800  0.20580700  0.78815600  1
  As  As31  1  0.95858200  0.79419300  0.78815600  1
