# generated using pymatgen
data_Eu3Pd2
_symmetry_space_group_name_H-M   'P 1'
_cell_length_a   7.91483315
_cell_length_b   7.91483315
_cell_length_c   7.91483261
_cell_angle_alpha   71.90120364
_cell_angle_beta   71.90120364
_cell_angle_gamma   71.90120629
_symmetry_Int_Tables_number   1
_chemical_formula_structural   Eu3Pd2
_chemical_formula_sum   'Eu9 Pd6'
_cell_volume   435.20552383
_cell_formula_units_Z   3
loop_
 _symmetry_equiv_pos_site_id
 _symmetry_equiv_pos_as_xyz
  1  'x, y, z'
loop_
 _atom_site_type_symbol
 _atom_site_label
 _atom_site_symmetry_multiplicity
 _atom_site_fract_x
 _atom_site_fract_y
 _atom_site_fract_z
 _atom_site_occupancy
  Eu  Eu0  1  0.50000000  0.50000000  0.50000000  1
  Eu  Eu1  1  0.70505100  0.70505100  0.70505100  1
  Eu  Eu2  1  0.29494900  0.29494900  0.29494900  1
  Eu  Eu3  1  0.88942400  0.16841700  0.66144600  1
  Eu  Eu4  1  0.66144600  0.88942400  0.16841700  1
  Eu  Eu5  1  0.16841700  0.66144600  0.88942400  1
  Eu  Eu6  1  0.11057600  0.83158300  0.33855400  1
  Eu  Eu7  1  0.33855400  0.11057600  0.83158300  1
  Eu  Eu8  1  0.83158300  0.33855400  0.11057600  1
  Pd  Pd9  1  0.90959600  0.54055500  0.34994400  1
  Pd  Pd10  1  0.34994400  0.90959600  0.54055500  1
  Pd  Pd11  1  0.54055500  0.34994400  0.90959600  1
  Pd  Pd12  1  0.09040400  0.45944500  0.65005600  1
  Pd  Pd13  1  0.65005600  0.09040400  0.45944500  1
  Pd  Pd14  1  0.45944500  0.65005600  0.09040400  1
