# generated using pymatgen
data_Tb(BRu)4
_symmetry_space_group_name_H-M   'P 1'
_cell_length_a   9.19092762
_cell_length_b   9.19092762
_cell_length_c   9.19092762
_cell_angle_alpha   131.88172876
_cell_angle_beta   131.88172876
_cell_angle_gamma   70.41588770
_symmetry_Int_Tables_number   1
_chemical_formula_structural   Tb(BRu)4
_chemical_formula_sum   'Tb4 B16 Ru16'
_cell_volume   421.72753376
_cell_formula_units_Z   4
loop_
 _symmetry_equiv_pos_site_id
 _symmetry_equiv_pos_as_xyz
  1  'x, y, z'
loop_
 _atom_site_type_symbol
 _atom_site_label
 _atom_site_symmetry_multiplicity
 _atom_site_fract_x
 _atom_site_fract_y
 _atom_site_fract_z
 _atom_site_occupancy
  Tb  Tb0  1  0.25000000  0.25000000  0.00000000  1
  Tb  Tb1  1  0.75000000  0.75000000  0.00000000  1
  Tb  Tb2  1  0.50000000  0.00000000  0.50000000  1
  Tb  Tb3  1  0.00000000  0.50000000  0.50000000  1
  B  B4  1  0.22003500  0.91207600  0.96952800  1
  B  B5  1  0.72003500  0.75050700  0.30795900  1
  B  B6  1  0.16207600  0.97003500  0.46952800  1
  B  B7  1  0.66207600  0.19254800  0.19204100  1
  B  B8  1  0.52996500  0.33792400  0.53047200  1
  B  B9  1  0.02996500  0.49949300  0.19204100  1
  B  B10  1  0.58792400  0.27996500  0.03047200  1
  B  B11  1  0.08792400  0.05745200  0.30795900  1
  B  B12  1  0.44254800  0.41207600  0.69204100  1
  B  B13  1  0.94254800  0.25050700  0.03047200  1
  B  B14  1  0.00050700  0.47003500  0.80795900  1
  B  B15  1  0.50050700  0.69254800  0.53047200  1
  B  B16  1  0.30745200  0.83792400  0.80795900  1
  B  B17  1  0.80745200  0.99949300  0.46952800  1
  B  B18  1  0.74949300  0.77996500  0.69204100  1
  B  B19  1  0.24949300  0.55745200  0.96952800  1
  Ru  Ru20  1  0.53926000  0.07300400  0.23630600  1
  Ru  Ru21  1  0.03926000  0.80295400  0.46625600  1
  Ru  Ru22  1  0.32300400  0.28926000  0.73630600  1
  Ru  Ru23  1  0.82300400  0.08669800  0.03374400  1
  Ru  Ru24  1  0.21074000  0.17699600  0.26369400  1
  Ru  Ru25  1  0.71074000  0.44704600  0.03374400  1
  Ru  Ru26  1  0.42699600  0.96074000  0.76369400  1
  Ru  Ru27  1  0.92699600  0.16330200  0.46625600  1
  Ru  Ru28  1  0.33669800  0.57300400  0.53374400  1
  Ru  Ru29  1  0.83669800  0.30295400  0.76369400  1
  Ru  Ru30  1  0.05295400  0.78926000  0.96625600  1
  Ru  Ru31  1  0.55295400  0.58669800  0.26369400  1
  Ru  Ru32  1  0.41330200  0.67699600  0.96625600  1
  Ru  Ru33  1  0.91330200  0.94704600  0.73630600  1
  Ru  Ru34  1  0.69704600  0.46074000  0.53374400  1
  Ru  Ru35  1  0.19704600  0.66330200  0.23630600  1
