# generated using pymatgen
data_Gd(BRu)2
_symmetry_space_group_name_H-M   'P 1'
_cell_length_a   6.67150781
_cell_length_b   5.93212693
_cell_length_c   5.58801485
_cell_angle_alpha   70.70484972
_cell_angle_beta   57.05863780
_cell_angle_gamma   52.23651248
_symmetry_Int_Tables_number   1
_chemical_formula_structural   Gd(BRu)2
_chemical_formula_sum   'Gd2 B4 Ru4'
_cell_volume   146.72200716
_cell_formula_units_Z   2
loop_
 _symmetry_equiv_pos_site_id
 _symmetry_equiv_pos_as_xyz
  1  'x, y, z'
loop_
 _atom_site_type_symbol
 _atom_site_label
 _atom_site_symmetry_multiplicity
 _atom_site_fract_x
 _atom_site_fract_y
 _atom_site_fract_z
 _atom_site_occupancy
  Gd  Gd0  1  0.00000000  0.00000000  0.00000000  1
  Gd  Gd1  1  0.25000000  0.25000000  0.25000000  1
  B  B2  1  0.31369500  0.68630500  0.31369500  1
  B  B3  1  0.68630500  0.31369500  0.68630500  1
  B  B4  1  0.56369500  0.93630500  0.56369500  1
  B  B5  1  0.93630500  0.56369500  0.93630500  1
  Ru  Ru6  1  0.63798400  0.63798400  0.36201600  1
  Ru  Ru7  1  0.36201600  0.36201600  0.63798400  1
  Ru  Ru8  1  0.61201600  0.61201600  0.88798400  1
  Ru  Ru9  1  0.88798400  0.88798400  0.61201600  1
