# generated using pymatgen
data_Co2AsHO5
_symmetry_space_group_name_H-M   'P 1'
_cell_length_a   6.15402200
_cell_length_b   8.41106700
_cell_length_c   8.67319500
_cell_angle_alpha   90.00000000
_cell_angle_beta   90.00000000
_cell_angle_gamma   90.00000000
_symmetry_Int_Tables_number   1
_chemical_formula_structural   Co2AsHO5
_chemical_formula_sum   'Co8 As4 H4 O20'
_cell_volume   448.94097735
_cell_formula_units_Z   4
loop_
 _symmetry_equiv_pos_site_id
 _symmetry_equiv_pos_as_xyz
  1  'x, y, z'
loop_
 _atom_site_type_symbol
 _atom_site_label
 _atom_site_symmetry_multiplicity
 _atom_site_fract_x
 _atom_site_fract_y
 _atom_site_fract_z
 _atom_site_occupancy
  Co  Co0  1  0.74502400  0.50000000  0.50000000  1
  Co  Co1  1  0.75497600  0.00000000  0.00000000  1
  Co  Co2  1  0.25497600  0.50000000  0.50000000  1
  Co  Co3  1  0.24502400  0.00000000  0.00000000  1
  Co  Co4  1  0.50000000  0.63618600  0.12690600  1
  Co  Co5  1  0.50000000  0.36381400  0.87309400  1
  Co  Co6  1  0.00000000  0.13618600  0.37309400  1
  Co  Co7  1  0.00000000  0.86381400  0.62690600  1
  As  As8  1  0.00000000  0.75035500  0.25510400  1
  As  As9  1  0.00000000  0.24964500  0.74489600  1
  As  As10  1  0.50000000  0.25035500  0.24489600  1
  As  As11  1  0.50000000  0.74964500  0.75510400  1
  H  H12  1  0.50000000  0.71771000  0.40549300  1
  H  H13  1  0.50000000  0.28229000  0.59450700  1
  H  H14  1  0.00000000  0.21771000  0.09450700  1
  H  H15  1  0.00000000  0.78229000  0.90549300  1
  O  O16  1  0.00000000  0.57323400  0.35594200  1
  O  O17  1  0.00000000  0.42676600  0.64405800  1
  O  O18  1  0.50000000  0.07323400  0.14405800  1
  O  O19  1  0.50000000  0.92676600  0.85594200  1
  O  O20  1  0.50000000  0.60706900  0.37004100  1
  O  O21  1  0.50000000  0.39293100  0.62995900  1
  O  O22  1  0.00000000  0.10706900  0.12995900  1
  O  O23  1  0.00000000  0.89293100  0.87004100  1
  O  O24  1  0.00000000  0.89755500  0.39369500  1
  O  O25  1  0.00000000  0.10244500  0.60630500  1
  O  O26  1  0.50000000  0.39755500  0.10630500  1
  O  O27  1  0.50000000  0.60244500  0.89369500  1
  O  O28  1  0.77491300  0.77064400  0.13739200  1
  O  O29  1  0.77491300  0.22935600  0.86260800  1
  O  O30  1  0.72508700  0.27064400  0.36260800  1
  O  O31  1  0.72508700  0.72935600  0.63739200  1
  O  O32  1  0.22508700  0.22935600  0.86260800  1
  O  O33  1  0.22508700  0.77064400  0.13739200  1
  O  O34  1  0.27491300  0.72935600  0.63739200  1
  O  O35  1  0.27491300  0.27064400  0.36260800  1
