# generated using pymatgen
data_NdCrS3
_symmetry_space_group_name_H-M   'P 1'
_cell_length_a   3.79012600
_cell_length_b   7.80370100
_cell_length_c   13.04086200
_cell_angle_alpha   90.00000000
_cell_angle_beta   90.00000000
_cell_angle_gamma   90.00000000
_symmetry_Int_Tables_number   1
_chemical_formula_structural   NdCrS3
_chemical_formula_sum   'Nd4 Cr4 S12'
_cell_volume   385.70970652
_cell_formula_units_Z   4
loop_
 _symmetry_equiv_pos_site_id
 _symmetry_equiv_pos_as_xyz
  1  'x, y, z'
loop_
 _atom_site_type_symbol
 _atom_site_label
 _atom_site_symmetry_multiplicity
 _atom_site_fract_x
 _atom_site_fract_y
 _atom_site_fract_z
 _atom_site_occupancy
  Nd  Nd0  1  0.25000000  0.08899900  0.82785800  1
  Nd  Nd1  1  0.75000000  0.91100100  0.17214200  1
  Nd  Nd2  1  0.25000000  0.58899900  0.67214200  1
  Nd  Nd3  1  0.75000000  0.41100100  0.32785800  1
  Cr  Cr4  1  0.25000000  0.33723500  0.05130500  1
  Cr  Cr5  1  0.75000000  0.66276500  0.94869500  1
  Cr  Cr6  1  0.25000000  0.83723500  0.44869500  1
  Cr  Cr7  1  0.75000000  0.16276500  0.55130500  1
  S  S8  1  0.25000000  0.48976100  0.89389000  1
  S  S9  1  0.75000000  0.51023900  0.10611000  1
  S  S10  1  0.25000000  0.98976100  0.60611000  1
  S  S11  1  0.75000000  0.01023900  0.39389000  1
  S  S12  1  0.25000000  0.34070500  0.49413000  1
  S  S13  1  0.75000000  0.65929500  0.50587000  1
  S  S14  1  0.25000000  0.84070500  0.00587000  1
  S  S15  1  0.75000000  0.15929500  0.99413000  1
  S  S16  1  0.75000000  0.30636000  0.71262500  1
  S  S17  1  0.25000000  0.69364000  0.28737500  1
  S  S18  1  0.75000000  0.80636000  0.78737500  1
  S  S19  1  0.25000000  0.19364000  0.21262500  1
