# generated using pymatgen
data_CsH5N2
_symmetry_space_group_name_H-M   'P 1'
_cell_length_a   5.23713600
_cell_length_b   8.58365200
_cell_length_c   10.20881000
_cell_angle_alpha   90.00000000
_cell_angle_beta   90.00000000
_cell_angle_gamma   90.00000000
_symmetry_Int_Tables_number   1
_chemical_formula_structural   CsH5N2
_chemical_formula_sum   'Cs4 H20 N8'
_cell_volume   458.92432215
_cell_formula_units_Z   4
loop_
 _symmetry_equiv_pos_site_id
 _symmetry_equiv_pos_as_xyz
  1  'x, y, z'
loop_
 _atom_site_type_symbol
 _atom_site_label
 _atom_site_symmetry_multiplicity
 _atom_site_fract_x
 _atom_site_fract_y
 _atom_site_fract_z
 _atom_site_occupancy
  Cs  Cs0  1  0.75000000  0.24239200  0.57669100  1
  Cs  Cs1  1  0.75000000  0.74239200  0.92330900  1
  Cs  Cs2  1  0.25000000  0.75760800  0.42330900  1
  Cs  Cs3  1  0.25000000  0.25760800  0.07669100  1
  H  H4  1  0.75000000  0.26100600  0.87272700  1
  H  H5  1  0.75000000  0.76100600  0.62727300  1
  H  H6  1  0.25000000  0.73899400  0.12727300  1
  H  H7  1  0.25000000  0.23899400  0.37272700  1
  H  H8  1  0.75000000  0.10847300  0.96351600  1
  H  H9  1  0.75000000  0.60847300  0.53648400  1
  H  H10  1  0.25000000  0.89152700  0.03648400  1
  H  H11  1  0.25000000  0.39152700  0.46351600  1
  H  H12  1  0.75000000  0.08954300  0.26175200  1
  H  H13  1  0.75000000  0.58954300  0.23824800  1
  H  H14  1  0.25000000  0.91045700  0.73824800  1
  H  H15  1  0.25000000  0.41045700  0.76175200  1
  H  H16  1  0.58845600  0.93329300  0.21501400  1
  H  H17  1  0.91154400  0.43329300  0.28498600  1
  H  H18  1  0.08845600  0.06670700  0.78498600  1
  H  H19  1  0.41154400  0.56670700  0.71501400  1
  H  H20  1  0.41154400  0.06670700  0.78498600  1
  H  H21  1  0.08845600  0.56670700  0.71501400  1
  H  H22  1  0.91154400  0.93329300  0.21501400  1
  H  H23  1  0.58845600  0.43329300  0.28498600  1
  N  N24  1  0.75000000  0.14140900  0.86639200  1
  N  N25  1  0.75000000  0.64140900  0.63360800  1
  N  N26  1  0.25000000  0.85859100  0.13360800  1
  N  N27  1  0.25000000  0.35859100  0.36639200  1
  N  N28  1  0.75000000  0.47002300  0.23280400  1
  N  N29  1  0.75000000  0.97002300  0.26719600  1
  N  N30  1  0.25000000  0.52997700  0.76719600  1
  N  N31  1  0.25000000  0.02997700  0.73280400  1
