# generated using pymatgen
data_Sr(CuSn)2
_symmetry_space_group_name_H-M   'P 1'
_cell_length_a   6.06750973
_cell_length_b   6.06750973
_cell_length_c   4.88444652
_cell_angle_alpha   73.60801563
_cell_angle_beta   73.60801563
_cell_angle_gamma   41.78087034
_symmetry_Int_Tables_number   1
_chemical_formula_structural   Sr(CuSn)2
_chemical_formula_sum   'Sr1 Cu2 Sn2'
_cell_volume   114.21401896
_cell_formula_units_Z   1
loop_
 _symmetry_equiv_pos_site_id
 _symmetry_equiv_pos_as_xyz
  1  'x, y, z'
loop_
 _atom_site_type_symbol
 _atom_site_label
 _atom_site_symmetry_multiplicity
 _atom_site_fract_x
 _atom_site_fract_y
 _atom_site_fract_z
 _atom_site_occupancy
  Sr  Sr0  1  0.00000000  0.00000000  0.00000000  1
  Cu  Cu1  1  0.73930300  0.73930300  0.86277400  1
  Cu  Cu2  1  0.26069700  0.26069700  0.13722600  1
  Sn  Sn3  1  0.35474200  0.35474200  0.57290500  1
  Sn  Sn4  1  0.64525800  0.64525800  0.42709500  1
