# generated using pymatgen
data_Pr5Sn4
_symmetry_space_group_name_H-M   'P 1'
_cell_length_a   8.34885400
_cell_length_b   8.54347400
_cell_length_c   16.17893900
_cell_angle_alpha   90.00000000
_cell_angle_beta   90.00000000
_cell_angle_gamma   90.00000000
_symmetry_Int_Tables_number   1
_chemical_formula_structural   Pr5Sn4
_chemical_formula_sum   'Pr20 Sn16'
_cell_volume   1154.01487310
_cell_formula_units_Z   4
loop_
 _symmetry_equiv_pos_site_id
 _symmetry_equiv_pos_as_xyz
  1  'x, y, z'
loop_
 _atom_site_type_symbol
 _atom_site_label
 _atom_site_symmetry_multiplicity
 _atom_site_fract_x
 _atom_site_fract_y
 _atom_site_fract_z
 _atom_site_occupancy
  Pr  Pr0  1  0.36841600  0.83555200  0.88018300  1
  Pr  Pr1  1  0.86841600  0.66444800  0.61981700  1
  Pr  Pr2  1  0.63158400  0.16444800  0.38018300  1
  Pr  Pr3  1  0.13158400  0.33555200  0.11981700  1
  Pr  Pr4  1  0.63158400  0.16444800  0.11981700  1
  Pr  Pr5  1  0.13158400  0.33555200  0.38018300  1
  Pr  Pr6  1  0.36841600  0.83555200  0.61981700  1
  Pr  Pr7  1  0.86841600  0.66444800  0.88018300  1
  Pr  Pr8  1  0.51887900  0.31716900  0.90046200  1
  Pr  Pr9  1  0.01887900  0.18283100  0.59953800  1
  Pr  Pr10  1  0.48112100  0.68283100  0.40046200  1
  Pr  Pr11  1  0.98112100  0.81716900  0.09953800  1
  Pr  Pr12  1  0.48112100  0.68283100  0.09953800  1
  Pr  Pr13  1  0.98112100  0.81716900  0.40046200  1
  Pr  Pr14  1  0.51887900  0.31716900  0.59953800  1
  Pr  Pr15  1  0.01887900  0.18283100  0.90046200  1
  Pr  Pr16  1  0.19747300  0.50065500  0.75000000  1
  Pr  Pr17  1  0.69747300  0.99934500  0.75000000  1
  Pr  Pr18  1  0.80252700  0.49934500  0.25000000  1
  Pr  Pr19  1  0.30252700  0.00065500  0.25000000  1
  Sn  Sn20  1  0.29011100  0.03255500  0.04285100  1
  Sn  Sn21  1  0.79011100  0.46744500  0.45714900  1
  Sn  Sn22  1  0.70988900  0.96744500  0.54285100  1
  Sn  Sn23  1  0.20988900  0.53255500  0.95714900  1
  Sn  Sn24  1  0.70988900  0.96744500  0.95714900  1
  Sn  Sn25  1  0.20988900  0.53255500  0.54285100  1
  Sn  Sn26  1  0.29011100  0.03255500  0.45714900  1
  Sn  Sn27  1  0.79011100  0.46744500  0.04285100  1
  Sn  Sn28  1  0.56820200  0.61641900  0.75000000  1
  Sn  Sn29  1  0.06820200  0.88358100  0.75000000  1
  Sn  Sn30  1  0.43179800  0.38358100  0.25000000  1
  Sn  Sn31  1  0.93179800  0.11641900  0.25000000  1
  Sn  Sn32  1  0.32107700  0.14228200  0.75000000  1
  Sn  Sn33  1  0.82107700  0.35771800  0.75000000  1
  Sn  Sn34  1  0.67892300  0.85771800  0.25000000  1
  Sn  Sn35  1  0.17892300  0.64228200  0.25000000  1
