# generated using pymatgen
data_RbTlS2
_symmetry_space_group_name_H-M   'P 1'
_cell_length_a   8.18814170
_cell_length_b   8.18814170
_cell_length_c   16.00564205
_cell_angle_alpha   82.54409043
_cell_angle_beta   82.54409043
_cell_angle_gamma   90.05894441
_symmetry_Int_Tables_number   1
_chemical_formula_structural   RbTlS2
_chemical_formula_sum   'Rb8 Tl8 S16'
_cell_volume   1054.86513431
_cell_formula_units_Z   8
loop_
 _symmetry_equiv_pos_site_id
 _symmetry_equiv_pos_as_xyz
  1  'x, y, z'
loop_
 _atom_site_type_symbol
 _atom_site_label
 _atom_site_symmetry_multiplicity
 _atom_site_fract_x
 _atom_site_fract_y
 _atom_site_fract_z
 _atom_site_occupancy
  Rb  Rb0  1  0.34555300  0.22287000  0.61456300  1
  Rb  Rb1  1  0.65444700  0.77713000  0.38543700  1
  Rb  Rb2  1  0.77713000  0.65444700  0.88543700  1
  Rb  Rb3  1  0.22287000  0.34555300  0.11456300  1
  Rb  Rb4  1  0.77486300  0.15217600  0.89069900  1
  Rb  Rb5  1  0.22513700  0.84782400  0.10930100  1
  Rb  Rb6  1  0.84782400  0.22513700  0.60930100  1
  Rb  Rb7  1  0.15217600  0.77486300  0.39069900  1
  Tl  Tl8  1  0.28929600  0.91466400  0.83952700  1
  Tl  Tl9  1  0.71070400  0.08533600  0.16047300  1
  Tl  Tl10  1  0.08533600  0.71070400  0.66047300  1
  Tl  Tl11  1  0.91466400  0.28929600  0.33952700  1
  Tl  Tl12  1  0.58438400  0.71013100  0.65995800  1
  Tl  Tl13  1  0.41561600  0.28986900  0.34004200  1
  Tl  Tl14  1  0.28986900  0.41561600  0.84004200  1
  Tl  Tl15  1  0.71013100  0.58438400  0.15995800  1
  S  S16  1  0.57339700  0.94986100  0.74926700  1
  S  S17  1  0.42660300  0.05013900  0.25073300  1
  S  S18  1  0.05013900  0.42660300  0.75073300  1
  S  S19  1  0.94986100  0.57339700  0.24926700  1
  S  S20  1  0.35974300  0.73487800  0.56140500  1
  S  S21  1  0.64025700  0.26512200  0.43859500  1
  S  S22  1  0.26512200  0.64025700  0.93859500  1
  S  S23  1  0.73487800  0.35974300  0.06140500  1
  S  S24  1  0.57397500  0.42602500  0.75000000  1
  S  S25  1  0.42602500  0.57397500  0.25000000  1
  S  S26  1  0.26620200  0.13996600  0.93888600  1
  S  S27  1  0.73379800  0.86003400  0.06111400  1
  S  S28  1  0.86003400  0.73379800  0.56111400  1
  S  S29  1  0.13996600  0.26620200  0.43888700  1
  S  S30  1  0.04975000  0.95025000  0.75000000  1
  S  S31  1  0.95025000  0.04975000  0.25000000  1
