# generated using pymatgen
data_AsPdS
_symmetry_space_group_name_H-M   'P 1'
_cell_length_a   6.03348600
_cell_length_b   6.03348600
_cell_length_c   6.03348600
_cell_angle_alpha   90.00000000
_cell_angle_beta   90.00000000
_cell_angle_gamma   90.00000000
_symmetry_Int_Tables_number   1
_chemical_formula_structural   AsPdS
_chemical_formula_sum   'As4 Pd4 S4'
_cell_volume   219.63670917
_cell_formula_units_Z   4
loop_
 _symmetry_equiv_pos_site_id
 _symmetry_equiv_pos_as_xyz
  1  'x, y, z'
loop_
 _atom_site_type_symbol
 _atom_site_label
 _atom_site_symmetry_multiplicity
 _atom_site_fract_x
 _atom_site_fract_y
 _atom_site_fract_z
 _atom_site_occupancy
  As  As0  1  0.61263900  0.61263900  0.61263900  1
  As  As1  1  0.88736100  0.38736100  0.11263900  1
  As  As2  1  0.11263900  0.88736100  0.38736100  1
  As  As3  1  0.38736100  0.11263900  0.88736100  1
  Pd  Pd4  1  0.00039400  0.49960600  0.50039400  1
  Pd  Pd5  1  0.49960600  0.50039400  0.00039400  1
  Pd  Pd6  1  0.50039400  0.00039400  0.49960600  1
  Pd  Pd7  1  0.99960600  0.99960600  0.99960600  1
  S  S8  1  0.60685700  0.89314300  0.10685700  1
  S  S9  1  0.89314300  0.10685700  0.60685700  1
  S  S10  1  0.10685700  0.60685700  0.89314300  1
  S  S11  1  0.39314300  0.39314300  0.39314300  1
