# generated using pymatgen
data_Eu3Sc2Al3O12
_symmetry_space_group_name_H-M   'P 1'
_cell_length_a   10.92011788
_cell_length_b   10.92011788
_cell_length_c   10.92011788
_cell_angle_alpha   109.47122063
_cell_angle_beta   109.47122063
_cell_angle_gamma   109.47122063
_symmetry_Int_Tables_number   1
_chemical_formula_structural   Eu3Sc2Al3O12
_chemical_formula_sum   'Eu12 Sc8 Al12 O48'
_cell_volume   1002.44392720
_cell_formula_units_Z   4
loop_
 _symmetry_equiv_pos_site_id
 _symmetry_equiv_pos_as_xyz
  1  'x, y, z'
loop_
 _atom_site_type_symbol
 _atom_site_label
 _atom_site_symmetry_multiplicity
 _atom_site_fract_x
 _atom_site_fract_y
 _atom_site_fract_z
 _atom_site_occupancy
  Eu  Eu0  1  0.25000000  0.37500000  0.12500000  1
  Eu  Eu1  1  0.75000000  0.62500000  0.87500000  1
  Eu  Eu2  1  0.75000000  0.12500000  0.37500000  1
  Eu  Eu3  1  0.12500000  0.25000000  0.37500000  1
  Eu  Eu4  1  0.37500000  0.75000000  0.12500000  1
  Eu  Eu5  1  0.25000000  0.87500000  0.62500000  1
  Eu  Eu6  1  0.87500000  0.75000000  0.62500000  1
  Eu  Eu7  1  0.62500000  0.25000000  0.87500000  1
  Eu  Eu8  1  0.37500000  0.12500000  0.25000000  1
  Eu  Eu9  1  0.62500000  0.87500000  0.75000000  1
  Eu  Eu10  1  0.12500000  0.37500000  0.75000000  1
  Eu  Eu11  1  0.87500000  0.62500000  0.25000000  1
  Sc  Sc12  1  0.00000000  0.00000000  0.00000000  1
  Sc  Sc13  1  0.50000000  0.00000000  0.50000000  1
  Sc  Sc14  1  0.00000000  0.50000000  0.50000000  1
  Sc  Sc15  1  0.50000000  0.00000000  0.00000000  1
  Sc  Sc16  1  0.50000000  0.50000000  0.00000000  1
  Sc  Sc17  1  0.50000000  0.50000000  0.50000000  1
  Sc  Sc18  1  0.00000000  0.00000000  0.50000000  1
  Sc  Sc19  1  0.00000000  0.50000000  0.00000000  1
  Al  Al20  1  0.25000000  0.62500000  0.37500000  1
  Al  Al21  1  0.75000000  0.37500000  0.62500000  1
  Al  Al22  1  0.75000000  0.87500000  0.12500000  1
  Al  Al23  1  0.37500000  0.25000000  0.62500000  1
  Al  Al24  1  0.62500000  0.75000000  0.37500000  1
  Al  Al25  1  0.25000000  0.12500000  0.87500000  1
  Al  Al26  1  0.12500000  0.75000000  0.87500000  1
  Al  Al27  1  0.87500000  0.25000000  0.12500000  1
  Al  Al28  1  0.62500000  0.37500000  0.25000000  1
  Al  Al29  1  0.37500000  0.62500000  0.75000000  1
  Al  Al30  1  0.87500000  0.12500000  0.75000000  1
  Al  Al31  1  0.12500000  0.87500000  0.25000000  1
  O  O32  1  0.47937000  0.37598300  0.29095300  1
  O  O33  1  0.52063000  0.62401700  0.70904700  1
  O  O34  1  0.58503000  0.18841700  0.20904700  1
  O  O35  1  0.91497000  0.12401700  0.60338600  1
  O  O36  1  0.29095300  0.47937000  0.37598300  1
  O  O37  1  0.31158300  0.91497000  0.29095300  1
  O  O38  1  0.41497000  0.81158300  0.79095300  1
  O  O39  1  0.08503000  0.87598300  0.39661400  1
  O  O40  1  0.70904700  0.52063000  0.62401700  1
  O  O41  1  0.68841700  0.08503000  0.70904700  1
  O  O42  1  0.02063000  0.31158300  0.89661400  1
  O  O43  1  0.20904700  0.58503000  0.18841700  1
  O  O44  1  0.12401700  0.02063000  0.20904700  1
  O  O45  1  0.97937000  0.68841700  0.10338600  1
  O  O46  1  0.79095300  0.41497000  0.81158300  1
  O  O47  1  0.87598300  0.97937000  0.79095300  1
  O  O48  1  0.60338600  0.91497000  0.12401700  1
  O  O49  1  0.18841700  0.47937000  0.60338600  1
  O  O50  1  0.39661400  0.08503000  0.87598300  1
  O  O51  1  0.81158300  0.52063000  0.39661400  1
  O  O52  1  0.89661400  0.02063000  0.31158300  1
  O  O53  1  0.37598300  0.58503000  0.89661400  1
  O  O54  1  0.10338600  0.97937000  0.68841700  1
  O  O55  1  0.62401700  0.41497000  0.10338600  1
  O  O56  1  0.37598300  0.29095300  0.47937000  1
  O  O57  1  0.58503000  0.89661400  0.37598300  1
  O  O58  1  0.62401700  0.70904700  0.52063000  1
  O  O59  1  0.41497000  0.10338600  0.62401700  1
  O  O60  1  0.12401700  0.60338600  0.91497000  1
  O  O61  1  0.02063000  0.20904700  0.12401700  1
  O  O62  1  0.87598300  0.39661400  0.08503000  1
  O  O63  1  0.97937000  0.79095300  0.87598300  1
  O  O64  1  0.31158300  0.89661400  0.02063000  1
  O  O65  1  0.91497000  0.29095300  0.31158300  1
  O  O66  1  0.68841700  0.10338600  0.97937000  1
  O  O67  1  0.08503000  0.70904700  0.68841700  1
  O  O68  1  0.18841700  0.20904700  0.58503000  1
  O  O69  1  0.47937000  0.60338600  0.18841700  1
  O  O70  1  0.81158300  0.79095300  0.41497000  1
  O  O71  1  0.52063000  0.39661400  0.81158300  1
  O  O72  1  0.29095300  0.31158300  0.91497000  1
  O  O73  1  0.70904700  0.68841700  0.08503000  1
  O  O74  1  0.20904700  0.12401700  0.02063000  1
  O  O75  1  0.79095300  0.87598300  0.97937000  1
  O  O76  1  0.89661400  0.37598300  0.58503000  1
  O  O77  1  0.10338600  0.62401700  0.41497000  1
  O  O78  1  0.60338600  0.18841700  0.47937000  1
  O  O79  1  0.39661400  0.81158300  0.52063000  1
