# generated using pymatgen
data_ZrGa2Ni
_symmetry_space_group_name_H-M   'P 1'
_cell_length_a   9.67443742
_cell_length_b   9.67443742
_cell_length_c   9.67443742
_cell_angle_alpha   100.19768891
_cell_angle_beta   100.19768891
_cell_angle_gamma   130.23393224
_symmetry_Int_Tables_number   1
_chemical_formula_structural   ZrGa2Ni
_chemical_formula_sum   'Zr10 Ga20 Ni10'
_cell_volume   627.08311139
_cell_formula_units_Z   10
loop_
 _symmetry_equiv_pos_site_id
 _symmetry_equiv_pos_as_xyz
  1  'x, y, z'
loop_
 _atom_site_type_symbol
 _atom_site_label
 _atom_site_symmetry_multiplicity
 _atom_site_fract_x
 _atom_site_fract_y
 _atom_site_fract_z
 _atom_site_occupancy
  Zr  Zr0  1  0.87092100  0.15764900  0.28672800  1
  Zr  Zr1  1  0.87092100  0.58419300  0.71327200  1
  Zr  Zr2  1  0.58419300  0.87092100  0.71327200  1
  Zr  Zr3  1  0.15764900  0.87092100  0.28672800  1
  Zr  Zr4  1  0.15949800  0.15949800  0.59318900  1
  Zr  Zr5  1  0.56630800  0.56630800  0.40681100  1
  Zr  Zr6  1  0.15949800  0.56630800  0.00000000  1
  Zr  Zr7  1  0.56630800  0.15949800  0.00000000  1
  Zr  Zr8  1  0.93589700  0.93589700  0.00000000  1
  Zr  Zr9  1  0.48884700  0.48884700  0.00000000  1
  Ga  Ga10  1  0.47397700  0.96727500  0.21090200  1
  Ga  Ga11  1  0.75637300  0.26307500  0.78909800  1
  Ga  Ga12  1  0.47397700  0.26307500  0.50670200  1
  Ga  Ga13  1  0.75637300  0.96727500  0.49329800  1
  Ga  Ga14  1  0.26307500  0.75637300  0.78909800  1
  Ga  Ga15  1  0.96727500  0.47397700  0.21090200  1
  Ga  Ga16  1  0.96727500  0.75637300  0.49329800  1
  Ga  Ga17  1  0.26307500  0.47397700  0.50670200  1
  Ga  Ga18  1  0.20391600  0.36435500  0.16043900  1
  Ga  Ga19  1  0.20391600  0.04347600  0.83956100  1
  Ga  Ga20  1  0.04347600  0.20391600  0.83956100  1
  Ga  Ga21  1  0.36435500  0.20391600  0.16043900  1
  Ga  Ga22  1  0.35247500  0.73447700  0.38200200  1
  Ga  Ga23  1  0.35247500  0.97047300  0.61799800  1
  Ga  Ga24  1  0.97047300  0.35247500  0.61799800  1
  Ga  Ga25  1  0.73447700  0.35247500  0.38200200  1
  Ga  Ga26  1  0.57936400  0.57936400  0.73424200  1
  Ga  Ga27  1  0.84512200  0.84512200  0.26575800  1
  Ga  Ga28  1  0.57936400  0.84512200  0.00000000  1
  Ga  Ga29  1  0.84512200  0.57936400  0.00000000  1
  Ni  Ni30  1  0.51652900  0.73372700  0.21719800  1
  Ni  Ni31  1  0.51652900  0.29933100  0.78280200  1
  Ni  Ni32  1  0.29933100  0.51652900  0.78280200  1
  Ni  Ni33  1  0.73372700  0.51652900  0.21719800  1
  Ni  Ni34  1  0.86614500  0.86614500  0.67563100  1
  Ni  Ni35  1  0.19051400  0.19051400  0.32436900  1
  Ni  Ni36  1  0.86614500  0.19051400  0.00000000  1
  Ni  Ni37  1  0.19051400  0.86614500  0.00000000  1
  Ni  Ni38  1  0.10029700  0.60029700  0.50000000  1
  Ni  Ni39  1  0.60029700  0.10029700  0.50000000  1
