# generated using pymatgen
data_NaTiCu3Se4
_symmetry_space_group_name_H-M   'P 1'
_cell_length_a   5.89444200
_cell_length_b   5.89444200
_cell_length_c   5.89444200
_cell_angle_alpha   90.00000000
_cell_angle_beta   90.00000000
_cell_angle_gamma   90.00000000
_symmetry_Int_Tables_number   1
_chemical_formula_structural   NaTiCu3Se4
_chemical_formula_sum   'Na1 Ti1 Cu3 Se4'
_cell_volume   204.79912467
_cell_formula_units_Z   1
loop_
 _symmetry_equiv_pos_site_id
 _symmetry_equiv_pos_as_xyz
  1  'x, y, z'
loop_
 _atom_site_type_symbol
 _atom_site_label
 _atom_site_symmetry_multiplicity
 _atom_site_fract_x
 _atom_site_fract_y
 _atom_site_fract_z
 _atom_site_occupancy
  Na  Na0  1  0.50000000  0.50000000  0.50000000  1
  Ti  Ti1  1  0.00000000  0.00000000  0.00000000  1
  Cu  Cu2  1  0.00000000  0.50000000  0.00000000  1
  Cu  Cu3  1  0.00000000  0.00000000  0.50000000  1
  Cu  Cu4  1  0.50000000  0.00000000  0.00000000  1
  Se  Se5  1  0.23389200  0.23389200  0.23389200  1
  Se  Se6  1  0.76610800  0.76610800  0.23389200  1
  Se  Se7  1  0.23389200  0.76610800  0.76610800  1
  Se  Se8  1  0.76610800  0.23389200  0.76610800  1
