# generated using pymatgen
data_Sr2PIO4
_symmetry_space_group_name_H-M   'P 1'
_cell_length_a   9.01982800
_cell_length_b   8.54095400
_cell_length_c   9.22496142
_cell_angle_alpha   67.48799209
_cell_angle_beta   90.00000000
_cell_angle_gamma   90.00000000
_symmetry_Int_Tables_number   1
_chemical_formula_structural   Sr2PIO4
_chemical_formula_sum   'Sr8 P4 I4 O16'
_cell_volume   656.51829239
_cell_formula_units_Z   4
loop_
 _symmetry_equiv_pos_site_id
 _symmetry_equiv_pos_as_xyz
  1  'x, y, z'
loop_
 _atom_site_type_symbol
 _atom_site_label
 _atom_site_symmetry_multiplicity
 _atom_site_fract_x
 _atom_site_fract_y
 _atom_site_fract_z
 _atom_site_occupancy
  Sr  Sr0  1  0.30489800  0.45910600  0.14850600  1
  Sr  Sr1  1  0.80489800  0.04089400  0.85149400  1
  Sr  Sr2  1  0.69510200  0.54089400  0.85149400  1
  Sr  Sr3  1  0.19510200  0.95910600  0.14850600  1
  Sr  Sr4  1  0.32887000  0.95144300  0.75268700  1
  Sr  Sr5  1  0.82887000  0.54855700  0.24731300  1
  Sr  Sr6  1  0.67113000  0.04855700  0.24731300  1
  Sr  Sr7  1  0.17113000  0.45144300  0.75268700  1
  P  P8  1  0.05345100  0.74269200  0.95552200  1
  P  P9  1  0.55345100  0.75730800  0.04447800  1
  P  P10  1  0.94654900  0.25730800  0.04447800  1
  P  P11  1  0.44654900  0.24269200  0.95552200  1
  I  I12  1  0.90383400  0.74362700  0.50666400  1
  I  I13  1  0.40383400  0.75637300  0.49333600  1
  I  I14  1  0.09616600  0.25637300  0.49333600  1
  I  I15  1  0.59616600  0.24362700  0.50666400  1
  O  O16  1  0.08289700  0.66202500  0.13712900  1
  O  O17  1  0.58289700  0.83797500  0.86287100  1
  O  O18  1  0.91710300  0.33797500  0.86287100  1
  O  O19  1  0.41710300  0.16202500  0.13712900  1
  O  O20  1  0.11181200  0.28593100  0.07215000  1
  O  O21  1  0.61181200  0.21406900  0.92785000  1
  O  O22  1  0.88818800  0.71406900  0.92785000  1
  O  O23  1  0.38818800  0.78593100  0.07215000  1
  O  O24  1  0.66501900  0.83092300  0.12962000  1
  O  O25  1  0.16501900  0.66907700  0.87038000  1
  O  O26  1  0.33498100  0.16907700  0.87038000  1
  O  O27  1  0.83498100  0.33092300  0.12962000  1
  O  O28  1  0.41710500  0.43722800  0.89592900  1
  O  O29  1  0.91710500  0.06277200  0.10407100  1
  O  O30  1  0.58289500  0.56277200  0.10407100  1
  O  O31  1  0.08289500  0.93722800  0.89592900  1
