# generated using pymatgen
data_Na2SrMg(PO4)2
_symmetry_space_group_name_H-M   'P 1'
_cell_length_a   5.32783500
_cell_length_b   9.26827000
_cell_length_c   13.67539664
_cell_angle_alpha   89.94795976
_cell_angle_beta   90.00000000
_cell_angle_gamma   90.00000000
_symmetry_Int_Tables_number   1
_chemical_formula_structural   Na2SrMg(PO4)2
_chemical_formula_sum   'Na8 Sr4 Mg4 P8 O32'
_cell_volume   675.28825432
_cell_formula_units_Z   4
loop_
 _symmetry_equiv_pos_site_id
 _symmetry_equiv_pos_as_xyz
  1  'x, y, z'
loop_
 _atom_site_type_symbol
 _atom_site_label
 _atom_site_symmetry_multiplicity
 _atom_site_fract_x
 _atom_site_fract_y
 _atom_site_fract_z
 _atom_site_occupancy
  Na  Na0  1  0.99106800  0.67796900  0.09010400  1
  Na  Na1  1  0.49106800  0.82203100  0.90989600  1
  Na  Na2  1  0.00893200  0.32203100  0.90989600  1
  Na  Na3  1  0.50893200  0.17796900  0.09010400  1
  Na  Na4  1  0.98782800  0.65770600  0.58910200  1
  Na  Na5  1  0.48782800  0.84229400  0.41089800  1
  Na  Na6  1  0.01217200  0.34229400  0.41089800  1
  Na  Na7  1  0.51217200  0.15770600  0.58910200  1
  Sr  Sr8  1  0.46992200  0.52946300  0.25041200  1
  Sr  Sr9  1  0.96992200  0.97053700  0.74958800  1
  Sr  Sr10  1  0.53007800  0.47053700  0.74958800  1
  Sr  Sr11  1  0.03007800  0.02946300  0.25041200  1
  Mg  Mg12  1  0.50000000  0.50000000  0.50000000  1
  Mg  Mg13  1  0.00000000  0.00000000  0.50000000  1
  Mg  Mg14  1  0.50000000  0.50000000  0.00000000  1
  Mg  Mg15  1  0.00000000  0.00000000  0.00000000  1
  P  P16  1  0.98248300  0.67622300  0.36755700  1
  P  P17  1  0.48248300  0.82377700  0.63244300  1
  P  P18  1  0.01751700  0.32377700  0.63244300  1
  P  P19  1  0.51751700  0.17622300  0.36755700  1
  P  P20  1  0.00611900  0.65660700  0.86719600  1
  P  P21  1  0.50611900  0.84339300  0.13280400  1
  P  P22  1  0.99388100  0.34339300  0.13280400  1
  P  P23  1  0.49388100  0.15660700  0.86719600  1
  O  O24  1  0.99059200  0.64618600  0.25754400  1
  O  O25  1  0.49059200  0.85381400  0.74245600  1
  O  O26  1  0.00940800  0.35381400  0.74245600  1
  O  O27  1  0.50940800  0.14618600  0.25754400  1
  O  O28  1  0.99628700  0.84100500  0.39036200  1
  O  O29  1  0.49628700  0.65899500  0.60963800  1
  O  O30  1  0.00371300  0.15899500  0.60963800  1
  O  O31  1  0.50371300  0.34100500  0.39036200  1
  O  O32  1  0.20686900  0.59845100  0.41926600  1
  O  O33  1  0.70686900  0.90154900  0.58073400  1
  O  O34  1  0.79313100  0.40154900  0.58073400  1
  O  O35  1  0.29313100  0.09845100  0.41926600  1
  O  O36  1  0.73393700  0.61604400  0.41176300  1
  O  O37  1  0.23393700  0.88395600  0.58823700  1
  O  O38  1  0.26606300  0.38395600  0.58823700  1
  O  O39  1  0.76606300  0.11604400  0.41176300  1
  O  O40  1  0.97147000  0.68251600  0.75714300  1
  O  O41  1  0.47147000  0.81748400  0.24285700  1
  O  O42  1  0.02853000  0.31748400  0.24285700  1
  O  O43  1  0.52853000  0.18251600  0.75714300  1
  O  O44  1  0.99779000  0.80488300  0.92160800  1
  O  O45  1  0.49779000  0.69511700  0.07839200  1
  O  O46  1  0.00221000  0.19511700  0.07839200  1
  O  O47  1  0.50221000  0.30488300  0.92160800  1
  O  O48  1  0.26299400  0.58314600  0.88994100  1
  O  O49  1  0.76299400  0.91685400  0.11005900  1
  O  O50  1  0.73700600  0.41685400  0.11005900  1
  O  O51  1  0.23700600  0.08314600  0.88994100  1
  O  O52  1  0.79065500  0.55955400  0.90750900  1
  O  O53  1  0.29065500  0.94044600  0.09249100  1
  O  O54  1  0.20934500  0.44044600  0.09249100  1
  O  O55  1  0.70934500  0.05955400  0.90750900  1
