# generated using pymatgen
data_CaTcO3
_symmetry_space_group_name_H-M   'P 1'
_cell_length_a   5.44156800
_cell_length_b   5.61986400
_cell_length_c   7.77715300
_cell_angle_alpha   90.00000000
_cell_angle_beta   90.00000000
_cell_angle_gamma   90.00000000
_symmetry_Int_Tables_number   1
_chemical_formula_structural   CaTcO3
_chemical_formula_sum   'Ca4 Tc4 O12'
_cell_volume   237.83212125
_cell_formula_units_Z   4
loop_
 _symmetry_equiv_pos_site_id
 _symmetry_equiv_pos_as_xyz
  1  'x, y, z'
loop_
 _atom_site_type_symbol
 _atom_site_label
 _atom_site_symmetry_multiplicity
 _atom_site_fract_x
 _atom_site_fract_y
 _atom_site_fract_z
 _atom_site_occupancy
  Ca  Ca0  1  0.01174800  0.44812400  0.25000000  1
  Ca  Ca1  1  0.48825200  0.94812400  0.25000000  1
  Ca  Ca2  1  0.98825200  0.55187600  0.75000000  1
  Ca  Ca3  1  0.51174800  0.05187600  0.75000000  1
  Tc  Tc4  1  0.50000000  0.50000000  0.00000000  1
  Tc  Tc5  1  0.00000000  0.00000000  0.50000000  1
  Tc  Tc6  1  0.50000000  0.50000000  0.50000000  1
  Tc  Tc7  1  0.00000000  0.00000000  0.00000000  1
  O  O8  1  0.90830900  0.03068000  0.25000000  1
  O  O9  1  0.59169100  0.53068000  0.25000000  1
  O  O10  1  0.09169100  0.96932000  0.75000000  1
  O  O11  1  0.40830900  0.46932000  0.75000000  1
  O  O12  1  0.19954400  0.70377800  0.04785900  1
  O  O13  1  0.30045600  0.20377800  0.45214100  1
  O  O14  1  0.80045600  0.29622200  0.54785900  1
  O  O15  1  0.69954400  0.79622200  0.95214100  1
  O  O16  1  0.80045600  0.29622200  0.95214100  1
  O  O17  1  0.69954400  0.79622200  0.54785900  1
  O  O18  1  0.19954400  0.70377800  0.45214100  1
  O  O19  1  0.30045600  0.20377800  0.04785900  1
