# generated using pymatgen
data_LiLa(CO3)2
_symmetry_space_group_name_H-M   'P 1'
_cell_length_a   6.47992274
_cell_length_b   6.47992274
_cell_length_c   7.07000210
_cell_angle_alpha   62.75104248
_cell_angle_beta   62.75104248
_cell_angle_gamma   75.21409544
_symmetry_Int_Tables_number   1
_chemical_formula_structural   LiLa(CO3)2
_chemical_formula_sum   'Li2 La2 C4 O12'
_cell_volume   234.24180568
_cell_formula_units_Z   2
loop_
 _symmetry_equiv_pos_site_id
 _symmetry_equiv_pos_as_xyz
  1  'x, y, z'
loop_
 _atom_site_type_symbol
 _atom_site_label
 _atom_site_symmetry_multiplicity
 _atom_site_fract_x
 _atom_site_fract_y
 _atom_site_fract_z
 _atom_site_occupancy
  Li  Li0  1  0.74971700  0.25028300  0.25000000  1
  Li  Li1  1  0.25028300  0.74971700  0.75000000  1
  La  La2  1  0.80356100  0.19643900  0.75000000  1
  La  La3  1  0.19643900  0.80356100  0.25000000  1
  C  C4  1  0.32399600  0.21037500  0.62862000  1
  C  C5  1  0.78962500  0.67600400  0.87138000  1
  C  C6  1  0.67600400  0.78962500  0.37138000  1
  C  C7  1  0.21037500  0.32399600  0.12862000  1
  O  O8  1  0.54500500  0.20894400  0.56198900  1
  O  O9  1  0.79105600  0.45499500  0.93801100  1
  O  O10  1  0.45499500  0.79105600  0.43801100  1
  O  O11  1  0.20894400  0.54500500  0.06198900  1
  O  O12  1  0.20313900  0.03585400  0.80431600  1
  O  O13  1  0.96414600  0.79686100  0.69568400  1
  O  O14  1  0.79686100  0.96414600  0.19568400  1
  O  O15  1  0.03585400  0.20313900  0.30431600  1
  O  O16  1  0.78927100  0.61775500  0.47957400  1
  O  O17  1  0.38224500  0.21072900  0.02042600  1
  O  O18  1  0.21072900  0.38224500  0.52042600  1
  O  O19  1  0.61775500  0.78927100  0.97957400  1
