# generated using pymatgen
data_Ca(ErS2)2
_symmetry_space_group_name_H-M   'P 1'
_cell_length_a   3.87222200
_cell_length_b   12.87970400
_cell_length_c   13.10979100
_cell_angle_alpha   90.00000000
_cell_angle_beta   90.00000000
_cell_angle_gamma   90.00000000
_symmetry_Int_Tables_number   1
_chemical_formula_structural   Ca(ErS2)2
_chemical_formula_sum   'Ca4 Er8 S16'
_cell_volume   653.82556595
_cell_formula_units_Z   4
loop_
 _symmetry_equiv_pos_site_id
 _symmetry_equiv_pos_as_xyz
  1  'x, y, z'
loop_
 _atom_site_type_symbol
 _atom_site_label
 _atom_site_symmetry_multiplicity
 _atom_site_fract_x
 _atom_site_fract_y
 _atom_site_fract_z
 _atom_site_occupancy
  Ca  Ca0  1  0.25000000  0.36928400  0.57803000  1
  Ca  Ca1  1  0.25000000  0.86928400  0.92197000  1
  Ca  Ca2  1  0.75000000  0.63071600  0.42197000  1
  Ca  Ca3  1  0.75000000  0.13071600  0.07803000  1
  Er  Er4  1  0.25000000  0.10682100  0.41569700  1
  Er  Er5  1  0.25000000  0.60682100  0.08430300  1
  Er  Er6  1  0.75000000  0.89317900  0.58430300  1
  Er  Er7  1  0.75000000  0.39317900  0.91569700  1
  Er  Er8  1  0.25000000  0.14730100  0.79632600  1
  Er  Er9  1  0.25000000  0.64730100  0.70367400  1
  Er  Er10  1  0.75000000  0.85269900  0.20367400  1
  Er  Er11  1  0.75000000  0.35269900  0.29632600  1
  S  S12  1  0.25000000  0.21707500  0.23765200  1
  S  S13  1  0.25000000  0.71707500  0.26234800  1
  S  S14  1  0.75000000  0.78292500  0.76234800  1
  S  S15  1  0.75000000  0.28292500  0.73765200  1
  S  S16  1  0.25000000  0.25816500  0.97304200  1
  S  S17  1  0.25000000  0.75816500  0.52695800  1
  S  S18  1  0.75000000  0.74183500  0.02695800  1
  S  S19  1  0.75000000  0.24183500  0.47304200  1
  S  S20  1  0.25000000  0.47004800  0.38160800  1
  S  S21  1  0.25000000  0.97004800  0.11839200  1
  S  S22  1  0.75000000  0.52995200  0.61839200  1
  S  S23  1  0.75000000  0.02995200  0.88160800  1
  S  S24  1  0.25000000  0.03393000  0.61747400  1
  S  S25  1  0.25000000  0.53393000  0.88252600  1
  S  S26  1  0.75000000  0.96607000  0.38252600  1
  S  S27  1  0.75000000  0.46607000  0.11747400  1
