# generated using pymatgen
data_Ba5Tm8Ni4O21
_symmetry_space_group_name_H-M   'P 1'
_cell_length_a   10.07026392
_cell_length_b   10.07026392
_cell_length_c   10.07026392
_cell_angle_alpha   94.56989379
_cell_angle_beta   94.56989379
_cell_angle_gamma   147.20878934
_symmetry_Int_Tables_number   1
_chemical_formula_structural   Ba5Tm8Ni4O21
_chemical_formula_sum   'Ba5 Tm8 Ni4 O21'
_cell_volume   530.58522827
_cell_formula_units_Z   1
loop_
 _symmetry_equiv_pos_site_id
 _symmetry_equiv_pos_as_xyz
  1  'x, y, z'
loop_
 _atom_site_type_symbol
 _atom_site_label
 _atom_site_symmetry_multiplicity
 _atom_site_fract_x
 _atom_site_fract_y
 _atom_site_fract_z
 _atom_site_occupancy
  Ba  Ba0  1  0.13840500  0.46140400  0.59980900  1
  Ba  Ba1  1  0.86159500  0.53859600  0.40019100  1
  Ba  Ba2  1  0.53859600  0.13840500  0.67700100  1
  Ba  Ba3  1  0.46140400  0.86159500  0.32299900  1
  Ba  Ba4  1  0.00000000  0.00000000  0.00000000  1
  Tm  Tm5  1  0.41104200  0.35754300  0.76858500  1
  Tm  Tm6  1  0.58895800  0.64245700  0.23141500  1
  Tm  Tm7  1  0.64245700  0.41104200  0.05349900  1
  Tm  Tm8  1  0.35754300  0.58895800  0.94650100  1
  Tm  Tm9  1  0.25016900  0.16700400  0.41717300  1
  Tm  Tm10  1  0.74983100  0.83299600  0.58282700  1
  Tm  Tm11  1  0.83299600  0.25016900  0.08316500  1
  Tm  Tm12  1  0.16700400  0.74983100  0.91683500  1
  Ni  Ni13  1  0.04066500  0.24300900  0.28367400  1
  Ni  Ni14  1  0.95933500  0.75699100  0.71632600  1
  Ni  Ni15  1  0.75699100  0.04066500  0.79765600  1
  Ni  Ni16  1  0.24300900  0.95933500  0.20234400  1
  O  O17  1  0.42914100  0.29946000  0.22621900  1
  O  O18  1  0.57085900  0.70054000  0.77378100  1
  O  O19  1  0.07324000  0.20292100  0.77378100  1
  O  O20  1  0.20292100  0.42914100  0.12968100  1
  O  O21  1  0.92676000  0.79707900  0.22621900  1
  O  O22  1  0.79707900  0.57085900  0.87031900  1
  O  O23  1  0.29946000  0.07324000  0.87031900  1
  O  O24  1  0.70054000  0.92676000  0.12968100  1
  O  O25  1  0.39562500  0.50448300  0.40474700  1
  O  O26  1  0.60437500  0.49551700  0.59525300  1
  O  O27  1  0.09973600  0.99087700  0.59525300  1
  O  O28  1  0.99087700  0.39562500  0.89114100  1
  O  O29  1  0.90026400  0.00912300  0.40474700  1
  O  O30  1  0.00912300  0.60437500  0.10885900  1
  O  O31  1  0.50448300  0.09973600  0.10885900  1
  O  O32  1  0.49551700  0.90026400  0.89114100  1
  O  O33  1  0.50000000  0.50000000  0.00000000  1
  O  O34  1  0.36687400  0.03986900  0.40674400  1
  O  O35  1  0.63312600  0.96013100  0.59325600  1
  O  O36  1  0.96013100  0.36687400  0.32700500  1
  O  O37  1  0.03986900  0.63312600  0.67299500  1
