# generated using pymatgen
data_Ca3Al7Ag2
_symmetry_space_group_name_H-M   'P 1'
_cell_length_a   9.53436958
_cell_length_b   9.53436958
_cell_length_c   9.53436910
_cell_angle_alpha   34.38914765
_cell_angle_beta   34.38914765
_cell_angle_gamma   34.38914443
_symmetry_Int_Tables_number   1
_chemical_formula_structural   Ca3Al7Ag2
_chemical_formula_sum   'Ca3 Al7 Ag2'
_cell_volume   246.61840168
_cell_formula_units_Z   1
loop_
 _symmetry_equiv_pos_site_id
 _symmetry_equiv_pos_as_xyz
  1  'x, y, z'
loop_
 _atom_site_type_symbol
 _atom_site_label
 _atom_site_symmetry_multiplicity
 _atom_site_fract_x
 _atom_site_fract_y
 _atom_site_fract_z
 _atom_site_occupancy
  Ca  Ca0  1  0.00000000  0.00000000  0.00000000  1
  Ca  Ca1  1  0.14329000  0.14329000  0.14329000  1
  Ca  Ca2  1  0.85671000  0.85671000  0.85671000  1
  Al  Al3  1  0.41439400  0.41439400  0.92369300  1
  Al  Al4  1  0.92369300  0.41439400  0.41439400  1
  Al  Al5  1  0.50000000  0.50000000  0.50000000  1
  Al  Al6  1  0.58560600  0.58560600  0.07630700  1
  Al  Al7  1  0.41439400  0.92369300  0.41439400  1
  Al  Al8  1  0.07630700  0.58560600  0.58560600  1
  Al  Al9  1  0.58560600  0.07630700  0.58560600  1
  Ag  Ag10  1  0.66432900  0.66432900  0.66432900  1
  Ag  Ag11  1  0.33567100  0.33567100  0.33567100  1
