# generated using pymatgen
data_La4CdPd
_symmetry_space_group_name_H-M   'P 1'
_cell_length_a   10.22474709
_cell_length_b   10.22474709
_cell_length_c   10.22474709
_cell_angle_alpha   60.00000000
_cell_angle_beta   60.00000000
_cell_angle_gamma   60.00000000
_symmetry_Int_Tables_number   1
_chemical_formula_structural   La4CdPd
_chemical_formula_sum   'La16 Cd4 Pd4'
_cell_volume   755.86237036
_cell_formula_units_Z   4
loop_
 _symmetry_equiv_pos_site_id
 _symmetry_equiv_pos_as_xyz
  1  'x, y, z'
loop_
 _atom_site_type_symbol
 _atom_site_label
 _atom_site_symmetry_multiplicity
 _atom_site_fract_x
 _atom_site_fract_y
 _atom_site_fract_z
 _atom_site_occupancy
  La  La0  1  0.34968400  0.34968400  0.34968400  1
  La  La1  1  0.34968400  0.34968400  0.95094700  1
  La  La2  1  0.34968400  0.95094700  0.34968400  1
  La  La3  1  0.95094700  0.34968400  0.34968400  1
  La  La4  1  0.80799300  0.19200700  0.19200700  1
  La  La5  1  0.19200700  0.80799300  0.80799300  1
  La  La6  1  0.19200700  0.80799300  0.19200700  1
  La  La7  1  0.80799300  0.19200700  0.80799300  1
  La  La8  1  0.19200700  0.19200700  0.80799300  1
  La  La9  1  0.80799300  0.80799300  0.19200700  1
  La  La10  1  0.93568900  0.56431100  0.56431100  1
  La  La11  1  0.56431100  0.93568900  0.93568900  1
  La  La12  1  0.56431100  0.93568900  0.56431100  1
  La  La13  1  0.93568900  0.56431100  0.93568900  1
  La  La14  1  0.56431100  0.56431100  0.93568900  1
  La  La15  1  0.93568900  0.93568900  0.56431100  1
  Cd  Cd16  1  0.58042800  0.58042800  0.58042800  1
  Cd  Cd17  1  0.58042800  0.58042800  0.25871700  1
  Cd  Cd18  1  0.58042800  0.25871700  0.58042800  1
  Cd  Cd19  1  0.25871700  0.58042800  0.58042800  1
  Pd  Pd20  1  0.14240800  0.14240800  0.14240800  1
  Pd  Pd21  1  0.14240800  0.14240800  0.57277700  1
  Pd  Pd22  1  0.14240800  0.57277700  0.14240800  1
  Pd  Pd23  1  0.57277700  0.14240800  0.14240800  1
