# generated using pymatgen
data_Y2GaCo2
_symmetry_space_group_name_H-M   'P 1'
_cell_length_a   4.05303700
_cell_length_b   5.45152400
_cell_length_c   5.39362584
_cell_angle_alpha   120.35573605
_cell_angle_beta   112.06911712
_cell_angle_gamma   90.00000000
_symmetry_Int_Tables_number   1
_chemical_formula_structural   Y2GaCo2
_chemical_formula_sum   'Y2 Ga1 Co2'
_cell_volume   92.57516275
_cell_formula_units_Z   1
loop_
 _symmetry_equiv_pos_site_id
 _symmetry_equiv_pos_as_xyz
  1  'x, y, z'
loop_
 _atom_site_type_symbol
 _atom_site_label
 _atom_site_symmetry_multiplicity
 _atom_site_fract_x
 _atom_site_fract_y
 _atom_site_fract_z
 _atom_site_occupancy
  Y  Y0  1  0.79341100  0.29341100  0.58682300  1
  Y  Y1  1  0.20658900  0.70658900  0.41317700  1
  Ga  Ga2  1  0.00000000  0.00000000  0.00000000  1
  Co  Co3  1  0.50000000  0.28608800  0.00000000  1
  Co  Co4  1  0.50000000  0.71391200  0.00000000  1
