# generated using pymatgen
data_MnCu2GeTe4
_symmetry_space_group_name_H-M   'P 1'
_cell_length_a   7.40334636
_cell_length_b   7.40334636
_cell_length_c   7.40334636
_cell_angle_alpha   131.23516615
_cell_angle_beta   131.23516615
_cell_angle_gamma   71.43971475
_symmetry_Int_Tables_number   1
_chemical_formula_structural   MnCu2GeTe4
_chemical_formula_sum   'Mn1 Cu2 Ge1 Te4'
_cell_volume   224.57869203
_cell_formula_units_Z   1
loop_
 _symmetry_equiv_pos_site_id
 _symmetry_equiv_pos_as_xyz
  1  'x, y, z'
loop_
 _atom_site_type_symbol
 _atom_site_label
 _atom_site_symmetry_multiplicity
 _atom_site_fract_x
 _atom_site_fract_y
 _atom_site_fract_z
 _atom_site_occupancy
  Mn  Mn0  1  0.00000000  0.00000000  0.00000000  1
  Cu  Cu1  1  0.25000000  0.75000000  0.50000000  1
  Cu  Cu2  1  0.75000000  0.25000000  0.50000000  1
  Ge  Ge3  1  0.50000000  0.50000000  0.00000000  1
  Te  Te4  1  0.38460000  0.88143500  0.00000000  1
  Te  Te5  1  0.88143500  0.38460000  0.00000000  1
  Te  Te6  1  0.11856500  0.11856500  0.50316500  1
  Te  Te7  1  0.61540000  0.61540000  0.49683500  1
