# generated using pymatgen
data_RbYTe2
_symmetry_space_group_name_H-M   'P 1'
_cell_length_a   4.52449919
_cell_length_b   4.52449919
_cell_length_c   17.16733200
_cell_angle_alpha   90.00000000
_cell_angle_beta   90.00000000
_cell_angle_gamma   119.99998810
_symmetry_Int_Tables_number   1
_chemical_formula_structural   RbYTe2
_chemical_formula_sum   'Rb2 Y2 Te4'
_cell_volume   304.35084982
_cell_formula_units_Z   2
loop_
 _symmetry_equiv_pos_site_id
 _symmetry_equiv_pos_as_xyz
  1  'x, y, z'
loop_
 _atom_site_type_symbol
 _atom_site_label
 _atom_site_symmetry_multiplicity
 _atom_site_fract_x
 _atom_site_fract_y
 _atom_site_fract_z
 _atom_site_occupancy
  Rb  Rb0  1  0.33333300  0.66666700  0.25000000  1
  Rb  Rb1  1  0.66666700  0.33333300  0.75000000  1
  Y  Y2  1  0.00000000  0.00000000  0.00000000  1
  Y  Y3  1  0.00000000  0.00000000  0.50000000  1
  Te  Te4  1  0.33333300  0.66666700  0.59973800  1
  Te  Te5  1  0.66666700  0.33333300  0.09973800  1
  Te  Te6  1  0.66666700  0.33333300  0.40026200  1
  Te  Te7  1  0.33333300  0.66666700  0.90026200  1
