# generated using pymatgen
data_ScSiIr
_symmetry_space_group_name_H-M   'P 1'
_cell_length_a   4.07370100
_cell_length_b   6.46116600
_cell_length_c   7.36267900
_cell_angle_alpha   90.00000000
_cell_angle_beta   90.00000000
_cell_angle_gamma   90.00000000
_symmetry_Int_Tables_number   1
_chemical_formula_structural   ScSiIr
_chemical_formula_sum   'Sc4 Si4 Ir4'
_cell_volume   193.79203137
_cell_formula_units_Z   4
loop_
 _symmetry_equiv_pos_site_id
 _symmetry_equiv_pos_as_xyz
  1  'x, y, z'
loop_
 _atom_site_type_symbol
 _atom_site_label
 _atom_site_symmetry_multiplicity
 _atom_site_fract_x
 _atom_site_fract_y
 _atom_site_fract_z
 _atom_site_occupancy
  Sc  Sc0  1  0.25000000  0.01270700  0.31486900  1
  Sc  Sc1  1  0.25000000  0.51270700  0.18513100  1
  Sc  Sc2  1  0.75000000  0.98729300  0.68513100  1
  Sc  Sc3  1  0.75000000  0.48729300  0.81486900  1
  Si  Si4  1  0.25000000  0.28803900  0.62216500  1
  Si  Si5  1  0.25000000  0.78803900  0.87783500  1
  Si  Si6  1  0.75000000  0.71196100  0.37783500  1
  Si  Si7  1  0.75000000  0.21196100  0.12216500  1
  Ir  Ir8  1  0.25000000  0.16130500  0.94094900  1
  Ir  Ir9  1  0.25000000  0.66130500  0.55905100  1
  Ir  Ir10  1  0.75000000  0.83869500  0.05905100  1
  Ir  Ir11  1  0.75000000  0.33869500  0.44094900  1
