# generated using pymatgen
data_Li13(Si5Pd7)2
_symmetry_space_group_name_H-M   'P 1'
_cell_length_a   4.40407800
_cell_length_b   12.81827300
_cell_length_c   18.73296300
_cell_angle_alpha   90.00000000
_cell_angle_beta   90.00000000
_cell_angle_gamma   90.00000000
_symmetry_Int_Tables_number   1
_chemical_formula_structural   Li13(Si5Pd7)2
_chemical_formula_sum   'Li26 Si20 Pd28'
_cell_volume   1057.52585549
_cell_formula_units_Z   2
loop_
 _symmetry_equiv_pos_site_id
 _symmetry_equiv_pos_as_xyz
  1  'x, y, z'
loop_
 _atom_site_type_symbol
 _atom_site_label
 _atom_site_symmetry_multiplicity
 _atom_site_fract_x
 _atom_site_fract_y
 _atom_site_fract_z
 _atom_site_occupancy
  Li  Li0  1  0.00000000  0.02149300  0.27311800  1
  Li  Li1  1  0.00000000  0.97850700  0.72688200  1
  Li  Li2  1  0.50000000  0.47850700  0.77311800  1
  Li  Li3  1  0.50000000  0.52149300  0.22688200  1
  Li  Li4  1  0.00000000  0.21752100  0.22401600  1
  Li  Li5  1  0.00000000  0.78247900  0.77598400  1
  Li  Li6  1  0.50000000  0.28247900  0.72401600  1
  Li  Li7  1  0.50000000  0.71752100  0.27598400  1
  Li  Li8  1  0.00000000  0.99299300  0.13634200  1
  Li  Li9  1  0.00000000  0.00700700  0.86365800  1
  Li  Li10  1  0.50000000  0.50700700  0.63634200  1
  Li  Li11  1  0.50000000  0.49299300  0.36365800  1
  Li  Li12  1  0.00000000  0.20479600  0.64658400  1
  Li  Li13  1  0.00000000  0.79520400  0.35341600  1
  Li  Li14  1  0.50000000  0.29520400  0.14658400  1
  Li  Li15  1  0.50000000  0.70479600  0.85341600  1
  Li  Li16  1  0.00000000  0.01096400  0.58521700  1
  Li  Li17  1  0.00000000  0.98903600  0.41478300  1
  Li  Li18  1  0.50000000  0.48903600  0.08521700  1
  Li  Li19  1  0.50000000  0.51096400  0.91478300  1
  Li  Li20  1  0.00000000  0.00000000  0.00000000  1
  Li  Li21  1  0.50000000  0.50000000  0.50000000  1
  Li  Li22  1  0.00000000  0.78614700  0.06166700  1
  Li  Li23  1  0.00000000  0.21385300  0.93833300  1
  Li  Li24  1  0.50000000  0.71385300  0.56166700  1
  Li  Li25  1  0.50000000  0.28614700  0.43833300  1
  Si  Si26  1  0.00000000  0.19539000  0.50503300  1
  Si  Si27  1  0.00000000  0.80461000  0.49496700  1
  Si  Si28  1  0.50000000  0.30461000  0.00503300  1
  Si  Si29  1  0.50000000  0.69539000  0.99496700  1
  Si  Si30  1  0.00000000  0.38453600  0.31050100  1
  Si  Si31  1  0.00000000  0.61546400  0.68949900  1
  Si  Si32  1  0.50000000  0.11546400  0.81050100  1
  Si  Si33  1  0.50000000  0.88453600  0.18949900  1
  Si  Si34  1  0.00000000  0.38282400  0.56578400  1
  Si  Si35  1  0.00000000  0.61717600  0.43421600  1
  Si  Si36  1  0.50000000  0.11717600  0.06578400  1
  Si  Si37  1  0.50000000  0.88282400  0.93421600  1
  Si  Si38  1  0.00000000  0.37302900  0.06363800  1
  Si  Si39  1  0.00000000  0.62697100  0.93636200  1
  Si  Si40  1  0.50000000  0.12697100  0.56363800  1
  Si  Si41  1  0.50000000  0.87302900  0.43636200  1
  Si  Si42  1  0.00000000  0.63230100  0.18086600  1
  Si  Si43  1  0.00000000  0.36769900  0.81913400  1
  Si  Si44  1  0.50000000  0.86769900  0.68086600  1
  Si  Si45  1  0.50000000  0.13230100  0.31913400  1
  Pd  Pd46  1  0.00000000  0.20930500  0.37300400  1
  Pd  Pd47  1  0.00000000  0.79069500  0.62699600  1
  Pd  Pd48  1  0.50000000  0.29069500  0.87300400  1
  Pd  Pd49  1  0.50000000  0.70930500  0.12699600  1
  Pd  Pd50  1  0.00000000  0.42681100  0.43832100  1
  Pd  Pd51  1  0.00000000  0.57318900  0.56167900  1
  Pd  Pd52  1  0.50000000  0.07318900  0.93832100  1
  Pd  Pd53  1  0.50000000  0.92681100  0.06167900  1
  Pd  Pd54  1  0.00000000  0.57815000  0.30668400  1
  Pd  Pd55  1  0.00000000  0.42185000  0.69331600  1
  Pd  Pd56  1  0.50000000  0.92185000  0.80668400  1
  Pd  Pd57  1  0.50000000  0.07815000  0.19331600  1
  Pd  Pd58  1  0.00000000  0.43668200  0.18508000  1
  Pd  Pd59  1  0.00000000  0.56331800  0.81492000  1
  Pd  Pd60  1  0.50000000  0.06331800  0.68508000  1
  Pd  Pd61  1  0.50000000  0.93668200  0.31492000  1
  Pd  Pd62  1  0.00000000  0.18656500  0.08595500  1
  Pd  Pd63  1  0.00000000  0.81343500  0.91404500  1
  Pd  Pd64  1  0.50000000  0.31343500  0.58595500  1
  Pd  Pd65  1  0.50000000  0.68656500  0.41404500  1
  Pd  Pd66  1  0.00000000  0.57103100  0.06015100  1
  Pd  Pd67  1  0.00000000  0.42896900  0.93984900  1
  Pd  Pd68  1  0.50000000  0.92896900  0.56015100  1
  Pd  Pd69  1  0.50000000  0.07103100  0.43984900  1
  Pd  Pd70  1  0.00000000  0.18763300  0.78848200  1
  Pd  Pd71  1  0.00000000  0.81236700  0.21151800  1
  Pd  Pd72  1  0.50000000  0.31236700  0.28848200  1
  Pd  Pd73  1  0.50000000  0.68763300  0.71151800  1
