# generated using pymatgen
data_Pr2(Al3Rh)3
_symmetry_space_group_name_H-M   'P 1'
_cell_length_a   7.64797033
_cell_length_b   7.64797033
_cell_length_c   9.66238900
_cell_angle_alpha   90.00000000
_cell_angle_beta   90.00000000
_cell_angle_gamma   119.27246469
_symmetry_Int_Tables_number   1
_chemical_formula_structural   Pr2(Al3Rh)3
_chemical_formula_sum   'Pr4 Al18 Rh6'
_cell_volume   492.99776429
_cell_formula_units_Z   2
loop_
 _symmetry_equiv_pos_site_id
 _symmetry_equiv_pos_as_xyz
  1  'x, y, z'
loop_
 _atom_site_type_symbol
 _atom_site_label
 _atom_site_symmetry_multiplicity
 _atom_site_fract_x
 _atom_site_fract_y
 _atom_site_fract_z
 _atom_site_occupancy
  Pr  Pr0  1  0.99499800  0.67004000  0.75000000  1
  Pr  Pr1  1  0.00500200  0.32996000  0.25000000  1
  Pr  Pr2  1  0.67004000  0.99499800  0.75000000  1
  Pr  Pr3  1  0.32996000  0.00500200  0.25000000  1
  Al  Al4  1  0.13048000  0.13048000  0.75000000  1
  Al  Al5  1  0.86952000  0.86952000  0.25000000  1
  Al  Al6  1  0.00421700  0.33523800  0.57214600  1
  Al  Al7  1  0.99578300  0.66476200  0.42785400  1
  Al  Al8  1  0.99578300  0.66476200  0.07214600  1
  Al  Al9  1  0.33523800  0.00421700  0.92785400  1
  Al  Al10  1  0.00421700  0.33523800  0.92785400  1
  Al  Al11  1  0.66476200  0.99578300  0.07214600  1
  Al  Al12  1  0.66476200  0.99578300  0.42785400  1
  Al  Al13  1  0.33523800  0.00421700  0.57214600  1
  Al  Al14  1  0.33486100  0.33486100  0.04652400  1
  Al  Al15  1  0.66513900  0.66513900  0.95347600  1
  Al  Al16  1  0.66513900  0.66513900  0.54652400  1
  Al  Al17  1  0.33486100  0.33486100  0.45347600  1
  Al  Al18  1  0.33860100  0.54553500  0.75000000  1
  Al  Al19  1  0.66139900  0.45446500  0.25000000  1
  Al  Al20  1  0.54553500  0.33860100  0.75000000  1
  Al  Al21  1  0.45446500  0.66139900  0.25000000  1
  Rh  Rh22  1  0.67094900  0.32905100  0.50000000  1
  Rh  Rh23  1  0.32905100  0.67094900  0.50000000  1
  Rh  Rh24  1  0.32905100  0.67094900  0.00000000  1
  Rh  Rh25  1  0.67094900  0.32905100  0.00000000  1
  Rh  Rh26  1  0.00000000  0.00000000  0.50000000  1
  Rh  Rh27  1  0.00000000  0.00000000  0.00000000  1
