# generated using pymatgen
data_La2ZrSe5
_symmetry_space_group_name_H-M   'P 1'
_cell_length_a   7.85218500
_cell_length_b   8.49629500
_cell_length_c   12.32040400
_cell_angle_alpha   90.00000000
_cell_angle_beta   90.00000000
_cell_angle_gamma   90.00000000
_symmetry_Int_Tables_number   1
_chemical_formula_structural   La2ZrSe5
_chemical_formula_sum   'La8 Zr4 Se20'
_cell_volume   821.94934815
_cell_formula_units_Z   4
loop_
 _symmetry_equiv_pos_site_id
 _symmetry_equiv_pos_as_xyz
  1  'x, y, z'
loop_
 _atom_site_type_symbol
 _atom_site_label
 _atom_site_symmetry_multiplicity
 _atom_site_fract_x
 _atom_site_fract_y
 _atom_site_fract_z
 _atom_site_occupancy
  La  La0  1  0.96947800  0.00191200  0.17727200  1
  La  La1  1  0.53052200  0.49808800  0.67727200  1
  La  La2  1  0.03052200  0.50191200  0.82272800  1
  La  La3  1  0.46947800  0.99808800  0.32272800  1
  La  La4  1  0.03052200  0.99808800  0.82272800  1
  La  La5  1  0.46947800  0.50191200  0.32272800  1
  La  La6  1  0.96947800  0.49808800  0.17727200  1
  La  La7  1  0.53052200  0.00191200  0.67727200  1
  Zr  Zr8  1  0.42151400  0.75000000  0.00813200  1
  Zr  Zr9  1  0.07848600  0.75000000  0.50813200  1
  Zr  Zr10  1  0.57848600  0.25000000  0.99186800  1
  Zr  Zr11  1  0.92151400  0.25000000  0.49186800  1
  Se  Se12  1  0.83583600  0.96273800  0.41498000  1
  Se  Se13  1  0.66416400  0.53726200  0.91498000  1
  Se  Se14  1  0.16416400  0.46273800  0.58502000  1
  Se  Se15  1  0.33583600  0.03726200  0.08502000  1
  Se  Se16  1  0.16416400  0.03726200  0.58502000  1
  Se  Se17  1  0.33583600  0.46273800  0.08502000  1
  Se  Se18  1  0.83583600  0.53726200  0.41498000  1
  Se  Se19  1  0.66416400  0.96273800  0.91498000  1
  Se  Se20  1  0.65842100  0.75000000  0.18171300  1
  Se  Se21  1  0.84157900  0.75000000  0.68171300  1
  Se  Se22  1  0.34157900  0.25000000  0.81828700  1
  Se  Se23  1  0.15842100  0.25000000  0.31828700  1
  Se  Se24  1  0.44412400  0.75000000  0.50587400  1
  Se  Se25  1  0.05587600  0.75000000  0.00587400  1
  Se  Se26  1  0.55587600  0.25000000  0.49412600  1
  Se  Se27  1  0.94412400  0.25000000  0.99412600  1
  Se  Se28  1  0.18115900  0.75000000  0.29367700  1
  Se  Se29  1  0.31884100  0.75000000  0.79367700  1
  Se  Se30  1  0.81884100  0.25000000  0.70632300  1
  Se  Se31  1  0.68115900  0.25000000  0.20632300  1
