# generated using pymatgen
data_Na3CoC2ClO6
_symmetry_space_group_name_H-M   'P 1'
_cell_length_a   9.99472808
_cell_length_b   9.99472808
_cell_length_c   9.99472808
_cell_angle_alpha   60.00000000
_cell_angle_beta   60.00000000
_cell_angle_gamma   60.00000000
_symmetry_Int_Tables_number   1
_chemical_formula_structural   Na3CoC2ClO6
_chemical_formula_sum   'Na12 Co4 C8 Cl4 O24'
_cell_volume   705.98902711
_cell_formula_units_Z   4
loop_
 _symmetry_equiv_pos_site_id
 _symmetry_equiv_pos_as_xyz
  1  'x, y, z'
loop_
 _atom_site_type_symbol
 _atom_site_label
 _atom_site_symmetry_multiplicity
 _atom_site_fract_x
 _atom_site_fract_y
 _atom_site_fract_z
 _atom_site_occupancy
  Na  Na0  1  0.72255100  0.72255100  0.27744900  1
  Na  Na1  1  0.27744900  0.27744900  0.72255100  1
  Na  Na2  1  0.27744900  0.72255100  0.72255100  1
  Na  Na3  1  0.72255100  0.27744900  0.27744900  1
  Na  Na4  1  0.72255100  0.27744900  0.72255100  1
  Na  Na5  1  0.27744900  0.72255100  0.27744900  1
  Na  Na6  1  0.52744900  0.52744900  0.97255100  1
  Na  Na7  1  0.97255100  0.97255100  0.52744900  1
  Na  Na8  1  0.97255100  0.52744900  0.52744900  1
  Na  Na9  1  0.52744900  0.97255100  0.97255100  1
  Na  Na10  1  0.52744900  0.97255100  0.52744900  1
  Na  Na11  1  0.97255100  0.52744900  0.97255100  1
  Co  Co12  1  0.62500000  0.12500000  0.12500000  1
  Co  Co13  1  0.12500000  0.12500000  0.62500000  1
  Co  Co14  1  0.12500000  0.62500000  0.12500000  1
  Co  Co15  1  0.12500000  0.12500000  0.12500000  1
  C  C16  1  0.90750700  0.27747900  0.90750700  1
  C  C17  1  0.90750700  0.90750700  0.90750700  1
  C  C18  1  0.27747900  0.90750700  0.90750700  1
  C  C19  1  0.90750700  0.90750700  0.27747900  1
  C  C20  1  0.34249300  0.97252100  0.34249300  1
  C  C21  1  0.34249300  0.34249300  0.34249300  1
  C  C22  1  0.97252100  0.34249300  0.34249300  1
  C  C23  1  0.34249300  0.34249300  0.97252100  1
  Cl  Cl24  1  0.62500000  0.62500000  0.62500000  1
  Cl  Cl25  1  0.62500000  0.12500000  0.62500000  1
  Cl  Cl26  1  0.62500000  0.62500000  0.12500000  1
  Cl  Cl27  1  0.12500000  0.62500000  0.62500000  1
  O  O28  1  0.76427600  0.28023100  0.93672400  1
  O  O29  1  0.93672400  0.01876900  0.76427600  1
  O  O30  1  0.28023100  0.76427600  0.01876900  1
  O  O31  1  0.01876900  0.93672400  0.28023100  1
  O  O32  1  0.93672400  0.76427600  0.28023100  1
  O  O33  1  0.76427600  0.93672400  0.01876900  1
  O  O34  1  0.01876900  0.28023100  0.76427600  1
  O  O35  1  0.28023100  0.01876900  0.93672400  1
  O  O36  1  0.28023100  0.93672400  0.76427600  1
  O  O37  1  0.01876900  0.76427600  0.93672400  1
  O  O38  1  0.76427600  0.01876900  0.28023100  1
  O  O39  1  0.93672400  0.28023100  0.01876900  1
  O  O40  1  0.48572400  0.96976900  0.31327600  1
  O  O41  1  0.31327600  0.23123100  0.48572400  1
  O  O42  1  0.96976900  0.48572400  0.23123100  1
  O  O43  1  0.23123100  0.31327600  0.96976900  1
  O  O44  1  0.31327600  0.48572400  0.96976900  1
  O  O45  1  0.48572400  0.31327600  0.23123100  1
  O  O46  1  0.23123100  0.96976900  0.48572400  1
  O  O47  1  0.96976900  0.23123100  0.31327600  1
  O  O48  1  0.96976900  0.31327600  0.48572400  1
  O  O49  1  0.23123100  0.48572400  0.31327600  1
  O  O50  1  0.48572400  0.23123100  0.96976900  1
  O  O51  1  0.31327600  0.96976900  0.23123100  1
