# generated using pymatgen
data_Tb3BBr3
_symmetry_space_group_name_H-M   'P 1'
_cell_length_a   9.81471267
_cell_length_b   9.81471267
_cell_length_c   9.81471267
_cell_angle_alpha   109.47122063
_cell_angle_beta   109.47122063
_cell_angle_gamma   109.47122063
_symmetry_Int_Tables_number   1
_chemical_formula_structural   Tb3BBr3
_chemical_formula_sum   'Tb12 B4 Br12'
_cell_volume   727.79803496
_cell_formula_units_Z   4
loop_
 _symmetry_equiv_pos_site_id
 _symmetry_equiv_pos_as_xyz
  1  'x, y, z'
loop_
 _atom_site_type_symbol
 _atom_site_label
 _atom_site_symmetry_multiplicity
 _atom_site_fract_x
 _atom_site_fract_y
 _atom_site_fract_z
 _atom_site_occupancy
  Tb  Tb0  1  0.46082600  0.48041300  0.23041300  1
  Tb  Tb1  1  0.75000000  0.23041300  0.26958700  1
  Tb  Tb2  1  0.75000000  0.01958700  0.48041300  1
  Tb  Tb3  1  0.23041300  0.46082600  0.48041300  1
  Tb  Tb4  1  0.26958700  0.75000000  0.23041300  1
  Tb  Tb5  1  0.03917400  0.26958700  0.01958700  1
  Tb  Tb6  1  0.01958700  0.03917400  0.26958700  1
  Tb  Tb7  1  0.48041300  0.75000000  0.01958700  1
  Tb  Tb8  1  0.48041300  0.23041300  0.46082600  1
  Tb  Tb9  1  0.01958700  0.48041300  0.75000000  1
  Tb  Tb10  1  0.26958700  0.01958700  0.03917400  1
  Tb  Tb11  1  0.23041300  0.26958700  0.75000000  1
  B  B12  1  0.25000000  0.25000000  0.25000000  1
  B  B13  1  0.50000000  0.00000000  0.25000000  1
  B  B14  1  0.00000000  0.25000000  0.50000000  1
  B  B15  1  0.25000000  0.50000000  0.00000000  1
  Br  Br16  1  0.25000000  0.75791200  0.74208800  1
  Br  Br17  1  0.51582500  0.50791200  0.75791200  1
  Br  Br18  1  0.98417500  0.74208800  0.99208800  1
  Br  Br19  1  0.74208800  0.25000000  0.75791200  1
  Br  Br20  1  0.99208800  0.98417500  0.74208800  1
  Br  Br21  1  0.25000000  0.99208800  0.50791200  1
  Br  Br22  1  0.75791200  0.51582500  0.50791200  1
  Br  Br23  1  0.50791200  0.25000000  0.99208800  1
  Br  Br24  1  0.75791200  0.74208800  0.25000000  1
  Br  Br25  1  0.74208800  0.99208800  0.98417500  1
  Br  Br26  1  0.99208800  0.50791200  0.25000000  1
  Br  Br27  1  0.50791200  0.75791200  0.51582500  1
