# generated using pymatgen
data_K6U5As2O23
_symmetry_space_group_name_H-M   'P 1'
_cell_length_a   24.88358300
_cell_length_b   7.10661600
_cell_length_c   7.20729430
_cell_angle_alpha   81.45181670
_cell_angle_beta   90.00000000
_cell_angle_gamma   90.00000000
_symmetry_Int_Tables_number   1
_chemical_formula_structural   K6U5As2O23
_chemical_formula_sum   'K12 U10 As4 O46'
_cell_volume   1260.36559113
_cell_formula_units_Z   2
loop_
 _symmetry_equiv_pos_site_id
 _symmetry_equiv_pos_as_xyz
  1  'x, y, z'
loop_
 _atom_site_type_symbol
 _atom_site_label
 _atom_site_symmetry_multiplicity
 _atom_site_fract_x
 _atom_site_fract_y
 _atom_site_fract_z
 _atom_site_occupancy
  K  K0  1  0.38498600  0.36761300  0.76832900  1
  K  K1  1  0.88498600  0.63238700  0.73167100  1
  K  K2  1  0.61501400  0.63238700  0.23167100  1
  K  K3  1  0.11501400  0.36761300  0.26832900  1
  K  K4  1  0.54048300  0.54589500  0.73447100  1
  K  K5  1  0.04048300  0.45410500  0.76552900  1
  K  K6  1  0.45951700  0.45410500  0.26552900  1
  K  K7  1  0.95951700  0.54589500  0.23447100  1
  K  K8  1  0.28611600  0.24356200  0.30402200  1
  K  K9  1  0.78611600  0.75643800  0.19597800  1
  K  K10  1  0.71388400  0.75643800  0.69597800  1
  K  K11  1  0.21388400  0.24356200  0.80402200  1
  U  U12  1  0.41897000  0.90599300  0.51578300  1
  U  U13  1  0.91897000  0.09400700  0.98421700  1
  U  U14  1  0.58103000  0.09400700  0.48421700  1
  U  U15  1  0.08103000  0.90599300  0.01578300  1
  U  U16  1  0.35652400  0.84710000  0.02950800  1
  U  U17  1  0.85652400  0.15290000  0.47049200  1
  U  U18  1  0.64347600  0.15290000  0.97049200  1
  U  U19  1  0.14347600  0.84710000  0.52950800  1
  U  U20  1  0.50000000  0.00000000  0.00000000  1
  U  U21  1  0.00000000  0.00000000  0.50000000  1
  As  As22  1  0.29538700  0.71408500  0.54663700  1
  As  As23  1  0.79538700  0.28591500  0.95336300  1
  As  As24  1  0.70461300  0.28591500  0.45336300  1
  As  As25  1  0.20461300  0.71408500  0.04663700  1
  O  O26  1  0.28897800  0.47548100  0.58044500  1
  O  O27  1  0.78897800  0.52451900  0.91955500  1
  O  O28  1  0.71102200  0.52451900  0.41955500  1
  O  O29  1  0.21102200  0.47548100  0.08044500  1
  O  O30  1  0.23671100  0.83903600  0.52876200  1
  O  O31  1  0.73671100  0.16096400  0.97123800  1
  O  O32  1  0.76328900  0.16096400  0.47123800  1
  O  O33  1  0.26328900  0.83903600  0.02876200  1
  O  O34  1  0.33588700  0.80577200  0.35583900  1
  O  O35  1  0.83588700  0.19422800  0.14416100  1
  O  O36  1  0.66411300  0.19422800  0.64416100  1
  O  O37  1  0.16411300  0.80577200  0.85583900  1
  O  O38  1  0.33732300  0.79808800  0.71065500  1
  O  O39  1  0.83732300  0.20191200  0.78934500  1
  O  O40  1  0.66267700  0.20191200  0.28934500  1
  O  O41  1  0.16267700  0.79808800  0.21065500  1
  O  O42  1  0.39350800  0.15682700  0.46593700  1
  O  O43  1  0.89350800  0.84317300  0.03406300  1
  O  O44  1  0.60649200  0.84317300  0.53406300  1
  O  O45  1  0.10649200  0.15682700  0.96593700  1
  O  O46  1  0.44106400  0.65015100  0.56298000  1
  O  O47  1  0.94106400  0.34984900  0.93702000  1
  O  O48  1  0.55893600  0.34984900  0.43702000  1
  O  O49  1  0.05893600  0.65015100  0.06298000  1
  O  O50  1  0.50000000  0.00000000  0.50000000  1
  O  O51  1  0.00000000  0.00000000  0.00000000  1
  O  O52  1  0.42812500  0.93590400  0.82840400  1
  O  O53  1  0.92812500  0.06409600  0.67159600  1
  O  O54  1  0.57187500  0.06409600  0.17159600  1
  O  O55  1  0.07187500  0.93590400  0.32840400  1
  O  O56  1  0.56877600  0.09966800  0.80114200  1
  O  O57  1  0.06877600  0.90033200  0.69885800  1
  O  O58  1  0.43122400  0.90033200  0.19885800  1
  O  O59  1  0.93122400  0.09966800  0.30114200  1
  O  O60  1  0.33970000  0.10341600  0.00799100  1
  O  O61  1  0.83970000  0.89658400  0.49200900  1
  O  O62  1  0.66030000  0.89658400  0.99200900  1
  O  O63  1  0.16030000  0.10341600  0.50799100  1
  O  O64  1  0.36937100  0.58673200  0.06217500  1
  O  O65  1  0.86937100  0.41326800  0.43782500  1
  O  O66  1  0.63062900  0.41326800  0.93782500  1
  O  O67  1  0.13062900  0.58673200  0.56217500  1
  O  O68  1  0.52155600  0.74468600  0.02340800  1
  O  O69  1  0.02155600  0.25531400  0.47659200  1
  O  O70  1  0.47844400  0.25531400  0.97659200  1
  O  O71  1  0.97844400  0.74468600  0.52340800  1
