# generated using pymatgen
data_Cs2UNb6(Cl5O)3
_symmetry_space_group_name_H-M   'P 1'
_cell_length_a   9.28258438
_cell_length_b   9.28258438
_cell_length_c   17.69660600
_cell_angle_alpha   90.00000000
_cell_angle_beta   90.00000000
_cell_angle_gamma   120.00000274
_symmetry_Int_Tables_number   1
_chemical_formula_structural   Cs2UNb6(Cl5O)3
_chemical_formula_sum   'Cs4 U2 Nb12 Cl30 O6'
_cell_volume   1320.56083629
_cell_formula_units_Z   2
loop_
 _symmetry_equiv_pos_site_id
 _symmetry_equiv_pos_as_xyz
  1  'x, y, z'
loop_
 _atom_site_type_symbol
 _atom_site_label
 _atom_site_symmetry_multiplicity
 _atom_site_fract_x
 _atom_site_fract_y
 _atom_site_fract_z
 _atom_site_occupancy
  Cs  Cs0  1  0.33333300  0.66666700  0.95354600  1
  Cs  Cs1  1  0.66666700  0.33333300  0.45354600  1
  Cs  Cs2  1  0.66666700  0.33333300  0.04645400  1
  Cs  Cs3  1  0.33333300  0.66666700  0.54645400  1
  U  U4  1  0.33333300  0.66666700  0.25000000  1
  U  U5  1  0.66666700  0.33333300  0.75000000  1
  Nb  Nb6  1  0.18065900  0.19697500  0.31607300  1
  Nb  Nb7  1  0.01631600  0.81934100  0.31607300  1
  Nb  Nb8  1  0.80302500  0.98368400  0.31607300  1
  Nb  Nb9  1  0.98368400  0.80302500  0.81607300  1
  Nb  Nb10  1  0.81934100  0.01631600  0.81607300  1
  Nb  Nb11  1  0.19697500  0.18065900  0.81607300  1
  Nb  Nb12  1  0.81934100  0.80302500  0.68392700  1
  Nb  Nb13  1  0.98368400  0.18065900  0.68392700  1
  Nb  Nb14  1  0.19697500  0.01631600  0.68392700  1
  Nb  Nb15  1  0.01631600  0.19697500  0.18392700  1
  Nb  Nb16  1  0.18065900  0.98368400  0.18392700  1
  Nb  Nb17  1  0.80302500  0.81934100  0.18392700  1
  Cl  Cl18  1  0.39725100  0.47739900  0.38081800  1
  Cl  Cl19  1  0.08014800  0.60274900  0.38081800  1
  Cl  Cl20  1  0.52260100  0.91985200  0.38081800  1
  Cl  Cl21  1  0.91985200  0.52260100  0.88081800  1
  Cl  Cl22  1  0.60274900  0.08014800  0.88081800  1
  Cl  Cl23  1  0.47739900  0.39725100  0.88081800  1
  Cl  Cl24  1  0.60274900  0.52260100  0.61918200  1
  Cl  Cl25  1  0.91985200  0.39725100  0.61918200  1
  Cl  Cl26  1  0.47739900  0.08014800  0.61918200  1
  Cl  Cl27  1  0.08014800  0.47739900  0.11918200  1
  Cl  Cl28  1  0.39725100  0.91985200  0.11918200  1
  Cl  Cl29  1  0.52260100  0.60274900  0.11918200  1
  Cl  Cl30  1  0.57683500  0.78841800  0.75000000  1
  Cl  Cl31  1  0.21158200  0.42316500  0.75000000  1
  Cl  Cl32  1  0.21158200  0.78841800  0.75000000  1
  Cl  Cl33  1  0.78841800  0.21158200  0.25000000  1
  Cl  Cl34  1  0.42316500  0.21158200  0.25000000  1
  Cl  Cl35  1  0.78841800  0.57683500  0.25000000  1
  Cl  Cl36  1  0.78212800  0.80058900  0.91093400  1
  Cl  Cl37  1  0.01846100  0.21787200  0.91093400  1
  Cl  Cl38  1  0.19941100  0.98153900  0.91093400  1
  Cl  Cl39  1  0.98153900  0.19941100  0.41093400  1
  Cl  Cl40  1  0.21787200  0.01846100  0.41093400  1
  Cl  Cl41  1  0.80058900  0.78212800  0.41093400  1
  Cl  Cl42  1  0.21787200  0.19941100  0.08906600  1
  Cl  Cl43  1  0.98153900  0.78212800  0.08906600  1
  Cl  Cl44  1  0.80058900  0.01846100  0.08906600  1
  Cl  Cl45  1  0.01846100  0.80058900  0.58906600  1
  Cl  Cl46  1  0.78212800  0.98153900  0.58906600  1
  Cl  Cl47  1  0.19941100  0.21787200  0.58906600  1
  O  O48  1  0.81125800  0.18874200  0.75000000  1
  O  O49  1  0.37748400  0.18874200  0.75000000  1
  O  O50  1  0.81125800  0.62251600  0.75000000  1
  O  O51  1  0.62251600  0.81125800  0.25000000  1
  O  O52  1  0.18874200  0.37748400  0.25000000  1
  O  O53  1  0.18874200  0.81125800  0.25000000  1
