# generated using pymatgen
data_Cs4Si3O8
_symmetry_space_group_name_H-M   'P 1'
_cell_length_a   9.53710100
_cell_length_b   11.33601391
_cell_length_c   13.68069295
_cell_angle_alpha   101.53540936
_cell_angle_beta   100.69981692
_cell_angle_gamma   114.10554384
_symmetry_Int_Tables_number   1
_chemical_formula_structural   Cs4Si3O8
_chemical_formula_sum   'Cs16 Si12 O32'
_cell_volume   1262.32657996
_cell_formula_units_Z   4
loop_
 _symmetry_equiv_pos_site_id
 _symmetry_equiv_pos_as_xyz
  1  'x, y, z'
loop_
 _atom_site_type_symbol
 _atom_site_label
 _atom_site_symmetry_multiplicity
 _atom_site_fract_x
 _atom_site_fract_y
 _atom_site_fract_z
 _atom_site_occupancy
  Cs  Cs0  1  0.60663200  0.26876900  0.75077200  1
  Cs  Cs1  1  0.39336800  0.73123100  0.24922800  1
  Cs  Cs2  1  0.95925500  0.72826300  0.24349900  1
  Cs  Cs3  1  0.04074500  0.27173700  0.75650100  1
  Cs  Cs4  1  0.38167500  0.90037500  0.82886100  1
  Cs  Cs5  1  0.61832500  0.09962500  0.17113900  1
  Cs  Cs6  1  0.93256700  0.90097600  0.82891700  1
  Cs  Cs7  1  0.06743300  0.09902400  0.17108300  1
  Cs  Cs8  1  0.60973300  0.92400200  0.59091800  1
  Cs  Cs9  1  0.39026700  0.07599800  0.40908200  1
  Cs  Cs10  1  0.37536400  0.25823900  0.99379100  1
  Cs  Cs11  1  0.62463600  0.74176100  0.00620900  1
  Cs  Cs12  1  0.92588800  0.54539000  0.64053400  1
  Cs  Cs13  1  0.07411200  0.45461000  0.35946600  1
  Cs  Cs14  1  0.42970100  0.55685800  0.65714900  1
  Cs  Cs15  1  0.57029900  0.44314200  0.34285100  1
  Si  Si16  1  0.81828500  0.95149200  0.35726000  1
  Si  Si17  1  0.18171500  0.04850800  0.64274000  1
  Si  Si18  1  0.19143400  0.79112600  0.52173900  1
  Si  Si19  1  0.80856600  0.20887400  0.47826100  1
  Si  Si20  1  0.86618700  0.79531500  0.51611400  1
  Si  Si21  1  0.13381300  0.20468500  0.48388600  1
  Si  Si22  1  0.19564900  0.59868100  0.93475500  1
  Si  Si23  1  0.80435100  0.40131900  0.06524500  1
  Si  Si24  1  0.80709800  0.14089700  0.94223600  1
  Si  Si25  1  0.19290200  0.85910300  0.05776400  1
  Si  Si26  1  0.87430400  0.59923700  0.92756300  1
  Si  Si27  1  0.12569600  0.40076300  0.07243700  1
  O  O28  1  0.98316100  0.94753600  0.60615400  1
  O  O29  1  0.01683900  0.05246400  0.39384600  1
  O  O30  1  0.78603900  0.82514800  0.41000500  1
  O  O31  1  0.21396100  0.17485200  0.58999500  1
  O  O32  1  0.74625700  0.89091700  0.23336500  1
  O  O33  1  0.25374300  0.10908300  0.76663500  1
  O  O34  1  0.26364000  0.95919500  0.58810500  1
  O  O35  1  0.73636000  0.04080500  0.41189500  1
  O  O36  1  0.74974500  0.21791800  0.58132700  1
  O  O37  1  0.25025500  0.78208200  0.41867300  1
  O  O38  1  0.23895600  0.71565200  0.60016100  1
  O  O39  1  0.76104400  0.28434800  0.39983900  1
  O  O40  1  0.98745200  0.73281600  0.48431000  1
  O  O41  1  0.01254800  0.26718400  0.51569000  1
  O  O42  1  0.73023800  0.69767600  0.55596100  1
  O  O43  1  0.26976200  0.30232400  0.44403900  1
  O  O44  1  0.99726900  0.54281300  0.88717900  1
  O  O45  1  0.00273100  0.45718700  0.11282100  1
  O  O46  1  0.77974100  0.49909900  0.99363600  1
  O  O47  1  0.22025900  0.50090100  0.00636400  1
  O  O48  1  0.27845200  0.59367900  0.84425800  1
  O  O49  1  0.72154800  0.40632100  0.15574200  1
  O  O50  1  0.72811300  0.24647600  0.98156400  1
  O  O51  1  0.27188700  0.75352400  0.01843600  1
  O  O52  1  0.75020200  0.08671200  0.81634100  1
  O  O53  1  0.24979800  0.91328800  0.18365900  1
  O  O54  1  0.76629700  0.02655700  0.00087100  1
  O  O55  1  0.23370300  0.97344300  0.99912900  1
  O  O56  1  0.99000900  0.75255000  0.01438400  1
  O  O57  1  0.00999100  0.24745000  0.98561600  1
  O  O58  1  0.74890900  0.59802800  0.83196700  1
  O  O59  1  0.25109100  0.40197200  0.16803300  1
