# generated using pymatgen
data_BaLaAgSe3
_symmetry_space_group_name_H-M   'P 1'
_cell_length_a   7.51277005
_cell_length_b   7.51277005
_cell_length_c   11.29294700
_cell_angle_alpha   90.00000000
_cell_angle_beta   90.00000000
_cell_angle_gamma   145.88272460
_symmetry_Int_Tables_number   1
_chemical_formula_structural   BaLaAgSe3
_chemical_formula_sum   'Ba2 La2 Ag2 Se6'
_cell_volume   357.50665122
_cell_formula_units_Z   2
loop_
 _symmetry_equiv_pos_site_id
 _symmetry_equiv_pos_as_xyz
  1  'x, y, z'
loop_
 _atom_site_type_symbol
 _atom_site_label
 _atom_site_symmetry_multiplicity
 _atom_site_fract_x
 _atom_site_fract_y
 _atom_site_fract_z
 _atom_site_occupancy
  Ba  Ba0  1  0.25255900  0.74744100  0.25000000  1
  Ba  Ba1  1  0.74744100  0.25255900  0.75000000  1
  La  La2  1  0.00000000  0.00000000  0.50000000  1
  La  La3  1  0.00000000  0.00000000  0.00000000  1
  Ag  Ag4  1  0.53221800  0.46778200  0.25000000  1
  Ag  Ag5  1  0.46778200  0.53221800  0.75000000  1
  Se  Se6  1  0.64012800  0.35987100  0.44142600  1
  Se  Se7  1  0.35987200  0.64012800  0.55857400  1
  Se  Se8  1  0.64012800  0.35987100  0.05857400  1
  Se  Se9  1  0.35987200  0.64012800  0.94142600  1
  Se  Se10  1  0.92111500  0.07888500  0.25000000  1
  Se  Se11  1  0.07888500  0.92111500  0.75000000  1
