# generated using pymatgen
data_Ta6TeSe2
_symmetry_space_group_name_H-M   'P 1'
_cell_length_a   7.64186064
_cell_length_b   7.64186064
_cell_length_c   10.97444207
_cell_angle_alpha   89.37312907
_cell_angle_beta   89.37312907
_cell_angle_gamma   36.69182928
_symmetry_Int_Tables_number   1
_chemical_formula_structural   Ta6TeSe2
_chemical_formula_sum   'Ta12 Te2 Se4'
_cell_volume   382.91077382
_cell_formula_units_Z   2
loop_
 _symmetry_equiv_pos_site_id
 _symmetry_equiv_pos_as_xyz
  1  'x, y, z'
loop_
 _atom_site_type_symbol
 _atom_site_label
 _atom_site_symmetry_multiplicity
 _atom_site_fract_x
 _atom_site_fract_y
 _atom_site_fract_z
 _atom_site_occupancy
  Ta  Ta0  1  0.41449700  0.41449700  0.21858200  1
  Ta  Ta1  1  0.08208400  0.08208400  0.21446400  1
  Ta  Ta2  1  0.74929800  0.74929800  0.21654200  1
  Ta  Ta3  1  0.91791600  0.91791600  0.78553600  1
  Ta  Ta4  1  0.58550300  0.58550300  0.78141800  1
  Ta  Ta5  1  0.25070200  0.25070200  0.78345800  1
  Ta  Ta6  1  0.41717800  0.41717800  0.93224600  1
  Ta  Ta7  1  0.08341000  0.08341000  0.92655300  1
  Ta  Ta8  1  0.75079200  0.75079200  0.93087600  1
  Ta  Ta9  1  0.91659000  0.91659000  0.07344700  1
  Ta  Ta10  1  0.58282200  0.58282200  0.06775400  1
  Ta  Ta11  1  0.24920800  0.24920800  0.06912400  1
  Te  Te12  1  0.08513300  0.08513300  0.63546400  1
  Te  Te13  1  0.91486700  0.91486700  0.36453600  1
  Se  Se14  1  0.75364500  0.75364500  0.67149100  1
  Se  Se15  1  0.41784000  0.41784000  0.67407600  1
  Se  Se16  1  0.58216000  0.58216000  0.32592400  1
  Se  Se17  1  0.24635500  0.24635500  0.32850900  1
