# generated using pymatgen
data_SrNd2Mn3O9
_symmetry_space_group_name_H-M   'P 1'
_cell_length_a   5.55130900
_cell_length_b   7.73435000
_cell_length_c   16.78761400
_cell_angle_alpha   90.00000000
_cell_angle_beta   90.00000000
_cell_angle_gamma   90.00000000
_symmetry_Int_Tables_number   1
_chemical_formula_structural   SrNd2Mn3O9
_chemical_formula_sum   'Sr4 Nd8 Mn12 O36'
_cell_volume   720.78907923
_cell_formula_units_Z   4
loop_
 _symmetry_equiv_pos_site_id
 _symmetry_equiv_pos_as_xyz
  1  'x, y, z'
loop_
 _atom_site_type_symbol
 _atom_site_label
 _atom_site_symmetry_multiplicity
 _atom_site_fract_x
 _atom_site_fract_y
 _atom_site_fract_z
 _atom_site_occupancy
  Sr  Sr0  1  0.99460600  0.75000000  0.84101200  1
  Sr  Sr1  1  0.50539400  0.75000000  0.34101200  1
  Sr  Sr2  1  0.00539400  0.25000000  0.15898800  1
  Sr  Sr3  1  0.49460600  0.25000000  0.65898800  1
  Nd  Nd4  1  0.99007700  0.75000000  0.51180300  1
  Nd  Nd5  1  0.99011300  0.75000000  0.17941100  1
  Nd  Nd6  1  0.50988700  0.75000000  0.67941100  1
  Nd  Nd7  1  0.50992300  0.75000000  0.01180300  1
  Nd  Nd8  1  0.00988700  0.25000000  0.82058900  1
  Nd  Nd9  1  0.00992300  0.25000000  0.48819700  1
  Nd  Nd10  1  0.49007700  0.25000000  0.98819700  1
  Nd  Nd11  1  0.49011300  0.25000000  0.32058900  1
  Mn  Mn12  1  0.50054300  0.99900700  0.83392200  1
  Mn  Mn13  1  0.50000000  0.00000000  0.50000000  1
  Mn  Mn14  1  0.49945700  0.00099300  0.16607800  1
  Mn  Mn15  1  0.00000000  0.50000000  0.00000000  1
  Mn  Mn16  1  0.00054300  0.49900700  0.66607800  1
  Mn  Mn17  1  0.99945700  0.50099300  0.33392200  1
  Mn  Mn18  1  0.50054300  0.50099300  0.83392200  1
  Mn  Mn19  1  0.50000000  0.50000000  0.50000000  1
  Mn  Mn20  1  0.49945700  0.49900700  0.16607800  1
  Mn  Mn21  1  0.00000000  0.00000000  0.00000000  1
  Mn  Mn22  1  0.00054300  0.00099300  0.66607800  1
  Mn  Mn23  1  0.99945700  0.99900700  0.33392200  1
  O  O24  1  0.08135400  0.75000000  0.99652500  1
  O  O25  1  0.07946100  0.75000000  0.65991800  1
  O  O26  1  0.05845500  0.75000000  0.32861800  1
  O  O27  1  0.44154500  0.75000000  0.82861800  1
  O  O28  1  0.41864600  0.75000000  0.49652500  1
  O  O29  1  0.42053900  0.75000000  0.15991800  1
  O  O30  1  0.94154500  0.25000000  0.67138200  1
  O  O31  1  0.92053900  0.25000000  0.34008200  1
  O  O32  1  0.91864600  0.25000000  0.00347500  1
  O  O33  1  0.57946100  0.25000000  0.84008200  1
  O  O34  1  0.58135400  0.25000000  0.50347500  1
  O  O35  1  0.55845500  0.25000000  0.17138200  1
  O  O36  1  0.71383400  0.96485800  0.93036000  1
  O  O37  1  0.72002900  0.95069400  0.59215300  1
  O  O38  1  0.73438800  0.96607800  0.25572200  1
  O  O39  1  0.76561200  0.53392200  0.75572200  1
  O  O40  1  0.78616600  0.53514200  0.43036000  1
  O  O41  1  0.77997100  0.54930600  0.09215300  1
  O  O42  1  0.26561200  0.46607800  0.74427800  1
  O  O43  1  0.27997100  0.45069400  0.40784700  1
  O  O44  1  0.28616600  0.46485800  0.06964000  1
  O  O45  1  0.22002900  0.04930600  0.90784700  1
  O  O46  1  0.21383400  0.03514200  0.56964000  1
  O  O47  1  0.23438800  0.03392200  0.24427800  1
  O  O48  1  0.26561200  0.03392200  0.74427800  1
  O  O49  1  0.27997100  0.04930600  0.40784700  1
  O  O50  1  0.28616600  0.03514200  0.06964000  1
  O  O51  1  0.22002900  0.45069400  0.90784700  1
  O  O52  1  0.21383400  0.46485800  0.56964000  1
  O  O53  1  0.23438800  0.46607800  0.24427800  1
  O  O54  1  0.71383400  0.53514200  0.93036000  1
  O  O55  1  0.72002900  0.54930600  0.59215300  1
  O  O56  1  0.73438800  0.53392200  0.25572200  1
  O  O57  1  0.76561200  0.96607800  0.75572200  1
  O  O58  1  0.78616600  0.96485800  0.43036000  1
  O  O59  1  0.77997100  0.95069400  0.09215300  1
