# generated using pymatgen
data_Ba6Sm2Al4O15
_symmetry_space_group_name_H-M   'P 1'
_cell_length_a   6.01736400
_cell_length_b   8.00155878
_cell_length_c   18.68039205
_cell_angle_alpha   91.41767040
_cell_angle_beta   90.00000000
_cell_angle_gamma   90.00000000
_symmetry_Int_Tables_number   1
_chemical_formula_structural   Ba6Sm2Al4O15
_chemical_formula_sum   'Ba12 Sm4 Al8 O30'
_cell_volume   899.15365773
_cell_formula_units_Z   2
loop_
 _symmetry_equiv_pos_site_id
 _symmetry_equiv_pos_as_xyz
  1  'x, y, z'
loop_
 _atom_site_type_symbol
 _atom_site_label
 _atom_site_symmetry_multiplicity
 _atom_site_fract_x
 _atom_site_fract_y
 _atom_site_fract_z
 _atom_site_occupancy
  Ba  Ba0  1  0.75771600  0.50249700  0.41706400  1
  Ba  Ba1  1  0.24228400  0.49750300  0.58293600  1
  Ba  Ba2  1  0.75771600  0.49750300  0.08293600  1
  Ba  Ba3  1  0.24228400  0.50249700  0.91706400  1
  Ba  Ba4  1  0.74251500  0.96748000  0.40947500  1
  Ba  Ba5  1  0.25748500  0.03252000  0.59052500  1
  Ba  Ba6  1  0.74251500  0.03252000  0.09052500  1
  Ba  Ba7  1  0.25748500  0.96748000  0.90947500  1
  Ba  Ba8  1  0.72528100  0.00000000  0.75000000  1
  Ba  Ba9  1  0.27471900  0.00000000  0.25000000  1
  Ba  Ba10  1  0.66824000  0.50000000  0.75000000  1
  Ba  Ba11  1  0.33176000  0.50000000  0.25000000  1
  Sm  Sm12  1  0.74609600  0.75161600  0.59001500  1
  Sm  Sm13  1  0.25390400  0.24838400  0.40998500  1
  Sm  Sm14  1  0.74609600  0.24838400  0.90998500  1
  Sm  Sm15  1  0.25390400  0.75161600  0.09001500  1
  Al  Al16  1  0.75232900  0.75294500  0.94249200  1
  Al  Al17  1  0.24767100  0.24705500  0.05750800  1
  Al  Al18  1  0.75232900  0.24705500  0.55750800  1
  Al  Al19  1  0.24767100  0.75294500  0.44249200  1
  Al  Al20  1  0.77415100  0.78031500  0.23386400  1
  Al  Al21  1  0.22584900  0.21968500  0.76613600  1
  Al  Al22  1  0.77415100  0.21968500  0.26613600  1
  Al  Al23  1  0.22584900  0.78031500  0.73386400  1
  O  O24  1  0.21200500  0.00000000  0.75000000  1
  O  O25  1  0.78799500  0.00000000  0.25000000  1
  O  O26  1  0.49120700  0.76430200  0.49831200  1
  O  O27  1  0.50879300  0.23569800  0.50168800  1
  O  O28  1  0.49120700  0.23569800  0.00168800  1
  O  O29  1  0.50879300  0.76430200  0.99831200  1
  O  O30  1  0.75942800  0.94089700  0.89186300  1
  O  O31  1  0.24057200  0.05910300  0.10813700  1
  O  O32  1  0.75942800  0.05910300  0.60813700  1
  O  O33  1  0.24057200  0.94089700  0.39186300  1
  O  O34  1  0.00827300  0.76208000  0.50093100  1
  O  O35  1  0.99172700  0.23792000  0.49906900  1
  O  O36  1  0.00827300  0.23792000  0.99906900  1
  O  O37  1  0.99172700  0.76208000  0.00093100  1
  O  O38  1  0.31418100  0.69520100  0.81463900  1
  O  O39  1  0.68581900  0.30479900  0.18536100  1
  O  O40  1  0.31418100  0.30479900  0.68536100  1
  O  O41  1  0.68581900  0.69520100  0.31463900  1
  O  O42  1  0.44238500  0.75139800  0.66796800  1
  O  O43  1  0.55761500  0.24860200  0.33203200  1
  O  O44  1  0.44238500  0.24860200  0.83203200  1
  O  O45  1  0.55761500  0.75139800  0.16796800  1
  O  O46  1  0.96753400  0.73000500  0.69278400  1
  O  O47  1  0.03246600  0.26999500  0.30721600  1
  O  O48  1  0.96753400  0.26999500  0.80721600  1
  O  O49  1  0.03246600  0.73000500  0.19278400  1
  O  O50  1  0.75489500  0.54296500  0.90601600  1
  O  O51  1  0.24510500  0.45703500  0.09398400  1
  O  O52  1  0.75489500  0.45703500  0.59398400  1
  O  O53  1  0.24510500  0.54296500  0.40601600  1
