# generated using pymatgen
data_Rb3ErCl6
_symmetry_space_group_name_H-M   'P 1'
_cell_length_a   13.69764107
_cell_length_b   13.69764107
_cell_length_c   12.93861759
_cell_angle_alpha   80.90248037
_cell_angle_beta   80.90248037
_cell_angle_gamma   34.04261698
_symmetry_Int_Tables_number   1
_chemical_formula_structural   Rb3ErCl6
_chemical_formula_sum   'Rb12 Er4 Cl24'
_cell_volume   1340.29182441
_cell_formula_units_Z   4
loop_
 _symmetry_equiv_pos_site_id
 _symmetry_equiv_pos_as_xyz
  1  'x, y, z'
loop_
 _atom_site_type_symbol
 _atom_site_label
 _atom_site_symmetry_multiplicity
 _atom_site_fract_x
 _atom_site_fract_y
 _atom_site_fract_z
 _atom_site_occupancy
  Rb  Rb0  1  0.30347500  0.79575500  0.06709100  1
  Rb  Rb1  1  0.69652500  0.20424500  0.93290900  1
  Rb  Rb2  1  0.20424500  0.69652500  0.43290900  1
  Rb  Rb3  1  0.79575500  0.30347500  0.56709100  1
  Rb  Rb4  1  0.46637700  0.84110800  0.35562100  1
  Rb  Rb5  1  0.53362300  0.15889200  0.64437900  1
  Rb  Rb6  1  0.15889200  0.53362300  0.14437900  1
  Rb  Rb7  1  0.84110800  0.46637700  0.85562100  1
  Rb  Rb8  1  0.65113600  0.02543700  0.29951000  1
  Rb  Rb9  1  0.34886400  0.97456300  0.70049000  1
  Rb  Rb10  1  0.97456300  0.34886400  0.20049000  1
  Rb  Rb11  1  0.02543700  0.65113600  0.79951000  1
  Er  Er12  1  0.78363200  0.21636800  0.25000000  1
  Er  Er13  1  0.21636800  0.78363200  0.75000000  1
  Er  Er14  1  0.50000000  0.00000000  0.00000000  1
  Er  Er15  1  0.00000000  0.50000000  0.50000000  1
  Cl  Cl16  1  0.62141000  0.72457000  0.08145000  1
  Cl  Cl17  1  0.37859000  0.27543000  0.91855000  1
  Cl  Cl18  1  0.27543000  0.37859000  0.41855000  1
  Cl  Cl19  1  0.72457000  0.62141000  0.58145000  1
  Cl  Cl20  1  0.49645600  0.38732100  0.18035800  1
  Cl  Cl21  1  0.50354400  0.61267900  0.81964200  1
  Cl  Cl22  1  0.61267900  0.50354400  0.31964200  1
  Cl  Cl23  1  0.38732100  0.49645600  0.68035800  1
  Cl  Cl24  1  0.78057700  0.86509700  0.03509700  1
  Cl  Cl25  1  0.21942300  0.13490300  0.96490300  1
  Cl  Cl26  1  0.13490300  0.21942300  0.46490300  1
  Cl  Cl27  1  0.86509700  0.78057700  0.53509700  1
  Cl  Cl28  1  0.91558600  0.96791100  0.69467000  1
  Cl  Cl29  1  0.08441400  0.03208900  0.30533000  1
  Cl  Cl30  1  0.03208900  0.08441400  0.80533000  1
  Cl  Cl31  1  0.96791100  0.91558600  0.19467000  1
  Cl  Cl32  1  0.71691100  0.16721100  0.43422500  1
  Cl  Cl33  1  0.28308900  0.83278900  0.56577500  1
  Cl  Cl34  1  0.83278900  0.28308900  0.06577500  1
  Cl  Cl35  1  0.16721100  0.71691100  0.93422500  1
  Cl  Cl36  1  0.36139800  0.13952100  0.18513400  1
  Cl  Cl37  1  0.63860200  0.86047900  0.81486600  1
  Cl  Cl38  1  0.86047900  0.63860200  0.31486600  1
  Cl  Cl39  1  0.13952100  0.36139800  0.68513400  1
