# generated using pymatgen
data_KMg6P7O24
_symmetry_space_group_name_H-M   'P 1'
_cell_length_a   26.69390000
_cell_length_b   5.32663200
_cell_length_c   6.45144820
_cell_angle_alpha   72.64016610
_cell_angle_beta   90.00000000
_cell_angle_gamma   90.00000000
_symmetry_Int_Tables_number   1
_chemical_formula_structural   KMg6P7O24
_chemical_formula_sum   'K2 Mg12 P14 O48'
_cell_volume   875.53799498
_cell_formula_units_Z   2
loop_
 _symmetry_equiv_pos_site_id
 _symmetry_equiv_pos_as_xyz
  1  'x, y, z'
loop_
 _atom_site_type_symbol
 _atom_site_label
 _atom_site_symmetry_multiplicity
 _atom_site_fract_x
 _atom_site_fract_y
 _atom_site_fract_z
 _atom_site_occupancy
  K  K0  1  0.75000000  0.73942200  0.37530900  1
  K  K1  1  0.25000000  0.26057800  0.62469100  1
  Mg  Mg2  1  0.59620800  0.80475000  0.09297200  1
  Mg  Mg3  1  0.09620800  0.19525000  0.90702800  1
  Mg  Mg4  1  0.40379200  0.19525000  0.90702800  1
  Mg  Mg5  1  0.90379200  0.80475000  0.09297200  1
  Mg  Mg6  1  0.54905800  0.20537900  0.31170100  1
  Mg  Mg7  1  0.04905800  0.79462100  0.68829900  1
  Mg  Mg8  1  0.45094200  0.79462100  0.68829900  1
  Mg  Mg9  1  0.95094200  0.20537900  0.31170100  1
  Mg  Mg10  1  0.68276300  0.13658600  0.73322000  1
  Mg  Mg11  1  0.18276300  0.86341400  0.26678000  1
  Mg  Mg12  1  0.31723700  0.86341400  0.26678000  1
  Mg  Mg13  1  0.81723700  0.13658600  0.73322000  1
  P  P14  1  0.60946700  0.69794300  0.62754200  1
  P  P15  1  0.10946700  0.30205700  0.37245800  1
  P  P16  1  0.39053300  0.30205700  0.37245800  1
  P  P17  1  0.89053300  0.69794300  0.62754200  1
  P  P18  1  0.52487100  0.29839900  0.79656400  1
  P  P19  1  0.02487100  0.70160100  0.20343600  1
  P  P20  1  0.47512900  0.70160100  0.20343600  1
  P  P21  1  0.97512900  0.29839900  0.79656400  1
  P  P22  1  0.66735500  0.26494200  0.20151100  1
  P  P23  1  0.16735500  0.73505800  0.79848900  1
  P  P24  1  0.33264500  0.73505800  0.79848900  1
  P  P25  1  0.83264500  0.26494200  0.20151100  1
  P  P26  1  0.75000000  0.55697400  0.90993900  1
  P  P27  1  0.25000000  0.44302600  0.09006100  1
  O  O28  1  0.66595200  0.07427900  0.06374200  1
  O  O29  1  0.16595200  0.92572100  0.93625800  1
  O  O30  1  0.33404800  0.92572100  0.93625800  1
  O  O31  1  0.83404800  0.07427900  0.06374200  1
  O  O32  1  0.64795700  0.49035000  0.63049200  1
  O  O33  1  0.14795700  0.50965000  0.36950800  1
  O  O34  1  0.35204300  0.50965000  0.36950800  1
  O  O35  1  0.85204300  0.49035000  0.63049200  1
  O  O36  1  0.59520000  0.87117600  0.39760300  1
  O  O37  1  0.09520000  0.12882400  0.60239700  1
  O  O38  1  0.40480000  0.12882400  0.60239700  1
  O  O39  1  0.90480000  0.87117600  0.39760300  1
  O  O40  1  0.47282700  0.40726200  0.82506700  1
  O  O41  1  0.97282700  0.59273800  0.17493300  1
  O  O42  1  0.52717300  0.59273800  0.17493300  1
  O  O43  1  0.02717300  0.40726200  0.82506700  1
  O  O44  1  0.61818700  0.41049200  0.20772800  1
  O  O45  1  0.11818700  0.58950800  0.79227200  1
  O  O46  1  0.38181300  0.58950800  0.79227200  1
  O  O47  1  0.88181300  0.41049200  0.20772800  1
  O  O48  1  0.69323600  0.15107500  0.41763200  1
  O  O49  1  0.19323600  0.84892500  0.58236800  1
  O  O50  1  0.30676400  0.84892500  0.58236800  1
  O  O51  1  0.80676400  0.15107500  0.41763200  1
  O  O52  1  0.75000000  0.35836200  0.78248200  1
  O  O53  1  0.25000000  0.64163800  0.21751800  1
  O  O54  1  0.55698700  0.56633200  0.72578000  1
  O  O55  1  0.05698700  0.43366800  0.27422000  1
  O  O56  1  0.44301300  0.43366800  0.27422000  1
  O  O57  1  0.94301300  0.56633200  0.72578000  1
  O  O58  1  0.70323700  0.51418800  0.06759100  1
  O  O59  1  0.20323700  0.48581200  0.93240900  1
  O  O60  1  0.29676300  0.48581200  0.93240900  1
  O  O61  1  0.79676300  0.51418800  0.06759100  1
  O  O62  1  0.52594600  0.16190600  0.62001100  1
  O  O63  1  0.02594600  0.83809400  0.37998900  1
  O  O64  1  0.47405400  0.83809400  0.37998900  1
  O  O65  1  0.97405400  0.16190600  0.62001100  1
  O  O66  1  0.54786100  0.12998700  0.01231500  1
  O  O67  1  0.04786100  0.87001300  0.98768500  1
  O  O68  1  0.45213900  0.87001300  0.98768500  1
  O  O69  1  0.95213900  0.12998700  0.01231500  1
  O  O70  1  0.75000000  0.84734900  0.78607600  1
  O  O71  1  0.25000000  0.15265100  0.21392400  1
  O  O72  1  0.62354500  0.86582200  0.77718200  1
  O  O73  1  0.12354500  0.13417800  0.22281800  1
  O  O74  1  0.37645500  0.13417800  0.22281800  1
  O  O75  1  0.87645500  0.86582200  0.77718200  1
