# generated using pymatgen
data_Pr5CoSb2
_symmetry_space_group_name_H-M   'P 1'
_cell_length_a   8.39191100
_cell_length_b   8.96058400
_cell_length_c   12.99163500
_cell_angle_alpha   90.00000000
_cell_angle_beta   90.00000000
_cell_angle_gamma   90.00000000
_symmetry_Int_Tables_number   1
_chemical_formula_structural   Pr5CoSb2
_chemical_formula_sum   'Pr20 Co4 Sb8'
_cell_volume   976.92448659
_cell_formula_units_Z   4
loop_
 _symmetry_equiv_pos_site_id
 _symmetry_equiv_pos_as_xyz
  1  'x, y, z'
loop_
 _atom_site_type_symbol
 _atom_site_label
 _atom_site_symmetry_multiplicity
 _atom_site_fract_x
 _atom_site_fract_y
 _atom_site_fract_z
 _atom_site_occupancy
  Pr  Pr0  1  0.83143000  0.75000000  0.79702100  1
  Pr  Pr1  1  0.16857000  0.25000000  0.20297900  1
  Pr  Pr2  1  0.33143000  0.25000000  0.70297900  1
  Pr  Pr3  1  0.66857000  0.75000000  0.29702100  1
  Pr  Pr4  1  0.35192900  0.75000000  0.68782500  1
  Pr  Pr5  1  0.64807100  0.25000000  0.31217500  1
  Pr  Pr6  1  0.85192900  0.25000000  0.81217500  1
  Pr  Pr7  1  0.14807100  0.75000000  0.18782500  1
  Pr  Pr8  1  0.95380000  0.75000000  0.50221200  1
  Pr  Pr9  1  0.04620000  0.25000000  0.49778800  1
  Pr  Pr10  1  0.45380000  0.25000000  0.99778800  1
  Pr  Pr11  1  0.54620000  0.75000000  0.00221200  1
  Pr  Pr12  1  0.67104200  0.03241800  0.57331700  1
  Pr  Pr13  1  0.32895800  0.96758200  0.42668300  1
  Pr  Pr14  1  0.17104200  0.96758200  0.92668300  1
  Pr  Pr15  1  0.32895800  0.53241800  0.42668300  1
  Pr  Pr16  1  0.82895800  0.03241800  0.07331700  1
  Pr  Pr17  1  0.67104200  0.46758200  0.57331700  1
  Pr  Pr18  1  0.82895800  0.46758200  0.07331700  1
  Pr  Pr19  1  0.17104200  0.53241800  0.92668300  1
  Co  Co20  1  0.57019200  0.75000000  0.50717300  1
  Co  Co21  1  0.42980800  0.25000000  0.49282700  1
  Co  Co22  1  0.07019200  0.25000000  0.99282700  1
  Co  Co23  1  0.92980800  0.75000000  0.00717300  1
  Sb  Sb24  1  0.54907200  0.49714100  0.82271900  1
  Sb  Sb25  1  0.45092800  0.50285900  0.17728100  1
  Sb  Sb26  1  0.04907200  0.50285900  0.67728100  1
  Sb  Sb27  1  0.45092800  0.99714100  0.17728100  1
  Sb  Sb28  1  0.95092800  0.49714100  0.32271900  1
  Sb  Sb29  1  0.54907200  0.00285900  0.82271900  1
  Sb  Sb30  1  0.95092800  0.00285900  0.32271900  1
  Sb  Sb31  1  0.04907200  0.99714100  0.67728100  1
