# generated using pymatgen
data_ErMnO3
_symmetry_space_group_name_H-M   'P 1'
_cell_length_a   6.17366052
_cell_length_b   6.17366052
_cell_length_c   11.51732900
_cell_angle_alpha   90.00000000
_cell_angle_beta   90.00000000
_cell_angle_gamma   120.00000562
_symmetry_Int_Tables_number   1
_chemical_formula_structural   ErMnO3
_chemical_formula_sum   'Er6 Mn6 O18'
_cell_volume   380.16127008
_cell_formula_units_Z   6
loop_
 _symmetry_equiv_pos_site_id
 _symmetry_equiv_pos_as_xyz
  1  'x, y, z'
loop_
 _atom_site_type_symbol
 _atom_site_label
 _atom_site_symmetry_multiplicity
 _atom_site_fract_x
 _atom_site_fract_y
 _atom_site_fract_z
 _atom_site_occupancy
  Er  Er0  1  0.66666700  0.33333300  0.22877100  1
  Er  Er1  1  0.33333300  0.66666700  0.72877100  1
  Er  Er2  1  0.66666700  0.33333300  0.72877100  1
  Er  Er3  1  0.33333300  0.66666700  0.22877100  1
  Er  Er4  1  0.00000000  0.00000000  0.77261400  1
  Er  Er5  1  0.00000000  0.00000000  0.27261400  1
  Mn  Mn6  1  0.66658700  0.00000000  0.49778100  1
  Mn  Mn7  1  0.66658700  0.66658700  0.99778100  1
  Mn  Mn8  1  0.00000000  0.33341300  0.99778100  1
  Mn  Mn9  1  0.00000000  0.66658700  0.49778100  1
  Mn  Mn10  1  0.33341300  0.33341300  0.49778100  1
  Mn  Mn11  1  0.33341300  0.00000000  0.99778100  1
  O  O12  1  0.66666700  0.33333300  0.01934500  1
  O  O13  1  0.33333300  0.66666700  0.51934500  1
  O  O14  1  0.66666700  0.33333300  0.51934500  1
  O  O15  1  0.33333300  0.66666700  0.01934500  1
  O  O16  1  0.00000000  0.00000000  0.97239700  1
  O  O17  1  0.00000000  0.00000000  0.47239700  1
  O  O18  1  0.35957300  0.00000000  0.83261700  1
  O  O19  1  0.35957300  0.35957300  0.33261700  1
  O  O20  1  0.00000000  0.64042700  0.33261700  1
  O  O21  1  0.00000000  0.35957300  0.83261700  1
  O  O22  1  0.64042700  0.64042700  0.83261700  1
  O  O23  1  0.64042700  0.00000000  0.33261700  1
  O  O24  1  0.30672600  0.00000000  0.16318800  1
  O  O25  1  0.30672600  0.30672600  0.66318800  1
  O  O26  1  0.00000000  0.69327400  0.66318800  1
  O  O27  1  0.00000000  0.30672600  0.16318800  1
  O  O28  1  0.69327400  0.69327400  0.16318800  1
  O  O29  1  0.69327400  0.00000000  0.66318800  1
