# generated using pymatgen
data_Nd2MnCoO6
_symmetry_space_group_name_H-M   'P 1'
_cell_length_a   5.63625700
_cell_length_b   5.45194000
_cell_length_c   9.48479305
_cell_angle_alpha   54.91892773
_cell_angle_beta   90.00000000
_cell_angle_gamma   90.00000000
_symmetry_Int_Tables_number   1
_chemical_formula_structural   Nd2MnCoO6
_chemical_formula_sum   'Nd4 Mn2 Co2 O12'
_cell_volume   238.50818976
_cell_formula_units_Z   2
loop_
 _symmetry_equiv_pos_site_id
 _symmetry_equiv_pos_as_xyz
  1  'x, y, z'
loop_
 _atom_site_type_symbol
 _atom_site_label
 _atom_site_symmetry_multiplicity
 _atom_site_fract_x
 _atom_site_fract_y
 _atom_site_fract_z
 _atom_site_occupancy
  Nd  Nd0  1  0.55683500  0.73663500  0.74979400  1
  Nd  Nd1  1  0.05683500  0.26336500  0.75020600  1
  Nd  Nd2  1  0.44316500  0.26336500  0.25020600  1
  Nd  Nd3  1  0.94316500  0.73663500  0.24979400  1
  Mn  Mn4  1  0.50000000  0.50000000  0.50000000  1
  Mn  Mn5  1  0.00000000  0.50000000  0.00000000  1
  Co  Co6  1  0.50000000  0.00000000  0.00000000  1
  Co  Co7  1  0.00000000  0.00000000  0.50000000  1
  O  O8  1  0.47793800  0.17076800  0.74283700  1
  O  O9  1  0.21491000  0.35007500  0.45315600  1
  O  O10  1  0.71491000  0.64992500  0.04684400  1
  O  O11  1  0.19882900  0.74159900  0.04457700  1
  O  O12  1  0.52206200  0.82923200  0.25716300  1
  O  O13  1  0.78509000  0.64992500  0.54684400  1
  O  O14  1  0.30117100  0.74159900  0.54457700  1
  O  O15  1  0.02206200  0.17076800  0.24283700  1
  O  O16  1  0.97793800  0.82923200  0.75716300  1
  O  O17  1  0.80117100  0.25840100  0.95542300  1
  O  O18  1  0.69882900  0.25840100  0.45542300  1
  O  O19  1  0.28509000  0.35007500  0.95315600  1
