# generated using pymatgen
data_Ba3Cr2O8
_symmetry_space_group_name_H-M   'P 1'
_cell_length_a   5.84787425
_cell_length_b   5.84934565
_cell_length_c   14.82527774
_cell_angle_alpha   78.55629247
_cell_angle_beta   90.11905371
_cell_angle_gamma   120.02599628
_symmetry_Int_Tables_number   1
_chemical_formula_structural   Ba3Cr2O8
_chemical_formula_sum   'Ba6 Cr4 O16'
_cell_volume   427.50010918
_cell_formula_units_Z   2
loop_
 _symmetry_equiv_pos_site_id
 _symmetry_equiv_pos_as_xyz
  1  'x, y, z'
loop_
 _atom_site_type_symbol
 _atom_site_label
 _atom_site_symmetry_multiplicity
 _atom_site_fract_x
 _atom_site_fract_y
 _atom_site_fract_z
 _atom_site_occupancy
  Ba  Ba0  1  0.98636700  0.01082000  0.00004800  1
  Ba  Ba1  1  0.50335700  0.02338500  0.49998800  1
  Ba  Ba2  1  0.60336300  0.20776400  0.19059300  1
  Ba  Ba3  1  0.10248700  0.20610700  0.69056600  1
  Ba  Ba4  1  0.89773700  0.79523100  0.30937100  1
  Ba  Ba5  1  0.39656400  0.79349100  0.80938000  1
  Cr  Cr6  1  0.20357500  0.40864100  0.38947400  1
  Cr  Cr7  1  0.29541000  0.59367400  0.11040200  1
  Cr  Cr8  1  0.70290200  0.40750500  0.88957600  1
  Cr  Cr9  1  0.79657200  0.59399100  0.61042800  1
  O  O10  1  0.67835700  0.31301300  0.00755600  1
  O  O11  1  0.16341800  0.30255500  0.50745300  1
  O  O12  1  0.82938000  0.64283000  0.49254300  1
  O  O13  1  0.35402800  0.65993000  0.99251300  1
  O  O14  1  0.10574900  0.73357400  0.65100300  1
  O  O15  1  0.60320500  0.73013500  0.15247800  1
  O  O16  1  0.62088600  0.24475700  0.65363800  1
  O  O17  1  0.11490400  0.24424900  0.15230200  1
  O  O18  1  0.62673200  0.73303700  0.65029700  1
  O  O19  1  0.11998400  0.72710400  0.15005800  1
  O  O20  1  0.87270800  0.75656000  0.84912100  1
  O  O21  1  0.37490400  0.75778700  0.35036800  1
  O  O22  1  0.39356500  0.27763500  0.84946000  1
  O  O23  1  0.89609800  0.28176400  0.34761800  1
  O  O24  1  0.87870200  0.27718300  0.84661000  1
  O  O25  1  0.37904600  0.27728000  0.34715600  1
