# generated using pymatgen
data_Gd3SiBr3
_symmetry_space_group_name_H-M   'P 1'
_cell_length_a   10.23737983
_cell_length_b   10.23737983
_cell_length_c   10.23737983
_cell_angle_alpha   109.47122063
_cell_angle_beta   109.47122063
_cell_angle_gamma   109.47122063
_symmetry_Int_Tables_number   1
_chemical_formula_structural   Gd3SiBr3
_chemical_formula_sum   'Gd12 Si4 Br12'
_cell_volume   825.93250778
_cell_formula_units_Z   4
loop_
 _symmetry_equiv_pos_site_id
 _symmetry_equiv_pos_as_xyz
  1  'x, y, z'
loop_
 _atom_site_type_symbol
 _atom_site_label
 _atom_site_symmetry_multiplicity
 _atom_site_fract_x
 _atom_site_fract_y
 _atom_site_fract_z
 _atom_site_occupancy
  Gd  Gd0  1  0.47403100  0.48701500  0.23701500  1
  Gd  Gd1  1  0.75000000  0.23701500  0.26298500  1
  Gd  Gd2  1  0.75000000  0.01298500  0.48701500  1
  Gd  Gd3  1  0.23701500  0.47403100  0.48701500  1
  Gd  Gd4  1  0.26298500  0.75000000  0.23701500  1
  Gd  Gd5  1  0.02596900  0.26298500  0.01298500  1
  Gd  Gd6  1  0.01298500  0.02596900  0.26298500  1
  Gd  Gd7  1  0.48701500  0.75000000  0.01298500  1
  Gd  Gd8  1  0.48701500  0.23701500  0.47403100  1
  Gd  Gd9  1  0.01298500  0.48701500  0.75000000  1
  Gd  Gd10  1  0.26298500  0.01298500  0.02596900  1
  Gd  Gd11  1  0.23701500  0.26298500  0.75000000  1
  Si  Si12  1  0.25000000  0.25000000  0.25000000  1
  Si  Si13  1  0.50000000  0.00000000  0.25000000  1
  Si  Si14  1  0.00000000  0.25000000  0.50000000  1
  Si  Si15  1  0.25000000  0.50000000  0.00000000  1
  Br  Br16  1  0.25000000  0.75471400  0.74528600  1
  Br  Br17  1  0.50942700  0.50471400  0.75471400  1
  Br  Br18  1  0.99057200  0.74528600  0.99528600  1
  Br  Br19  1  0.74528600  0.25000000  0.75471400  1
  Br  Br20  1  0.99528600  0.99057200  0.74528600  1
  Br  Br21  1  0.25000000  0.99528600  0.50471400  1
  Br  Br22  1  0.75471400  0.50942700  0.50471400  1
  Br  Br23  1  0.50471400  0.25000000  0.99528600  1
  Br  Br24  1  0.75471400  0.74528600  0.25000000  1
  Br  Br25  1  0.74528600  0.99528600  0.99057300  1
  Br  Br26  1  0.99528600  0.50471400  0.25000000  1
  Br  Br27  1  0.50471400  0.75471400  0.50942700  1
