# generated using pymatgen
data_AlPH9(CCl)3
_symmetry_space_group_name_H-M   'P 1'
_cell_length_a   6.77471558
_cell_length_b   8.04033414
_cell_length_c   10.87804700
_cell_angle_alpha   90.00000000
_cell_angle_beta   90.00000000
_cell_angle_gamma   113.59926283
_symmetry_Int_Tables_number   1
_chemical_formula_structural   AlPH9(CCl)3
_chemical_formula_sum   'Al2 P2 H18 C6 Cl6'
_cell_volume   542.98265147
_cell_formula_units_Z   2
loop_
 _symmetry_equiv_pos_site_id
 _symmetry_equiv_pos_as_xyz
  1  'x, y, z'
loop_
 _atom_site_type_symbol
 _atom_site_label
 _atom_site_symmetry_multiplicity
 _atom_site_fract_x
 _atom_site_fract_y
 _atom_site_fract_z
 _atom_site_occupancy
  Al  Al0  1  0.40198400  0.92487500  0.75000000  1
  Al  Al1  1  0.59801600  0.07512500  0.25000000  1
  P  P2  1  0.42818800  0.23568200  0.75000000  1
  P  P3  1  0.57181200  0.76431800  0.25000000  1
  H  H4  1  0.37193600  0.25869200  0.53222000  1
  H  H5  1  0.62806400  0.74130800  0.03222000  1
  H  H6  1  0.62806400  0.74130800  0.46778000  1
  H  H7  1  0.37193600  0.25869200  0.96778000  1
  H  H8  1  0.12712600  0.19587000  0.61673500  1
  H  H9  1  0.87287400  0.80413000  0.11673500  1
  H  H10  1  0.87287400  0.80413000  0.38326500  1
  H  H11  1  0.12712600  0.19587000  0.88326500  1
  H  H12  1  0.31899700  0.42694800  0.61870800  1
  H  H13  1  0.68100300  0.57305200  0.11870800  1
  H  H14  1  0.68100300  0.57305200  0.38129200  1
  H  H15  1  0.31899700  0.42694800  0.88129200  1
  H  H16  1  0.70793400  0.54039400  0.75000000  1
  H  H17  1  0.29206600  0.45960600  0.25000000  1
  H  H18  1  0.78831000  0.38496700  0.83217900  1
  H  H19  1  0.21169000  0.61503300  0.33217900  1
  H  H20  1  0.21169000  0.61503300  0.16782100  1
  H  H21  1  0.78831000  0.38496700  0.66782100  1
  C  C22  1  0.29934300  0.28438000  0.61638300  1
  C  C23  1  0.70065700  0.71562000  0.11638300  1
  C  C24  1  0.70065700  0.71562000  0.38361700  1
  C  C25  1  0.29934300  0.28438000  0.88361700  1
  C  C26  1  0.70492800  0.40254400  0.75000000  1
  C  C27  1  0.29507200  0.59745600  0.25000000  1
  Cl  Cl28  1  0.22933500  0.79259900  0.58758300  1
  Cl  Cl29  1  0.77066500  0.20740100  0.08758300  1
  Cl  Cl30  1  0.77066500  0.20740100  0.41241700  1
  Cl  Cl31  1  0.22933500  0.79259900  0.91241700  1
  Cl  Cl32  1  0.72023700  0.92673900  0.75000000  1
  Cl  Cl33  1  0.27976300  0.07326100  0.25000000  1
