# generated using pymatgen
data_TlV3Cd4O12
_symmetry_space_group_name_H-M   'P 1'
_cell_length_a   9.55903905
_cell_length_b   9.55903905
_cell_length_c   7.19827122
_cell_angle_alpha   72.87736035
_cell_angle_beta   72.87736035
_cell_angle_gamma   92.07472696
_symmetry_Int_Tables_number   1
_chemical_formula_structural   TlV3Cd4O12
_chemical_formula_sum   'Tl2 V6 Cd8 O24'
_cell_volume   595.26681284
_cell_formula_units_Z   2
loop_
 _symmetry_equiv_pos_site_id
 _symmetry_equiv_pos_as_xyz
  1  'x, y, z'
loop_
 _atom_site_type_symbol
 _atom_site_label
 _atom_site_symmetry_multiplicity
 _atom_site_fract_x
 _atom_site_fract_y
 _atom_site_fract_z
 _atom_site_occupancy
  Tl  Tl0  1  0.97900700  0.02400200  0.74896000  1
  Tl  Tl1  1  0.02400200  0.97900700  0.24896000  1
  V  V2  1  0.70363600  0.29693700  0.75037300  1
  V  V3  1  0.29693700  0.70363600  0.25037300  1
  V  V4  1  0.12802000  0.35210900  0.86127300  1
  V  V5  1  0.64893700  0.87264800  0.63709600  1
  V  V6  1  0.87264800  0.64893700  0.13709600  1
  V  V7  1  0.35210900  0.12802000  0.36127300  1
  Cd  Cd8  1  0.93921300  0.61912300  0.64294400  1
  Cd  Cd9  1  0.37957100  0.06375600  0.85594400  1
  Cd  Cd10  1  0.06375600  0.37957100  0.35594400  1
  Cd  Cd11  1  0.61912300  0.93921300  0.14294400  1
  Cd  Cd12  1  0.26284200  0.73636800  0.75193200  1
  Cd  Cd13  1  0.73636800  0.26284200  0.25193200  1
  Cd  Cd14  1  0.51258600  0.52137900  0.52665000  1
  Cd  Cd15  1  0.52137900  0.51258600  0.02665000  1
  O  O16  1  0.71469500  0.47746500  0.76967200  1
  O  O17  1  0.52643700  0.28510200  0.72774300  1
  O  O18  1  0.28510200  0.52643800  0.22774300  1
  O  O19  1  0.47746500  0.71469500  0.26967200  1
  O  O20  1  0.28555900  0.48457000  0.79026500  1
  O  O21  1  0.51947800  0.70886300  0.70656800  1
  O  O22  1  0.70886300  0.51947800  0.20656800  1
  O  O23  1  0.48457000  0.28555900  0.29026500  1
  O  O24  1  0.99364800  0.33177900  0.09987400  1
  O  O25  1  0.66987400  0.00625100  0.39943900  1
  O  O26  1  0.00625100  0.66987400  0.89943900  1
  O  O27  1  0.33177900  0.99364800  0.59987400  1
  O  O28  1  0.81992500  0.26854000  0.53024200  1
  O  O29  1  0.73156100  0.17930900  0.96950000  1
  O  O30  1  0.17930900  0.73156100  0.46950000  1
  O  O31  1  0.26854000  0.81992500  0.03024200  1
  O  O32  1  0.03910900  0.39880400  0.67751500  1
  O  O33  1  0.60091000  0.95975000  0.82221100  1
  O  O34  1  0.95975000  0.60091000  0.32221100  1
  O  O35  1  0.39880400  0.03910900  0.17751500  1
  O  O36  1  0.17790100  0.17851800  0.87209000  1
  O  O37  1  0.82061900  0.82114000  0.62891000  1
  O  O38  1  0.82114000  0.82061900  0.12891000  1
  O  O39  1  0.17851800  0.17790100  0.37209000  1
