# generated using pymatgen
data_RbV3Cd4O12
_symmetry_space_group_name_H-M   'P 1'
_cell_length_a   9.56836376
_cell_length_b   9.56836376
_cell_length_c   7.19674131
_cell_angle_alpha   72.90053309
_cell_angle_beta   72.90053309
_cell_angle_gamma   91.96468246
_symmetry_Int_Tables_number   1
_chemical_formula_structural   RbV3Cd4O12
_chemical_formula_sum   'Rb2 V6 Cd8 O24'
_cell_volume   596.64352581
_cell_formula_units_Z   2
loop_
 _symmetry_equiv_pos_site_id
 _symmetry_equiv_pos_as_xyz
  1  'x, y, z'
loop_
 _atom_site_type_symbol
 _atom_site_label
 _atom_site_symmetry_multiplicity
 _atom_site_fract_x
 _atom_site_fract_y
 _atom_site_fract_z
 _atom_site_occupancy
  Rb  Rb0  1  0.97403600  0.02720600  0.74962200  1
  Rb  Rb1  1  0.02720600  0.97403600  0.24962200  1
  V  V2  1  0.70339300  0.29639600  0.75044500  1
  V  V3  1  0.29639600  0.70339300  0.25044500  1
  V  V4  1  0.12952300  0.35115800  0.85926600  1
  V  V5  1  0.64992900  0.87187900  0.63921500  1
  V  V6  1  0.87187900  0.64992900  0.13921500  1
  V  V7  1  0.35115800  0.12952300  0.35926600  1
  Cd  Cd8  1  0.26385300  0.73538500  0.75162300  1
  Cd  Cd9  1  0.73538500  0.26385300  0.25162300  1
  Cd  Cd10  1  0.93851700  0.61518800  0.64931100  1
  Cd  Cd11  1  0.38338300  0.06392100  0.84996300  1
  Cd  Cd12  1  0.06392100  0.38338300  0.34996300  1
  Cd  Cd13  1  0.61518800  0.93851700  0.14931100  1
  Cd  Cd14  1  0.51372700  0.52382300  0.53009700  1
  Cd  Cd15  1  0.52382300  0.51372700  0.03009700  1
  O  O16  1  0.18207200  0.18010400  0.86796400  1
  O  O17  1  0.81958700  0.81751800  0.63247500  1
  O  O18  1  0.81751800  0.81958700  0.13247500  1
  O  O19  1  0.18010400  0.18207200  0.36796400  1
  O  O20  1  0.71449700  0.47601300  0.77287200  1
  O  O21  1  0.52753900  0.28523600  0.72560000  1
  O  O22  1  0.28523600  0.52753900  0.22560000  1
  O  O23  1  0.47601300  0.71449700  0.27287200  1
  O  O24  1  0.82106300  0.26995900  0.53016900  1
  O  O25  1  0.73005900  0.17807200  0.96971600  1
  O  O26  1  0.17807200  0.73005900  0.46971600  1
  O  O27  1  0.26995900  0.82106300  0.03016900  1
  O  O28  1  0.99421200  0.32967000  0.09792500  1
  O  O29  1  0.67142200  0.00543100  0.40193700  1
  O  O30  1  0.00543100  0.67142200  0.90193700  1
  O  O31  1  0.32967000  0.99421200  0.59792500  1
  O  O32  1  0.28547700  0.48447400  0.78920700  1
  O  O33  1  0.51859600  0.71005100  0.70870700  1
  O  O34  1  0.71005100  0.51859600  0.20870700  1
  O  O35  1  0.48447400  0.28547700  0.28920700  1
  O  O36  1  0.04060900  0.39714500  0.67499000  1
  O  O37  1  0.60288200  0.95839300  0.82469700  1
  O  O38  1  0.95839300  0.60288200  0.32469700  1
  O  O39  1  0.39714500  0.04060900  0.17499000  1
