# generated using pymatgen
data_Ce2(Si2Pd7)3
_symmetry_space_group_name_H-M   'P 1'
_cell_length_a   8.68202818
_cell_length_b   8.68202818
_cell_length_c   8.68202818
_cell_angle_alpha   60.00000000
_cell_angle_beta   60.00000000
_cell_angle_gamma   60.00000000
_symmetry_Int_Tables_number   1
_chemical_formula_structural   Ce2(Si2Pd7)3
_chemical_formula_sum   'Ce2 Si6 Pd21'
_cell_volume   462.75228877
_cell_formula_units_Z   1
loop_
 _symmetry_equiv_pos_site_id
 _symmetry_equiv_pos_as_xyz
  1  'x, y, z'
loop_
 _atom_site_type_symbol
 _atom_site_label
 _atom_site_symmetry_multiplicity
 _atom_site_fract_x
 _atom_site_fract_y
 _atom_site_fract_z
 _atom_site_occupancy
  Ce  Ce0  1  0.75000000  0.75000000  0.75000000  1
  Ce  Ce1  1  0.25000000  0.25000000  0.25000000  1
  Si  Si2  1  0.73679000  0.73679000  0.26321000  1
  Si  Si3  1  0.26321000  0.73679000  0.26321000  1
  Si  Si4  1  0.73679000  0.26321000  0.26321000  1
  Si  Si5  1  0.26321000  0.26321000  0.73679000  1
  Si  Si6  1  0.73679000  0.26321000  0.73679000  1
  Si  Si7  1  0.26321000  0.73679000  0.73679000  1
  Pd  Pd8  1  0.00000000  0.00000000  0.00000000  1
  Pd  Pd9  1  0.61654200  0.61654200  0.15037400  1
  Pd  Pd10  1  0.61654200  0.15037400  0.61654200  1
  Pd  Pd11  1  0.15037400  0.61654200  0.61654200  1
  Pd  Pd12  1  0.61654200  0.61654200  0.61654200  1
  Pd  Pd13  1  0.38345800  0.38345800  0.84962600  1
  Pd  Pd14  1  0.38345800  0.84962600  0.38345800  1
  Pd  Pd15  1  0.84962600  0.38345800  0.38345800  1
  Pd  Pd16  1  0.38345800  0.38345800  0.38345800  1
  Pd  Pd17  1  0.00000000  0.00000000  0.34524800  1
  Pd  Pd18  1  0.65475200  0.00000000  0.34524800  1
  Pd  Pd19  1  0.00000000  0.65475200  0.34524800  1
  Pd  Pd20  1  0.65475200  0.34524800  0.00000000  1
  Pd  Pd21  1  0.00000000  0.34524800  0.00000000  1
  Pd  Pd22  1  0.00000000  0.34524800  0.65475200  1
  Pd  Pd23  1  0.34524800  0.65475200  0.00000000  1
  Pd  Pd24  1  0.34524800  0.00000000  0.65475200  1
  Pd  Pd25  1  0.34524800  0.00000000  0.00000000  1
  Pd  Pd26  1  0.00000000  0.00000000  0.65475200  1
  Pd  Pd27  1  0.00000000  0.65475200  0.00000000  1
  Pd  Pd28  1  0.65475200  0.00000000  0.00000000  1
