# generated using pymatgen
data_Sm2Ga5Cu3
_symmetry_space_group_name_H-M   'P 1'
_cell_length_a   4.20744600
_cell_length_b   4.20744600
_cell_length_c   10.26552000
_cell_angle_alpha   90.00000000
_cell_angle_beta   90.00000000
_cell_angle_gamma   90.00000000
_symmetry_Int_Tables_number   1
_chemical_formula_structural   Sm2Ga5Cu3
_chemical_formula_sum   'Sm2 Ga5 Cu3'
_cell_volume   181.72641327
_cell_formula_units_Z   1
loop_
 _symmetry_equiv_pos_site_id
 _symmetry_equiv_pos_as_xyz
  1  'x, y, z'
loop_
 _atom_site_type_symbol
 _atom_site_label
 _atom_site_symmetry_multiplicity
 _atom_site_fract_x
 _atom_site_fract_y
 _atom_site_fract_z
 _atom_site_occupancy
  Sm  Sm0  1  0.50000000  0.00000000  0.74419700  1
  Sm  Sm1  1  0.00000000  0.50000000  0.25580300  1
  Ga  Ga2  1  0.00000000  0.50000000  0.86287100  1
  Ga  Ga3  1  0.50000000  0.00000000  0.37846900  1
  Ga  Ga4  1  0.50000000  0.00000000  0.13712900  1
  Ga  Ga5  1  0.00000000  0.50000000  0.62153100  1
  Ga  Ga6  1  0.50000000  0.50000000  0.00000000  1
  Cu  Cu7  1  0.00000000  0.00000000  0.50000000  1
  Cu  Cu8  1  0.00000000  0.00000000  0.00000000  1
  Cu  Cu9  1  0.50000000  0.50000000  0.50000000  1
