# generated using pymatgen
data_KBaV3Cd2O11
_symmetry_space_group_name_H-M   'P 1'
_cell_length_a   7.10960700
_cell_length_b   10.60699300
_cell_length_c   18.09184102
_cell_angle_alpha   59.01588929
_cell_angle_beta   90.00000000
_cell_angle_gamma   90.00000000
_symmetry_Int_Tables_number   1
_chemical_formula_structural   KBaV3Cd2O11
_chemical_formula_sum   'K4 Ba4 V12 Cd8 O44'
_cell_volume   1169.65714746
_cell_formula_units_Z   4
loop_
 _symmetry_equiv_pos_site_id
 _symmetry_equiv_pos_as_xyz
  1  'x, y, z'
loop_
 _atom_site_type_symbol
 _atom_site_label
 _atom_site_symmetry_multiplicity
 _atom_site_fract_x
 _atom_site_fract_y
 _atom_site_fract_z
 _atom_site_occupancy
  K  K0  1  0.55999600  0.52302700  0.34694000  1
  K  K1  1  0.94000400  0.52302700  0.84694000  1
  K  K2  1  0.44000400  0.47697300  0.65306000  1
  K  K3  1  0.05999600  0.47697300  0.15306000  1
  Ba  Ba4  1  0.54196200  0.72144900  0.96238400  1
  Ba  Ba5  1  0.95803800  0.72144900  0.46238400  1
  Ba  Ba6  1  0.45803800  0.27855100  0.03761600  1
  Ba  Ba7  1  0.04196200  0.27855100  0.53761600  1
  V  V8  1  0.34303400  0.84374700  0.13736900  1
  V  V9  1  0.15696600  0.84374700  0.63736900  1
  V  V10  1  0.65696600  0.15625300  0.86263100  1
  V  V11  1  0.84303400  0.15625300  0.36263100  1
  V  V12  1  0.02940100  0.67756900  0.27804300  1
  V  V13  1  0.47059900  0.67756900  0.77804300  1
  V  V14  1  0.97059900  0.32243100  0.72195700  1
  V  V15  1  0.52940100  0.32243100  0.22195700  1
  V  V16  1  0.46116800  0.76411800  0.43736300  1
  V  V17  1  0.03883200  0.76411800  0.93736300  1
  V  V18  1  0.53883200  0.23588200  0.56263700  1
  V  V19  1  0.96116800  0.23588200  0.06263700  1
  Cd  Cd20  1  0.83063400  0.88728000  0.07710100  1
  Cd  Cd21  1  0.66936600  0.88728000  0.57710100  1
  Cd  Cd22  1  0.16936600  0.11272000  0.92289900  1
  Cd  Cd23  1  0.33063400  0.11272000  0.42289900  1
  Cd  Cd24  1  0.22616800  0.02856200  0.25662000  1
  Cd  Cd25  1  0.27383200  0.02856200  0.75662000  1
  Cd  Cd26  1  0.77383200  0.97143800  0.74338000  1
  Cd  Cd27  1  0.72616800  0.97143800  0.24338000  1
  O  O28  1  0.30681600  0.92070500  0.39561800  1
  O  O29  1  0.19318400  0.92070500  0.89561800  1
  O  O30  1  0.69318400  0.07929500  0.60438200  1
  O  O31  1  0.80681600  0.07929500  0.10438200  1
  O  O32  1  0.84684400  0.68572800  0.21391400  1
  O  O33  1  0.65315600  0.68572800  0.71391400  1
  O  O34  1  0.15315600  0.31427200  0.78608600  1
  O  O35  1  0.34684400  0.31427200  0.28608600  1
  O  O36  1  0.25317600  0.66995100  0.22792800  1
  O  O37  1  0.24682400  0.66995100  0.72792800  1
  O  O38  1  0.74682400  0.33004900  0.77207200  1
  O  O39  1  0.75317600  0.33004900  0.27207200  1
  O  O40  1  0.15782700  0.93179900  0.06846000  1
  O  O41  1  0.34217300  0.93179900  0.56846000  1
  O  O42  1  0.84217300  0.06820100  0.93154000  1
  O  O43  1  0.65782700  0.06820100  0.43154000  1
  O  O44  1  0.99441200  0.53657100  0.38024800  1
  O  O45  1  0.50558800  0.53657100  0.88024800  1
  O  O46  1  0.00558800  0.46342900  0.61975200  1
  O  O47  1  0.49441200  0.46342900  0.11975200  1
  O  O48  1  0.42124200  0.95191800  0.17725600  1
  O  O49  1  0.07875800  0.95191800  0.67725600  1
  O  O50  1  0.57875800  0.04808200  0.82274400  1
  O  O51  1  0.92124200  0.04808200  0.32274400  1
  O  O52  1  0.02589500  0.84026800  0.28065300  1
  O  O53  1  0.47410500  0.84026800  0.78065300  1
  O  O54  1  0.97410500  0.15973200  0.71934700  1
  O  O55  1  0.52589500  0.15973200  0.21934700  1
  O  O56  1  0.31835500  0.61588100  0.47158600  1
  O  O57  1  0.18164500  0.61588100  0.97158600  1
  O  O58  1  0.68164500  0.38411900  0.52841400  1
  O  O59  1  0.81835500  0.38411900  0.02841400  1
  O  O60  1  0.51966200  0.81867500  0.08141400  1
  O  O61  1  0.98033800  0.81867500  0.58141400  1
  O  O62  1  0.48033800  0.18132500  0.91858600  1
  O  O63  1  0.01966200  0.18132500  0.41858600  1
  O  O64  1  0.59749700  0.73692300  0.52415800  1
  O  O65  1  0.90250300  0.73692300  0.02415800  1
  O  O66  1  0.40250300  0.26307700  0.47584200  1
  O  O67  1  0.09749700  0.26307700  0.97584200  1
  O  O68  1  0.62332100  0.77425400  0.36089000  1
  O  O69  1  0.87667900  0.77425400  0.86089000  1
  O  O70  1  0.37667900  0.22574600  0.63911000  1
  O  O71  1  0.12332100  0.22574600  0.13911000  1
