# generated using pymatgen
data_Na2Si2O5
_symmetry_space_group_name_H-M   'P 1'
_cell_length_a   4.96163200
_cell_length_b   6.48563800
_cell_length_c   15.63427600
_cell_angle_alpha   90.00000000
_cell_angle_beta   90.00000000
_cell_angle_gamma   90.00000000
_symmetry_Int_Tables_number   1
_chemical_formula_structural   Na2Si2O5
_chemical_formula_sum   'Na8 Si8 O20'
_cell_volume   503.10082441
_cell_formula_units_Z   4
loop_
 _symmetry_equiv_pos_site_id
 _symmetry_equiv_pos_as_xyz
  1  'x, y, z'
loop_
 _atom_site_type_symbol
 _atom_site_label
 _atom_site_symmetry_multiplicity
 _atom_site_fract_x
 _atom_site_fract_y
 _atom_site_fract_z
 _atom_site_occupancy
  Na  Na0  1  0.73639700  0.59802700  0.43991000  1
  Na  Na1  1  0.73639700  0.40197300  0.06009000  1
  Na  Na2  1  0.76360300  0.09802700  0.56009000  1
  Na  Na3  1  0.76360300  0.90197300  0.93991000  1
  Na  Na4  1  0.26360300  0.40197300  0.56009000  1
  Na  Na5  1  0.26360300  0.59802700  0.93991000  1
  Na  Na6  1  0.23639700  0.90197300  0.43991000  1
  Na  Na7  1  0.23639700  0.09802700  0.06009000  1
  Si  Si8  1  0.79553800  0.60468200  0.65679200  1
  Si  Si9  1  0.79553800  0.39531800  0.84320800  1
  Si  Si10  1  0.70446200  0.10468200  0.34320800  1
  Si  Si11  1  0.70446200  0.89531800  0.15679200  1
  Si  Si12  1  0.20446200  0.39531800  0.34320800  1
  Si  Si13  1  0.20446200  0.60468200  0.15679200  1
  Si  Si14  1  0.29553800  0.89531800  0.65679200  1
  Si  Si15  1  0.29553800  0.10468200  0.84320800  1
  O  O16  1  0.23887200  0.95229600  0.92183100  1
  O  O17  1  0.23887200  0.04770400  0.57816900  1
  O  O18  1  0.26112800  0.45229600  0.07816900  1
  O  O19  1  0.26112800  0.54770400  0.42183100  1
  O  O20  1  0.76112800  0.04770400  0.07816900  1
  O  O21  1  0.76112800  0.95229600  0.42183100  1
  O  O22  1  0.73887200  0.54770400  0.92183100  1
  O  O23  1  0.73887200  0.45229600  0.57816900  1
  O  O24  1  0.61609000  0.17948800  0.84802600  1
  O  O25  1  0.61609000  0.82051200  0.65197400  1
  O  O26  1  0.88391000  0.67948800  0.15197400  1
  O  O27  1  0.88391000  0.32051200  0.34802600  1
  O  O28  1  0.38391000  0.82051200  0.15197400  1
  O  O29  1  0.38391000  0.17948800  0.34802600  1
  O  O30  1  0.11609000  0.32051200  0.84802600  1
  O  O31  1  0.11609000  0.67948800  0.65197400  1
  O  O32  1  0.73938600  0.50000000  0.75000000  1
  O  O33  1  0.76061400  0.00000000  0.25000000  1
  O  O34  1  0.26061400  0.50000000  0.25000000  1
  O  O35  1  0.23938600  0.00000000  0.75000000  1
