# generated using pymatgen
data_Cs2Hg3(GeS4)2
_symmetry_space_group_name_H-M   'P 1'
_cell_length_a   6.72539400
_cell_length_b   8.09707382
_cell_length_c   9.44745839
_cell_angle_alpha   108.01991149
_cell_angle_beta   92.35219656
_cell_angle_gamma   106.68853211
_symmetry_Int_Tables_number   1
_chemical_formula_structural   Cs2Hg3(GeS4)2
_chemical_formula_sum   'Cs2 Hg3 Ge2 S8'
_cell_volume   463.84105153
_cell_formula_units_Z   1
loop_
 _symmetry_equiv_pos_site_id
 _symmetry_equiv_pos_as_xyz
  1  'x, y, z'
loop_
 _atom_site_type_symbol
 _atom_site_label
 _atom_site_symmetry_multiplicity
 _atom_site_fract_x
 _atom_site_fract_y
 _atom_site_fract_z
 _atom_site_occupancy
  Cs  Cs0  1  0.61039100  0.45889700  0.24246300  1
  Cs  Cs1  1  0.38960900  0.54110300  0.75753700  1
  Hg  Hg2  1  0.81707100  0.07022000  0.38749800  1
  Hg  Hg3  1  0.18292900  0.92978000  0.61250200  1
  Hg  Hg4  1  0.00000000  0.00000000  0.00000000  1
  Ge  Ge5  1  0.24062800  0.84521800  0.24218800  1
  Ge  Ge6  1  0.75937200  0.15478200  0.75781200  1
  S  S7  1  0.44329500  0.13324100  0.83420200  1
  S  S8  1  0.55670500  0.86675900  0.16579800  1
  S  S9  1  0.16662100  0.66107600  0.38016000  1
  S  S10  1  0.83337900  0.33892400  0.61984000  1
  S  S11  1  0.98438200  0.28150300  0.97755300  1
  S  S12  1  0.01561800  0.71849700  0.02244700  1
  S  S13  1  0.21654200  0.12023800  0.37140500  1
  S  S14  1  0.78345800  0.87976200  0.62859500  1
