# generated using pymatgen
data_Nd2P7Rh12
_symmetry_space_group_name_H-M   'P 1'
_cell_length_a   9.66399907
_cell_length_b   9.66399907
_cell_length_c   3.92128700
_cell_angle_alpha   90.00000000
_cell_angle_beta   90.00000000
_cell_angle_gamma   120.00000729
_symmetry_Int_Tables_number   1
_chemical_formula_structural   Nd2P7Rh12
_chemical_formula_sum   'Nd2 P7 Rh12'
_cell_volume   317.15604093
_cell_formula_units_Z   1
loop_
 _symmetry_equiv_pos_site_id
 _symmetry_equiv_pos_as_xyz
  1  'x, y, z'
loop_
 _atom_site_type_symbol
 _atom_site_label
 _atom_site_symmetry_multiplicity
 _atom_site_fract_x
 _atom_site_fract_y
 _atom_site_fract_z
 _atom_site_occupancy
  Nd  Nd0  1  0.33333300  0.66666700  0.74815000  1
  Nd  Nd1  1  0.66666700  0.33333300  0.25185000  1
  P  P2  1  0.00000000  0.00000000  0.50000000  1
  P  P3  1  0.88400800  0.59701600  0.75416700  1
  P  P4  1  0.40298400  0.28699200  0.75416700  1
  P  P5  1  0.71300800  0.11599200  0.75416700  1
  P  P6  1  0.11599200  0.40298400  0.24583300  1
  P  P7  1  0.59701600  0.71300800  0.24583300  1
  P  P8  1  0.28699200  0.88400800  0.24583300  1
  Rh  Rh9  1  0.61850600  0.55305800  0.75077400  1
  Rh  Rh10  1  0.44694200  0.06544900  0.75077400  1
  Rh  Rh11  1  0.93455100  0.38149400  0.75077400  1
  Rh  Rh12  1  0.38149400  0.44694200  0.24922600  1
  Rh  Rh13  1  0.55305800  0.93455100  0.24922600  1
  Rh  Rh14  1  0.06544900  0.61850600  0.24922600  1
  Rh  Rh15  1  0.11036400  0.85031500  0.74999300  1
  Rh  Rh16  1  0.14968500  0.26004900  0.74999300  1
  Rh  Rh17  1  0.73995100  0.88963600  0.74999300  1
  Rh  Rh18  1  0.88963600  0.14968500  0.25000700  1
  Rh  Rh19  1  0.85031500  0.73995100  0.25000700  1
  Rh  Rh20  1  0.26004900  0.11036400  0.25000700  1
