# generated using pymatgen
data_K3La(PO4)2
_symmetry_space_group_name_H-M   'P 1'
_cell_length_a   5.74103500
_cell_length_b   7.61213700
_cell_length_c   9.73823116
_cell_angle_alpha   88.76336121
_cell_angle_beta   90.00000000
_cell_angle_gamma   90.00000000
_symmetry_Int_Tables_number   1
_chemical_formula_structural   K3La(PO4)2
_chemical_formula_sum   'K6 La2 P4 O16'
_cell_volume   425.47662460
_cell_formula_units_Z   2
loop_
 _symmetry_equiv_pos_site_id
 _symmetry_equiv_pos_as_xyz
  1  'x, y, z'
loop_
 _atom_site_type_symbol
 _atom_site_label
 _atom_site_symmetry_multiplicity
 _atom_site_fract_x
 _atom_site_fract_y
 _atom_site_fract_z
 _atom_site_occupancy
  K  K0  1  0.75000000  0.20419000  0.91567100  1
  K  K1  1  0.25000000  0.79581000  0.08432900  1
  K  K2  1  0.75000000  0.64171600  0.59452400  1
  K  K3  1  0.25000000  0.35828400  0.40547600  1
  K  K4  1  0.75000000  0.49226200  0.19026100  1
  K  K5  1  0.25000000  0.50773800  0.80973900  1
  La  La6  1  0.75000000  0.99301700  0.29185100  1
  La  La7  1  0.25000000  0.00698300  0.70814900  1
  P  P8  1  0.75000000  0.19935200  0.57313200  1
  P  P9  1  0.25000000  0.80064800  0.42686800  1
  P  P10  1  0.25000000  0.23565900  0.08515900  1
  P  P11  1  0.75000000  0.76434100  0.91484100  1
  O  O12  1  0.75000000  0.99625000  0.55645500  1
  O  O13  1  0.25000000  0.00375000  0.44354500  1
  O  O14  1  0.75000000  0.28397100  0.42546900  1
  O  O15  1  0.25000000  0.71602900  0.57453100  1
  O  O16  1  0.52797800  0.25643400  0.65296600  1
  O  O17  1  0.02797800  0.74356600  0.34703400  1
  O  O18  1  0.47202200  0.74356600  0.34703400  1
  O  O19  1  0.97202200  0.25643400  0.65296600  1
  O  O20  1  0.47174500  0.15633800  0.15711800  1
  O  O21  1  0.97174500  0.84366200  0.84288200  1
  O  O22  1  0.52825500  0.84366200  0.84288200  1
  O  O23  1  0.02825500  0.15633800  0.15711800  1
  O  O24  1  0.25000000  0.18202700  0.93123700  1
  O  O25  1  0.75000000  0.81797300  0.06876300  1
  O  O26  1  0.25000000  0.43661300  0.09948500  1
  O  O27  1  0.75000000  0.56338700  0.90051500  1
