# generated using pymatgen
data_Tm3Ga2Ge3
_symmetry_space_group_name_H-M   'P 1'
_cell_length_a   7.73845973
_cell_length_b   7.73845973
_cell_length_c   7.73845973
_cell_angle_alpha   119.67103304
_cell_angle_beta   119.67103304
_cell_angle_gamma   90.57073819
_symmetry_Int_Tables_number   1
_chemical_formula_structural   Tm3Ga2Ge3
_chemical_formula_sum   'Tm6 Ga4 Ge6'
_cell_volume   329.29061942
_cell_formula_units_Z   2
loop_
 _symmetry_equiv_pos_site_id
 _symmetry_equiv_pos_as_xyz
  1  'x, y, z'
loop_
 _atom_site_type_symbol
 _atom_site_label
 _atom_site_symmetry_multiplicity
 _atom_site_fract_x
 _atom_site_fract_y
 _atom_site_fract_z
 _atom_site_occupancy
  Tm  Tm0  1  0.66281200  0.16281200  0.82133900  1
  Tm  Tm1  1  0.34147300  0.84147300  0.17866100  1
  Tm  Tm2  1  0.84147300  0.66281200  0.50000000  1
  Tm  Tm3  1  0.16281200  0.34147300  0.50000000  1
  Tm  Tm4  1  0.74530000  0.74530000  0.00000000  1
  Tm  Tm5  1  0.24530000  0.24530000  0.00000000  1
  Ga  Ga6  1  0.95619900  0.45619900  0.77931600  1
  Ga  Ga7  1  0.67688300  0.17688300  0.22068400  1
  Ga  Ga8  1  0.17688300  0.95619900  0.50000000  1
  Ga  Ga9  1  0.45619900  0.67688300  0.50000000  1
  Ge  Ge10  1  0.49428900  0.49428900  0.00000000  1
  Ge  Ge11  1  0.99428900  0.99428900  0.00000000  1
  Ge  Ge12  1  0.04047100  0.54047100  0.20789800  1
  Ge  Ge13  1  0.33257400  0.83257400  0.79210200  1
  Ge  Ge14  1  0.83257400  0.04047100  0.50000000  1
  Ge  Ge15  1  0.54047100  0.33257400  0.50000000  1
