# generated using pymatgen
data_Rb3NpH4O7
_symmetry_space_group_name_H-M   'P 1'
_cell_length_a   6.64239102
_cell_length_b   11.56371900
_cell_length_c   12.24708408
_cell_angle_alpha   90.00000000
_cell_angle_beta   90.89605640
_cell_angle_gamma   90.00000000
_symmetry_Int_Tables_number   1
_chemical_formula_structural   Rb3NpH4O7
_chemical_formula_sum   'Rb12 Np4 H16 O28'
_cell_volume   940.59259265
_cell_formula_units_Z   4
loop_
 _symmetry_equiv_pos_site_id
 _symmetry_equiv_pos_as_xyz
  1  'x, y, z'
loop_
 _atom_site_type_symbol
 _atom_site_label
 _atom_site_symmetry_multiplicity
 _atom_site_fract_x
 _atom_site_fract_y
 _atom_site_fract_z
 _atom_site_occupancy
  Rb  Rb0  1  0.79332300  0.12088300  0.55174000  1
  Rb  Rb1  1  0.29332300  0.37911700  0.05174000  1
  Rb  Rb2  1  0.20667700  0.87911700  0.44826000  1
  Rb  Rb3  1  0.70667700  0.62088300  0.94826000  1
  Rb  Rb4  1  0.76582200  0.27948700  0.25812000  1
  Rb  Rb5  1  0.26582200  0.22051300  0.75812000  1
  Rb  Rb6  1  0.23417800  0.72051300  0.74188000  1
  Rb  Rb7  1  0.73417800  0.77948700  0.24188000  1
  Rb  Rb8  1  0.82777300  0.96100500  0.86358000  1
  Rb  Rb9  1  0.32777300  0.53899500  0.36358000  1
  Rb  Rb10  1  0.17222700  0.03899500  0.13642000  1
  Rb  Rb11  1  0.67222700  0.46100500  0.63642000  1
  Np  Np12  1  0.78154000  0.29385700  0.90838400  1
  Np  Np13  1  0.28154000  0.20614300  0.40838400  1
  Np  Np14  1  0.21846000  0.70614300  0.09161600  1
  Np  Np15  1  0.71846000  0.79385700  0.59161600  1
  H  H16  1  0.05999100  0.48155500  0.86419900  1
  H  H17  1  0.55999100  0.01844500  0.36419900  1
  H  H18  1  0.94000900  0.51844500  0.13580100  1
  H  H19  1  0.44000900  0.98155500  0.63580100  1
  H  H20  1  0.46641300  0.12020600  0.95084800  1
  H  H21  1  0.96641300  0.37979400  0.45084800  1
  H  H22  1  0.53358700  0.87979400  0.04915200  1
  H  H23  1  0.03358700  0.62020600  0.54915200  1
  H  H24  1  0.13487900  0.45674600  0.70657700  1
  H  H25  1  0.63487900  0.04325400  0.20657700  1
  H  H26  1  0.86512100  0.54325300  0.29342300  1
  H  H27  1  0.36512100  0.95674700  0.79342300  1
  H  H28  1  0.16064500  0.42237500  0.58239300  1
  H  H29  1  0.66064500  0.07762500  0.08239300  1
  H  H30  1  0.83935500  0.57762500  0.41760700  1
  H  H31  1  0.33935500  0.92237500  0.91760700  1
  O  O32  1  0.76419000  0.20692000  0.77477000  1
  O  O33  1  0.26419000  0.29308000  0.27477000  1
  O  O34  1  0.23581000  0.79308000  0.22523000  1
  O  O35  1  0.73581000  0.70692000  0.72523000  1
  O  O36  1  0.56010300  0.38718300  0.85972000  1
  O  O37  1  0.06010300  0.11281700  0.35972000  1
  O  O38  1  0.43989700  0.61281700  0.14028000  1
  O  O39  1  0.93989700  0.88718300  0.64028000  1
  O  O40  1  0.80198200  0.38429900  0.04000900  1
  O  O41  1  0.30198200  0.11570100  0.54000900  1
  O  O42  1  0.19801800  0.61570100  0.95999100  1
  O  O43  1  0.69801800  0.88429900  0.45999100  1
  O  O44  1  0.00081300  0.19917700  0.95761500  1
  O  O45  1  0.50081300  0.30082300  0.45761400  1
  O  O46  1  0.99918700  0.80082300  0.04238500  1
  O  O47  1  0.49918700  0.69917700  0.54238500  1
  O  O48  1  0.00549400  0.41980800  0.81730600  1
  O  O49  1  0.50549400  0.08019200  0.31730600  1
  O  O50  1  0.99450600  0.58019200  0.18269400  1
  O  O51  1  0.49450600  0.91980800  0.68269400  1
  O  O52  1  0.55357900  0.16851700  0.99714700  1
  O  O53  1  0.05357900  0.33148300  0.49714700  1
  O  O54  1  0.44642100  0.83148300  0.00285300  1
  O  O55  1  0.94642100  0.66851700  0.50285300  1
  O  O56  1  0.21221900  0.47936500  0.63943700  1
  O  O57  1  0.71221900  0.02063500  0.13943700  1
  O  O58  1  0.78778100  0.52063500  0.36056300  1
  O  O59  1  0.28778100  0.97936500  0.86056300  1
