# generated using pymatgen
data_Sm2FeSbO7
_symmetry_space_group_name_H-M   'P 1'
_cell_length_a   7.41042169
_cell_length_b   7.41042169
_cell_length_c   7.41042169
_cell_angle_alpha   120.39250872
_cell_angle_beta   119.36671018
_cell_angle_gamma   90.21093666
_symmetry_Int_Tables_number   1
_chemical_formula_structural   Sm2FeSbO7
_chemical_formula_sum   'Sm4 Fe2 Sb2 O14'
_cell_volume   288.24172049
_cell_formula_units_Z   2
loop_
 _symmetry_equiv_pos_site_id
 _symmetry_equiv_pos_as_xyz
  1  'x, y, z'
loop_
 _atom_site_type_symbol
 _atom_site_label
 _atom_site_symmetry_multiplicity
 _atom_site_fract_x
 _atom_site_fract_y
 _atom_site_fract_z
 _atom_site_occupancy
  Sm  Sm0  1  0.50000000  0.00000000  0.00000000  1
  Sm  Sm1  1  0.50000000  0.50000000  0.50000000  1
  Sm  Sm2  1  0.50000000  0.00000000  0.50000000  1
  Sm  Sm3  1  0.00000000  0.00000000  0.00000000  1
  Fe  Fe4  1  0.00000000  0.50000000  0.00000000  1
  Fe  Fe5  1  0.00000000  0.00000000  0.50000000  1
  Sb  Sb6  1  0.00000000  0.50000000  0.50000000  1
  Sb  Sb7  1  0.50000000  0.50000000  0.00000000  1
  O  O8  1  0.91435200  0.16435200  0.75000000  1
  O  O9  1  0.32814400  0.57814400  0.75000000  1
  O  O10  1  0.91351300  0.57637900  0.74011400  1
  O  O11  1  0.33626400  0.17339900  0.75988600  1
  O  O12  1  0.91351300  0.17339900  0.33713400  1
  O  O13  1  0.33626400  0.57637900  0.16286600  1
  O  O14  1  0.08564800  0.83564800  0.25000000  1
  O  O15  1  0.67185600  0.42185600  0.25000000  1
  O  O16  1  0.08648700  0.42362100  0.25988600  1
  O  O17  1  0.66373600  0.82660100  0.24011400  1
  O  O18  1  0.08648700  0.82660100  0.66286600  1
  O  O19  1  0.66373600  0.42362100  0.83713400  1
  O  O20  1  0.62338200  0.87338200  0.75000000  1
  O  O21  1  0.37661800  0.12661800  0.25000000  1
