# generated using pymatgen
data_Ba3Ga3P5
_symmetry_space_group_name_H-M   'P 1'
_cell_length_a   12.92897500
_cell_length_b   12.92897500
_cell_length_c   12.92897564
_cell_angle_alpha   69.64630687
_cell_angle_beta   69.64630687
_cell_angle_gamma   69.64630619
_symmetry_Int_Tables_number   1
_chemical_formula_structural   Ba3Ga3P5
_chemical_formula_sum   'Ba18 Ga18 P30'
_cell_volume   1835.39227159
_cell_formula_units_Z   6
loop_
 _symmetry_equiv_pos_site_id
 _symmetry_equiv_pos_as_xyz
  1  'x, y, z'
loop_
 _atom_site_type_symbol
 _atom_site_label
 _atom_site_symmetry_multiplicity
 _atom_site_fract_x
 _atom_site_fract_y
 _atom_site_fract_z
 _atom_site_occupancy
  Ba  Ba0  1  0.14070300  0.22631500  0.64906800  1
  Ba  Ba1  1  0.64906800  0.14070300  0.22631500  1
  Ba  Ba2  1  0.22631500  0.64906800  0.14070300  1
  Ba  Ba3  1  0.14906800  0.72631500  0.64070300  1
  Ba  Ba4  1  0.64070300  0.14906800  0.72631500  1
  Ba  Ba5  1  0.72631500  0.64070300  0.14906800  1
  Ba  Ba6  1  0.85929700  0.77368500  0.35093200  1
  Ba  Ba7  1  0.35093200  0.85929700  0.77368500  1
  Ba  Ba8  1  0.77368500  0.35093200  0.85929700  1
  Ba  Ba9  1  0.85093200  0.27368500  0.35929700  1
  Ba  Ba10  1  0.35929700  0.85093200  0.27368500  1
  Ba  Ba11  1  0.27368500  0.35929700  0.85093200  1
  Ba  Ba12  1  0.39875300  0.39875300  0.39875300  1
  Ba  Ba13  1  0.89875300  0.89875300  0.89875300  1
  Ba  Ba14  1  0.60124700  0.60124700  0.60124700  1
  Ba  Ba15  1  0.10124700  0.10124700  0.10124700  1
  Ba  Ba16  1  0.25000000  0.25000000  0.25000000  1
  Ba  Ba17  1  0.75000000  0.75000000  0.75000000  1
  Ga  Ga18  1  0.08360700  0.57500300  0.48871300  1
  Ga  Ga19  1  0.48871300  0.08360700  0.57500300  1
  Ga  Ga20  1  0.57500300  0.48871300  0.08360700  1
  Ga  Ga21  1  0.98871300  0.07500300  0.58360700  1
  Ga  Ga22  1  0.58360700  0.98871300  0.07500300  1
  Ga  Ga23  1  0.07500300  0.58360700  0.98871300  1
  Ga  Ga24  1  0.91639300  0.42499700  0.51128700  1
  Ga  Ga25  1  0.51128700  0.91639300  0.42499700  1
  Ga  Ga26  1  0.42499700  0.51128700  0.91639300  1
  Ga  Ga27  1  0.01128700  0.92499700  0.41639300  1
  Ga  Ga28  1  0.41639300  0.01128700  0.92499700  1
  Ga  Ga29  1  0.92499700  0.41639300  0.01128700  1
  Ga  Ga30  1  0.97938400  0.52061600  0.25000000  1
  Ga  Ga31  1  0.25000000  0.97938400  0.52061600  1
  Ga  Ga32  1  0.52061600  0.25000000  0.97938400  1
  Ga  Ga33  1  0.75000000  0.02061600  0.47938400  1
  Ga  Ga34  1  0.47938400  0.75000000  0.02061600  1
  Ga  Ga35  1  0.02061600  0.47938400  0.75000000  1
  P  P36  1  0.10975300  0.44686800  0.37721100  1
  P  P37  1  0.37721100  0.10975300  0.44686800  1
  P  P38  1  0.44686800  0.37721100  0.10975300  1
  P  P39  1  0.87721100  0.94686800  0.60975300  1
  P  P40  1  0.60975300  0.87721100  0.94686800  1
  P  P41  1  0.94686800  0.60975300  0.87721100  1
  P  P42  1  0.89024700  0.55313200  0.62278900  1
  P  P43  1  0.62278900  0.89024700  0.55313200  1
  P  P44  1  0.55313200  0.62278900  0.89024700  1
  P  P45  1  0.12278900  0.05313200  0.39024700  1
  P  P46  1  0.39024700  0.12278900  0.05313200  1
  P  P47  1  0.05313200  0.39024700  0.12278900  1
  P  P48  1  0.20516800  0.47160600  0.61438300  1
  P  P49  1  0.61438300  0.20516800  0.47160600  1
  P  P50  1  0.47160600  0.61438300  0.20516800  1
  P  P51  1  0.11438300  0.97160600  0.70516800  1
  P  P52  1  0.70516800  0.11438300  0.97160600  1
  P  P53  1  0.97160600  0.70516800  0.11438300  1
  P  P54  1  0.79483200  0.52839400  0.38561700  1
  P  P55  1  0.38561700  0.79483200  0.52839400  1
  P  P56  1  0.52839400  0.38561700  0.79483200  1
  P  P57  1  0.88561700  0.02839400  0.29483200  1
  P  P58  1  0.29483200  0.88561700  0.02839400  1
  P  P59  1  0.02839400  0.29483200  0.88561700  1
  P  P60  1  0.62453300  0.87546700  0.25000000  1
  P  P61  1  0.25000000  0.62453300  0.87546700  1
  P  P62  1  0.87546700  0.25000000  0.62453300  1
  P  P63  1  0.75000000  0.37546700  0.12453300  1
  P  P64  1  0.12453300  0.75000000  0.37546700  1
  P  P65  1  0.37546700  0.12453300  0.75000000  1
