# generated using pymatgen
data_Ho4CdPd
_symmetry_space_group_name_H-M   'P 1'
_cell_length_a   9.66589655
_cell_length_b   9.66589655
_cell_length_c   9.66589655
_cell_angle_alpha   60.00000000
_cell_angle_beta   60.00000000
_cell_angle_gamma   60.00000000
_symmetry_Int_Tables_number   1
_chemical_formula_structural   Ho4CdPd
_chemical_formula_sum   'Ho16 Cd4 Pd4'
_cell_volume   638.57429276
_cell_formula_units_Z   4
loop_
 _symmetry_equiv_pos_site_id
 _symmetry_equiv_pos_as_xyz
  1  'x, y, z'
loop_
 _atom_site_type_symbol
 _atom_site_label
 _atom_site_symmetry_multiplicity
 _atom_site_fract_x
 _atom_site_fract_y
 _atom_site_fract_z
 _atom_site_occupancy
  Ho  Ho0  1  0.35287400  0.35287400  0.35287400  1
  Ho  Ho1  1  0.35287400  0.35287400  0.94137900  1
  Ho  Ho2  1  0.35287400  0.94137900  0.35287400  1
  Ho  Ho3  1  0.94137900  0.35287400  0.35287400  1
  Ho  Ho4  1  0.81072200  0.18927800  0.18927800  1
  Ho  Ho5  1  0.18927800  0.81072200  0.81072200  1
  Ho  Ho6  1  0.18927800  0.81072200  0.18927800  1
  Ho  Ho7  1  0.81072200  0.18927800  0.81072200  1
  Ho  Ho8  1  0.18927800  0.18927800  0.81072200  1
  Ho  Ho9  1  0.81072200  0.81072200  0.18927800  1
  Ho  Ho10  1  0.93391600  0.56608400  0.56608400  1
  Ho  Ho11  1  0.56608400  0.93391600  0.93391600  1
  Ho  Ho12  1  0.56608400  0.93391600  0.56608400  1
  Ho  Ho13  1  0.93391600  0.56608400  0.93391600  1
  Ho  Ho14  1  0.56608400  0.56608400  0.93391600  1
  Ho  Ho15  1  0.93391600  0.93391600  0.56608400  1
  Cd  Cd16  1  0.58209600  0.58209600  0.58209600  1
  Cd  Cd17  1  0.58209600  0.58209600  0.25371100  1
  Cd  Cd18  1  0.58209600  0.25371100  0.58209600  1
  Cd  Cd19  1  0.25371100  0.58209600  0.58209600  1
  Pd  Pd20  1  0.14365300  0.14365300  0.14365300  1
  Pd  Pd21  1  0.14365300  0.14365300  0.56904100  1
  Pd  Pd22  1  0.14365300  0.56904100  0.14365300  1
  Pd  Pd23  1  0.56904100  0.14365300  0.14365300  1
