# generated using pymatgen
data_CeCoSi3
_symmetry_space_group_name_H-M   'P 1'
_cell_length_a   5.57097287
_cell_length_b   5.57097287
_cell_length_c   5.57097287
_cell_angle_alpha   136.70702210
_cell_angle_beta   136.70702210
_cell_angle_gamma   62.88914141
_symmetry_Int_Tables_number   1
_chemical_formula_structural   CeCoSi3
_chemical_formula_sum   'Ce1 Co1 Si3'
_cell_volume   80.28669451
_cell_formula_units_Z   1
loop_
 _symmetry_equiv_pos_site_id
 _symmetry_equiv_pos_as_xyz
  1  'x, y, z'
loop_
 _atom_site_type_symbol
 _atom_site_label
 _atom_site_symmetry_multiplicity
 _atom_site_fract_x
 _atom_site_fract_y
 _atom_site_fract_z
 _atom_site_occupancy
  Ce  Ce0  1  0.00090100  0.00090100  0.00000000  1
  Co  Co1  1  0.66177200  0.66177200  0.00000000  1
  Si  Si2  1  0.42478500  0.42478500  0.00000000  1
  Si  Si3  1  0.26077100  0.76077100  0.50000000  1
  Si  Si4  1  0.76077100  0.26077100  0.50000000  1
