# generated using pymatgen
data_MnBe12
_symmetry_space_group_name_H-M   'P 1'
_cell_length_a   5.45889558
_cell_length_b   5.45889558
_cell_length_c   5.45889558
_cell_angle_alpha   98.10091993
_cell_angle_beta   98.10091993
_cell_angle_gamma   135.90324784
_symmetry_Int_Tables_number   1
_chemical_formula_structural   MnBe12
_chemical_formula_sum   'Mn1 Be12'
_cell_volume   104.92073143
_cell_formula_units_Z   1
loop_
 _symmetry_equiv_pos_site_id
 _symmetry_equiv_pos_as_xyz
  1  'x, y, z'
loop_
 _atom_site_type_symbol
 _atom_site_label
 _atom_site_symmetry_multiplicity
 _atom_site_fract_x
 _atom_site_fract_y
 _atom_site_fract_z
 _atom_site_occupancy
  Mn  Mn0  1  0.00000000  0.00000000  0.00000000  1
  Be  Be1  1  0.00000000  0.00000000  0.50000000  1
  Be  Be2  1  0.50000000  0.50000000  0.50000000  1
  Be  Be3  1  0.50000000  0.00000000  0.00000000  1
  Be  Be4  1  0.00000000  0.50000000  0.00000000  1
  Be  Be5  1  0.00000000  0.34642600  0.34642600  1
  Be  Be6  1  0.00000000  0.65357400  0.65357400  1
  Be  Be7  1  0.65357400  0.00000000  0.65357400  1
  Be  Be8  1  0.34642600  0.00000000  0.34642600  1
  Be  Be9  1  0.50000000  0.29008700  0.79008700  1
  Be  Be10  1  0.50000000  0.70991300  0.20991300  1
  Be  Be11  1  0.70991300  0.50000000  0.20991300  1
  Be  Be12  1  0.29008700  0.50000000  0.79008700  1
