# generated using pymatgen
data_CoNiPt2
_symmetry_space_group_name_H-M   'P 1'
_cell_length_a   2.70350000
_cell_length_b   2.70350000
_cell_length_c   7.25324200
_cell_angle_alpha   90.00000000
_cell_angle_beta   90.00000000
_cell_angle_gamma   90.00000000
_symmetry_Int_Tables_number   1
_chemical_formula_structural   CoNiPt2
_chemical_formula_sum   'Co1 Ni1 Pt2'
_cell_volume   53.01330931
_cell_formula_units_Z   1
loop_
 _symmetry_equiv_pos_site_id
 _symmetry_equiv_pos_as_xyz
  1  'x, y, z'
loop_
 _atom_site_type_symbol
 _atom_site_label
 _atom_site_symmetry_multiplicity
 _atom_site_fract_x
 _atom_site_fract_y
 _atom_site_fract_z
 _atom_site_occupancy
  Co  Co0  1  0.00000000  0.00000000  0.00000000  1
  Ni  Ni1  1  0.00000000  0.00000000  0.50000000  1
  Pt  Pt2  1  0.50000000  0.50000000  0.75371600  1
  Pt  Pt3  1  0.50000000  0.50000000  0.24628400  1
