# generated using pymatgen
data_LiTmSiO4
_symmetry_space_group_name_H-M   'P 1'
_cell_length_a   4.93885600
_cell_length_b   6.26707200
_cell_length_c   10.84832300
_cell_angle_alpha   90.00000000
_cell_angle_beta   90.00000000
_cell_angle_gamma   90.00000000
_symmetry_Int_Tables_number   1
_chemical_formula_structural   LiTmSiO4
_chemical_formula_sum   'Li4 Tm4 Si4 O16'
_cell_volume   335.77909594
_cell_formula_units_Z   4
loop_
 _symmetry_equiv_pos_site_id
 _symmetry_equiv_pos_as_xyz
  1  'x, y, z'
loop_
 _atom_site_type_symbol
 _atom_site_label
 _atom_site_symmetry_multiplicity
 _atom_site_fract_x
 _atom_site_fract_y
 _atom_site_fract_z
 _atom_site_occupancy
  Li  Li0  1  0.00000000  0.00000000  0.00000000  1
  Li  Li1  1  0.50000000  0.00000000  0.50000000  1
  Li  Li2  1  0.00000000  0.50000000  0.00000000  1
  Li  Li3  1  0.50000000  0.50000000  0.50000000  1
  Tm  Tm4  1  0.98036600  0.75000000  0.27680700  1
  Tm  Tm5  1  0.51963400  0.75000000  0.77680700  1
  Tm  Tm6  1  0.01963400  0.25000000  0.72319300  1
  Tm  Tm7  1  0.48036600  0.25000000  0.22319300  1
  Si  Si8  1  0.41741800  0.75000000  0.08799500  1
  Si  Si9  1  0.08258200  0.75000000  0.58799500  1
  Si  Si10  1  0.58258200  0.25000000  0.91200500  1
  Si  Si11  1  0.91741800  0.25000000  0.41200500  1
  O  O12  1  0.22610900  0.54540300  0.66300600  1
  O  O13  1  0.77389100  0.45459700  0.33699400  1
  O  O14  1  0.27389100  0.54540300  0.16300600  1
  O  O15  1  0.22610900  0.95459700  0.66300600  1
  O  O16  1  0.72610900  0.04540300  0.83699400  1
  O  O17  1  0.25460600  0.25000000  0.90215400  1
  O  O18  1  0.72610900  0.45459700  0.83699400  1
  O  O19  1  0.77389100  0.04540300  0.33699400  1
  O  O20  1  0.74539400  0.75000000  0.09784600  1
  O  O21  1  0.24539400  0.25000000  0.40215400  1
  O  O22  1  0.71257000  0.25000000  0.05067100  1
  O  O23  1  0.75460600  0.75000000  0.59784600  1
  O  O24  1  0.78743000  0.25000000  0.55067100  1
  O  O25  1  0.21257000  0.75000000  0.44932900  1
  O  O26  1  0.28743000  0.75000000  0.94932900  1
  O  O27  1  0.27389100  0.95459700  0.16300600  1
