# generated using pymatgen
data_ThCo9Si2
_symmetry_space_group_name_H-M   'P 1'
_cell_length_a   7.56448245
_cell_length_b   7.56448245
_cell_length_c   7.56448245
_cell_angle_alpha   99.95121773
_cell_angle_beta   99.95121773
_cell_angle_gamma   130.87270976
_symmetry_Int_Tables_number   1
_chemical_formula_structural   ThCo9Si2
_chemical_formula_sum   'Th2 Co18 Si4'
_cell_volume   297.68510205
_cell_formula_units_Z   2
loop_
 _symmetry_equiv_pos_site_id
 _symmetry_equiv_pos_as_xyz
  1  'x, y, z'
loop_
 _atom_site_type_symbol
 _atom_site_label
 _atom_site_symmetry_multiplicity
 _atom_site_fract_x
 _atom_site_fract_y
 _atom_site_fract_z
 _atom_site_occupancy
  Th  Th0  1  0.00000000  0.00000000  0.00000000  1
  Th  Th1  1  0.25000000  0.75000000  0.50000000  1
  Co  Co2  1  0.75000000  0.25000000  0.50000000  1
  Co  Co3  1  0.76736100  0.18570800  0.83068700  1
  Co  Co4  1  0.35502100  0.93667400  0.16931300  1
  Co  Co5  1  0.18667400  0.51736100  0.08165300  1
  Co  Co6  1  0.89497900  0.56429200  0.08165300  1
  Co  Co7  1  0.48263900  0.81332600  0.91834700  1
  Co  Co8  1  0.43570800  0.10502100  0.91834700  1
  Co  Co9  1  0.06332600  0.64497900  0.83068700  1
  Co  Co10  1  0.81429200  0.64497900  0.58165300  1
  Co  Co11  1  0.48263900  0.56429200  0.66931300  1
  Co  Co12  1  0.89497900  0.81332600  0.33068700  1
  Co  Co13  1  0.06332600  0.23263900  0.41834700  1
  Co  Co14  1  0.35502100  0.18570800  0.41834700  1
  Co  Co15  1  0.76736100  0.93667400  0.58165300  1
  Co  Co16  1  0.43570800  0.51736100  0.33068700  1
  Co  Co17  1  0.18667400  0.10502100  0.66931300  1
  Co  Co18  1  0.81429200  0.23263900  0.16931300  1
  Co  Co19  1  0.50000000  0.50000000  0.00000000  1
  Si  Si20  1  0.62500000  0.87500000  0.25000000  1
  Si  Si21  1  0.62500000  0.37500000  0.25000000  1
  Si  Si22  1  0.12500000  0.37500000  0.75000000  1
  Si  Si23  1  0.62500000  0.37500000  0.75000000  1
