# generated using pymatgen
data_LiYSe2
_symmetry_space_group_name_H-M   'P 1'
_cell_length_a   6.92341038
_cell_length_b   6.92341038
_cell_length_c   6.92341124
_cell_angle_alpha   34.21132825
_cell_angle_beta   34.21132825
_cell_angle_gamma   34.21132815
_symmetry_Int_Tables_number   1
_chemical_formula_structural   LiYSe2
_chemical_formula_sum   'Li1 Y1 Se2'
_cell_volume   93.54672405
_cell_formula_units_Z   1
loop_
 _symmetry_equiv_pos_site_id
 _symmetry_equiv_pos_as_xyz
  1  'x, y, z'
loop_
 _atom_site_type_symbol
 _atom_site_label
 _atom_site_symmetry_multiplicity
 _atom_site_fract_x
 _atom_site_fract_y
 _atom_site_fract_z
 _atom_site_occupancy
  Li  Li0  1  0.50000000  0.50000000  0.50000000  1
  Y  Y1  1  0.00000000  0.00000000  0.00000000  1
  Se  Se2  1  0.24889500  0.24889500  0.24889500  1
  Se  Se3  1  0.75110500  0.75110500  0.75110500  1
