# generated using pymatgen
data_Er2CdCu2
_symmetry_space_group_name_H-M   'P 1'
_cell_length_a   7.56436100
_cell_length_b   7.56436100
_cell_length_c   3.61683300
_cell_angle_alpha   90.00000000
_cell_angle_beta   90.00000000
_cell_angle_gamma   90.00000000
_symmetry_Int_Tables_number   1
_chemical_formula_structural   Er2CdCu2
_chemical_formula_sum   'Er4 Cd2 Cu4'
_cell_volume   206.95358323
_cell_formula_units_Z   2
loop_
 _symmetry_equiv_pos_site_id
 _symmetry_equiv_pos_as_xyz
  1  'x, y, z'
loop_
 _atom_site_type_symbol
 _atom_site_label
 _atom_site_symmetry_multiplicity
 _atom_site_fract_x
 _atom_site_fract_y
 _atom_site_fract_z
 _atom_site_occupancy
  Er  Er0  1  0.67744500  0.17744500  0.50000000  1
  Er  Er1  1  0.32255500  0.82255500  0.50000000  1
  Er  Er2  1  0.17744500  0.32255500  0.50000000  1
  Er  Er3  1  0.82255500  0.67744500  0.50000000  1
  Cd  Cd4  1  0.00000000  0.00000000  0.00000000  1
  Cd  Cd5  1  0.50000000  0.50000000  0.00000000  1
  Cu  Cu6  1  0.11696300  0.61696300  0.00000000  1
  Cu  Cu7  1  0.88303700  0.38303700  0.00000000  1
  Cu  Cu8  1  0.61696300  0.88303700  0.00000000  1
  Cu  Cu9  1  0.38303700  0.11696300  0.00000000  1
