# generated using pymatgen
data_K2Mn3(AsO4)3
_symmetry_space_group_name_H-M   'P 1'
_cell_length_a   9.17257003
_cell_length_b   9.17257003
_cell_length_c   7.09954507
_cell_angle_alpha   74.15083857
_cell_angle_beta   74.15083857
_cell_angle_gamma   93.67213306
_symmetry_Int_Tables_number   1
_chemical_formula_structural   K2Mn3(AsO4)3
_chemical_formula_sum   'K4 Mn6 As6 O24'
_cell_volume   546.53693625
_cell_formula_units_Z   2
loop_
 _symmetry_equiv_pos_site_id
 _symmetry_equiv_pos_as_xyz
  1  'x, y, z'
loop_
 _atom_site_type_symbol
 _atom_site_label
 _atom_site_symmetry_multiplicity
 _atom_site_fract_x
 _atom_site_fract_y
 _atom_site_fract_z
 _atom_site_occupancy
  K  K0  1  0.01301500  0.98698500  0.25000000  1
  K  K1  1  0.98698500  0.01301500  0.75000000  1
  K  K2  1  0.50000000  0.50000000  0.50000000  1
  K  K3  1  0.50000000  0.50000000  0.00000000  1
  Mn  Mn4  1  0.93926800  0.61685500  0.63523600  1
  Mn  Mn5  1  0.38314500  0.06073200  0.86476400  1
  Mn  Mn6  1  0.06073200  0.38314500  0.36476400  1
  Mn  Mn7  1  0.61685500  0.93926800  0.13523600  1
  Mn  Mn8  1  0.73843800  0.26156200  0.25000000  1
  Mn  Mn9  1  0.26156200  0.73843800  0.75000000  1
  As  As10  1  0.12356500  0.35140900  0.87511100  1
  As  As11  1  0.64859100  0.87643500  0.62488900  1
  As  As12  1  0.87643500  0.64859100  0.12488900  1
  As  As13  1  0.35140900  0.12356500  0.37511100  1
  As  As14  1  0.72281300  0.27718700  0.75000000  1
  As  As15  1  0.27718700  0.72281300  0.25000000  1
  O  O16  1  0.99082200  0.32294900  0.11465200  1
  O  O17  1  0.67705100  0.00917800  0.38534800  1
  O  O18  1  0.00917800  0.67705100  0.88534800  1
  O  O19  1  0.32294900  0.99082200  0.61465200  1
  O  O20  1  0.18610700  0.17780000  0.87219200  1
  O  O21  1  0.82220000  0.81389300  0.62780800  1
  O  O22  1  0.81389300  0.82220000  0.12780800  1
  O  O23  1  0.17780000  0.18610700  0.37219200  1
  O  O24  1  0.83636300  0.25013800  0.52478400  1
  O  O25  1  0.74986200  0.16363700  0.97521600  1
  O  O26  1  0.16363700  0.74986200  0.47521600  1
  O  O27  1  0.25013800  0.83636300  0.02478400  1
  O  O28  1  0.26830700  0.49421300  0.82726400  1
  O  O29  1  0.50578700  0.73169300  0.67273600  1
  O  O30  1  0.73169300  0.50578700  0.17273600  1
  O  O31  1  0.49421300  0.26830700  0.32726400  1
  O  O32  1  0.03466900  0.40308600  0.68241000  1
  O  O33  1  0.59691400  0.96533100  0.81759000  1
  O  O34  1  0.96533100  0.59691400  0.31759000  1
  O  O35  1  0.40308600  0.03466900  0.18241000  1
  O  O36  1  0.53156100  0.25529900  0.76375400  1
  O  O37  1  0.74470100  0.46843900  0.73624600  1
  O  O38  1  0.46843900  0.74470100  0.23624600  1
  O  O39  1  0.25529900  0.53156100  0.26375400  1
