# generated using pymatgen
data_Ba6Y2Fe4O15
_symmetry_space_group_name_H-M   'P 1'
_cell_length_a   6.07213300
_cell_length_b   8.16756900
_cell_length_c   18.70458687
_cell_angle_alpha   88.90482305
_cell_angle_beta   90.00000000
_cell_angle_gamma   90.00000000
_symmetry_Int_Tables_number   1
_chemical_formula_structural   Ba6Y2Fe4O15
_chemical_formula_sum   'Ba12 Y4 Fe8 O30'
_cell_volume   927.47639590
_cell_formula_units_Z   2
loop_
 _symmetry_equiv_pos_site_id
 _symmetry_equiv_pos_as_xyz
  1  'x, y, z'
loop_
 _atom_site_type_symbol
 _atom_site_label
 _atom_site_symmetry_multiplicity
 _atom_site_fract_x
 _atom_site_fract_y
 _atom_site_fract_z
 _atom_site_occupancy
  Ba  Ba0  1  0.27844900  0.00000000  0.25000000  1
  Ba  Ba1  1  0.72155100  0.00000000  0.75000000  1
  Ba  Ba2  1  0.32715700  0.50000000  0.25000000  1
  Ba  Ba3  1  0.67284300  0.50000000  0.75000000  1
  Ba  Ba4  1  0.75091900  0.97407400  0.08879500  1
  Ba  Ba5  1  0.75091900  0.02592600  0.41120500  1
  Ba  Ba6  1  0.24908100  0.02592600  0.91120500  1
  Ba  Ba7  1  0.24908100  0.97407400  0.58879500  1
  Ba  Ba8  1  0.25007000  0.50095200  0.57745000  1
  Ba  Ba9  1  0.25007000  0.49904800  0.92255000  1
  Ba  Ba10  1  0.74993000  0.49904800  0.42255000  1
  Ba  Ba11  1  0.74993000  0.50095200  0.07745000  1
  Y  Y12  1  0.25188700  0.75364100  0.40919100  1
  Y  Y13  1  0.25188700  0.24635900  0.09080900  1
  Y  Y14  1  0.74811300  0.24635900  0.59080900  1
  Y  Y15  1  0.74811300  0.75364100  0.90919100  1
  Fe  Fe16  1  0.25369600  0.75439500  0.05957300  1
  Fe  Fe17  1  0.25369600  0.24560500  0.44042700  1
  Fe  Fe18  1  0.74630400  0.24560500  0.94042700  1
  Fe  Fe19  1  0.74630400  0.75439500  0.55957300  1
  Fe  Fe20  1  0.77440700  0.76955300  0.26555000  1
  Fe  Fe21  1  0.77440700  0.23044700  0.23445000  1
  Fe  Fe22  1  0.22559300  0.23044700  0.73445000  1
  Fe  Fe23  1  0.22559300  0.76955300  0.76555000  1
  O  O24  1  0.79883600  0.00000000  0.25000000  1
  O  O25  1  0.20116400  0.00000000  0.75000000  1
  O  O26  1  0.76508800  0.95754200  0.60898800  1
  O  O27  1  0.76508800  0.04245800  0.89101200  1
  O  O28  1  0.23491200  0.04245800  0.39101200  1
  O  O29  1  0.23491200  0.95754200  0.10898800  1
  O  O30  1  0.24500400  0.52861900  0.08950200  1
  O  O31  1  0.24500400  0.47138100  0.41049800  1
  O  O32  1  0.75499600  0.47138100  0.91049800  1
  O  O33  1  0.75499600  0.52861900  0.58950200  1
  O  O34  1  0.05300600  0.72387100  0.30677900  1
  O  O35  1  0.05300600  0.27612900  0.19322100  1
  O  O36  1  0.94699400  0.27612900  0.69322100  1
  O  O37  1  0.94699400  0.72387100  0.80677900  1
  O  O38  1  0.55398900  0.74863900  0.33788700  1
  O  O39  1  0.55398900  0.25136100  0.16211300  1
  O  O40  1  0.44601100  0.25136100  0.66211300  1
  O  O41  1  0.44601100  0.74863900  0.83788700  1
  O  O42  1  0.48872400  0.76538500  0.50157300  1
  O  O43  1  0.48872400  0.23461500  0.99842700  1
  O  O44  1  0.51127600  0.23461500  0.49842700  1
  O  O45  1  0.51127600  0.76538500  0.00157300  1
  O  O46  1  0.01315500  0.76904900  0.99268200  1
  O  O47  1  0.01315500  0.23095100  0.50731800  1
  O  O48  1  0.98684500  0.23095100  0.00731800  1
  O  O49  1  0.98684500  0.76904900  0.49268200  1
  O  O50  1  0.33705800  0.69313000  0.68001400  1
  O  O51  1  0.33705800  0.30687000  0.81998600  1
  O  O52  1  0.66294200  0.30687000  0.31998600  1
  O  O53  1  0.66294200  0.69313000  0.18001400  1
