# generated using pymatgen
data_Pr5Ni19
_symmetry_space_group_name_H-M   'P 1'
_cell_length_a   5.01317970
_cell_length_b   5.01317970
_cell_length_c   32.51338200
_cell_angle_alpha   90.00000000
_cell_angle_beta   90.00000000
_cell_angle_gamma   120.04797489
_symmetry_Int_Tables_number   1
_chemical_formula_structural   Pr5Ni19
_chemical_formula_sum   'Pr10 Ni38'
_cell_volume   707.30897689
_cell_formula_units_Z   2
loop_
 _symmetry_equiv_pos_site_id
 _symmetry_equiv_pos_as_xyz
  1  'x, y, z'
loop_
 _atom_site_type_symbol
 _atom_site_label
 _atom_site_symmetry_multiplicity
 _atom_site_fract_x
 _atom_site_fract_y
 _atom_site_fract_z
 _atom_site_occupancy
  Pr  Pr0  1  0.66665100  0.33334900  0.75000000  1
  Pr  Pr1  1  0.33334900  0.66665100  0.25000000  1
  Pr  Pr2  1  0.66667400  0.33332600  0.63283700  1
  Pr  Pr3  1  0.33332600  0.66667400  0.36716300  1
  Pr  Pr4  1  0.33332600  0.66667400  0.13283700  1
  Pr  Pr5  1  0.66667400  0.33332600  0.86716300  1
  Pr  Pr6  1  0.66672200  0.33327800  0.52266700  1
  Pr  Pr7  1  0.33327800  0.66672200  0.47733300  1
  Pr  Pr8  1  0.33327800  0.66672200  0.02266700  1
  Pr  Pr9  1  0.66672200  0.33327800  0.97733300  1
  Ni  Ni10  1  0.00000000  0.00000000  0.50000000  1
  Ni  Ni11  1  0.00000000  0.00000000  0.00000000  1
  Ni  Ni12  1  0.00002200  0.99997800  0.75000000  1
  Ni  Ni13  1  0.99997800  0.00002200  0.25000000  1
  Ni  Ni14  1  0.66668600  0.33331400  0.25000000  1
  Ni  Ni15  1  0.33331400  0.66668600  0.75000000  1
  Ni  Ni16  1  0.99995100  0.00004900  0.62795400  1
  Ni  Ni17  1  0.00004900  0.99995100  0.37204600  1
  Ni  Ni18  1  0.00004900  0.99995100  0.12795400  1
  Ni  Ni19  1  0.99995100  0.00004900  0.87204600  1
  Ni  Ni20  1  0.66665300  0.33334700  0.37265100  1
  Ni  Ni21  1  0.33334700  0.66665300  0.62734900  1
  Ni  Ni22  1  0.33334700  0.66665300  0.87265100  1
  Ni  Ni23  1  0.66665300  0.33334700  0.12734900  1
  Ni  Ni24  1  0.16548700  0.33132600  0.56636500  1
  Ni  Ni25  1  0.16570900  0.83429100  0.56632300  1
  Ni  Ni26  1  0.66867400  0.83451300  0.56636500  1
  Ni  Ni27  1  0.83451300  0.66867400  0.43363500  1
  Ni  Ni28  1  0.83429100  0.16570900  0.43367700  1
  Ni  Ni29  1  0.33132600  0.16548700  0.43363500  1
  Ni  Ni30  1  0.83451300  0.66867400  0.06636500  1
  Ni  Ni31  1  0.83429100  0.16570900  0.06632300  1
  Ni  Ni32  1  0.33132600  0.16548700  0.06636500  1
  Ni  Ni33  1  0.16548700  0.33132600  0.93363500  1
  Ni  Ni34  1  0.16570900  0.83429100  0.93367700  1
  Ni  Ni35  1  0.66867400  0.83451300  0.93363500  1
  Ni  Ni36  1  0.16738200  0.33479200  0.68934300  1
  Ni  Ni37  1  0.16734400  0.83265600  0.68936300  1
  Ni  Ni38  1  0.66520800  0.83261800  0.68934300  1
  Ni  Ni39  1  0.83261800  0.66520800  0.31065700  1
  Ni  Ni40  1  0.83265600  0.16734400  0.31063700  1
  Ni  Ni41  1  0.33479200  0.16738200  0.31065700  1
  Ni  Ni42  1  0.83261800  0.66520800  0.18934300  1
  Ni  Ni43  1  0.83265600  0.16734400  0.18936300  1
  Ni  Ni44  1  0.33479200  0.16738200  0.18934300  1
  Ni  Ni45  1  0.16738200  0.33479200  0.81065700  1
  Ni  Ni46  1  0.16734400  0.83265600  0.81063700  1
  Ni  Ni47  1  0.66520800  0.83261800  0.81065700  1
