# generated using pymatgen
data_Cs3(SeO4)2
_symmetry_space_group_name_H-M   'P 1'
_cell_length_a   6.42872607
_cell_length_b   6.42872607
_cell_length_c   8.62529302
_cell_angle_alpha   71.40723434
_cell_angle_beta   71.40723434
_cell_angle_gamma   60.05269740
_symmetry_Int_Tables_number   1
_chemical_formula_structural   Cs3(SeO4)2
_chemical_formula_sum   'Cs3 Se2 O8'
_cell_volume   287.16917066
_cell_formula_units_Z   1
loop_
 _symmetry_equiv_pos_site_id
 _symmetry_equiv_pos_as_xyz
  1  'x, y, z'
loop_
 _atom_site_type_symbol
 _atom_site_label
 _atom_site_symmetry_multiplicity
 _atom_site_fract_x
 _atom_site_fract_y
 _atom_site_fract_z
 _atom_site_occupancy
  Cs  Cs0  1  0.00000000  0.00000000  0.00000000  1
  Cs  Cs1  1  0.19880200  0.19880200  0.38834000  1
  Cs  Cs2  1  0.80119800  0.80119800  0.61166000  1
  Se  Se3  1  0.43017200  0.43017200  0.76780300  1
  Se  Se4  1  0.56982800  0.56982800  0.23219700  1
  O  O5  1  0.30114600  0.72958100  0.68944400  1
  O  O6  1  0.69885400  0.27041900  0.31055600  1
  O  O7  1  0.27041900  0.69885400  0.31055600  1
  O  O8  1  0.72958100  0.30114600  0.68944400  1
  O  O9  1  0.38745400  0.38745400  0.98018000  1
  O  O10  1  0.61254600  0.61254600  0.01982000  1
  O  O11  1  0.28856400  0.28856400  0.74096500  1
  O  O12  1  0.71143600  0.71143600  0.25903500  1
