# generated using pymatgen
data_SrCoP2O7
_symmetry_space_group_name_H-M   'P 1'
_cell_length_a   8.34136600
_cell_length_b   5.38745500
_cell_length_c   13.96314736
_cell_angle_alpha   67.59180153
_cell_angle_beta   90.00000000
_cell_angle_gamma   90.00000000
_symmetry_Int_Tables_number   1
_chemical_formula_structural   SrCoP2O7
_chemical_formula_sum   'Sr4 Co4 P8 O28'
_cell_volume   580.10562331
_cell_formula_units_Z   4
loop_
 _symmetry_equiv_pos_site_id
 _symmetry_equiv_pos_as_xyz
  1  'x, y, z'
loop_
 _atom_site_type_symbol
 _atom_site_label
 _atom_site_symmetry_multiplicity
 _atom_site_fract_x
 _atom_site_fract_y
 _atom_site_fract_z
 _atom_site_occupancy
  Sr  Sr0  1  0.16388400  0.99095800  0.22211800  1
  Sr  Sr1  1  0.66388400  0.00904200  0.27788200  1
  Sr  Sr2  1  0.83611600  0.00904200  0.77788200  1
  Sr  Sr3  1  0.33611600  0.99095800  0.72211800  1
  Co  Co4  1  0.34988200  0.28601300  0.39526200  1
  Co  Co5  1  0.84988200  0.71398700  0.10473800  1
  Co  Co6  1  0.65011800  0.71398700  0.60473800  1
  Co  Co7  1  0.15011800  0.28601300  0.89526200  1
  P  P8  1  0.29975900  0.66783500  0.52032600  1
  P  P9  1  0.79975900  0.33216500  0.97967400  1
  P  P10  1  0.70024100  0.33216500  0.47967400  1
  P  P11  1  0.20024100  0.66783500  0.02032600  1
  P  P12  1  0.96527400  0.41937500  0.33224900  1
  P  P13  1  0.46527400  0.58062500  0.16775100  1
  P  P14  1  0.03472600  0.58062500  0.66775100  1
  P  P15  1  0.53472600  0.41937500  0.83224900  1
  O  O16  1  0.31065200  0.88950100  0.41170700  1
  O  O17  1  0.81065200  0.11049900  0.08829300  1
  O  O18  1  0.68934800  0.11049900  0.58829300  1
  O  O19  1  0.18934800  0.88950100  0.91170700  1
  O  O20  1  0.16851600  0.38119400  0.02601800  1
  O  O21  1  0.66851600  0.61880600  0.47398200  1
  O  O22  1  0.83148400  0.61880600  0.97398200  1
  O  O23  1  0.33148400  0.38119400  0.52601800  1
  O  O24  1  0.44165900  0.80344500  0.20839100  1
  O  O25  1  0.94165900  0.19655500  0.29160900  1
  O  O26  1  0.55834100  0.19655500  0.79160900  1
  O  O27  1  0.05834100  0.80344500  0.70839100  1
  O  O28  1  0.38582600  0.67986500  0.05342800  1
  O  O29  1  0.88582600  0.32013500  0.44657200  1
  O  O30  1  0.61417400  0.32013500  0.94657200  1
  O  O31  1  0.11417400  0.67986500  0.55342800  1
  O  O32  1  0.35918200  0.47933900  0.84672700  1
  O  O33  1  0.85918200  0.52066100  0.65327300  1
  O  O34  1  0.64081800  0.52066100  0.15327300  1
  O  O35  1  0.14081800  0.47933900  0.34672700  1
  O  O36  1  0.40314700  0.73286000  0.59979200  1
  O  O37  1  0.90314700  0.26714000  0.90020800  1
  O  O38  1  0.59685300  0.26714000  0.40020800  1
  O  O39  1  0.09685300  0.73286000  0.09979200  1
  O  O40  1  0.11773800  0.31618900  0.73618600  1
  O  O41  1  0.61773800  0.68381100  0.76381400  1
  O  O42  1  0.88226200  0.68381100  0.26381400  1
  O  O43  1  0.38226200  0.31618900  0.23618600  1
