# generated using pymatgen
data_NaCa9Mn(PO4)7
_symmetry_space_group_name_H-M   'P 1'
_cell_length_a   13.87873819
_cell_length_b   13.87873819
_cell_length_c   13.87873833
_cell_angle_alpha   44.37285670
_cell_angle_beta   44.37285670
_cell_angle_gamma   44.37286158
_symmetry_Int_Tables_number   1
_chemical_formula_structural   NaCa9Mn(PO4)7
_chemical_formula_sum   'Na2 Ca18 Mn2 P14 O56'
_cell_volume   1188.39670152
_cell_formula_units_Z   2
loop_
 _symmetry_equiv_pos_site_id
 _symmetry_equiv_pos_as_xyz
  1  'x, y, z'
loop_
 _atom_site_type_symbol
 _atom_site_label
 _atom_site_symmetry_multiplicity
 _atom_site_fract_x
 _atom_site_fract_y
 _atom_site_fract_z
 _atom_site_occupancy
  Na  Na0  1  0.68683000  0.68683000  0.68683000  1
  Na  Na1  1  0.18683000  0.18683000  0.18683000  1
  Ca  Ca2  1  0.94708500  0.55931500  0.97206600  1
  Ca  Ca3  1  0.16028600  0.56423500  0.57519600  1
  Ca  Ca4  1  0.57519600  0.16028600  0.56423500  1
  Ca  Ca5  1  0.55931500  0.97206600  0.94708500  1
  Ca  Ca6  1  0.97206600  0.94708500  0.55931500  1
  Ca  Ca7  1  0.47206600  0.05931500  0.44708500  1
  Ca  Ca8  1  0.05931500  0.44708500  0.47206600  1
  Ca  Ca9  1  0.44708500  0.47206600  0.05931500  1
  Ca  Ca10  1  0.34862700  0.90768600  0.93967500  1
  Ca  Ca11  1  0.90768600  0.93967500  0.34862700  1
  Ca  Ca12  1  0.56423500  0.57519600  0.16028600  1
  Ca  Ca13  1  0.43967500  0.40768600  0.84862700  1
  Ca  Ca14  1  0.40768600  0.84862700  0.43967500  1
  Ca  Ca15  1  0.84862700  0.43967500  0.40768600  1
  Ca  Ca16  1  0.66028600  0.07519600  0.06423500  1
  Ca  Ca17  1  0.07519600  0.06423500  0.66028600  1
  Ca  Ca18  1  0.06423500  0.66028600  0.07519600  1
  Ca  Ca19  1  0.93967500  0.34862700  0.90768600  1
  Mn  Mn20  1  0.00104400  0.00104400  0.00104400  1
  Mn  Mn21  1  0.50104400  0.50104400  0.50104400  1
  P  P22  1  0.80923900  0.32552200  0.77064200  1
  P  P23  1  0.22678400  0.18384400  0.68613800  1
  P  P24  1  0.18384400  0.68613800  0.22678400  1
  P  P25  1  0.68613800  0.22678400  0.18384400  1
  P  P26  1  0.32552200  0.77064200  0.80923900  1
  P  P27  1  0.77064200  0.80923900  0.32552200  1
  P  P28  1  0.72678400  0.18613800  0.68384400  1
  P  P29  1  0.30923900  0.27064200  0.82552200  1
  P  P30  1  0.27064200  0.82552200  0.30923900  1
  P  P31  1  0.82552200  0.30923900  0.27064200  1
  P  P32  1  0.76650200  0.76650200  0.76650200  1
  P  P33  1  0.26650200  0.26650200  0.26650200  1
  P  P34  1  0.68384400  0.72678400  0.18613800  1
  P  P35  1  0.18613800  0.68384400  0.72678400  1
  O  O36  1  0.11432600  0.67068900  0.69023600  1
  O  O37  1  0.67068900  0.69023600  0.11432600  1
  O  O38  1  0.69023600  0.11432600  0.67068900  1
  O  O39  1  0.19023600  0.17068900  0.61432600  1
  O  O40  1  0.17068900  0.61432600  0.19023600  1
  O  O41  1  0.61432600  0.19023600  0.17068900  1
  O  O42  1  0.36282000  0.61827300  0.64005800  1
  O  O43  1  0.61827300  0.64005800  0.36282000  1
  O  O44  1  0.64005800  0.36282000  0.61827300  1
  O  O45  1  0.14005800  0.11827300  0.86282000  1
  O  O46  1  0.11827300  0.86282000  0.14005800  1
  O  O47  1  0.86282000  0.14005800  0.11827300  1
  O  O48  1  0.12660500  0.85402000  0.67306100  1
  O  O49  1  0.85402000  0.67306100  0.12660500  1
  O  O50  1  0.67306100  0.12660500  0.85402000  1
  O  O51  1  0.17306100  0.35402000  0.62660500  1
  O  O52  1  0.35402000  0.62660500  0.17306100  1
  O  O53  1  0.62660500  0.17306100  0.35402000  1
  O  O54  1  0.14487300  0.58885800  0.89945900  1
  O  O55  1  0.58885800  0.89945900  0.14487300  1
  O  O56  1  0.89945900  0.14487300  0.58885800  1
  O  O57  1  0.39945900  0.08885800  0.64487300  1
  O  O58  1  0.38296000  0.84456700  0.63558400  1
  O  O59  1  0.08885800  0.64487300  0.39945900  1
  O  O60  1  0.14950400  0.86942100  0.87555300  1
  O  O61  1  0.86942100  0.87555300  0.14950400  1
  O  O62  1  0.87555300  0.14950400  0.86942100  1
  O  O63  1  0.37555300  0.36942100  0.64950400  1
  O  O64  1  0.36942100  0.64950400  0.37555300  1
  O  O65  1  0.64950400  0.37555300  0.36942100  1
  O  O66  1  0.33807300  0.60827500  0.89253900  1
  O  O67  1  0.60827500  0.89253900  0.33807300  1
  O  O68  1  0.89253900  0.33807300  0.60827500  1
  O  O69  1  0.39253900  0.10827500  0.83807300  1
  O  O70  1  0.10827500  0.83807300  0.39253900  1
  O  O71  1  0.83807300  0.39253900  0.10827500  1
  O  O72  1  0.30785700  0.30785700  0.30785700  1
  O  O73  1  0.80785700  0.80785700  0.80785700  1
  O  O74  1  0.25472800  0.11133400  0.39206600  1
  O  O75  1  0.39206600  0.25472800  0.11133400  1
  O  O76  1  0.11133400  0.39206600  0.25472800  1
  O  O77  1  0.61133400  0.75472800  0.89206600  1
  O  O78  1  0.89206600  0.61133400  0.75472800  1
  O  O79  1  0.75472800  0.89206600  0.61133400  1
  O  O80  1  0.91488900  0.35155300  0.25540100  1
  O  O81  1  0.25540100  0.91488900  0.35155300  1
  O  O82  1  0.35155300  0.25540100  0.91488900  1
  O  O83  1  0.85155300  0.41488900  0.75540100  1
  O  O84  1  0.75540100  0.85155300  0.41488900  1
  O  O85  1  0.41488900  0.75540100  0.85155300  1
  O  O86  1  0.88296000  0.13558400  0.34456700  1
  O  O87  1  0.34456700  0.88296000  0.13558400  1
  O  O88  1  0.13558400  0.34456700  0.88296000  1
  O  O89  1  0.63558400  0.38296000  0.84456700  1
  O  O90  1  0.84456700  0.63558400  0.38296000  1
  O  O91  1  0.64487300  0.39945900  0.08885800  1
