# generated using pymatgen
data_Hf9Re4Si
_symmetry_space_group_name_H-M   'P 1'
_cell_length_a   8.56037456
_cell_length_b   8.56037456
_cell_length_c   8.69944300
_cell_angle_alpha   90.00000000
_cell_angle_beta   90.00000000
_cell_angle_gamma   120.00000435
_symmetry_Int_Tables_number   1
_chemical_formula_structural   Hf9Re4Si
_chemical_formula_sum   'Hf18 Re8 Si2'
_cell_volume   552.08709447
_cell_formula_units_Z   2
loop_
 _symmetry_equiv_pos_site_id
 _symmetry_equiv_pos_as_xyz
  1  'x, y, z'
loop_
 _atom_site_type_symbol
 _atom_site_label
 _atom_site_symmetry_multiplicity
 _atom_site_fract_x
 _atom_site_fract_y
 _atom_site_fract_z
 _atom_site_occupancy
  Hf  Hf0  1  0.19550100  0.80449900  0.45302100  1
  Hf  Hf1  1  0.19550100  0.39100200  0.45302100  1
  Hf  Hf2  1  0.60899800  0.80449900  0.45302100  1
  Hf  Hf3  1  0.80449900  0.19550100  0.54697900  1
  Hf  Hf4  1  0.80449900  0.60899800  0.54697900  1
  Hf  Hf5  1  0.39100200  0.19550100  0.54697900  1
  Hf  Hf6  1  0.80449900  0.19550100  0.95302100  1
  Hf  Hf7  1  0.80449900  0.60899800  0.95302100  1
  Hf  Hf8  1  0.39100200  0.19550100  0.95302100  1
  Hf  Hf9  1  0.19550100  0.80449900  0.04697900  1
  Hf  Hf10  1  0.19550100  0.39100200  0.04697900  1
  Hf  Hf11  1  0.60899800  0.80449900  0.04697900  1
  Hf  Hf12  1  0.53943400  0.46056600  0.25000000  1
  Hf  Hf13  1  0.53943400  0.07886700  0.25000000  1
  Hf  Hf14  1  0.92113300  0.46056600  0.25000000  1
  Hf  Hf15  1  0.46056600  0.53943400  0.75000000  1
  Hf  Hf16  1  0.46056600  0.92113300  0.75000000  1
  Hf  Hf17  1  0.07886700  0.53943400  0.75000000  1
  Re  Re18  1  0.89090400  0.10909600  0.25000000  1
  Re  Re19  1  0.89090400  0.78180700  0.25000000  1
  Re  Re20  1  0.21819300  0.10909600  0.25000000  1
  Re  Re21  1  0.10909600  0.89090400  0.75000000  1
  Re  Re22  1  0.10909600  0.21819300  0.75000000  1
  Re  Re23  1  0.78180700  0.89090400  0.75000000  1
  Re  Re24  1  0.00000000  0.00000000  0.50000000  1
  Re  Re25  1  0.00000000  0.00000000  0.00000000  1
  Si  Si26  1  0.33333300  0.66666700  0.25000000  1
  Si  Si27  1  0.66666700  0.33333300  0.75000000  1
