# generated using pymatgen
data_V2Pb14Cl4O17
_symmetry_space_group_name_H-M   'P 1'
_cell_length_a   13.28578840
_cell_length_b   13.28578840
_cell_length_c   11.51694464
_cell_angle_alpha   76.95809200
_cell_angle_beta   76.95809200
_cell_angle_gamma   121.97340194
_symmetry_Int_Tables_number   1
_chemical_formula_structural   V2Pb14Cl4O17
_chemical_formula_sum   'V4 Pb28 Cl8 O34'
_cell_volume   1526.45306524
_cell_formula_units_Z   2
loop_
 _symmetry_equiv_pos_site_id
 _symmetry_equiv_pos_as_xyz
  1  'x, y, z'
loop_
 _atom_site_type_symbol
 _atom_site_label
 _atom_site_symmetry_multiplicity
 _atom_site_fract_x
 _atom_site_fract_y
 _atom_site_fract_z
 _atom_site_occupancy
  V  V0  1  0.18916900  0.54414200  0.17469400  1
  V  V1  1  0.45585800  0.81083100  0.32530600  1
  V  V2  1  0.81083100  0.45585800  0.82530600  1
  V  V3  1  0.54414200  0.18916900  0.67469400  1
  Pb  Pb4  1  0.97072300  0.80101000  0.18043900  1
  Pb  Pb5  1  0.19899000  0.02927700  0.31956100  1
  Pb  Pb6  1  0.02927700  0.19899000  0.81956100  1
  Pb  Pb7  1  0.80101000  0.97072300  0.68043900  1
  Pb  Pb8  1  0.71817200  0.54133800  0.07714600  1
  Pb  Pb9  1  0.45866200  0.28182800  0.42285400  1
  Pb  Pb10  1  0.28182800  0.45866200  0.92285400  1
  Pb  Pb11  1  0.54133800  0.71817200  0.57714600  1
  Pb  Pb12  1  0.29112400  0.45003200  0.45535500  1
  Pb  Pb13  1  0.54996800  0.70887600  0.04464500  1
  Pb  Pb14  1  0.70887600  0.54996800  0.54464500  1
  Pb  Pb15  1  0.45003200  0.29112400  0.95535500  1
  Pb  Pb16  1  0.03842000  0.20663700  0.30625800  1
  Pb  Pb17  1  0.79336300  0.96158000  0.19374200  1
  Pb  Pb18  1  0.96158000  0.79336300  0.69374200  1
  Pb  Pb19  1  0.20663700  0.03842000  0.80625800  1
  Pb  Pb20  1  0.83913300  0.45270900  0.30082700  1
  Pb  Pb21  1  0.54729100  0.16086700  0.19917300  1
  Pb  Pb22  1  0.16086700  0.54729100  0.69917300  1
  Pb  Pb23  1  0.45270900  0.83913300  0.80082700  1
  Pb  Pb24  1  0.07686100  0.68243500  0.41999800  1
  Pb  Pb25  1  0.31756500  0.92313900  0.08000200  1
  Pb  Pb26  1  0.92313900  0.31756500  0.58000200  1
  Pb  Pb27  1  0.68243500  0.07686100  0.91999800  1
  Pb  Pb28  1  0.90614800  0.29637100  0.06056700  1
  Pb  Pb29  1  0.70362900  0.09385200  0.43943300  1
  Pb  Pb30  1  0.09385200  0.70362900  0.93943300  1
  Pb  Pb31  1  0.29637100  0.90614800  0.56056700  1
  Cl  Cl32  1  0.12215400  0.13007200  0.06298400  1
  Cl  Cl33  1  0.86992800  0.87784600  0.43701600  1
  Cl  Cl34  1  0.87784600  0.86992800  0.93701600  1
  Cl  Cl35  1  0.13007200  0.12215400  0.56298400  1
  Cl  Cl36  1  0.63756500  0.60758600  0.30071000  1
  Cl  Cl37  1  0.39241400  0.36243500  0.19929000  1
  Cl  Cl38  1  0.36243500  0.39241400  0.69929000  1
  Cl  Cl39  1  0.60758600  0.63756500  0.80071000  1
  O  O40  1  0.90675800  0.61964100  0.11249100  1
  O  O41  1  0.38035900  0.09324200  0.38750900  1
  O  O42  1  0.09324200  0.38035900  0.88750900  1
  O  O43  1  0.61964100  0.90675800  0.61249100  1
  O  O44  1  0.88474900  0.61108700  0.37734700  1
  O  O45  1  0.38891300  0.11525100  0.12265300  1
  O  O46  1  0.11525100  0.38891300  0.62265300  1
  O  O47  1  0.61108700  0.88474900  0.87734700  1
  O  O48  1  0.88530800  0.16881300  0.48595300  1
  O  O49  1  0.83118700  0.11469200  0.01404700  1
  O  O50  1  0.11469200  0.83118700  0.51404700  1
  O  O51  1  0.16881300  0.88530800  0.98595300  1
  O  O52  1  0.34487000  0.63480900  0.04259000  1
  O  O53  1  0.36519100  0.65513000  0.45741000  1
  O  O54  1  0.65513000  0.36519100  0.95741000  1
  O  O55  1  0.63480900  0.34487000  0.54259000  1
  O  O56  1  0.08873900  0.40955000  0.14275000  1
  O  O57  1  0.59045000  0.91126100  0.35725000  1
  O  O58  1  0.91126100  0.59045000  0.85725000  1
  O  O59  1  0.40955000  0.08873900  0.64275000  1
  O  O60  1  0.14330800  0.85669200  0.25000000  1
  O  O61  1  0.85669200  0.14330800  0.75000000  1
  O  O62  1  0.64483600  0.35516400  0.25000000  1
  O  O63  1  0.35516400  0.64483600  0.75000000  1
  O  O64  1  0.86627000  0.13373000  0.25000000  1
  O  O65  1  0.13373000  0.86627000  0.75000000  1
  O  O66  1  0.18465900  0.47849400  0.32643100  1
  O  O67  1  0.52150600  0.81534100  0.17356900  1
  O  O68  1  0.81534100  0.52150600  0.67356900  1
  O  O69  1  0.47849400  0.18465900  0.82643100  1
  O  O70  1  0.13411300  0.63588300  0.17862600  1
  O  O71  1  0.36411700  0.86588700  0.32137400  1
  O  O72  1  0.86588700  0.36411700  0.82137400  1
  O  O73  1  0.63588300  0.13411300  0.67862600  1
