# generated using pymatgen
data_Na7Cr4P9O32
_symmetry_space_group_name_H-M   'P 1'
_cell_length_a   14.29660700
_cell_length_b   6.41045600
_cell_length_c   14.29664251
_cell_angle_alpha   89.91836838
_cell_angle_beta   90.00000000
_cell_angle_gamma   90.00000000
_symmetry_Int_Tables_number   1
_chemical_formula_structural   Na7Cr4P9O32
_chemical_formula_sum   'Na14 Cr8 P18 O64'
_cell_volume   1310.25407648
_cell_formula_units_Z   2
loop_
 _symmetry_equiv_pos_site_id
 _symmetry_equiv_pos_as_xyz
  1  'x, y, z'
loop_
 _atom_site_type_symbol
 _atom_site_label
 _atom_site_symmetry_multiplicity
 _atom_site_fract_x
 _atom_site_fract_y
 _atom_site_fract_z
 _atom_site_occupancy
  Na  Na0  1  0.90731100  0.35432500  0.00687800  1
  Na  Na1  1  0.40731100  0.64567500  0.99312200  1
  Na  Na2  1  0.09270400  0.35388500  0.49316400  1
  Na  Na3  1  0.59270400  0.64611500  0.50683600  1
  Na  Na4  1  0.74322600  0.14615500  0.65721600  1
  Na  Na5  1  0.75694000  0.85432600  0.15739000  1
  Na  Na6  1  0.25694000  0.14567400  0.84261000  1
  Na  Na7  1  0.24322600  0.85384500  0.34278400  1
  Na  Na8  1  0.99995200  0.25002100  0.74996500  1
  Na  Na9  1  0.49995200  0.74997900  0.25003500  1
  Na  Na10  1  0.51412300  0.92537500  0.76388700  1
  Na  Na11  1  0.01412300  0.07462500  0.23611300  1
  Na  Na12  1  0.98611500  0.57464100  0.26413400  1
  Na  Na13  1  0.48611500  0.42535900  0.73586600  1
  Cr  Cr14  1  0.11972900  0.62367000  0.94012400  1
  Cr  Cr15  1  0.61972900  0.37633000  0.05987600  1
  Cr  Cr16  1  0.88032700  0.62380400  0.56000300  1
  Cr  Cr17  1  0.38032700  0.37619600  0.43999700  1
  Cr  Cr18  1  0.81000300  0.87622700  0.86962700  1
  Cr  Cr19  1  0.69012500  0.12365400  0.36978300  1
  Cr  Cr20  1  0.19012500  0.87634600  0.63021700  1
  Cr  Cr21  1  0.31000300  0.12377300  0.13037300  1
  P  P22  1  0.29961900  0.64855300  0.80416800  1
  P  P23  1  0.79961900  0.35144700  0.19583200  1
  P  P24  1  0.70029900  0.64678400  0.69597000  1
  P  P25  1  0.20029900  0.35321600  0.30403000  1
  P  P26  1  0.94580600  0.85138700  0.04962500  1
  P  P27  1  0.55400500  0.14667800  0.54968700  1
  P  P28  1  0.05400500  0.85332200  0.45031300  1
  P  P29  1  0.44580600  0.14861300  0.95037500  1
  P  P30  1  0.11511000  0.10842200  0.99846600  1
  P  P31  1  0.61511000  0.89157800  0.00153400  1
  P  P32  1  0.88489800  0.10849300  0.50131200  1
  P  P33  1  0.38489800  0.89150700  0.49868800  1
  P  P34  1  0.75131800  0.39153600  0.86511800  1
  P  P35  1  0.74847400  0.60841200  0.36509100  1
  P  P36  1  0.24847400  0.39158800  0.63490900  1
  P  P37  1  0.25131800  0.60846400  0.13488200  1
  P  P38  1  0.00002400  0.75001900  0.74998800  1
  P  P39  1  0.50002400  0.24998100  0.25001200  1
  O  O40  1  0.16623400  0.63027800  0.07258300  1
  O  O41  1  0.66623400  0.36972200  0.92741700  1
  O  O42  1  0.83417200  0.62990700  0.42691200  1
  O  O43  1  0.33417200  0.37009300  0.57308800  1
  O  O44  1  0.67693000  0.87017700  0.91583400  1
  O  O45  1  0.82260500  0.13032600  0.41622700  1
  O  O46  1  0.32260500  0.86967400  0.58377300  1
  O  O47  1  0.17693000  0.12982300  0.08416600  1
  O  O48  1  0.06002100  0.60170900  0.81239100  1
  O  O49  1  0.56002100  0.39829100  0.18760900  1
  O  O50  1  0.94000600  0.60175700  0.68767000  1
  O  O51  1  0.44000600  0.39824300  0.31233000  1
  O  O52  1  0.93765200  0.89827600  0.80997800  1
  O  O53  1  0.56237400  0.10170500  0.31003500  1
  O  O54  1  0.06237400  0.89829500  0.68996500  1
  O  O55  1  0.43765200  0.10172400  0.19002200  1
  O  O56  1  0.14055400  0.93287400  0.93051200  1
  O  O57  1  0.64055400  0.06712600  0.06948800  1
  O  O58  1  0.85943900  0.93259500  0.56949500  1
  O  O59  1  0.35943900  0.06740500  0.43050500  1
  O  O60  1  0.81946000  0.56730600  0.89055300  1
  O  O61  1  0.68048100  0.43272600  0.39055600  1
  O  O62  1  0.18048100  0.56727400  0.60944400  1
  O  O63  1  0.31946000  0.43269400  0.10944700  1
  O  O64  1  0.99319900  0.66972900  0.99939700  1
  O  O65  1  0.49319900  0.33027100  0.00060300  1
  O  O66  1  0.00679500  0.66972300  0.50005100  1
  O  O67  1  0.50679500  0.33027700  0.49994900  1
  O  O68  1  0.75000700  0.83021100  0.74318500  1
  O  O69  1  0.74935500  0.16961900  0.24321100  1
  O  O70  1  0.24935500  0.83038100  0.75678900  1
  O  O71  1  0.25000700  0.16978900  0.25681500  1
  O  O72  1  0.25223000  0.57818200  0.89580900  1
  O  O73  1  0.75223000  0.42181800  0.10419100  1
  O  O74  1  0.74777100  0.57819600  0.60414400  1
  O  O75  1  0.24777100  0.42180400  0.39585600  1
  O  O76  1  0.85415900  0.92174200  0.00221000  1
  O  O77  1  0.64582200  0.07807600  0.50224400  1
  O  O78  1  0.14582200  0.92192400  0.49775600  1
  O  O79  1  0.35415900  0.07825800  0.99779000  1
  O  O80  1  0.10134300  0.30823700  0.94113500  1
  O  O81  1  0.60134300  0.69176300  0.05886500  1
  O  O82  1  0.89871000  0.30821200  0.55876500  1
  O  O83  1  0.39871000  0.69178800  0.44123500  1
  O  O84  1  0.80880400  0.19176300  0.85132400  1
  O  O85  1  0.69117800  0.80816400  0.35130800  1
  O  O86  1  0.19117800  0.19183600  0.64869200  1
  O  O87  1  0.30880400  0.80823700  0.14867600  1
  O  O88  1  0.01190400  0.06039100  0.04098100  1
  O  O89  1  0.51190400  0.93960900  0.95901900  1
  O  O90  1  0.98816500  0.06083300  0.45963700  1
  O  O91  1  0.48816500  0.93916700  0.54036300  1
  O  O92  1  0.70965000  0.43920300  0.76183700  1
  O  O93  1  0.79099900  0.56039200  0.26189700  1
  O  O94  1  0.29099900  0.43960800  0.73810300  1
  O  O95  1  0.20965000  0.56079700  0.23816300  1
  O  O96  1  0.40353300  0.68061900  0.81930500  1
  O  O97  1  0.90353300  0.31938100  0.18069500  1
  O  O98  1  0.59643100  0.67938900  0.68055300  1
  O  O99  1  0.09643100  0.32061100  0.31944700  1
  O  O100  1  0.93067800  0.81934900  0.15353700  1
  O  O101  1  0.56943200  0.17931800  0.65355500  1
  O  O102  1  0.06943200  0.82068200  0.34644500  1
  O  O103  1  0.43067800  0.18065100  0.84646300  1
