# generated using pymatgen
data_Sm6Al3Fe11
_symmetry_space_group_name_H-M   'P 1'
_cell_length_a   8.03701500
_cell_length_b   8.03701500
_cell_length_c   12.90088625
_cell_angle_alpha   71.85090109
_cell_angle_beta   71.85090109
_cell_angle_gamma   90.00000000
_symmetry_Int_Tables_number   1
_chemical_formula_structural   Sm6Al3Fe11
_chemical_formula_sum   'Sm12 Al6 Fe22'
_cell_volume   748.10458934
_cell_formula_units_Z   2
loop_
 _symmetry_equiv_pos_site_id
 _symmetry_equiv_pos_as_xyz
  1  'x, y, z'
loop_
 _atom_site_type_symbol
 _atom_site_label
 _atom_site_symmetry_multiplicity
 _atom_site_fract_x
 _atom_site_fract_y
 _atom_site_fract_z
 _atom_site_occupancy
  Sm  Sm0  1  0.35131400  0.85131400  0.63081300  1
  Sm  Sm1  1  0.01787300  0.51787300  0.63081300  1
  Sm  Sm2  1  0.51787300  0.35131400  0.63081300  1
  Sm  Sm3  1  0.85131400  0.01787300  0.63081300  1
  Sm  Sm4  1  0.64065500  0.14065500  0.37975100  1
  Sm  Sm5  1  0.97959400  0.47959400  0.37975100  1
  Sm  Sm6  1  0.47959400  0.64065500  0.37975100  1
  Sm  Sm7  1  0.14065500  0.97959400  0.37975100  1
  Sm  Sm8  1  0.39496000  0.39496000  0.21008100  1
  Sm  Sm9  1  0.89496000  0.89496000  0.21008100  1
  Sm  Sm10  1  0.60494500  0.60494500  0.79011100  1
  Sm  Sm11  1  0.10494500  0.10494500  0.79011100  1
  Al  Al12  1  0.75011600  0.75011600  0.49976900  1
  Al  Al13  1  0.25011600  0.25011600  0.49976900  1
  Al  Al14  1  0.52512900  0.02512900  0.18905100  1
  Al  Al15  1  0.28582000  0.78582000  0.18905100  1
  Al  Al16  1  0.78582000  0.52512900  0.18905100  1
  Al  Al17  1  0.02512900  0.28582000  0.18905100  1
  Fe  Fe18  1  0.23875400  0.73875400  0.88025400  1
  Fe  Fe19  1  0.88099200  0.38099200  0.88025400  1
  Fe  Fe20  1  0.38099200  0.23875400  0.88025400  1
  Fe  Fe21  1  0.73875400  0.88099200  0.88025400  1
  Fe  Fe22  1  0.76748700  0.26748700  0.11464900  1
  Fe  Fe23  1  0.11786400  0.61786400  0.11464900  1
  Fe  Fe24  1  0.61786400  0.76748700  0.11464900  1
  Fe  Fe25  1  0.26748700  0.11786400  0.11464900  1
  Fe  Fe26  1  0.71031900  0.56939700  0.99869400  1
  Fe  Fe27  1  0.29098700  0.43190900  0.99869400  1
  Fe  Fe28  1  0.79098700  0.06939700  0.99869400  1
  Fe  Fe29  1  0.21031900  0.93190900  0.99869400  1
  Fe  Fe30  1  0.56939700  0.29098700  0.99869400  1
  Fe  Fe31  1  0.43190900  0.71031900  0.99869400  1
  Fe  Fe32  1  0.06939700  0.21031900  0.99869400  1
  Fe  Fe33  1  0.93190900  0.79098700  0.99869400  1
  Fe  Fe34  1  0.00129800  0.50129800  0.99740400  1
  Fe  Fe35  1  0.50129800  0.00129800  0.99740400  1
  Fe  Fe36  1  0.48210300  0.98210300  0.80941100  1
  Fe  Fe37  1  0.70848700  0.20848700  0.80941100  1
  Fe  Fe38  1  0.20848700  0.48210300  0.80941100  1
  Fe  Fe39  1  0.98210300  0.70848700  0.80941100  1
