# generated using pymatgen
data_Na2ReO3
_symmetry_space_group_name_H-M   'P 1'
_cell_length_a   5.63981383
_cell_length_b   5.63981383
_cell_length_c   12.33150900
_cell_angle_alpha   90.00000000
_cell_angle_beta   90.00000000
_cell_angle_gamma   119.99999800
_symmetry_Int_Tables_number   1
_chemical_formula_structural   Na2ReO3
_chemical_formula_sum   'Na8 Re4 O12'
_cell_volume   339.68502464
_cell_formula_units_Z   4
loop_
 _symmetry_equiv_pos_site_id
 _symmetry_equiv_pos_as_xyz
  1  'x, y, z'
loop_
 _atom_site_type_symbol
 _atom_site_label
 _atom_site_symmetry_multiplicity
 _atom_site_fract_x
 _atom_site_fract_y
 _atom_site_fract_z
 _atom_site_occupancy
  Na  Na0  1  0.33333300  0.66666700  0.75000000  1
  Na  Na1  1  0.66666700  0.33333300  0.25000000  1
  Na  Na2  1  0.66666700  0.33333300  0.75000000  1
  Na  Na3  1  0.33333300  0.66666700  0.25000000  1
  Na  Na4  1  0.33333300  0.66666700  0.50000000  1
  Na  Na5  1  0.66666700  0.33333300  0.50000000  1
  Na  Na6  1  0.66666700  0.33333300  0.00000000  1
  Na  Na7  1  0.33333300  0.66666700  0.00000000  1
  Re  Re8  1  0.00000000  0.00000000  0.65530800  1
  Re  Re9  1  0.00000000  0.00000000  0.34469200  1
  Re  Re10  1  0.00000000  0.00000000  0.15530800  1
  Re  Re11  1  0.00000000  0.00000000  0.84469200  1
  O  O12  1  0.31864400  0.00000000  0.62408000  1
  O  O13  1  0.68135600  0.00000000  0.37592000  1
  O  O14  1  0.00000000  0.31864400  0.62408000  1
  O  O15  1  0.68135600  0.00000000  0.12408000  1
  O  O16  1  0.00000000  0.31864400  0.87592000  1
  O  O17  1  0.00000000  0.68135600  0.37592000  1
  O  O18  1  0.31864400  0.00000000  0.87592000  1
  O  O19  1  0.00000000  0.68135600  0.12408000  1
  O  O20  1  0.68135600  0.68135600  0.62408000  1
  O  O21  1  0.31864400  0.31864400  0.37592000  1
  O  O22  1  0.31864400  0.31864400  0.12408000  1
  O  O23  1  0.68135600  0.68135600  0.87592000  1
