# generated using pymatgen
data_Nd4GaSbS9
_symmetry_space_group_name_H-M   'P 1'
_cell_length_a   10.18153380
_cell_length_b   10.18153380
_cell_length_c   13.85613800
_cell_angle_alpha   90.00000000
_cell_angle_beta   90.00000000
_cell_angle_gamma   90.87231004
_symmetry_Int_Tables_number   1
_chemical_formula_structural   Nd4GaSbS9
_chemical_formula_sum   'Nd16 Ga4 Sb4 S36'
_cell_volume   1436.21110423
_cell_formula_units_Z   4
loop_
 _symmetry_equiv_pos_site_id
 _symmetry_equiv_pos_as_xyz
  1  'x, y, z'
loop_
 _atom_site_type_symbol
 _atom_site_label
 _atom_site_symmetry_multiplicity
 _atom_site_fract_x
 _atom_site_fract_y
 _atom_site_fract_z
 _atom_site_occupancy
  Nd  Nd0  1  0.09094300  0.12688600  0.18502200  1
  Nd  Nd1  1  0.87311400  0.90905700  0.81497800  1
  Nd  Nd2  1  0.59094300  0.62688600  0.31497800  1
  Nd  Nd3  1  0.37311400  0.40905700  0.68502200  1
  Nd  Nd4  1  0.32258400  0.33370500  0.39883600  1
  Nd  Nd5  1  0.66629500  0.67741600  0.60116400  1
  Nd  Nd6  1  0.82258400  0.83370500  0.10116400  1
  Nd  Nd7  1  0.16629500  0.17741600  0.89883600  1
  Nd  Nd8  1  0.04409300  0.62444800  0.32029300  1
  Nd  Nd9  1  0.37555200  0.95590700  0.67970700  1
  Nd  Nd10  1  0.54409300  0.12444800  0.17970700  1
  Nd  Nd11  1  0.87555200  0.45590700  0.82029300  1
  Nd  Nd12  1  0.32493000  0.45064000  0.10404600  1
  Nd  Nd13  1  0.54936000  0.67507000  0.89595400  1
  Nd  Nd14  1  0.82493000  0.95064000  0.39595400  1
  Nd  Nd15  1  0.04936000  0.17507000  0.60404600  1
  Ga  Ga16  1  0.82510500  0.38329800  0.09293700  1
  Ga  Ga17  1  0.61670200  0.17489500  0.90706300  1
  Ga  Ga18  1  0.32510500  0.88329800  0.40706300  1
  Ga  Ga19  1  0.11670200  0.67489500  0.59293700  1
  Sb  Sb20  1  0.83094200  0.32426500  0.38708000  1
  Sb  Sb21  1  0.67573500  0.16905800  0.61292000  1
  Sb  Sb22  1  0.33094200  0.82426500  0.11292000  1
  Sb  Sb23  1  0.17573500  0.66905800  0.88708000  1
  S  S24  1  0.01284700  0.16536200  0.39981100  1
  S  S25  1  0.83463800  0.98715300  0.60018900  1
  S  S26  1  0.51284700  0.66536200  0.10018900  1
  S  S27  1  0.33463800  0.48715300  0.89981100  1
  S  S28  1  0.14733800  0.66775100  0.07929800  1
  S  S29  1  0.33224900  0.85266200  0.92070200  1
  S  S30  1  0.64733800  0.16775100  0.42070200  1
  S  S31  1  0.83224900  0.35266200  0.57929800  1
  S  S32  1  0.81832400  0.20762300  0.20021300  1
  S  S33  1  0.79237700  0.18167600  0.79978700  1
  S  S34  1  0.31832400  0.70762300  0.29978700  1
  S  S35  1  0.29237700  0.68167600  0.70021300  1
  S  S36  1  0.82163800  0.57008600  0.18993200  1
  S  S37  1  0.42991400  0.17836200  0.81006800  1
  S  S38  1  0.32163800  0.07008600  0.31006800  1
  S  S39  1  0.92991400  0.67836200  0.68993200  1
  S  S40  1  0.13262500  0.86737500  0.50000000  1
  S  S41  1  0.63262500  0.36737500  0.00000000  1
  S  S42  1  0.12170500  0.49053900  0.49667000  1
  S  S43  1  0.50946100  0.87829500  0.50333000  1
  S  S44  1  0.62170500  0.99053900  0.00333000  1
  S  S45  1  0.00946100  0.37829500  0.99667000  1
  S  S46  1  0.81542500  0.68000400  0.43170600  1
  S  S47  1  0.31999600  0.18457500  0.56829400  1
  S  S48  1  0.31542500  0.18000400  0.06829400  1
  S  S49  1  0.81999600  0.68457500  0.93170600  1
  S  S50  1  0.00374300  0.88078400  0.25015600  1
  S  S51  1  0.11921600  0.99625700  0.74984400  1
  S  S52  1  0.50374300  0.38078400  0.24984400  1
  S  S53  1  0.61921600  0.49625700  0.75015600  1
  S  S54  1  0.49960200  0.50039800  0.50000000  1
  S  S55  1  0.99960200  0.00039800  0.00000000  1
  S  S56  1  0.14162900  0.38926200  0.24765700  1
  S  S57  1  0.61073800  0.85837100  0.75234300  1
  S  S58  1  0.64162900  0.88926200  0.25234300  1
  S  S59  1  0.11073800  0.35837100  0.74765700  1
