# generated using pymatgen
data_CaH24C6Br2(N2O)6
_symmetry_space_group_name_H-M   'P 1'
_cell_length_a   10.33248300
_cell_length_b   8.13305900
_cell_length_c   13.73560836
_cell_angle_alpha   90.00000000
_cell_angle_beta   94.60661615
_cell_angle_gamma   90.00000000
_symmetry_Int_Tables_number   1
_chemical_formula_structural   CaH24C6Br2(N2O)6
_chemical_formula_sum   'Ca2 H48 C12 Br4 N24 O12'
_cell_volume   1150.53890980
_cell_formula_units_Z   2
loop_
 _symmetry_equiv_pos_site_id
 _symmetry_equiv_pos_as_xyz
  1  'x, y, z'
loop_
 _atom_site_type_symbol
 _atom_site_label
 _atom_site_symmetry_multiplicity
 _atom_site_fract_x
 _atom_site_fract_y
 _atom_site_fract_z
 _atom_site_occupancy
  Ca  Ca0  1  0.00000000  0.50000000  0.50000000  1
  Ca  Ca1  1  0.00000000  0.00000000  0.00000000  1
  H  H2  1  0.43415500  0.69498600  0.47540400  1
  H  H3  1  0.56584500  0.19498600  0.02459600  1
  H  H4  1  0.56584500  0.30501400  0.52459600  1
  H  H5  1  0.43415500  0.80501400  0.97540400  1
  H  H6  1  0.45454700  0.65458500  0.35059600  1
  H  H7  1  0.54545300  0.15458500  0.14940400  1
  H  H8  1  0.54545300  0.34541500  0.64940400  1
  H  H9  1  0.45454700  0.84541500  0.85059600  1
  H  H10  1  0.29655500  0.53719000  0.25226400  1
  H  H11  1  0.70344500  0.03719000  0.24773600  1
  H  H12  1  0.70344500  0.46281000  0.74773600  1
  H  H13  1  0.29655500  0.96281000  0.75226400  1
  H  H14  1  0.14478500  0.48933500  0.29794200  1
  H  H15  1  0.85521500  0.98933500  0.20205800  1
  H  H16  1  0.85521500  0.51066500  0.70205800  1
  H  H17  1  0.14478500  0.01066500  0.79794200  1
  H  H18  1  0.29269800  0.33421600  0.56293800  1
  H  H19  1  0.70730200  0.83421600  0.93706200  1
  H  H20  1  0.70730200  0.66578400  0.43706200  1
  H  H21  1  0.29269800  0.16578400  0.06293800  1
  H  H22  1  0.36792800  0.13958800  0.58113100  1
  H  H23  1  0.63207200  0.63958800  0.91886900  1
  H  H24  1  0.63207200  0.86041200  0.41886900  1
  H  H25  1  0.36792800  0.36041200  0.08113100  1
  H  H26  1  0.25346100  0.90858600  0.55752900  1
  H  H27  1  0.74653900  0.40858600  0.94247100  1
  H  H28  1  0.74653900  0.09141400  0.44247100  1
  H  H29  1  0.25346100  0.59141400  0.05752900  1
  H  H30  1  0.08586400  0.90866500  0.52129700  1
  H  H31  1  0.91413600  0.40866500  0.97870300  1
  H  H32  1  0.91413600  0.09133500  0.47870300  1
  H  H33  1  0.08586400  0.59133500  0.02129700  1
  H  H34  1  0.27796200  0.64438700  0.66170900  1
  H  H35  1  0.72203800  0.14438700  0.83829100  1
  H  H36  1  0.72203800  0.35561300  0.33829100  1
  H  H37  1  0.27796200  0.85561300  0.16170900  1
  H  H38  1  0.34403200  0.51765400  0.75602800  1
  H  H39  1  0.65596800  0.01765400  0.74397200  1
  H  H40  1  0.65596800  0.48234600  0.24397200  1
  H  H41  1  0.34403200  0.98234600  0.25602800  1
  H  H42  1  0.21499900  0.34466500  0.83484900  1
  H  H43  1  0.78500100  0.84466500  0.66515100  1
  H  H44  1  0.78500100  0.65533500  0.16515100  1
  H  H45  1  0.21499900  0.15533500  0.33484900  1
  H  H46  1  0.04789700  0.33189900  0.80365400  1
  H  H47  1  0.95210300  0.83189900  0.69634600  1
  H  H48  1  0.95210300  0.66810100  0.19634600  1
  H  H49  1  0.04789700  0.16810100  0.30365400  1
  C  C50  1  0.28028100  0.58374200  0.39844500  1
  C  C51  1  0.71971900  0.08374200  0.10155500  1
  C  C52  1  0.71971900  0.41625800  0.60155500  1
  C  C53  1  0.28028100  0.91625800  0.89844500  1
  C  C54  1  0.17101500  0.13705300  0.54229200  1
  C  C55  1  0.82898500  0.63705300  0.95770800  1
  C  C56  1  0.82898500  0.86294700  0.45770800  1
  C  C57  1  0.17101500  0.36294700  0.04229200  1
  C  C58  1  0.14549100  0.49629300  0.72266000  1
  C  C59  1  0.85450900  0.99629300  0.77734000  1
  C  C60  1  0.85450900  0.50370700  0.27734000  1
  C  C61  1  0.14549100  0.00370700  0.22266000  1
  Br  Br62  1  0.51714200  0.36399000  0.85430700  1
  Br  Br63  1  0.48285800  0.86399000  0.64569300  1
  Br  Br64  1  0.48285800  0.63601000  0.14569300  1
  Br  Br65  1  0.51714200  0.13601000  0.35430700  1
  N  N66  1  0.40230100  0.64446400  0.41000600  1
  N  N67  1  0.59769900  0.14446400  0.08999400  1
  N  N68  1  0.59769900  0.35553600  0.58999400  1
  N  N69  1  0.40230100  0.85553600  0.91000600  1
  N  N70  1  0.23853700  0.52821700  0.30882300  1
  N  N71  1  0.76146300  0.02821700  0.19117700  1
  N  N72  1  0.76146300  0.47178300  0.69117700  1
  N  N73  1  0.23853700  0.97178300  0.80882300  1
  N  N74  1  0.28710200  0.20991500  0.56539900  1
  N  N75  1  0.71289800  0.70991500  0.93460100  1
  N  N76  1  0.71289800  0.79008500  0.43460100  1
  N  N77  1  0.28710200  0.29008500  0.06539900  1
  N  N78  1  0.16787400  0.97118400  0.54626300  1
  N  N79  1  0.83212600  0.47118400  0.95373700  1
  N  N80  1  0.83212600  0.02881600  0.45373700  1
  N  N81  1  0.16787400  0.52881600  0.04626300  1
  N  N82  1  0.26540700  0.55478000  0.71134700  1
  N  N83  1  0.73459300  0.05478000  0.78865300  1
  N  N84  1  0.73459300  0.44522000  0.28865300  1
  N  N85  1  0.26540700  0.94522000  0.21134700  1
  N  N86  1  0.13481900  0.38473600  0.79425900  1
  N  N87  1  0.86518100  0.88473600  0.70574100  1
  N  N88  1  0.86518100  0.61526400  0.20574100  1
  N  N89  1  0.13481900  0.11526400  0.29425900  1
  O  O90  1  0.20953700  0.57716900  0.47009500  1
  O  O91  1  0.79046300  0.07716900  0.02990500  1
  O  O92  1  0.79046300  0.42283100  0.52990500  1
  O  O93  1  0.20953700  0.92283100  0.97009500  1
  O  O94  1  0.06917900  0.22129900  0.51874500  1
  O  O95  1  0.93082100  0.72129900  0.98125500  1
  O  O96  1  0.93082100  0.77870100  0.48125500  1
  O  O97  1  0.06917900  0.27870100  0.01874500  1
  O  O98  1  0.04650600  0.54364700  0.66826900  1
  O  O99  1  0.95349400  0.04364700  0.83173100  1
  O  O100  1  0.95349400  0.45635300  0.33173100  1
  O  O101  1  0.04650600  0.95635300  0.16826900  1
