# generated using pymatgen
data_EuCrO3
_symmetry_space_group_name_H-M   'P 1'
_cell_length_a   5.47861200
_cell_length_b   5.55654100
_cell_length_c   7.73189100
_cell_angle_alpha   90.00000000
_cell_angle_beta   90.00000000
_cell_angle_gamma   90.00000000
_symmetry_Int_Tables_number   1
_chemical_formula_structural   EuCrO3
_chemical_formula_sum   'Eu4 Cr4 O12'
_cell_volume   235.37524799
_cell_formula_units_Z   4
loop_
 _symmetry_equiv_pos_site_id
 _symmetry_equiv_pos_as_xyz
  1  'x, y, z'
loop_
 _atom_site_type_symbol
 _atom_site_label
 _atom_site_symmetry_multiplicity
 _atom_site_fract_x
 _atom_site_fract_y
 _atom_site_fract_z
 _atom_site_occupancy
  Eu  Eu0  1  0.50955800  0.54319800  0.25000000  1
  Eu  Eu1  1  0.99044200  0.04319800  0.25000000  1
  Eu  Eu2  1  0.49044200  0.45680200  0.75000000  1
  Eu  Eu3  1  0.00955800  0.95680200  0.75000000  1
  Cr  Cr4  1  0.00000000  0.50000000  0.00000000  1
  Cr  Cr5  1  0.50000000  0.00000000  0.50000000  1
  Cr  Cr6  1  0.00000000  0.50000000  0.50000000  1
  Cr  Cr7  1  0.50000000  0.00000000  0.00000000  1
  O  O8  1  0.41464200  0.97630500  0.25000000  1
  O  O9  1  0.08535800  0.47630500  0.25000000  1
  O  O10  1  0.58535800  0.02369500  0.75000000  1
  O  O11  1  0.91464200  0.52369500  0.75000000  1
  O  O12  1  0.79384100  0.79261700  0.04501300  1
  O  O13  1  0.70615900  0.29261700  0.45498700  1
  O  O14  1  0.20615900  0.20738300  0.54501300  1
  O  O15  1  0.29384100  0.70738300  0.95498700  1
  O  O16  1  0.20615900  0.20738300  0.95498700  1
  O  O17  1  0.29384100  0.70738300  0.54501300  1
  O  O18  1  0.79384100  0.79261700  0.45498700  1
  O  O19  1  0.70615900  0.29261700  0.04501300  1
