# generated using pymatgen
data_Mo2PbSe2O11
_symmetry_space_group_name_H-M   'P 1'
_cell_length_a   8.09906100
_cell_length_b   8.35877547
_cell_length_c   9.00453584
_cell_angle_alpha   82.92526807
_cell_angle_beta   114.87054667
_cell_angle_gamma   113.21078437
_symmetry_Int_Tables_number   1
_chemical_formula_structural   Mo2PbSe2O11
_chemical_formula_sum   'Mo4 Pb2 Se4 O22'
_cell_volume   507.63057296
_cell_formula_units_Z   2
loop_
 _symmetry_equiv_pos_site_id
 _symmetry_equiv_pos_as_xyz
  1  'x, y, z'
loop_
 _atom_site_type_symbol
 _atom_site_label
 _atom_site_symmetry_multiplicity
 _atom_site_fract_x
 _atom_site_fract_y
 _atom_site_fract_z
 _atom_site_occupancy
  Mo  Mo0  1  0.72842000  0.62372700  0.19491600  1
  Mo  Mo1  1  0.27158000  0.37627300  0.80508400  1
  Mo  Mo2  1  0.72121400  0.03245300  0.95488000  1
  Mo  Mo3  1  0.27878600  0.96754700  0.04512000  1
  Pb  Pb4  1  0.57203100  0.77463600  0.52694600  1
  Pb  Pb5  1  0.42796900  0.22536400  0.47305400  1
  Se  Se6  1  0.74871200  0.44620500  0.85587000  1
  Se  Se7  1  0.25128800  0.55379500  0.14413000  1
  Se  Se8  1  0.76079600  0.22594300  0.31270700  1
  Se  Se9  1  0.23920400  0.77405700  0.68729300  1
  O  O10  1  0.94627700  0.61022900  0.21489700  1
  O  O11  1  0.05372300  0.38977100  0.78510300  1
  O  O12  1  0.77814200  0.71216200  0.38232700  1
  O  O13  1  0.22185800  0.28783800  0.61767300  1
  O  O14  1  0.73057400  0.82916700  0.07645700  1
  O  O15  1  0.26942600  0.17083300  0.92354300  1
  O  O16  1  0.64049900  0.37061800  0.28016100  1
  O  O17  1  0.35950100  0.62938200  0.71983900  1
  O  O18  1  0.59393100  0.47873000  0.93202500  1
  O  O19  1  0.40606900  0.52127000  0.06797500  1
  O  O20  1  0.94377000  0.19221700  0.07801500  1
  O  O21  1  0.05623000  0.80778300  0.92198500  1
  O  O22  1  0.75795600  0.97460200  0.79520400  1
  O  O23  1  0.24204400  0.02539800  0.20479600  1
  O  O24  1  0.62117800  0.21938300  0.81136500  1
  O  O25  1  0.37882200  0.78061700  0.18863500  1
  O  O26  1  0.60099400  0.09265200  0.12883900  1
  O  O27  1  0.39900600  0.90734800  0.87116100  1
  O  O28  1  0.66452500  0.50679700  0.65998800  1
  O  O29  1  0.33547500  0.49320300  0.34001200  1
  O  O30  1  0.68035200  0.10772700  0.45213300  1
  O  O31  1  0.31964800  0.89227300  0.54786700  1
