# generated using pymatgen
data_CaCe(FeSb3)8
_symmetry_space_group_name_H-M   'P 1'
_cell_length_a   7.93824454
_cell_length_b   7.93824454
_cell_length_c   13.03127287
_cell_angle_alpha   90.05199550
_cell_angle_beta   89.94800450
_cell_angle_gamma   109.33001571
_symmetry_Int_Tables_number   1
_chemical_formula_structural   CaCe(FeSb3)8
_chemical_formula_sum   'Ca1 Ce1 Fe8 Sb24'
_cell_volume   774.88309466
_cell_formula_units_Z   1
loop_
 _symmetry_equiv_pos_site_id
 _symmetry_equiv_pos_as_xyz
  1  'x, y, z'
loop_
 _atom_site_type_symbol
 _atom_site_label
 _atom_site_symmetry_multiplicity
 _atom_site_fract_x
 _atom_site_fract_y
 _atom_site_fract_z
 _atom_site_occupancy
  Ca  Ca0  1  0.00000000  0.00000000  0.00000000  1
  Ce  Ce1  1  0.50000000  0.50000000  0.50000000  1
  Fe  Fe2  1  0.74941200  0.74930300  0.25143300  1
  Fe  Fe3  1  0.25058800  0.25069700  0.74856800  1
  Fe  Fe4  1  0.00000000  0.50000000  0.50000000  1
  Fe  Fe5  1  0.50000000  0.00000000  0.00000000  1
  Fe  Fe6  1  0.50000000  0.00000000  0.50000000  1
  Fe  Fe7  1  0.00000000  0.50000000  0.00000000  1
  Fe  Fe8  1  0.25069700  0.25058800  0.25143300  1
  Fe  Fe9  1  0.74930300  0.74941200  0.74856800  1
  Sb  Sb10  1  0.83056500  0.49534200  0.33270500  1
  Sb  Sb11  1  0.32854700  0.99516000  0.83312800  1
  Sb  Sb12  1  0.67145300  0.00484000  0.16687200  1
  Sb  Sb13  1  0.16943500  0.50465800  0.66729500  1
  Sb  Sb14  1  0.50465800  0.16943500  0.33270500  1
  Sb  Sb15  1  0.00484000  0.67145300  0.83312800  1
  Sb  Sb16  1  0.99516000  0.32854700  0.16687200  1
  Sb  Sb17  1  0.49534200  0.83056500  0.66729500  1
  Sb  Sb18  1  0.74656700  0.58504200  0.08146900  1
  Sb  Sb19  1  0.24805600  0.08438800  0.58177900  1
  Sb  Sb20  1  0.75194400  0.91561200  0.41822100  1
  Sb  Sb21  1  0.25343300  0.41495800  0.91853100  1
  Sb  Sb22  1  0.08438800  0.24805600  0.41822100  1
  Sb  Sb23  1  0.58504200  0.74656700  0.91853100  1
  Sb  Sb24  1  0.41495800  0.25343300  0.08146900  1
  Sb  Sb25  1  0.91561200  0.75194400  0.58177900  1
  Sb  Sb26  1  0.25124900  0.74875100  0.41409200  1
  Sb  Sb27  1  0.75219600  0.24780400  0.91415800  1
  Sb  Sb28  1  0.24780400  0.75219600  0.08584200  1
  Sb  Sb29  1  0.74875100  0.25124900  0.58590800  1
  Sb  Sb30  1  0.41392100  0.58607900  0.25128700  1
  Sb  Sb31  1  0.91411100  0.08588900  0.75229100  1
  Sb  Sb32  1  0.08588900  0.91411100  0.24770900  1
  Sb  Sb33  1  0.58607900  0.41392100  0.74871300  1
