# generated using pymatgen
data_K3AsSe4
_symmetry_space_group_name_H-M   'P 1'
_cell_length_a   9.59466000
_cell_length_b   10.01792400
_cell_length_c   11.19978800
_cell_angle_alpha   90.00000000
_cell_angle_beta   90.00000000
_cell_angle_gamma   90.00000000
_symmetry_Int_Tables_number   1
_chemical_formula_structural   K3AsSe4
_chemical_formula_sum   'K12 As4 Se16'
_cell_volume   1076.50765934
_cell_formula_units_Z   4
loop_
 _symmetry_equiv_pos_site_id
 _symmetry_equiv_pos_as_xyz
  1  'x, y, z'
loop_
 _atom_site_type_symbol
 _atom_site_label
 _atom_site_symmetry_multiplicity
 _atom_site_fract_x
 _atom_site_fract_y
 _atom_site_fract_z
 _atom_site_occupancy
  K  K0  1  0.63897100  0.41541100  0.75000000  1
  K  K1  1  0.13897100  0.08458900  0.75000000  1
  K  K2  1  0.36102900  0.58458900  0.25000000  1
  K  K3  1  0.86102900  0.91541100  0.25000000  1
  K  K4  1  0.56400900  0.19603300  0.04591500  1
  K  K5  1  0.06400900  0.30396700  0.45408500  1
  K  K6  1  0.43599100  0.80396700  0.54591500  1
  K  K7  1  0.93599100  0.69603300  0.95408500  1
  K  K8  1  0.43599100  0.80396700  0.95408500  1
  K  K9  1  0.93599100  0.69603300  0.54591500  1
  K  K10  1  0.56400900  0.19603300  0.45408500  1
  K  K11  1  0.06400900  0.30396700  0.04591500  1
  As  As12  1  0.72117200  0.97695500  0.75000000  1
  As  As13  1  0.22117200  0.52304500  0.75000000  1
  As  As14  1  0.27882800  0.02304500  0.25000000  1
  As  As15  1  0.77882800  0.47695500  0.25000000  1
  Se  Se16  1  0.84722200  0.03198100  0.57554700  1
  Se  Se17  1  0.34722200  0.46801900  0.92445300  1
  Se  Se18  1  0.15277800  0.96801900  0.07554700  1
  Se  Se19  1  0.65277800  0.53198100  0.42445300  1
  Se  Se20  1  0.15277800  0.96801900  0.42445300  1
  Se  Se21  1  0.65277800  0.53198100  0.07554700  1
  Se  Se22  1  0.84722200  0.03198100  0.92445300  1
  Se  Se23  1  0.34722200  0.46801900  0.57554700  1
  Se  Se24  1  0.67863700  0.74502400  0.75000000  1
  Se  Se25  1  0.17863700  0.75497600  0.75000000  1
  Se  Se26  1  0.32136300  0.25497600  0.25000000  1
  Se  Se27  1  0.82136300  0.24502400  0.25000000  1
  Se  Se28  1  0.50578400  0.09382000  0.75000000  1
  Se  Se29  1  0.00578400  0.40618000  0.75000000  1
  Se  Se30  1  0.49421600  0.90618000  0.25000000  1
  Se  Se31  1  0.99421600  0.59382000  0.25000000  1
