# generated using pymatgen
data_VCu13Sn(AsS8)2
_symmetry_space_group_name_H-M   'P 1'
_cell_length_a   10.69850024
_cell_length_b   10.69850024
_cell_length_c   10.70930703
_cell_angle_alpha   89.99686718
_cell_angle_beta   89.99686718
_cell_angle_gamma   89.98436764
_symmetry_Int_Tables_number   1
_chemical_formula_structural   VCu13Sn(AsS8)2
_chemical_formula_sum   'V2 Cu26 Sn2 As4 S32'
_cell_volume   1225.76482384
_cell_formula_units_Z   2
loop_
 _symmetry_equiv_pos_site_id
 _symmetry_equiv_pos_as_xyz
  1  'x, y, z'
loop_
 _atom_site_type_symbol
 _atom_site_label
 _atom_site_symmetry_multiplicity
 _atom_site_fract_x
 _atom_site_fract_y
 _atom_site_fract_z
 _atom_site_occupancy
  V  V0  1  0.49968800  0.00029200  0.50002400  1
  V  V1  1  0.00029200  0.49968800  0.00002400  1
  Cu  Cu2  1  0.75126600  0.75055200  0.24840300  1
  Cu  Cu3  1  0.75008200  0.25051800  0.75211100  1
  Cu  Cu4  1  0.24917900  0.25092200  0.24899400  1
  Cu  Cu5  1  0.24807400  0.74983500  0.75054200  1
  Cu  Cu6  1  0.75055200  0.75126600  0.74840300  1
  Cu  Cu7  1  0.25051800  0.75008200  0.25211100  1
  Cu  Cu8  1  0.25092200  0.24917900  0.74899400  1
  Cu  Cu9  1  0.74983500  0.24807400  0.25054200  1
  Cu  Cu10  1  0.75633700  0.99987200  0.50009500  1
  Cu  Cu11  1  0.49940000  0.74426000  0.49956900  1
  Cu  Cu12  1  0.50051400  0.00067900  0.24430000  1
  Cu  Cu13  1  0.49937100  0.25562400  0.50040300  1
  Cu  Cu14  1  0.49973100  0.00049600  0.75567800  1
  Cu  Cu15  1  0.24379500  0.99989900  0.49988200  1
  Cu  Cu16  1  0.99987200  0.75633700  0.00009500  1
  Cu  Cu17  1  0.74426000  0.49940000  0.99956900  1
  Cu  Cu18  1  0.00067900  0.50051400  0.74430000  1
  Cu  Cu19  1  0.25562400  0.49937100  0.00040300  1
  Cu  Cu20  1  0.00049600  0.49973100  0.25567800  1
  Cu  Cu21  1  0.99989900  0.24379500  0.99988200  1
  Cu  Cu22  1  0.75056400  0.00039100  0.00090900  1
  Cu  Cu23  1  0.00039100  0.75056400  0.50090900  1
  Cu  Cu24  1  0.49841600  0.50046800  0.25015100  1
  Cu  Cu25  1  0.00045800  0.24941400  0.49912700  1
  Cu  Cu26  1  0.50046800  0.49841600  0.75015100  1
  Cu  Cu27  1  0.24941400  0.00045800  0.99912700  1
  Sn  Sn28  1  0.74990300  0.50009900  0.49971300  1
  Sn  Sn29  1  0.50009900  0.74990300  0.99971300  1
  As  As30  1  0.00033000  0.99948000  0.24999400  1
  As  As31  1  0.50001900  0.24999700  0.00042800  1
  As  As32  1  0.99948000  0.00033000  0.74999400  1
  As  As33  1  0.24999700  0.50001900  0.50042800  1
  S  S34  1  0.87971100  0.63469700  0.37033800  1
  S  S35  1  0.63025600  0.62105200  0.13499000  1
  S  S36  1  0.87221200  0.87798100  0.12812800  1
  S  S37  1  0.87917500  0.36512900  0.63059800  1
  S  S38  1  0.62288200  0.37156700  0.87179300  1
  S  S39  1  0.87356300  0.12261700  0.87193600  1
  S  S40  1  0.12825800  0.37235900  0.37680300  1
  S  S41  1  0.37652000  0.37163800  0.12695600  1
  S  S42  1  0.12672600  0.12356400  0.12854900  1
  S  S43  1  0.12791300  0.62739000  0.62231100  1
  S  S44  1  0.36894200  0.62097500  0.86591200  1
  S  S45  1  0.12789400  0.87710100  0.87140800  1
  S  S46  1  0.63469700  0.87971100  0.87033800  1
  S  S47  1  0.62105200  0.63025600  0.63499000  1
  S  S48  1  0.87798100  0.87221200  0.62812800  1
  S  S49  1  0.36512900  0.87917500  0.13059800  1
  S  S50  1  0.37156700  0.62288200  0.37179300  1
  S  S51  1  0.12261700  0.87356300  0.37193600  1
  S  S52  1  0.37235900  0.12825800  0.87680300  1
  S  S53  1  0.37163800  0.37652000  0.62695600  1
  S  S54  1  0.12356400  0.12672600  0.62854900  1
  S  S55  1  0.62739000  0.12791300  0.12231100  1
  S  S56  1  0.62097500  0.36894200  0.36591200  1
  S  S57  1  0.87710100  0.12789400  0.37140800  1
  S  S58  1  0.62051900  0.87923600  0.37925900  1
  S  S59  1  0.62042200  0.12110100  0.62012000  1
  S  S60  1  0.37911100  0.12062100  0.37989300  1
  S  S61  1  0.37910900  0.87983400  0.62068400  1
  S  S62  1  0.87923600  0.62051900  0.87925900  1
  S  S63  1  0.12110100  0.62042200  0.12012000  1
  S  S64  1  0.12062100  0.37911100  0.87989300  1
  S  S65  1  0.87983400  0.37910900  0.12068400  1
