# generated using pymatgen
data_Nb7P4
_symmetry_space_group_name_H-M   'P 1'
_cell_length_a   7.73694712
_cell_length_b   7.73694712
_cell_length_c   13.95709968
_cell_angle_alpha   75.57138233
_cell_angle_beta   75.57138233
_cell_angle_gamma   25.83181296
_symmetry_Int_Tables_number   1
_chemical_formula_structural   Nb7P4
_chemical_formula_sum   'Nb14 P8'
_cell_volume   351.94655637
_cell_formula_units_Z   2
loop_
 _symmetry_equiv_pos_site_id
 _symmetry_equiv_pos_as_xyz
  1  'x, y, z'
loop_
 _atom_site_type_symbol
 _atom_site_label
 _atom_site_symmetry_multiplicity
 _atom_site_fract_x
 _atom_site_fract_y
 _atom_site_fract_z
 _atom_site_occupancy
  Nb  Nb0  1  0.66212200  0.66212200  0.02745900  1
  Nb  Nb1  1  0.33787800  0.33787800  0.97254100  1
  Nb  Nb2  1  0.99632300  0.99632300  0.66560900  1
  Nb  Nb3  1  0.00367700  0.00367700  0.33439100  1
  Nb  Nb4  1  0.82514700  0.82514700  0.54057900  1
  Nb  Nb5  1  0.17485300  0.17485300  0.45942100  1
  Nb  Nb6  1  0.20985900  0.20985900  0.19969500  1
  Nb  Nb7  1  0.79014100  0.79014100  0.80030500  1
  Nb  Nb8  1  0.19499500  0.19499500  0.68746400  1
  Nb  Nb9  1  0.80500500  0.80500500  0.31253600  1
  Nb  Nb10  1  0.43180800  0.43180800  0.17255900  1
  Nb  Nb11  1  0.56819200  0.56819200  0.82744100  1
  Nb  Nb12  1  0.50000000  0.50000000  0.50000000  1
  Nb  Nb13  1  0.00000000  0.00000000  0.00000000  1
  P  P14  1  0.06427400  0.06427400  0.15041300  1
  P  P15  1  0.93572600  0.93572600  0.84958700  1
  P  P16  1  0.36944400  0.36944400  0.66444000  1
  P  P17  1  0.63055600  0.63055600  0.33556000  1
  P  P18  1  0.37399500  0.37399500  0.39818500  1
  P  P19  1  0.62600500  0.62600500  0.60181500  1
  P  P20  1  0.17374400  0.17374400  0.88749500  1
  P  P21  1  0.82625600  0.82625600  0.11250500  1
