# generated using pymatgen
data_Pr2EuSe4
_symmetry_space_group_name_H-M   'P 1'
_cell_length_a   7.84517059
_cell_length_b   7.84517059
_cell_length_c   7.84517059
_cell_angle_alpha   109.47616430
_cell_angle_beta   109.47616430
_cell_angle_gamma   109.46133376
_symmetry_Int_Tables_number   1
_chemical_formula_structural   Pr2EuSe4
_chemical_formula_sum   'Pr4 Eu2 Se8'
_cell_volume   371.69376305
_cell_formula_units_Z   2
loop_
 _symmetry_equiv_pos_site_id
 _symmetry_equiv_pos_as_xyz
  1  'x, y, z'
loop_
 _atom_site_type_symbol
 _atom_site_label
 _atom_site_symmetry_multiplicity
 _atom_site_fract_x
 _atom_site_fract_y
 _atom_site_fract_z
 _atom_site_occupancy
  Pr  Pr0  1  0.50144300  0.12500000  0.87644300  1
  Pr  Pr1  1  0.87500000  0.75144300  0.37644300  1
  Pr  Pr2  1  0.24855700  0.62500000  0.12355700  1
  Pr  Pr3  1  0.37500000  0.49855700  0.62355700  1
  Eu  Eu4  1  0.75000000  0.25000000  0.50000000  1
  Eu  Eu5  1  0.00000000  0.00000000  0.00000000  1
  Se  Se6  1  0.97863500  0.38025300  0.25021700  1
  Se  Se7  1  0.47841800  0.38003600  0.24978300  1
  Se  Se8  1  0.77136500  0.52158200  0.90161800  1
  Se  Se9  1  0.61974700  0.86996400  0.59838200  1
  Se  Se10  1  0.13025300  0.22863500  0.75021700  1
  Se  Se11  1  0.61996400  0.86974700  0.09838200  1
  Se  Se12  1  0.27158200  0.02136500  0.40161800  1
  Se  Se13  1  0.13003600  0.72841800  0.74978300  1
