# generated using pymatgen
data_Rb2Ti(WO4)3
_symmetry_space_group_name_H-M   'P 1'
_cell_length_a   7.32216065
_cell_length_b   7.32216065
_cell_length_c   7.32355425
_cell_angle_alpha   60.57940289
_cell_angle_beta   60.57940289
_cell_angle_gamma   60.61150472
_symmetry_Int_Tables_number   1
_chemical_formula_structural   Rb2Ti(WO4)3
_chemical_formula_sum   'Rb2 Ti1 W3 O12'
_cell_volume   281.34262658
_cell_formula_units_Z   1
loop_
 _symmetry_equiv_pos_site_id
 _symmetry_equiv_pos_as_xyz
  1  'x, y, z'
loop_
 _atom_site_type_symbol
 _atom_site_label
 _atom_site_symmetry_multiplicity
 _atom_site_fract_x
 _atom_site_fract_y
 _atom_site_fract_z
 _atom_site_occupancy
  Rb  Rb0  1  0.82222800  0.89356700  0.39051900  1
  Rb  Rb1  1  0.10643300  0.17777200  0.60948100  1
  Ti  Ti2  1  0.49860900  0.50139100  0.00000000  1
  W  W3  1  0.99844200  0.50206800  0.00008400  1
  W  W4  1  0.49793200  0.00155800  0.99991600  1
  W  W5  1  0.49811200  0.50188800  0.50000000  1
  O  O6  1  0.18688100  0.18772000  0.06092200  1
  O  O7  1  0.56225100  0.55972100  0.68556000  1
  O  O8  1  0.18601200  0.55929200  0.06218400  1
  O  O9  1  0.56073700  0.18772300  0.68708100  1
  O  O10  1  0.56032300  0.18614600  0.06075300  1
  O  O11  1  0.18685500  0.56021300  0.68702300  1
  O  O12  1  0.81228000  0.81311900  0.93907800  1
  O  O13  1  0.44027900  0.43774900  0.31444000  1
  O  O14  1  0.81385400  0.43967700  0.93924700  1
  O  O15  1  0.43978700  0.81314500  0.31297700  1
  O  O16  1  0.44070800  0.81398800  0.93781600  1
  O  O17  1  0.81227700  0.43926300  0.31291900  1
