# generated using pymatgen
data_NaSn
_symmetry_space_group_name_H-M   'P 1'
_cell_length_a   11.50637267
_cell_length_b   11.50637267
_cell_length_c   11.50637267
_cell_angle_alpha   125.79275586
_cell_angle_beta   125.79275586
_cell_angle_gamma   80.22902728
_symmetry_Int_Tables_number   1
_chemical_formula_structural   NaSn
_chemical_formula_sum   'Na16 Sn16'
_cell_volume   967.31770049
_cell_formula_units_Z   16
loop_
 _symmetry_equiv_pos_site_id
 _symmetry_equiv_pos_as_xyz
  1  'x, y, z'
loop_
 _atom_site_type_symbol
 _atom_site_label
 _atom_site_symmetry_multiplicity
 _atom_site_fract_x
 _atom_site_fract_y
 _atom_site_fract_z
 _atom_site_occupancy
  Na  Na0  1  0.12500000  0.25281000  0.62781000  1
  Na  Na1  1  0.00281000  0.87500000  0.62781000  1
  Na  Na2  1  0.24719000  0.37500000  0.37219000  1
  Na  Na3  1  0.62500000  0.49719000  0.37219000  1
  Na  Na4  1  0.62500000  0.99719000  0.87219000  1
  Na  Na5  1  0.74719000  0.37500000  0.87219000  1
  Na  Na6  1  0.50281000  0.87500000  0.12781000  1
  Na  Na7  1  0.12500000  0.75281000  0.12781000  1
  Na  Na8  1  0.62257100  0.62257100  0.74514200  1
  Na  Na9  1  0.37257100  0.12742900  0.50000000  1
  Na  Na10  1  0.62742900  0.87257100  0.50000000  1
  Na  Na11  1  0.87742900  0.87742900  0.25485800  1
  Na  Na12  1  0.12742900  0.62742900  0.75485800  1
  Na  Na13  1  0.37742900  0.12257100  0.00000000  1
  Na  Na14  1  0.12257100  0.37742900  0.00000000  1
  Na  Na15  1  0.87257100  0.37257100  0.24514200  1
  Sn  Sn16  1  0.93426300  0.13004000  0.94133400  1
  Sn  Sn17  1  0.88004000  0.43870600  0.69577800  1
  Sn  Sn18  1  0.74292800  0.18426300  0.30422200  1
  Sn  Sn19  1  0.31573700  0.75707200  0.69577800  1
  Sn  Sn20  1  0.06129400  0.61996000  0.30422200  1
  Sn  Sn21  1  0.50707200  0.31129400  0.94133400  1
  Sn  Sn22  1  0.36996000  0.56573700  0.05866600  1
  Sn  Sn23  1  0.18870600  0.99292800  0.05866600  1
  Sn  Sn24  1  0.81573700  0.11996000  0.55866600  1
  Sn  Sn25  1  0.86996000  0.81129400  0.80422200  1
  Sn  Sn26  1  0.00707200  0.06573700  0.19577800  1
  Sn  Sn27  1  0.43426300  0.49292800  0.80422200  1
  Sn  Sn28  1  0.68870600  0.63004000  0.19577800  1
  Sn  Sn29  1  0.24292800  0.93870600  0.55866600  1
  Sn  Sn30  1  0.38004000  0.68426300  0.44133400  1
  Sn  Sn31  1  0.56129400  0.25707200  0.44133400  1
