# generated using pymatgen
data_MnSb2H18(Se2N3)2
_symmetry_space_group_name_H-M   'P 1'
_cell_length_a   18.58328400
_cell_length_b   12.72646500
_cell_length_c   7.71192900
_cell_angle_alpha   90.00000000
_cell_angle_beta   90.00000000
_cell_angle_gamma   90.00000000
_symmetry_Int_Tables_number   1
_chemical_formula_structural   MnSb2H18(Se2N3)2
_chemical_formula_sum   'Mn4 Sb8 H72 Se16 N24'
_cell_volume   1823.86745596
_cell_formula_units_Z   4
loop_
 _symmetry_equiv_pos_site_id
 _symmetry_equiv_pos_as_xyz
  1  'x, y, z'
loop_
 _atom_site_type_symbol
 _atom_site_label
 _atom_site_symmetry_multiplicity
 _atom_site_fract_x
 _atom_site_fract_y
 _atom_site_fract_z
 _atom_site_occupancy
  Mn  Mn0  1  0.68021000  0.53604000  0.08663200  1
  Mn  Mn1  1  0.31979000  0.46396000  0.58663200  1
  Mn  Mn2  1  0.81979000  0.03604000  0.58663200  1
  Mn  Mn3  1  0.18021000  0.96396000  0.08663200  1
  Sb  Sb4  1  0.95952300  0.65370700  0.92456800  1
  Sb  Sb5  1  0.04047700  0.34629300  0.42456800  1
  Sb  Sb6  1  0.54047700  0.15370700  0.42456800  1
  Sb  Sb7  1  0.45952300  0.84629300  0.92456800  1
  Sb  Sb8  1  0.91680000  0.58518900  0.43720100  1
  Sb  Sb9  1  0.08320000  0.41481100  0.93720100  1
  Sb  Sb10  1  0.58320000  0.08518900  0.93720100  1
  Sb  Sb11  1  0.41680000  0.91481100  0.43720100  1
  H  H12  1  0.77076600  0.40048400  0.28863100  1
  H  H13  1  0.22923400  0.59951600  0.78863100  1
  H  H14  1  0.72923400  0.90048400  0.78863100  1
  H  H15  1  0.27076600  0.09951600  0.28863100  1
  H  H16  1  0.74414600  0.49799600  0.41206700  1
  H  H17  1  0.25585400  0.50200400  0.91206700  1
  H  H18  1  0.75585400  0.99799600  0.91206700  1
  H  H19  1  0.24414600  0.00200400  0.41206700  1
  H  H20  1  0.68853800  0.39857900  0.36936800  1
  H  H21  1  0.31146200  0.60142100  0.86936800  1
  H  H22  1  0.81146200  0.89857900  0.86936800  1
  H  H23  1  0.18853800  0.10142100  0.36936800  1
  H  H24  1  0.71515400  0.74843200  0.10124500  1
  H  H25  1  0.28484600  0.25156800  0.60124500  1
  H  H26  1  0.78484600  0.24843200  0.60124500  1
  H  H27  1  0.21515400  0.75156800  0.10124500  1
  H  H28  1  0.77267600  0.68716200  0.23011500  1
  H  H29  1  0.22732400  0.31283800  0.73011500  1
  H  H30  1  0.72732400  0.18716200  0.73011500  1
  H  H31  1  0.27267600  0.81283800  0.23011500  1
  H  H32  1  0.78693300  0.69183400  0.01796800  1
  H  H33  1  0.21306700  0.30816600  0.51796800  1
  H  H34  1  0.71306700  0.19183400  0.51796800  1
  H  H35  1  0.28693300  0.80816600  0.01796800  1
  H  H36  1  0.59097000  0.55712500  0.37797500  1
  H  H37  1  0.40903000  0.44287500  0.87797500  1
  H  H38  1  0.90903000  0.05712500  0.87797500  1
  H  H39  1  0.09097000  0.94287500  0.37797500  1
  H  H40  1  0.63055700  0.67213600  0.36184500  1
  H  H41  1  0.36944300  0.32786400  0.86184500  1
  H  H42  1  0.86944300  0.17213600  0.86184500  1
  H  H43  1  0.13055700  0.82786400  0.36184500  1
  H  H44  1  0.56077200  0.64409800  0.23714300  1
  H  H45  1  0.43922800  0.35590200  0.73714300  1
  H  H46  1  0.93922800  0.14409800  0.73714300  1
  H  H47  1  0.06077200  0.85590200  0.23714300  1
  H  H48  1  0.74238300  0.37543100  0.88928100  1
  H  H49  1  0.25761700  0.62456900  0.38928100  1
  H  H50  1  0.75761700  0.87543100  0.38928100  1
  H  H51  1  0.24238300  0.12456900  0.88928100  1
  H  H52  1  0.77151400  0.48758900  0.80157200  1
  H  H53  1  0.22848600  0.51241100  0.30157200  1
  H  H54  1  0.72848600  0.98758900  0.30157200  1
  H  H55  1  0.27151400  0.01241100  0.80157200  1
  H  H56  1  0.81067000  0.43909000  0.97364200  1
  H  H57  1  0.18933000  0.56091000  0.47364200  1
  H  H58  1  0.68933000  0.93909000  0.47364200  1
  H  H59  1  0.31067000  0.06091000  0.97364200  1
  H  H60  1  0.57086600  0.39040500  0.16396800  1
  H  H61  1  0.42913400  0.60959500  0.66396800  1
  H  H62  1  0.92913400  0.89040500  0.66396800  1
  H  H63  1  0.07086600  0.10959500  0.16396800  1
  H  H64  1  0.54680700  0.45630800  0.98947000  1
  H  H65  1  0.45319300  0.54369200  0.48947000  1
  H  H66  1  0.95319300  0.95630800  0.48947000  1
  H  H67  1  0.04680700  0.04369200  0.98947000  1
  H  H68  1  0.60231100  0.35577000  0.97449300  1
  H  H69  1  0.39768900  0.64423000  0.47449300  1
  H  H70  1  0.89768900  0.85577000  0.47449300  1
  H  H71  1  0.10231100  0.14423000  0.97449300  1
  H  H72  1  0.57773000  0.62963100  0.85935900  1
  H  H73  1  0.42227000  0.37036900  0.35935900  1
  H  H74  1  0.92227000  0.12963100  0.35935900  1
  H  H75  1  0.07773000  0.87036900  0.85935900  1
  H  H76  1  0.65567700  0.68052300  0.80211600  1
  H  H77  1  0.34432300  0.31947700  0.30211600  1
  H  H78  1  0.84432300  0.18052300  0.30211600  1
  H  H79  1  0.15567700  0.81947700  0.80211600  1
  H  H80  1  0.63442700  0.56239100  0.73651100  1
  H  H81  1  0.36557300  0.43760900  0.23651100  1
  H  H82  1  0.86557300  0.06239100  0.23651100  1
  H  H83  1  0.13442700  0.93760900  0.73651100  1
  Se  Se84  1  0.08354300  0.60465800  0.07939700  1
  Se  Se85  1  0.91645700  0.39534200  0.57939700  1
  Se  Se86  1  0.41645700  0.10465800  0.57939700  1
  Se  Se87  1  0.58354300  0.89534200  0.07939700  1
  Se  Se88  1  0.02239100  0.66959700  0.61807400  1
  Se  Se89  1  0.97760900  0.33040300  0.11807400  1
  Se  Se90  1  0.47760900  0.16959700  0.11807400  1
  Se  Se91  1  0.52239100  0.83040300  0.61807400  1
  Se  Se92  1  0.94696900  0.84346300  0.01981100  1
  Se  Se93  1  0.05303100  0.15653700  0.51981100  1
  Se  Se94  1  0.55303100  0.34346300  0.51981100  1
  Se  Se95  1  0.44696900  0.65653700  0.01981100  1
  Se  Se96  1  0.80541600  0.65755900  0.58623700  1
  Se  Se97  1  0.19458400  0.34244100  0.08623700  1
  Se  Se98  1  0.69458400  0.15755900  0.08623700  1
  Se  Se99  1  0.30541600  0.84244100  0.58623700  1
  N  N100  1  0.72729100  0.44668500  0.31658400  1
  N  N101  1  0.27270900  0.55331500  0.81658400  1
  N  N102  1  0.77270900  0.94668500  0.81658400  1
  N  N103  1  0.22729100  0.05331500  0.31658400  1
  N  N104  1  0.74787800  0.68372000  0.11080600  1
  N  N105  1  0.25212200  0.31628000  0.61080600  1
  N  N106  1  0.75212200  0.18372000  0.61080600  1
  N  N107  1  0.24787800  0.81628000  0.11080600  1
  N  N108  1  0.60702300  0.61340600  0.29116600  1
  N  N109  1  0.39297700  0.38659400  0.79116600  1
  N  N110  1  0.89297700  0.11340600  0.79116600  1
  N  N111  1  0.10702300  0.88659400  0.29116600  1
  N  N112  1  0.76141800  0.44930600  0.91662100  1
  N  N113  1  0.23858200  0.55069400  0.41662100  1
  N  N114  1  0.73858200  0.94930600  0.41662100  1
  N  N115  1  0.26141800  0.05069400  0.91662100  1
  N  N116  1  0.58962100  0.42009800  0.04834000  1
  N  N117  1  0.41037900  0.57990200  0.54834000  1
  N  N118  1  0.91037900  0.92009800  0.54834000  1
  N  N119  1  0.08962100  0.07990200  0.04834000  1
  N  N120  1  0.63135000  0.61225500  0.84033500  1
  N  N121  1  0.36865000  0.38774500  0.34033500  1
  N  N122  1  0.86865000  0.11225500  0.34033500  1
  N  N123  1  0.13135000  0.88774500  0.84033500  1
