# generated using pymatgen
data_KEr2Cl7
_symmetry_space_group_name_H-M   'P 1'
_cell_length_a   12.62407300
_cell_length_b   6.93561200
_cell_length_c   13.31700803
_cell_angle_alpha   89.16091454
_cell_angle_beta   90.00000000
_cell_angle_gamma   90.00000000
_symmetry_Int_Tables_number   1
_chemical_formula_structural   KEr2Cl7
_chemical_formula_sum   'K4 Er8 Cl28'
_cell_volume   1165.85455747
_cell_formula_units_Z   4
loop_
 _symmetry_equiv_pos_site_id
 _symmetry_equiv_pos_as_xyz
  1  'x, y, z'
loop_
 _atom_site_type_symbol
 _atom_site_label
 _atom_site_symmetry_multiplicity
 _atom_site_fract_x
 _atom_site_fract_y
 _atom_site_fract_z
 _atom_site_occupancy
  K  K0  1  0.20126500  0.73285300  0.03826000  1
  K  K1  1  0.79873500  0.26714700  0.96174000  1
  K  K2  1  0.70126500  0.26714700  0.46174000  1
  K  K3  1  0.29873500  0.73285300  0.53826000  1
  Er  Er4  1  0.53685900  0.77910500  0.23796600  1
  Er  Er5  1  0.46314100  0.22089500  0.76203400  1
  Er  Er6  1  0.03685900  0.22089500  0.26203400  1
  Er  Er7  1  0.96314100  0.77910500  0.73796600  1
  Er  Er8  1  0.83965500  0.72563100  0.24927000  1
  Er  Er9  1  0.16034500  0.27436900  0.75073000  1
  Er  Er10  1  0.33965500  0.27436900  0.25073000  1
  Er  Er11  1  0.66034500  0.72563100  0.74927000  1
  Cl  Cl12  1  0.97296700  0.94367600  0.13470800  1
  Cl  Cl13  1  0.02703300  0.05632400  0.86529200  1
  Cl  Cl14  1  0.47296700  0.05632400  0.36529200  1
  Cl  Cl15  1  0.52703300  0.94367600  0.63470800  1
  Cl  Cl16  1  0.68524700  0.74289400  0.39177500  1
  Cl  Cl17  1  0.31475300  0.25710600  0.60822500  1
  Cl  Cl18  1  0.18524700  0.25710600  0.10822500  1
  Cl  Cl19  1  0.81475300  0.74289400  0.89177500  1
  Cl  Cl20  1  0.67764900  0.51649400  0.17362200  1
  Cl  Cl21  1  0.32235100  0.48350600  0.82637800  1
  Cl  Cl22  1  0.17764900  0.48350600  0.32637800  1
  Cl  Cl23  1  0.82235100  0.51649400  0.67362200  1
  Cl  Cl24  1  0.92612100  0.97407800  0.37862400  1
  Cl  Cl25  1  0.07387900  0.02592200  0.62137600  1
  Cl  Cl26  1  0.42612100  0.02592200  0.12137600  1
  Cl  Cl27  1  0.57387900  0.97407800  0.87862400  1
  Cl  Cl28  1  0.94119400  0.46344700  0.13168900  1
  Cl  Cl29  1  0.05880600  0.53655300  0.86831100  1
  Cl  Cl30  1  0.44119400  0.53655300  0.36831100  1
  Cl  Cl31  1  0.55880600  0.46344700  0.63168900  1
  Cl  Cl32  1  0.70297400  0.99721200  0.17604200  1
  Cl  Cl33  1  0.29702600  0.00278800  0.82395800  1
  Cl  Cl34  1  0.20297400  0.00278800  0.32395800  1
  Cl  Cl35  1  0.79702600  0.99721200  0.67604200  1
  Cl  Cl36  1  0.91358600  0.45538800  0.37722800  1
  Cl  Cl37  1  0.08641400  0.54461200  0.62277200  1
  Cl  Cl38  1  0.41358600  0.54461200  0.12277200  1
  Cl  Cl39  1  0.58641400  0.45538800  0.87722800  1
