# generated using pymatgen
data_KPr(WO4)2
_symmetry_space_group_name_H-M   'P 1'
_cell_length_a   7.57343242
_cell_length_b   7.57343242
_cell_length_c   7.62776449
_cell_angle_alpha   66.25004041
_cell_angle_beta   66.25004041
_cell_angle_gamma   93.14434003
_symmetry_Int_Tables_number   1
_chemical_formula_structural   KPr(WO4)2
_chemical_formula_sum   'K2 Pr2 W4 O16'
_cell_volume   354.02441907
_cell_formula_units_Z   2
loop_
 _symmetry_equiv_pos_site_id
 _symmetry_equiv_pos_as_xyz
  1  'x, y, z'
loop_
 _atom_site_type_symbol
 _atom_site_label
 _atom_site_symmetry_multiplicity
 _atom_site_fract_x
 _atom_site_fract_y
 _atom_site_fract_z
 _atom_site_occupancy
  K  K0  1  0.69005100  0.69005100  0.47234300  1
  K  K1  1  0.30994900  0.30994900  0.52765700  1
  Pr  Pr2  1  0.69980500  0.30019500  0.00000000  1
  Pr  Pr3  1  0.30019500  0.69980500  0.00000000  1
  W  W4  1  0.20475100  0.20475100  0.05629500  1
  W  W5  1  0.79524900  0.79524900  0.94370500  1
  W  W6  1  0.83929200  0.16070800  0.50000000  1
  W  W7  1  0.16070800  0.83929200  0.50000000  1
  O  O8  1  0.34537800  0.09470100  0.25986800  1
  O  O9  1  0.65462200  0.90529900  0.74013200  1
  O  O10  1  0.90529900  0.65462200  0.74013200  1
  O  O11  1  0.09470100  0.34537800  0.25986800  1
  O  O12  1  0.69287100  0.21465800  0.35459200  1
  O  O13  1  0.30712900  0.78534200  0.64540800  1
  O  O14  1  0.78534200  0.30712900  0.64540800  1
  O  O15  1  0.21465800  0.69287100  0.35459200  1
  O  O16  1  0.70576400  0.95864900  0.06374200  1
  O  O17  1  0.29423600  0.04135100  0.93625800  1
  O  O18  1  0.04135100  0.29423600  0.93625800  1
  O  O19  1  0.95864900  0.70576400  0.06374200  1
  O  O20  1  0.98380100  0.98380100  0.34424100  1
  O  O21  1  0.01619900  0.01619900  0.65575900  1
  O  O22  1  0.57336000  0.57336000  0.11011700  1
  O  O23  1  0.42664000  0.42664000  0.88988300  1
