# generated using pymatgen
data_Sr18Ca3Cr14O56
_symmetry_space_group_name_H-M   'P 1'
_cell_length_a   11.24755495
_cell_length_b   11.24755538
_cell_length_c   14.92897350
_cell_angle_alpha   90.00000000
_cell_angle_beta   67.87043996
_cell_angle_gamma   120.00000127
_symmetry_Int_Tables_number   1
_chemical_formula_structural   Sr18Ca3Cr14O56
_chemical_formula_sum   'Sr18 Ca3 Cr14 O56'
_cell_volume   1472.76031892
_cell_formula_units_Z   1
loop_
 _symmetry_equiv_pos_site_id
 _symmetry_equiv_pos_as_xyz
  1  'x, y, z'
loop_
 _atom_site_type_symbol
 _atom_site_label
 _atom_site_symmetry_multiplicity
 _atom_site_fract_x
 _atom_site_fract_y
 _atom_site_fract_z
 _atom_site_occupancy
  Sr  Sr0  1  0.97327758  0.28381205  0.31463948  1
  Sr  Sr1  1  0.99589499  0.71208294  0.31463948  1
  Sr  Sr2  1  0.40154847  0.68946553  0.31463948  1
  Sr  Sr3  1  0.39804836  0.21000695  0.81444174  1
  Sr  Sr4  1  0.99751684  0.78750990  0.81444174  1
  Sr  Sr5  1  0.97555131  0.18804142  0.81444174  1
  Sr  Sr6  1  0.75568292  0.08638622  0.59983838  1
  Sr  Sr7  1  0.73086492  0.64447870  0.59983838  1
  Sr  Sr8  1  0.31377540  0.66929670  0.59983838  1
  Sr  Sr9  1  0.31194756  0.14496890  0.10752444  1
  Sr  Sr10  1  0.72549691  0.58052800  0.10752444  1
  Sr  Sr11  1  0.74750666  0.16697865  0.10752444  1
  Sr  Sr12  1  0.19664149  0.39697585  0.99414741  1
  Sr  Sr13  1  0.20618695  0.80921110  0.99414741  1
  Sr  Sr14  1  0.60887674  0.79966564  0.99414741  1
  Sr  Sr15  1  0.61724671  0.31554642  0.49558586  1
  Sr  Sr16  1  0.20271385  0.88716743  0.49558586  1
  Sr  Sr17  1  0.18886772  0.30170029  0.49558586  1
  Ca  Ca18  1  0.86678337  0.43339168  0.69982495  1
  Ca  Ca19  1  0.46757072  0.23378536  0.29864392  1
  Ca  Ca20  1  0.47109366  0.73554683  0.79335952  1
  Cr  Cr21  1  0.37777754  0.92075904  0.19678439  1
  Cr  Cr22  1  0.34619711  0.42543807  0.19678439  1
  Cr  Cr23  1  0.88245658  0.45701850  0.19678439  1
  Cr  Cr24  1  0.88194270  0.92412367  0.69890256  1
  Cr  Cr25  1  0.34327840  0.41915474  0.69890256  1
  Cr  Cr26  1  0.37697377  0.95781903  0.69890256  1
  Cr  Cr27  1  0.59999224  0.06544092  0.89369314  1
  Cr  Cr28  1  0.57175555  0.50631462  0.89369314  1
  Cr  Cr29  1  0.04086594  0.53455132  0.89369314  1
  Cr  Cr30  1  0.04913878  0.00982343  0.39453545  1
  Cr  Cr31  1  0.56614920  0.55632577  0.39453545  1
  Cr  Cr32  1  0.59564112  0.03931535  0.39453545  1
  Cr  Cr33  1  0.00628891  0.50314446  0.49056663  1
  Cr  Cr34  1  0.00182905  0.00091453  0.99725642  1
  O  O35  1  0.27034988  0.84019141  0.32088392  1
  O  O36  1  0.24895762  0.40876621  0.32088392  1
  O  O37  1  0.83892467  0.43015847  0.32088392  1
  O  O38  1  0.84219620  0.91119363  0.82375860  1
  O  O39  1  0.24523883  0.33404520  0.82375860  1
  O  O40  1  0.26504777  0.93100257  0.82375860  1
  O  O41  1  0.09273745  0.54636873  0.36089382  1
  O  O42  1  0.08412051  0.04206025  0.87381924  1
  O  O43  1  0.70622019  0.07415985  0.95546964  1
  O  O44  1  0.41247002  0.33831017  0.95546964  1
  O  O45  1  0.97037051  0.63206034  0.95546964  1
  O  O46  1  0.97121231  0.83800352  0.45725692  1
  O  O47  1  0.40953429  0.57153077  0.45725692  1
  O  O48  1  0.70473956  0.13320879  0.45725692  1
  O  O49  1  0.73801827  0.17683340  0.77635853  1
  O  O50  1  0.66245660  0.48562320  0.77635853  1
  O  O51  1  0.04680807  0.56118487  0.77635853  1
  O  O52  1  0.08783388  -0.00056103  0.27428227  1
  O  O53  1  0.63732282  0.63788385  0.27428227  1
  O  O54  1  0.72627877  0.08839491  0.27428227  1
  O  O55  1  0.49164828  0.88190393  0.90456108  1
  O  O56  1  0.48569457  0.60379064  0.90456108  1
  O  O57  1  0.21353499  0.60974435  0.90456108  1
  O  O58  1  0.21469973  0.10470962  0.41256294  1
  O  O59  1  0.47744695  0.37273733  0.41256294  1
  O  O60  1  0.48272744  0.10999011  0.41256294  1
  O  O61  1  0.51849442  0.88426513  0.15596468  1
  O  O62  1  0.20980604  0.32554090  0.15596468  1
  O  O63  1  0.95977019  0.63422928  0.15596468  1
  O  O64  1  0.95702394  0.82223694  0.66107236  1
  O  O65  1  0.20414065  0.38190371  0.66107236  1
  O  O66  1  0.51669071  0.13478700  0.66107236  1
  O  O67  1  0.82141375  0.48321141  0.55453998  1
  O  O68  1  0.10725768  0.62404627  0.55453998  1
  O  O69  1  0.96224861  0.33820234  0.55453998  1
  O  O70  1  0.97206636  0.12788927  0.03385850  1
  O  O71  1  0.12196441  0.99407515  0.03385850  1
  O  O72  1  0.83825224  0.84417709  0.03385850  1
  O  O73  1  0.25219985  0.86854156  0.14412600  1
  O  O74  1  0.47221571  0.60367415  0.14412600  1
  O  O75  1  0.98733245  0.38365830  0.14412600  1
  O  O76  1  0.98660231  0.10193551  0.64893325  1
  O  O77  1  0.46639995  0.36446444  0.64893325  1
  O  O78  1  0.24913124  0.88466679  0.64893325  1
  O  O79  1  0.47249617  0.10394037  0.17336789  1
  O  O80  1  0.45807632  0.35413594  0.17336789  1
  O  O81  1  0.72269174  0.36855579  0.17336789  1
  O  O82  1  0.72288478  0.85462125  0.67570341  1
  O  O83  1  0.45603306  0.60141181  0.67570341  1
  O  O84  1  0.46967534  0.86826353  0.67570341  1
  O  O85  1  0.46529619  0.10709669  0.93945783  1
  O  O86  1  0.70234266  0.59524598  0.93945783  1
  O  O87  1  0.95344548  0.35819950  0.93945783  1
  O  O88  1  0.95629540  0.09612841  0.43916121  1
  O  O89  1  0.70067179  0.60454338  0.43916121  1
  O  O90  1  0.46471038  0.86016700  0.43916121  1
