# generated using pymatgen
data_Er6Co2Sn
_symmetry_space_group_name_H-M   'P 1'
_cell_length_a   8.31642353
_cell_length_b   8.31642353
_cell_length_c   8.31642353
_cell_angle_alpha   111.40762723
_cell_angle_beta   109.82613952
_cell_angle_gamma   107.20744296
_symmetry_Int_Tables_number   1
_chemical_formula_structural   Er6Co2Sn
_chemical_formula_sum   'Er12 Co4 Sn2'
_cell_volume   442.17615985
_cell_formula_units_Z   2
loop_
 _symmetry_equiv_pos_site_id
 _symmetry_equiv_pos_as_xyz
  1  'x, y, z'
loop_
 _atom_site_type_symbol
 _atom_site_label
 _atom_site_symmetry_multiplicity
 _atom_site_fract_x
 _atom_site_fract_y
 _atom_site_fract_z
 _atom_site_occupancy
  Er  Er0  1  0.31665900  0.61718400  0.30052400  1
  Er  Er1  1  0.68334100  0.38281700  0.69947600  1
  Er  Er2  1  0.31665900  0.01613500  0.69947600  1
  Er  Er3  1  0.68334100  0.98386500  0.30052400  1
  Er  Er4  1  0.44381600  0.22732700  0.21648900  1
  Er  Er5  1  0.55618400  0.77267300  0.78351100  1
  Er  Er6  1  0.01083800  0.22732700  0.78351100  1
  Er  Er7  1  0.98916200  0.77267300  0.21648900  1
  Er  Er8  1  0.18435200  0.29061700  0.47496900  1
  Er  Er9  1  0.81564800  0.70938300  0.52503100  1
  Er  Er10  1  0.18435200  0.70938300  0.89373500  1
  Er  Er11  1  0.81564800  0.29061700  0.10626500  1
  Co  Co12  1  0.11392200  0.61392200  0.50000000  1
  Co  Co13  1  0.88607900  0.38607900  0.50000000  1
  Co  Co14  1  0.38161500  0.00000000  0.38161500  1
  Co  Co15  1  0.61838500  0.00000000  0.61838500  1
  Sn  Sn16  1  0.50000000  0.50000000  0.00000000  1
  Sn  Sn17  1  0.00000000  0.00000000  0.00000000  1
