# generated using pymatgen
data_RbSn
_symmetry_space_group_name_H-M   'P 1'
_cell_length_a   12.91045739
_cell_length_b   12.91045739
_cell_length_c   12.91045739
_cell_angle_alpha   124.91762905
_cell_angle_beta   124.91762905
_cell_angle_gamma   81.67451126
_symmetry_Int_Tables_number   1
_chemical_formula_structural   RbSn
_chemical_formula_sum   'Rb16 Sn16'
_cell_volume   1392.33435434
_cell_formula_units_Z   16
loop_
 _symmetry_equiv_pos_site_id
 _symmetry_equiv_pos_as_xyz
  1  'x, y, z'
loop_
 _atom_site_type_symbol
 _atom_site_label
 _atom_site_symmetry_multiplicity
 _atom_site_fract_x
 _atom_site_fract_y
 _atom_site_fract_z
 _atom_site_occupancy
  Rb  Rb0  1  0.12500000  0.23716700  0.61216700  1
  Rb  Rb1  1  0.98716700  0.87500000  0.61216700  1
  Rb  Rb2  1  0.26283300  0.37500000  0.38783300  1
  Rb  Rb3  1  0.62500000  0.51283300  0.38783300  1
  Rb  Rb4  1  0.62500000  0.01283300  0.88783300  1
  Rb  Rb5  1  0.76283300  0.37500000  0.88783300  1
  Rb  Rb6  1  0.48716700  0.87500000  0.11216700  1
  Rb  Rb7  1  0.12500000  0.73716700  0.11216700  1
  Rb  Rb8  1  0.62771900  0.62771900  0.75543800  1
  Rb  Rb9  1  0.37771900  0.12228100  0.50000000  1
  Rb  Rb10  1  0.62228100  0.87771900  0.50000000  1
  Rb  Rb11  1  0.87228100  0.87228100  0.24456200  1
  Rb  Rb12  1  0.12228100  0.62228100  0.74456200  1
  Rb  Rb13  1  0.37228100  0.12771900  0.00000000  1
  Rb  Rb14  1  0.12771900  0.37228100  0.00000000  1
  Rb  Rb15  1  0.87771900  0.37771900  0.25543800  1
  Sn  Sn16  1  0.94588600  0.11748500  0.95417400  1
  Sn  Sn17  1  0.86748500  0.41331100  0.67160000  1
  Sn  Sn18  1  0.74171100  0.19588600  0.32840000  1
  Sn  Sn19  1  0.30411400  0.75828900  0.67160000  1
  Sn  Sn20  1  0.08668900  0.63251500  0.32840000  1
  Sn  Sn21  1  0.50828900  0.33668900  0.95417400  1
  Sn  Sn22  1  0.38251500  0.55411400  0.04582600  1
  Sn  Sn23  1  0.16331100  0.99171100  0.04582600  1
  Sn  Sn24  1  0.80411400  0.13251500  0.54582600  1
  Sn  Sn25  1  0.88251500  0.83668900  0.82840000  1
  Sn  Sn26  1  0.00828900  0.05411400  0.17160000  1
  Sn  Sn27  1  0.44588600  0.49171100  0.82840000  1
  Sn  Sn28  1  0.66331100  0.61748500  0.17160000  1
  Sn  Sn29  1  0.24171100  0.91331100  0.54582600  1
  Sn  Sn30  1  0.36748500  0.69588600  0.45417400  1
  Sn  Sn31  1  0.58668900  0.25828900  0.45417400  1
