# generated using pymatgen
data_K3Nd(PO4)2
_symmetry_space_group_name_H-M   'P 1'
_cell_length_a   5.74439800
_cell_length_b   7.57874500
_cell_length_c   9.64281200
_cell_angle_alpha   88.98166235
_cell_angle_beta   90.00000000
_cell_angle_gamma   90.00000000
_symmetry_Int_Tables_number   1
_chemical_formula_structural   K3Nd(PO4)2
_chemical_formula_sum   'K6 Nd2 P4 O16'
_cell_volume   419.73667530
_cell_formula_units_Z   2
loop_
 _symmetry_equiv_pos_site_id
 _symmetry_equiv_pos_as_xyz
  1  'x, y, z'
loop_
 _atom_site_type_symbol
 _atom_site_label
 _atom_site_symmetry_multiplicity
 _atom_site_fract_x
 _atom_site_fract_y
 _atom_site_fract_z
 _atom_site_occupancy
  K  K0  1  0.75000000  0.64133100  0.09133600  1
  K  K1  1  0.25000000  0.50502600  0.30949800  1
  K  K2  1  0.75000000  0.20361200  0.41647700  1
  K  K3  1  0.25000000  0.35866900  0.90866400  1
  K  K4  1  0.25000000  0.79638800  0.58352300  1
  K  K5  1  0.75000000  0.49497400  0.69050200  1
  Nd  Nd6  1  0.75000000  0.99503700  0.79048400  1
  Nd  Nd7  1  0.25000000  0.00496300  0.20951600  1
  P  P8  1  0.75000000  0.76668200  0.41328100  1
  P  P9  1  0.25000000  0.23331800  0.58671900  1
  P  P10  1  0.75000000  0.19226300  0.07308500  1
  P  P11  1  0.25000000  0.80773700  0.92691500  1
  O  O12  1  0.97154600  0.24597300  0.15575600  1
  O  O13  1  0.47154600  0.75402700  0.84424400  1
  O  O14  1  0.02845400  0.75402700  0.84424400  1
  O  O15  1  0.52845400  0.24597300  0.15575600  1
  O  O16  1  0.97136400  0.84533300  0.34024200  1
  O  O17  1  0.47136400  0.15466700  0.65975800  1
  O  O18  1  0.02863600  0.15466700  0.65975800  1
  O  O19  1  0.52863600  0.84533300  0.34024200  1
  O  O20  1  0.75000000  0.99005900  0.04838800  1
  O  O21  1  0.25000000  0.00994100  0.95161200  1
  O  O22  1  0.75000000  0.28352300  0.92624600  1
  O  O23  1  0.25000000  0.71647700  0.07375400  1
  O  O24  1  0.25000000  0.17812900  0.43146100  1
  O  O25  1  0.75000000  0.82187100  0.56853900  1
  O  O26  1  0.25000000  0.43532400  0.60052900  1
  O  O27  1  0.75000000  0.56467600  0.39947100  1
