# generated using pymatgen
data_KBaB(PO4)2
_symmetry_space_group_name_H-M   'P 1'
_cell_length_a   7.28098074
_cell_length_b   7.28098074
_cell_length_c   8.88139275
_cell_angle_alpha   66.18220409
_cell_angle_beta   66.18220409
_cell_angle_gamma   89.95749917
_symmetry_Int_Tables_number   1
_chemical_formula_structural   KBaB(PO4)2
_chemical_formula_sum   'K2 Ba2 B2 P4 O16'
_cell_volume   386.56109726
_cell_formula_units_Z   2
loop_
 _symmetry_equiv_pos_site_id
 _symmetry_equiv_pos_as_xyz
  1  'x, y, z'
loop_
 _atom_site_type_symbol
 _atom_site_label
 _atom_site_symmetry_multiplicity
 _atom_site_fract_x
 _atom_site_fract_y
 _atom_site_fract_z
 _atom_site_occupancy
  K  K0  1  0.23594300  0.37428300  0.24985800  1
  K  K1  1  0.37428300  0.23594300  0.74985800  1
  Ba  Ba2  1  0.50671900  0.87397700  0.25053600  1
  Ba  Ba3  1  0.87397700  0.50671900  0.75053600  1
  B  B4  1  0.74762700  0.00282300  0.50002900  1
  B  B5  1  0.00282300  0.74762700  0.00002900  1
  P  P6  1  0.72679300  0.37615500  0.24865200  1
  P  P7  1  0.02650900  0.87495300  0.25124900  1
  P  P8  1  0.37615500  0.72679300  0.74865200  1
  P  P9  1  0.87495300  0.02650900  0.75124900  1
  O  O10  1  0.56845100  0.48454000  0.33454000  1
  O  O11  1  0.65934100  0.27068800  0.15559000  1
  O  O12  1  0.09307700  0.68041400  0.34917800  1
  O  O13  1  0.18910200  0.06461000  0.16069300  1
  O  O14  1  0.27068800  0.65934100  0.65559000  1
  O  O15  1  0.68041400  0.09307700  0.84917800  1
  O  O16  1  0.06461000  0.18910200  0.66069300  1
  O  O17  1  0.48454000  0.56845100  0.83454000  1
  O  O18  1  0.79669900  0.22474600  0.39328300  1
  O  O19  1  0.94226100  0.52426000  0.10516000  1
  O  O20  1  0.80856500  0.88675500  0.39009800  1
  O  O21  1  0.94957900  0.86112800  0.11113200  1
  O  O22  1  0.52426000  0.94226100  0.60516000  1
  O  O23  1  0.88675500  0.80856500  0.89009800  1
  O  O24  1  0.86112800  0.94957900  0.61113200  1
  O  O25  1  0.22474600  0.79669900  0.89328300  1
