# generated using pymatgen
data_La(Al5Ru)2
_symmetry_space_group_name_H-M   'P 1'
_cell_length_a   6.90843943
_cell_length_b   6.90843943
_cell_length_c   9.23807300
_cell_angle_alpha   90.00000000
_cell_angle_beta   90.00000000
_cell_angle_gamma   96.87373259
_symmetry_Int_Tables_number   1
_chemical_formula_structural   La(Al5Ru)2
_chemical_formula_sum   'La2 Al20 Ru4'
_cell_volume   437.73215865
_cell_formula_units_Z   2
loop_
 _symmetry_equiv_pos_site_id
 _symmetry_equiv_pos_as_xyz
  1  'x, y, z'
loop_
 _atom_site_type_symbol
 _atom_site_label
 _atom_site_symmetry_multiplicity
 _atom_site_fract_x
 _atom_site_fract_y
 _atom_site_fract_z
 _atom_site_occupancy
  La  La0  1  0.87681100  0.12318900  0.75000000  1
  La  La1  1  0.12318900  0.87681100  0.25000000  1
  Al  Al2  1  0.62266800  0.37733200  0.54819700  1
  Al  Al3  1  0.37733200  0.62266800  0.45180300  1
  Al  Al4  1  0.37733200  0.62266800  0.04819700  1
  Al  Al5  1  0.62266800  0.37733200  0.95180300  1
  Al  Al6  1  0.22944000  0.22944000  0.50000000  1
  Al  Al7  1  0.77056000  0.77056000  0.50000000  1
  Al  Al8  1  0.77056000  0.77056000  0.00000000  1
  Al  Al9  1  0.22944000  0.22944000  0.00000000  1
  Al  Al10  1  0.83934100  0.16065900  0.10142700  1
  Al  Al11  1  0.16065900  0.83934100  0.89857300  1
  Al  Al12  1  0.16065900  0.83934100  0.60142700  1
  Al  Al13  1  0.83934100  0.16065900  0.39857300  1
  Al  Al14  1  0.86166600  0.58842700  0.75000000  1
  Al  Al15  1  0.13833400  0.41157300  0.25000000  1
  Al  Al16  1  0.41157300  0.13833400  0.75000000  1
  Al  Al17  1  0.58842700  0.86166600  0.25000000  1
  Al  Al18  1  0.22292500  0.48236100  0.75000000  1
  Al  Al19  1  0.77707500  0.51763900  0.25000000  1
  Al  Al20  1  0.51763900  0.77707500  0.75000000  1
  Al  Al21  1  0.48236100  0.22292500  0.25000000  1
  Ru  Ru22  1  0.00000000  0.50000000  0.50000000  1
  Ru  Ru23  1  0.00000000  0.50000000  0.00000000  1
  Ru  Ru24  1  0.50000000  0.00000000  0.00000000  1
  Ru  Ru25  1  0.50000000  0.00000000  0.50000000  1
