# generated using pymatgen
data_Rb2Zn5Sb4
_symmetry_space_group_name_H-M   'P 1'
_cell_length_a   7.37488149
_cell_length_b   7.37488149
_cell_length_c   12.62090200
_cell_angle_alpha   90.00000000
_cell_angle_beta   90.00000000
_cell_angle_gamma   117.05619272
_symmetry_Int_Tables_number   1
_chemical_formula_structural   Rb2Zn5Sb4
_chemical_formula_sum   'Rb4 Zn10 Sb8'
_cell_volume   611.31363589
_cell_formula_units_Z   2
loop_
 _symmetry_equiv_pos_site_id
 _symmetry_equiv_pos_as_xyz
  1  'x, y, z'
loop_
 _atom_site_type_symbol
 _atom_site_label
 _atom_site_symmetry_multiplicity
 _atom_site_fract_x
 _atom_site_fract_y
 _atom_site_fract_z
 _atom_site_occupancy
  Rb  Rb0  1  0.22388400  0.77611600  0.50000000  1
  Rb  Rb1  1  0.22388400  0.77611600  0.00000000  1
  Rb  Rb2  1  0.77611600  0.22388400  0.50000000  1
  Rb  Rb3  1  0.77611600  0.22388400  0.00000000  1
  Zn  Zn4  1  0.53171800  0.25221600  0.25000000  1
  Zn  Zn5  1  0.74778400  0.46828200  0.75000000  1
  Zn  Zn6  1  0.46828200  0.74778400  0.75000000  1
  Zn  Zn7  1  0.25221600  0.53171800  0.25000000  1
  Zn  Zn8  1  0.65665300  0.65665300  0.38939900  1
  Zn  Zn9  1  0.34334700  0.34334700  0.61060100  1
  Zn  Zn10  1  0.65665300  0.65665300  0.11060100  1
  Zn  Zn11  1  0.34334700  0.34334700  0.88939900  1
  Zn  Zn12  1  0.00593200  0.00593200  0.25000000  1
  Zn  Zn13  1  0.99406800  0.99406800  0.75000000  1
  Sb  Sb14  1  0.60055000  0.91817000  0.25000000  1
  Sb  Sb15  1  0.08183000  0.39945000  0.75000000  1
  Sb  Sb16  1  0.39945000  0.08183000  0.75000000  1
  Sb  Sb17  1  0.91817000  0.60055000  0.25000000  1
  Sb  Sb18  1  0.27580200  0.27580200  0.40118000  1
  Sb  Sb19  1  0.72419800  0.72419800  0.59882000  1
  Sb  Sb20  1  0.27580200  0.27580200  0.09882000  1
  Sb  Sb21  1  0.72419800  0.72419800  0.90118000  1
