# generated using pymatgen
data_Ho4Zn5Ge6
_symmetry_space_group_name_H-M   'P 1'
_cell_length_a   4.22345400
_cell_length_b   9.56958877
_cell_length_c   15.25947800
_cell_angle_alpha   90.00000000
_cell_angle_beta   90.00000000
_cell_angle_gamma   102.74842424
_symmetry_Int_Tables_number   1
_chemical_formula_structural   Ho4Zn5Ge6
_chemical_formula_sum   'Ho8 Zn10 Ge12'
_cell_volume   601.53443359
_cell_formula_units_Z   2
loop_
 _symmetry_equiv_pos_site_id
 _symmetry_equiv_pos_as_xyz
  1  'x, y, z'
loop_
 _atom_site_type_symbol
 _atom_site_label
 _atom_site_symmetry_multiplicity
 _atom_site_fract_x
 _atom_site_fract_y
 _atom_site_fract_z
 _atom_site_occupancy
  Ho  Ho0  1  0.98158500  0.96317000  0.76374000  1
  Ho  Ho1  1  0.01841500  0.03683000  0.26374000  1
  Ho  Ho2  1  0.82521100  0.65042300  0.31852400  1
  Ho  Ho3  1  0.17478900  0.34957700  0.81852400  1
  Ho  Ho4  1  0.83269200  0.66538300  0.96035100  1
  Ho  Ho5  1  0.16730800  0.33461700  0.46035100  1
  Ho  Ho6  1  0.96687300  0.93374600  0.49980600  1
  Ho  Ho7  1  0.03312700  0.06625400  0.99980600  1
  Zn  Zn8  1  0.65523100  0.31046300  0.99004100  1
  Zn  Zn9  1  0.34476900  0.68953700  0.49004100  1
  Zn  Zn10  1  0.69907400  0.39814900  0.63919900  1
  Zn  Zn11  1  0.30092600  0.60185100  0.13919900  1
  Zn  Zn12  1  0.34995500  0.69991000  0.78257200  1
  Zn  Zn13  1  0.65004500  0.30009000  0.28257200  1
  Zn  Zn14  1  0.84828900  0.69657900  0.63654400  1
  Zn  Zn15  1  0.15171100  0.30342100  0.13654400  1
  Zn  Zn16  1  0.56530600  0.13061200  0.57871800  1
  Zn  Zn17  1  0.43469400  0.86938800  0.07871800  1
  Ge  Ge18  1  0.77157600  0.54315300  0.49814700  1
  Ge  Ge19  1  0.22842400  0.45684700  0.99814700  1
  Ge  Ge20  1  0.56944100  0.13888100  0.85648300  1
  Ge  Ge21  1  0.43055900  0.86111900  0.35648300  1
  Ge  Ge22  1  0.77681300  0.55362600  0.77804700  1
  Ge  Ge23  1  0.22318700  0.44637400  0.27804700  1
  Ge  Ge24  1  0.43994200  0.87988400  0.90909100  1
  Ge  Ge25  1  0.56005800  0.12011600  0.40909100  1
  Ge  Ge26  1  0.43263300  0.86526600  0.63399100  1
  Ge  Ge27  1  0.56736700  0.13473400  0.13399100  1
  Ge  Ge28  1  0.88699400  0.77398700  0.14637600  1
  Ge  Ge29  1  0.11300600  0.22601300  0.64637600  1
