# generated using pymatgen
data_RbEr(MoO4)2
_symmetry_space_group_name_H-M   'P 1'
_cell_length_a   5.12775200
_cell_length_b   8.15291500
_cell_length_c   19.03669300
_cell_angle_alpha   90.00000000
_cell_angle_beta   90.00000000
_cell_angle_gamma   90.00000000
_symmetry_Int_Tables_number   1
_chemical_formula_structural   RbEr(MoO4)2
_chemical_formula_sum   'Rb4 Er4 Mo8 O32'
_cell_volume   795.85038993
_cell_formula_units_Z   4
loop_
 _symmetry_equiv_pos_site_id
 _symmetry_equiv_pos_as_xyz
  1  'x, y, z'
loop_
 _atom_site_type_symbol
 _atom_site_label
 _atom_site_symmetry_multiplicity
 _atom_site_fract_x
 _atom_site_fract_y
 _atom_site_fract_z
 _atom_site_occupancy
  Rb  Rb0  1  0.00000000  0.75000000  0.77102300  1
  Rb  Rb1  1  0.00000000  0.25000000  0.22897700  1
  Rb  Rb2  1  0.50000000  0.25000000  0.72897700  1
  Rb  Rb3  1  0.50000000  0.75000000  0.27102300  1
  Er  Er4  1  0.00000000  0.75000000  0.00639400  1
  Er  Er5  1  0.00000000  0.25000000  0.99360600  1
  Er  Er6  1  0.50000000  0.25000000  0.49360600  1
  Er  Er7  1  0.50000000  0.75000000  0.50639400  1
  Mo  Mo8  1  0.02399500  0.51556000  0.40227500  1
  Mo  Mo9  1  0.97600500  0.48444000  0.59772500  1
  Mo  Mo10  1  0.47600500  0.01556000  0.09772500  1
  Mo  Mo11  1  0.97600500  0.98444000  0.40227500  1
  Mo  Mo12  1  0.52399500  0.98444000  0.90227500  1
  Mo  Mo13  1  0.02399500  0.01556000  0.59772500  1
  Mo  Mo14  1  0.52399500  0.48444000  0.09772500  1
  Mo  Mo15  1  0.47600500  0.51556000  0.90227500  1
  O  O16  1  0.09271300  0.97485100  0.31590900  1
  O  O17  1  0.90728700  0.02514900  0.68409100  1
  O  O18  1  0.40728700  0.47485100  0.18409100  1
  O  O19  1  0.90728700  0.52514900  0.31590900  1
  O  O20  1  0.59271300  0.52514900  0.81590900  1
  O  O21  1  0.09271300  0.47485100  0.68409100  1
  O  O22  1  0.59271300  0.02514900  0.18409100  1
  O  O23  1  0.40728700  0.97485100  0.81590900  1
  O  O24  1  0.26539900  0.83879800  0.09522700  1
  O  O25  1  0.73460100  0.16120200  0.90477300  1
  O  O26  1  0.23460100  0.33879800  0.40477300  1
  O  O27  1  0.73460100  0.66120200  0.09522700  1
  O  O28  1  0.76539900  0.66120200  0.59522700  1
  O  O29  1  0.26539900  0.33879800  0.90477300  1
  O  O30  1  0.76539900  0.16120200  0.40477300  1
  O  O31  1  0.23460100  0.83879800  0.59522700  1
  O  O32  1  0.24607400  0.50606300  0.03516600  1
  O  O33  1  0.75392600  0.49393700  0.96483400  1
  O  O34  1  0.25392600  0.00606300  0.46483400  1
  O  O35  1  0.75392600  0.99393700  0.03516600  1
  O  O36  1  0.74607400  0.99393700  0.53516600  1
  O  O37  1  0.24607400  0.00606300  0.96483400  1
  O  O38  1  0.74607400  0.49393700  0.46483400  1
  O  O39  1  0.25392600  0.50606300  0.53516600  1
  O  O40  1  0.24351100  0.68945000  0.41272100  1
  O  O41  1  0.75648900  0.31055000  0.58727900  1
  O  O42  1  0.25648900  0.18945000  0.08727900  1
  O  O43  1  0.75648900  0.81055000  0.41272100  1
  O  O44  1  0.74351100  0.81055000  0.91272100  1
  O  O45  1  0.24351100  0.18945000  0.58727900  1
  O  O46  1  0.74351100  0.31055000  0.08727900  1
  O  O47  1  0.25648900  0.68945000  0.91272100  1
