# generated using pymatgen
data_CsInP2O7
_symmetry_space_group_name_H-M   'P 1'
_cell_length_a   10.52464000
_cell_length_b   7.86151400
_cell_length_c   8.74167892
_cell_angle_alpha   75.41675851
_cell_angle_beta   90.00000000
_cell_angle_gamma   90.00000000
_symmetry_Int_Tables_number   1
_chemical_formula_structural   CsInP2O7
_chemical_formula_sum   'Cs4 In4 P8 O28'
_cell_volume   699.98094457
_cell_formula_units_Z   4
loop_
 _symmetry_equiv_pos_site_id
 _symmetry_equiv_pos_as_xyz
  1  'x, y, z'
loop_
 _atom_site_type_symbol
 _atom_site_label
 _atom_site_symmetry_multiplicity
 _atom_site_fract_x
 _atom_site_fract_y
 _atom_site_fract_z
 _atom_site_occupancy
  Cs  Cs0  1  0.30007200  0.30435700  0.04202100  1
  Cs  Cs1  1  0.80007200  0.69564300  0.45797900  1
  Cs  Cs2  1  0.69992800  0.69564300  0.95797900  1
  Cs  Cs3  1  0.19992800  0.30435700  0.54202100  1
  In  In4  1  0.39837500  0.73839300  0.24237900  1
  In  In5  1  0.89837500  0.26160700  0.25762100  1
  In  In6  1  0.60162500  0.26160700  0.75762100  1
  In  In7  1  0.10162500  0.73839300  0.74237900  1
  P  P8  1  0.09176200  0.63414600  0.17000500  1
  P  P9  1  0.59176200  0.36585400  0.32999500  1
  P  P10  1  0.90823800  0.36585400  0.82999500  1
  P  P11  1  0.40823800  0.63414600  0.67000500  1
  P  P12  1  0.62906800  0.07266200  0.18271400  1
  P  P13  1  0.12906800  0.92733800  0.31728600  1
  P  P14  1  0.37093200  0.92733800  0.81728600  1
  P  P15  1  0.87093200  0.07266200  0.68271400  1
  O  O16  1  0.99643900  0.50290900  0.26890800  1
  O  O17  1  0.49643900  0.49709100  0.23109200  1
  O  O18  1  0.00356100  0.49709100  0.73109200  1
  O  O19  1  0.50356100  0.50290900  0.76890800  1
  O  O20  1  0.55603100  0.17527400  0.29880500  1
  O  O21  1  0.05603100  0.82472600  0.20119500  1
  O  O22  1  0.44396900  0.82472600  0.70119500  1
  O  O23  1  0.94396900  0.17527400  0.79880500  1
  O  O24  1  0.22718000  0.58635400  0.23301600  1
  O  O25  1  0.72718000  0.41364600  0.26698400  1
  O  O26  1  0.77282000  0.41364600  0.76698400  1
  O  O27  1  0.27282000  0.58635400  0.73301600  1
  O  O28  1  0.77053300  0.05760000  0.22824500  1
  O  O29  1  0.27053300  0.94240000  0.27175500  1
  O  O30  1  0.22946700  0.94240000  0.77175500  1
  O  O31  1  0.72946700  0.05760000  0.72824500  1
  O  O32  1  0.57300800  0.88680900  0.22490200  1
  O  O33  1  0.07300800  0.11319100  0.27509800  1
  O  O34  1  0.42699200  0.11319100  0.77509800  1
  O  O35  1  0.92699200  0.88680900  0.72490200  1
  O  O36  1  0.07890200  0.65402500  0.99398300  1
  O  O37  1  0.57890200  0.34597500  0.50601700  1
  O  O38  1  0.92109800  0.34597500  0.00601700  1
  O  O39  1  0.42109800  0.65402500  0.49398300  1
  O  O40  1  0.60211700  0.17984400  0.01499200  1
  O  O41  1  0.10211700  0.82015600  0.48500800  1
  O  O42  1  0.39788300  0.82015600  0.98500800  1
  O  O43  1  0.89788300  0.17984400  0.51499200  1
