# generated using pymatgen
data_CsMgCoF6
_symmetry_space_group_name_H-M   'P 1'
_cell_length_a   7.39053023
_cell_length_b   7.39053023
_cell_length_c   7.39053023
_cell_angle_alpha   120.90217694
_cell_angle_beta   119.22422809
_cell_angle_gamma   89.89671897
_symmetry_Int_Tables_number   1
_chemical_formula_structural   CsMgCoF6
_chemical_formula_sum   'Cs2 Mg2 Co2 F12'
_cell_volume   285.08821768
_cell_formula_units_Z   2
loop_
 _symmetry_equiv_pos_site_id
 _symmetry_equiv_pos_as_xyz
  1  'x, y, z'
loop_
 _atom_site_type_symbol
 _atom_site_label
 _atom_site_symmetry_multiplicity
 _atom_site_fract_x
 _atom_site_fract_y
 _atom_site_fract_z
 _atom_site_occupancy
  Cs  Cs0  1  0.37021200  0.62021200  0.75000000  1
  Cs  Cs1  1  0.62978800  0.37978800  0.25000000  1
  Mg  Mg2  1  0.00000000  0.00000000  0.50000000  1
  Mg  Mg3  1  0.00000000  0.50000000  0.00000000  1
  Co  Co4  1  0.00000000  0.00000000  0.00000000  1
  Co  Co5  1  0.50000000  0.00000000  0.50000000  1
  F  F6  1  0.31717800  0.06717800  0.25000000  1
  F  F7  1  0.92964300  0.67964300  0.25000000  1
  F  F8  1  0.32399100  0.69349300  0.26132800  1
  F  F9  1  0.93216500  0.06266300  0.23867200  1
  F  F10  1  0.32399100  0.06266300  0.63049700  1
  F  F11  1  0.93216500  0.69349300  0.86950300  1
  F  F12  1  0.68282200  0.93282200  0.75000000  1
  F  F13  1  0.07035700  0.32035700  0.75000000  1
  F  F14  1  0.67600900  0.30650700  0.73867200  1
  F  F15  1  0.06783500  0.93733700  0.76132800  1
  F  F16  1  0.67600900  0.93733700  0.36950300  1
  F  F17  1  0.06783500  0.30650700  0.13049700  1
