# generated using pymatgen
data_K3Nb2Cu3Se8
_symmetry_space_group_name_H-M   'P 1'
_cell_length_a   5.75235600
_cell_length_b   12.70634591
_cell_length_c   14.22052292
_cell_angle_alpha   68.49622649
_cell_angle_beta   78.33111839
_cell_angle_gamma   76.91727707
_symmetry_Int_Tables_number   1
_chemical_formula_structural   K3Nb2Cu3Se8
_chemical_formula_sum   'K6 Nb4 Cu6 Se16'
_cell_volume   933.75395302
_cell_formula_units_Z   2
loop_
 _symmetry_equiv_pos_site_id
 _symmetry_equiv_pos_as_xyz
  1  'x, y, z'
loop_
 _atom_site_type_symbol
 _atom_site_label
 _atom_site_symmetry_multiplicity
 _atom_site_fract_x
 _atom_site_fract_y
 _atom_site_fract_z
 _atom_site_occupancy
  K  K0  1  0.72921400  0.71233900  0.90559700  1
  K  K1  1  0.34715000  0.78766100  0.59440300  1
  K  K2  1  0.27078600  0.28766100  0.09440300  1
  K  K3  1  0.65285000  0.21233900  0.40559700  1
  K  K4  1  0.00000000  0.50000000  0.50000000  1
  K  K5  1  0.00000000  0.00000000  0.00000000  1
  Nb  Nb6  1  0.15714800  0.47080500  0.77982800  1
  Nb  Nb7  1  0.40778100  0.02919500  0.72017200  1
  Nb  Nb8  1  0.84285200  0.52919500  0.22017200  1
  Nb  Nb9  1  0.59221900  0.97080500  0.27982800  1
  Cu  Cu10  1  0.27769400  0.25000000  0.75000000  1
  Cu  Cu11  1  0.72230600  0.75000000  0.25000000  1
  Cu  Cu12  1  0.90480300  0.03495000  0.71891600  1
  Cu  Cu13  1  0.65866900  0.46505000  0.78108400  1
  Cu  Cu14  1  0.09519700  0.96505000  0.28108400  1
  Cu  Cu15  1  0.34133100  0.53495000  0.21891600  1
  Se  Se16  1  0.95363700  0.30507600  0.87560300  1
  Se  Se17  1  0.13431600  0.19492400  0.62439700  1
  Se  Se18  1  0.04636300  0.69492400  0.12439700  1
  Se  Se19  1  0.86568400  0.80507600  0.37560300  1
  Se  Se20  1  0.48568100  0.41646700  0.65771300  1
  Se  Se21  1  0.55986100  0.08353300  0.84228700  1
  Se  Se22  1  0.51431900  0.58353300  0.34228700  1
  Se  Se23  1  0.44013900  0.91646700  0.15771300  1
  Se  Se24  1  0.87011800  0.62928200  0.68642700  1
  Se  Se25  1  0.18582700  0.87071800  0.81357300  1
  Se  Se26  1  0.12988200  0.37071800  0.31357300  1
  Se  Se27  1  0.81417300  0.12928200  0.18642700  1
  Se  Se28  1  0.74393400  0.96949700  0.60725400  1
  Se  Se29  1  0.32068500  0.53050300  0.89274600  1
  Se  Se30  1  0.25606600  0.03050300  0.39274600  1
  Se  Se31  1  0.67931500  0.46949700  0.10725400  1
