# generated using pymatgen
data_CeZnNi
_symmetry_space_group_name_H-M   'P 1'
_cell_length_a   7.08386967
_cell_length_b   7.08386967
_cell_length_c   3.81230600
_cell_angle_alpha   90.00000000
_cell_angle_beta   90.00000000
_cell_angle_gamma   119.99999695
_symmetry_Int_Tables_number   1
_chemical_formula_structural   CeZnNi
_chemical_formula_sum   'Ce3 Zn3 Ni3'
_cell_volume   165.67597033
_cell_formula_units_Z   3
loop_
 _symmetry_equiv_pos_site_id
 _symmetry_equiv_pos_as_xyz
  1  'x, y, z'
loop_
 _atom_site_type_symbol
 _atom_site_label
 _atom_site_symmetry_multiplicity
 _atom_site_fract_x
 _atom_site_fract_y
 _atom_site_fract_z
 _atom_site_occupancy
  Ce  Ce0  1  0.00000000  0.41578000  0.50000000  1
  Ce  Ce1  1  0.58422000  0.58422000  0.50000000  1
  Ce  Ce2  1  0.41578000  0.00000000  0.50000000  1
  Zn  Zn3  1  0.00000000  0.76120900  0.00000000  1
  Zn  Zn4  1  0.23879100  0.23879100  0.00000000  1
  Zn  Zn5  1  0.76120900  0.00000000  0.00000000  1
  Ni  Ni6  1  0.33333300  0.66666700  0.00000000  1
  Ni  Ni7  1  0.66666700  0.33333300  0.00000000  1
  Ni  Ni8  1  0.00000000  0.00000000  0.50000000  1
