# generated using pymatgen
data_Tb5Sn3
_symmetry_space_group_name_H-M   'P 1'
_cell_length_a   9.01457616
_cell_length_b   9.01457616
_cell_length_c   6.61092600
_cell_angle_alpha   90.00000000
_cell_angle_beta   90.00000000
_cell_angle_gamma   120.00000114
_symmetry_Int_Tables_number   1
_chemical_formula_structural   Tb5Sn3
_chemical_formula_sum   'Tb10 Sn6'
_cell_volume   465.24696274
_cell_formula_units_Z   2
loop_
 _symmetry_equiv_pos_site_id
 _symmetry_equiv_pos_as_xyz
  1  'x, y, z'
loop_
 _atom_site_type_symbol
 _atom_site_label
 _atom_site_symmetry_multiplicity
 _atom_site_fract_x
 _atom_site_fract_y
 _atom_site_fract_z
 _atom_site_occupancy
  Tb  Tb0  1  0.66666700  0.33333300  0.00000000  1
  Tb  Tb1  1  0.33333300  0.66666700  0.00000000  1
  Tb  Tb2  1  0.33333300  0.66666700  0.50000000  1
  Tb  Tb3  1  0.66666700  0.33333300  0.50000000  1
  Tb  Tb4  1  0.75889700  0.75889700  0.75000000  1
  Tb  Tb5  1  0.24110300  0.00000000  0.75000000  1
  Tb  Tb6  1  0.00000000  0.24110300  0.75000000  1
  Tb  Tb7  1  0.24110300  0.24110300  0.25000000  1
  Tb  Tb8  1  0.75889700  0.00000000  0.25000000  1
  Tb  Tb9  1  0.00000000  0.75889700  0.25000000  1
  Sn  Sn10  1  0.39383700  0.39383700  0.75000000  1
  Sn  Sn11  1  0.60616300  0.00000000  0.75000000  1
  Sn  Sn12  1  0.00000000  0.60616300  0.75000000  1
  Sn  Sn13  1  0.60616300  0.60616300  0.25000000  1
  Sn  Sn14  1  0.39383700  0.00000000  0.25000000  1
  Sn  Sn15  1  0.00000000  0.39383700  0.25000000  1
