# generated using pymatgen
data_Sr2TaCoO6
_symmetry_space_group_name_H-M   'P 1'
_cell_length_a   5.60374089
_cell_length_b   5.60540373
_cell_length_c   18.51997828
_cell_angle_alpha   81.68893303
_cell_angle_beta   98.27997010
_cell_angle_gamma   120.04873276
_symmetry_Int_Tables_number   1
_chemical_formula_structural   Sr2TaCoO6
_chemical_formula_sum   'Sr8 Ta4 Co4 O24'
_cell_volume   496.51614303
_cell_formula_units_Z   4
loop_
 _symmetry_equiv_pos_site_id
 _symmetry_equiv_pos_as_xyz
  1  'x, y, z'
loop_
 _atom_site_type_symbol
 _atom_site_label
 _atom_site_symmetry_multiplicity
 _atom_site_fract_x
 _atom_site_fract_y
 _atom_site_fract_z
 _atom_site_occupancy
  Sr  Sr0  1  0.31125600  0.68874200  0.93539500  1
  Sr  Sr1  1  0.56109400  0.43879900  0.68533500  1
  Sr  Sr2  1  0.06290900  0.93715700  0.18888300  1
  Sr  Sr3  1  0.81363100  0.18641000  0.43969100  1
  Sr  Sr4  1  0.93629400  0.06356500  0.81030200  1
  Sr  Sr5  1  0.18891700  0.81111800  0.56469700  1
  Sr  Sr6  1  0.68716800  0.31283600  0.06108800  1
  Sr  Sr7  1  0.43876400  0.56129800  0.31457600  1
  Ta  Ta8  1  0.62341400  0.37674000  0.87124700  1
  Ta  Ta9  1  0.87501000  0.12497400  0.62502300  1
  Ta  Ta10  1  0.37488400  0.62497000  0.12495900  1
  Ta  Ta11  1  0.12671200  0.87327500  0.37875100  1
  Co  Co12  1  0.24901600  0.75087500  0.74886500  1
  Co  Co13  1  0.50097600  0.49905500  0.50115700  1
  Co  Co14  1  0.99940900  0.00060800  0.99843600  1
  Co  Co15  1  0.75058200  0.24939500  0.25153500  1
  O  O16  1  0.94096100  0.56837600  0.80943600  1
  O  O17  1  0.19100800  0.31418200  0.56224100  1
  O  O18  1  0.68777100  0.81322900  0.06126700  1
  O  O19  1  0.43818100  0.05813200  0.31439600  1
  O  O20  1  0.31153100  0.19152100  0.93566600  1
  O  O21  1  0.55903400  0.93586600  0.68778600  1
  O  O22  1  0.06253100  0.43747800  0.18865500  1
  O  O23  1  0.80901900  0.68138500  0.44057500  1
  O  O24  1  0.80788500  0.19151800  0.93417700  1
  O  O25  1  0.06389600  0.93605800  0.68737300  1
  O  O26  1  0.56159900  0.43885300  0.18759100  1
  O  O27  1  0.31738200  0.68277200  0.44046100  1
  O  O28  1  0.43253400  0.56701300  0.80952600  1
  O  O29  1  0.68604500  0.31394300  0.56266600  1
  O  O30  1  0.18871400  0.81168800  0.06241200  1
  O  O31  1  0.94202100  0.05825400  0.31580600  1
  O  O32  1  0.80761800  0.68737700  0.93554000  1
  O  O33  1  0.06406900  0.44090100  0.68775100  1
  O  O34  1  0.56274400  0.93755600  0.18861500  1
  O  O35  1  0.31873900  0.19105000  0.44056200  1
  O  O36  1  0.43125500  0.05876100  0.80945600  1
  O  O37  1  0.68582300  0.80901900  0.56225800  1
  O  O38  1  0.18745100  0.31311400  0.06140500  1
  O  O39  1  0.94215100  0.56213500  0.31444100  1
