# generated using pymatgen
data_SrZnAsF
_symmetry_space_group_name_H-M   'P 1'
_cell_length_a   4.15393700
_cell_length_b   4.15393700
_cell_length_c   9.17486800
_cell_angle_alpha   90.00000000
_cell_angle_beta   90.00000000
_cell_angle_gamma   90.00000000
_symmetry_Int_Tables_number   1
_chemical_formula_structural   SrZnAsF
_chemical_formula_sum   'Sr2 Zn2 As2 F2'
_cell_volume   158.31411442
_cell_formula_units_Z   2
loop_
 _symmetry_equiv_pos_site_id
 _symmetry_equiv_pos_as_xyz
  1  'x, y, z'
loop_
 _atom_site_type_symbol
 _atom_site_label
 _atom_site_symmetry_multiplicity
 _atom_site_fract_x
 _atom_site_fract_y
 _atom_site_fract_z
 _atom_site_occupancy
  Sr  Sr0  1  0.00000000  0.50000000  0.84619000  1
  Sr  Sr1  1  0.50000000  0.00000000  0.15381000  1
  Zn  Zn2  1  0.50000000  0.50000000  0.50000000  1
  Zn  Zn3  1  0.00000000  0.00000000  0.50000000  1
  As  As4  1  0.00000000  0.50000000  0.32968900  1
  As  As5  1  0.50000000  0.00000000  0.67031100  1
  F  F6  1  0.50000000  0.50000000  0.00000000  1
  F  F7  1  0.00000000  0.00000000  0.00000000  1
