# generated using pymatgen
data_EuCl2
_symmetry_space_group_name_H-M   'P 1'
_cell_length_a   6.71951200
_cell_length_b   6.71951200
_cell_length_c   4.42539700
_cell_angle_alpha   90.00000000
_cell_angle_beta   90.00000000
_cell_angle_gamma   90.00000000
_symmetry_Int_Tables_number   1
_chemical_formula_structural   EuCl2
_chemical_formula_sum   'Eu2 Cl4'
_cell_volume   199.81482400
_cell_formula_units_Z   2
loop_
 _symmetry_equiv_pos_site_id
 _symmetry_equiv_pos_as_xyz
  1  'x, y, z'
loop_
 _atom_site_type_symbol
 _atom_site_label
 _atom_site_symmetry_multiplicity
 _atom_site_fract_x
 _atom_site_fract_y
 _atom_site_fract_z
 _atom_site_occupancy
  Eu  Eu0  1  0.00000000  0.00000000  0.00000000  1
  Eu  Eu1  1  0.50000000  0.50000000  0.50000000  1
  Cl  Cl2  1  0.30388800  0.30388800  0.00000000  1
  Cl  Cl3  1  0.69611200  0.69611200  0.00000000  1
  Cl  Cl4  1  0.19611200  0.80388800  0.50000000  1
  Cl  Cl5  1  0.80388800  0.19611200  0.50000000  1
