# generated using pymatgen
data_Tb2SiSeO4
_symmetry_space_group_name_H-M   'P 1'
_cell_length_a   6.08868800
_cell_length_b   7.01891200
_cell_length_c   10.88897200
_cell_angle_alpha   90.00000000
_cell_angle_beta   90.00000000
_cell_angle_gamma   90.00000000
_symmetry_Int_Tables_number   1
_chemical_formula_structural   Tb2SiSeO4
_chemical_formula_sum   'Tb8 Si4 Se4 O16'
_cell_volume   465.35072919
_cell_formula_units_Z   4
loop_
 _symmetry_equiv_pos_site_id
 _symmetry_equiv_pos_as_xyz
  1  'x, y, z'
loop_
 _atom_site_type_symbol
 _atom_site_label
 _atom_site_symmetry_multiplicity
 _atom_site_fract_x
 _atom_site_fract_y
 _atom_site_fract_z
 _atom_site_occupancy
  Tb  Tb0  1  0.39045600  0.75000000  0.50000000  1
  Tb  Tb1  1  0.39045600  0.75000000  0.00000000  1
  Tb  Tb2  1  0.60954400  0.25000000  0.50000000  1
  Tb  Tb3  1  0.60954400  0.25000000  0.00000000  1
  Tb  Tb4  1  0.86665500  0.97036800  0.75000000  1
  Tb  Tb5  1  0.86665500  0.52963200  0.25000000  1
  Tb  Tb6  1  0.13334500  0.47036800  0.75000000  1
  Tb  Tb7  1  0.13334500  0.02963200  0.25000000  1
  Si  Si8  1  0.11462000  0.25000000  0.00000000  1
  Si  Si9  1  0.88538000  0.75000000  0.00000000  1
  Si  Si10  1  0.88538000  0.75000000  0.50000000  1
  Si  Si11  1  0.11462000  0.25000000  0.50000000  1
  Se  Se12  1  0.57125400  0.62874200  0.75000000  1
  Se  Se13  1  0.57125400  0.87125800  0.25000000  1
  Se  Se14  1  0.42874600  0.12874200  0.75000000  1
  Se  Se15  1  0.42874600  0.37125800  0.25000000  1
  O  O16  1  0.27693900  0.06941400  0.46829400  1
  O  O17  1  0.27693900  0.43058600  0.53170600  1
  O  O18  1  0.72306100  0.56941400  0.03170600  1
  O  O19  1  0.72306100  0.93058600  0.96829400  1
  O  O20  1  0.72306100  0.93058600  0.53170600  1
  O  O21  1  0.72306100  0.56941400  0.46829400  1
  O  O22  1  0.27693900  0.43058600  0.96829400  1
  O  O23  1  0.27693900  0.06941400  0.03170600  1
  O  O24  1  0.05120000  0.76097300  0.37975400  1
  O  O25  1  0.05120000  0.76097300  0.12024600  1
  O  O26  1  0.94880000  0.26097300  0.12024600  1
  O  O27  1  0.94880000  0.23902700  0.87975400  1
  O  O28  1  0.94880000  0.23902700  0.62024600  1
  O  O29  1  0.94880000  0.26097300  0.37975400  1
  O  O30  1  0.05120000  0.73902700  0.87975400  1
  O  O31  1  0.05120000  0.73902700  0.62024600  1
