# generated using pymatgen
data_Rb2Ni2(SO4)3
_symmetry_space_group_name_H-M   'P 1'
_cell_length_a   10.09874400
_cell_length_b   10.09874400
_cell_length_c   10.09874400
_cell_angle_alpha   90.00000000
_cell_angle_beta   90.00000000
_cell_angle_gamma   90.00000000
_symmetry_Int_Tables_number   1
_chemical_formula_structural   Rb2Ni2(SO4)3
_chemical_formula_sum   'Rb8 Ni8 S12 O48'
_cell_volume   1029.91667412
_cell_formula_units_Z   4
loop_
 _symmetry_equiv_pos_site_id
 _symmetry_equiv_pos_as_xyz
  1  'x, y, z'
loop_
 _atom_site_type_symbol
 _atom_site_label
 _atom_site_symmetry_multiplicity
 _atom_site_fract_x
 _atom_site_fract_y
 _atom_site_fract_z
 _atom_site_occupancy
  Rb  Rb0  1  0.04786200  0.04786200  0.04786200  1
  Rb  Rb1  1  0.45213800  0.95213800  0.54786200  1
  Rb  Rb2  1  0.95213800  0.54786200  0.45213800  1
  Rb  Rb3  1  0.54786200  0.45213800  0.95213800  1
  Rb  Rb4  1  0.81665400  0.81665400  0.81665400  1
  Rb  Rb5  1  0.68334600  0.18334600  0.31665400  1
  Rb  Rb6  1  0.18334600  0.31665400  0.68334600  1
  Rb  Rb7  1  0.31665400  0.68334600  0.18334600  1
  Ni  Ni8  1  0.33518200  0.33518200  0.33518200  1
  Ni  Ni9  1  0.16481800  0.66481800  0.83518200  1
  Ni  Ni10  1  0.66481800  0.83518200  0.16481800  1
  Ni  Ni11  1  0.83518200  0.16481800  0.66481800  1
  Ni  Ni12  1  0.59708900  0.59708900  0.59708900  1
  Ni  Ni13  1  0.90291100  0.40291100  0.09708900  1
  Ni  Ni14  1  0.40291100  0.09708900  0.90291100  1
  Ni  Ni15  1  0.09708900  0.90291100  0.40291100  1
  S  S16  1  0.01877400  0.21561200  0.37582900  1
  S  S17  1  0.48122600  0.78438800  0.87582900  1
  S  S18  1  0.98122600  0.71561200  0.12417100  1
  S  S19  1  0.37582900  0.01877400  0.21561200  1
  S  S20  1  0.51877400  0.28438800  0.62417100  1
  S  S21  1  0.87582900  0.48122600  0.78438800  1
  S  S22  1  0.12417100  0.98122600  0.71561200  1
  S  S23  1  0.62417100  0.51877400  0.28438800  1
  S  S24  1  0.21561200  0.37582900  0.01877400  1
  S  S25  1  0.71561200  0.12417100  0.98122600  1
  S  S26  1  0.28438800  0.62417100  0.51877400  1
  S  S27  1  0.78438800  0.87582900  0.48122600  1
  O  O28  1  0.00989900  0.07519000  0.33021300  1
  O  O29  1  0.49010100  0.92481000  0.83021300  1
  O  O30  1  0.99010100  0.57519000  0.16978700  1
  O  O31  1  0.33021300  0.00989900  0.07519000  1
  O  O32  1  0.50989900  0.42481000  0.66978700  1
  O  O33  1  0.83021300  0.49010100  0.92481000  1
  O  O34  1  0.16978700  0.99010100  0.57519000  1
  O  O35  1  0.66978700  0.50989900  0.42481000  1
  O  O36  1  0.07519000  0.33021300  0.00989900  1
  O  O37  1  0.57519000  0.16978700  0.99010100  1
  O  O38  1  0.42481000  0.66978700  0.50989900  1
  O  O39  1  0.92481000  0.83021300  0.49010100  1
  O  O40  1  0.26518500  0.50000100  0.44142300  1
  O  O41  1  0.23481500  0.49999900  0.94142300  1
  O  O42  1  0.73481500  0.00000100  0.05857700  1
  O  O43  1  0.44142300  0.26518500  0.50000100  1
  O  O44  1  0.76518500  0.99999900  0.55857700  1
  O  O45  1  0.94142300  0.23481500  0.49999900  1
  O  O46  1  0.05857700  0.73481500  0.00000100  1
  O  O47  1  0.55857700  0.76518500  0.99999900  1
  O  O48  1  0.50000100  0.44142300  0.26518500  1
  O  O49  1  0.00000100  0.05857700  0.73481500  1
  O  O50  1  0.99999900  0.55857700  0.76518500  1
  O  O51  1  0.49999900  0.94142300  0.23481500  1
  O  O52  1  0.04169500  0.80272300  0.22587200  1
  O  O53  1  0.45830500  0.19727700  0.72587200  1
  O  O54  1  0.95830500  0.30272300  0.27412800  1
  O  O55  1  0.22587200  0.04169500  0.80272300  1
  O  O56  1  0.54169500  0.69727700  0.77412800  1
  O  O57  1  0.72587200  0.45830500  0.19727700  1
  O  O58  1  0.27412800  0.95830500  0.30272300  1
  O  O59  1  0.77412800  0.54169500  0.69727700  1
  O  O60  1  0.80272300  0.22587200  0.04169500  1
  O  O61  1  0.30272300  0.27412800  0.95830500  1
  O  O62  1  0.69727700  0.77412800  0.54169500  1
  O  O63  1  0.19727700  0.72587200  0.45830500  1
  O  O64  1  0.15819700  0.25343200  0.40207600  1
  O  O65  1  0.34180300  0.74656800  0.90207600  1
  O  O66  1  0.84180300  0.75343200  0.09792400  1
  O  O67  1  0.40207600  0.15819700  0.25343200  1
  O  O68  1  0.65819700  0.24656800  0.59792400  1
  O  O69  1  0.90207600  0.34180300  0.74656800  1
  O  O70  1  0.09792400  0.84180300  0.75343200  1
  O  O71  1  0.59792400  0.65819700  0.24656800  1
  O  O72  1  0.25343200  0.40207600  0.15819700  1
  O  O73  1  0.75343200  0.09792400  0.84180300  1
  O  O74  1  0.24656800  0.59792400  0.65819700  1
  O  O75  1  0.74656800  0.90207600  0.34180300  1
