# generated using pymatgen
data_La12Co6Pb
_symmetry_space_group_name_H-M   'P 1'
_cell_length_a   8.84683921
_cell_length_b   8.84683921
_cell_length_c   8.84683921
_cell_angle_alpha   109.47122063
_cell_angle_beta   109.47122063
_cell_angle_gamma   109.47122063
_symmetry_Int_Tables_number   1
_chemical_formula_structural   La12Co6Pb
_chemical_formula_sum   'La12 Co6 Pb1'
_cell_volume   533.01878099
_cell_formula_units_Z   1
loop_
 _symmetry_equiv_pos_site_id
 _symmetry_equiv_pos_as_xyz
  1  'x, y, z'
loop_
 _atom_site_type_symbol
 _atom_site_label
 _atom_site_symmetry_multiplicity
 _atom_site_fract_x
 _atom_site_fract_y
 _atom_site_fract_z
 _atom_site_occupancy
  La  La0  1  0.81028700  0.68798500  0.49827200  1
  La  La1  1  0.18971300  0.31201500  0.50172800  1
  La  La2  1  0.18971300  0.68798500  0.87769900  1
  La  La3  1  0.81028700  0.31201500  0.12230100  1
  La  La4  1  0.68798500  0.49827200  0.81028700  1
  La  La5  1  0.31201500  0.50172800  0.18971300  1
  La  La6  1  0.68798500  0.87769900  0.18971300  1
  La  La7  1  0.31201500  0.12230100  0.81028700  1
  La  La8  1  0.49827200  0.81028700  0.68798500  1
  La  La9  1  0.50172800  0.18971300  0.31201500  1
  La  La10  1  0.12230100  0.81028700  0.31201500  1
  La  La11  1  0.87769900  0.18971300  0.68798500  1
  Co  Co12  1  0.87926800  0.37926800  0.50000000  1
  Co  Co13  1  0.12073200  0.62073200  0.50000000  1
  Co  Co14  1  0.37926800  0.50000000  0.87926800  1
  Co  Co15  1  0.62073200  0.50000000  0.12073200  1
  Co  Co16  1  0.50000000  0.87926800  0.37926800  1
  Co  Co17  1  0.50000000  0.12073200  0.62073200  1
  Pb  Pb18  1  0.00000000  0.00000000  0.00000000  1
