# generated using pymatgen
data_Sb9Se4F39
_symmetry_space_group_name_H-M   'P 1'
_cell_length_a   13.73916703
_cell_length_b   15.98224477
_cell_length_c   17.44368972
_cell_angle_alpha   92.15453738
_cell_angle_beta   90.00000000
_cell_angle_gamma   90.00000000
_symmetry_Int_Tables_number   1
_chemical_formula_structural   Sb9Se4F39
_chemical_formula_sum   'Sb36 Se16 F156'
_cell_volume   3827.62520726
_cell_formula_units_Z   4
loop_
 _symmetry_equiv_pos_site_id
 _symmetry_equiv_pos_as_xyz
  1  'x, y, z'
loop_
 _atom_site_type_symbol
 _atom_site_label
 _atom_site_symmetry_multiplicity
 _atom_site_fract_x
 _atom_site_fract_y
 _atom_site_fract_z
 _atom_site_occupancy
  F  F0  1  0.47881275  0.93288291  0.96938664  1
  F  F1  1  0.97881275  0.06711709  0.53061336  1
  F  F2  1  0.52118725  0.06711709  0.03061336  1
  F  F3  1  0.02118725  0.93288291  0.46938664  1
  F  F4  1  0.67138456  0.99138584  0.94938631  1
  F  F5  1  0.17138456  0.00861416  0.55061369  1
  F  F6  1  0.32861544  0.00861416  0.05061369  1
  F  F7  1  0.82861544  0.99138584  0.44938631  1
  F  F8  1  0.51793124  0.56553212  0.96985934  1
  F  F9  1  0.01793124  0.43446788  0.53014066  1
  F  F10  1  0.48206876  0.43446788  0.03014066  1
  F  F11  1  0.98206876  0.56553212  0.46985934  1
  F  F12  1  0.32186555  0.50561797  0.96607908  1
  F  F13  1  0.82186555  0.49438203  0.53392092  1
  F  F14  1  0.67813445  0.49438203  0.03392092  1
  F  F15  1  0.17813445  0.50561797  0.46607908  1
  F  F16  1  0.56415609  0.90987212  0.83293739  1
  F  F17  1  0.06415609  0.09012788  0.66706261  1
  F  F18  1  0.43584391  0.09012788  0.16706261  1
  F  F19  1  0.93584391  0.90987212  0.33293739  1
  F  F20  1  0.55593591  0.82384213  0.69332847  1
  F  F21  1  0.05593591  0.17615787  0.80667153  1
  F  F22  1  0.44406409  0.17615787  0.30667153  1
  F  F23  1  0.94406409  0.82384213  0.19332847  1
  F  F24  1  0.49065077  0.74873359  0.82271256  1
  F  F25  1  0.99065077  0.25126641  0.67728744  1
  F  F26  1  0.50934923  0.25126641  0.17728744  1
  F  F27  1  0.00934923  0.74873359  0.32271256  1
  F  F28  1  0.40903598  0.58918967  0.84444876  1
  F  F29  1  0.90903598  0.41081033  0.65555124  1
  F  F30  1  0.59096402  0.41081033  0.15555124  1
  F  F31  1  0.09096402  0.58918967  0.34444876  1
  F  F32  1  0.41670210  0.65345929  0.69994555  1
  F  F33  1  0.91670210  0.34654071  0.80005445  1
  F  F34  1  0.58329790  0.34654071  0.30005445  1
  F  F35  1  0.08329790  0.65345929  0.19994555  1
  F  F36  1  0.24085402  0.58154855  0.75673172  1
  F  F37  1  0.74085402  0.41845145  0.74326828  1
  F  F38  1  0.75914598  0.41845145  0.24326828  1
  F  F39  1  0.25914598  0.58154855  0.25673172  1
  F  F40  1  0.13405716  0.35494853  0.75383026  1
  F  F41  1  0.63405716  0.64505147  0.74616974  1
  F  F42  1  0.86594284  0.64505147  0.24616974  1
  F  F43  1  0.36594284  0.35494853  0.25383026  1
  F  F44  1  0.30124422  0.43219523  0.80867009  1
  F  F45  1  0.80124422  0.56780477  0.69132991  1
  F  F46  1  0.69875578  0.56780477  0.19132991  1
  F  F47  1  0.19875578  0.43219523  0.30867009  1
  F  F48  1  0.07576347  0.50798007  0.70228065  1
  F  F49  1  0.57576347  0.49201993  0.79771935  1
  F  F50  1  0.92423653  0.49201993  0.29771935  1
  F  F51  1  0.42423653  0.50798007  0.20228065  1
  F  F52  1  0.24978934  0.44375613  0.66007467  1
  F  F53  1  0.74978934  0.55624387  0.83992533  1
  F  F54  1  0.75021066  0.55624387  0.33992533  1
  F  F55  1  0.25021066  0.44375613  0.16007467  1
  F  F56  1  0.12523196  0.49268123  0.85122466  1
  F  F57  1  0.62523196  0.50731877  0.64877534  1
  F  F58  1  0.87476804  0.50731877  0.14877534  1
  F  F59  1  0.37476804  0.49268123  0.35122466  1
  F  F60  1  0.73395366  0.91611903  0.74827284  1
  F  F61  1  0.23395366  0.08388097  0.75172716  1
  F  F62  1  0.26604634  0.08388097  0.25172716  1
  F  F63  1  0.76604634  0.91611903  0.24827284  1
  F  F64  1  0.81665822  0.14360535  0.71508238  1
  F  F65  1  0.31665822  0.85639465  0.78491762  1
  F  F66  1  0.18334178  0.85639465  0.28491762  1
  F  F67  1  0.68334178  0.14360535  0.21508238  1
  F  F68  1  0.85693015  0.02838935  0.82059351  1
  F  F69  1  0.35693015  0.97161065  0.67940649  1
  F  F70  1  0.14306985  0.97161065  0.17940649  1
  F  F71  1  0.64306985  0.02838935  0.32059351  1
  F  F72  1  0.69119482  0.03246849  0.64452097  1
  F  F73  1  0.19119482  0.96753151  0.85547903  1
  F  F74  1  0.30880518  0.96753151  0.35547903  1
  F  F75  1  0.80880518  0.03246849  0.14452097  1
  F  F76  1  0.67008150  0.06761385  0.79797954  1
  F  F77  1  0.17008150  0.93238615  0.70202046  1
  F  F78  1  0.32991850  0.93238615  0.20202046  1
  F  F79  1  0.82991850  0.06761385  0.29797954  1
  F  F80  1  0.87968454  0.98919984  0.66912599  1
  F  F81  1  0.37968454  0.01080016  0.83087401  1
  F  F82  1  0.12031546  0.01080016  0.33087401  1
  F  F83  1  0.62031546  0.98919984  0.16912599  1
  F  F84  1  0.68414879  0.27659702  0.04801005  1
  F  F85  1  0.18414879  0.72340298  0.45198995  1
  F  F86  1  0.31585121  0.72340298  0.95198995  1
  F  F87  1  0.81585121  0.27659702  0.54801005  1
  F  F88  1  0.73455220  0.25701208  0.83129683  1
  F  F89  1  0.23455220  0.74298792  0.66870317  1
  F  F90  1  0.26544780  0.74298792  0.16870317  1
  F  F91  1  0.76544780  0.25701208  0.33129683  1
  F  F92  1  0.79637151  0.36197584  0.94813275  1
  F  F93  1  0.29637151  0.63802416  0.55186725  1
  F  F94  1  0.20362849  0.63802416  0.05186725  1
  F  F95  1  0.70362849  0.36197584  0.44813275  1
  F  F96  1  0.62175712  0.17118716  0.93235433  1
  F  F97  1  0.12175712  0.82881284  0.56764567  1
  F  F98  1  0.37824288  0.82881284  0.06764567  1
  F  F99  1  0.87824288  0.17118716  0.43235433  1
  F  F100  1  0.81556522  0.19320132  0.95746962  1
  F  F101  1  0.31556522  0.80679868  0.54253038  1
  F  F102  1  0.18443478  0.80679868  0.04253038  1
  F  F103  1  0.68443478  0.19320132  0.45746962  1
  F  F104  1  0.60270721  0.33986719  0.92054031  1
  F  F105  1  0.10270721  0.66013281  0.57945969  1
  F  F106  1  0.39729279  0.66013281  0.07945969  1
  F  F107  1  0.89729279  0.33986719  0.42054031  1
  F  F108  1  0.18438598  0.31012652  0.98111499  1
  F  F109  1  0.68438598  0.68987348  0.51888501  1
  F  F110  1  0.81561402  0.68987348  0.01888501  1
  F  F111  1  0.31561402  0.31012652  0.48111499  1
  F  F112  1  0.39308979  0.16279038  0.92571930  1
  F  F113  1  0.89308979  0.83720962  0.57428070  1
  F  F114  1  0.60691021  0.83720962  0.07428070  1
  F  F115  1  0.10691021  0.16279038  0.42571930  1
  F  F116  1  0.37340640  0.33120832  0.94111184  1
  F  F117  1  0.87340640  0.66879168  0.55888816  1
  F  F118  1  0.62659360  0.66879168  0.05888816  1
  F  F119  1  0.12659360  0.33120832  0.44111184  1
  F  F120  1  0.20160141  0.14030077  0.96273678  1
  F  F121  1  0.70160141  0.85969923  0.53726322  1
  F  F122  1  0.79839859  0.85969923  0.03726322  1
  F  F123  1  0.29839859  0.14030077  0.46273678  1
  F  F124  1  0.25073035  0.24090015  0.84712804  1
  F  F125  1  0.75073035  0.75909985  0.65287196  1
  F  F126  1  0.74926965  0.75909985  0.15287196  1
  F  F127  1  0.24926965  0.24090015  0.34712804  1
  F  F128  1  0.32602256  0.23041355  0.05841547  1
  F  F129  1  0.82602256  0.76958645  0.44158453  1
  F  F130  1  0.67397744  0.76958645  0.94158453  1
  F  F131  1  0.17397744  0.23041355  0.55841547  1
  F  F132  1  0.99033496  0.82778511  0.90117688  1
  F  F133  1  0.49033496  0.17221489  0.59882312  1
  F  F134  1  0.00966504  0.17221489  0.09882312  1
  F  F135  1  0.50966504  0.82778511  0.40117688  1
  F  F136  1  0.96600201  0.68481112  0.72097025  1
  F  F137  1  0.46600201  0.31518888  0.77902975  1
  F  F138  1  0.03399799  0.31518888  0.27902975  1
  F  F139  1  0.53399799  0.68481112  0.22097025  1
  F  F140  1  0.11394361  0.73174622  0.81730830  1
  F  F141  1  0.61394361  0.26825378  0.68269170  1
  F  F142  1  0.88605639  0.26825378  0.18269170  1
  F  F143  1  0.38605639  0.73174622  0.31730830  1
  F  F144  1  0.84020476  0.77962693  0.81027451  1
  F  F145  1  0.34020476  0.22037307  0.68972549  1
  F  F146  1  0.15979524  0.22037307  0.18972549  1
  F  F147  1  0.65979524  0.77962693  0.31027451  1
  F  F148  1  0.95001115  0.66372777  0.87383566  1
  F  F149  1  0.45001115  0.33627223  0.62616434  1
  F  F150  1  0.04998885  0.33627223  0.12616434  1
  F  F151  1  0.54998885  0.66372777  0.37383566  1
  F  F152  1  0.00076287  0.85184027  0.74698592  1
  F  F153  1  0.50076287  0.14815973  0.75301408  1
  F  F154  1  0.99923713  0.14815973  0.25301408  1
  F  F155  1  0.49923713  0.85184027  0.24698592  1
  Se  Se156  1  0.61356907  0.98786551  0.47351133  1
  Se  Se157  1  0.11356907  0.01213449  0.02648867  1
  Se  Se158  1  0.38643093  0.01213449  0.52648867  1
  Se  Se159  1  0.88643093  0.98786551  0.97351133  1
  Se  Se160  1  0.51553712  0.93051871  0.56557364  1
  Se  Se161  1  0.01553712  0.06948129  0.93442636  1
  Se  Se162  1  0.48446288  0.06948129  0.43442636  1
  Se  Se163  1  0.98446288  0.93051871  0.06557364  1
  Se  Se164  1  0.59551496  0.51426272  0.44510615  1
  Se  Se165  1  0.09551496  0.48573728  0.05489385  1
  Se  Se166  1  0.40448504  0.48573728  0.55489385  1
  Se  Se167  1  0.90448504  0.51426272  0.94510615  1
  Se  Se168  1  0.46776383  0.59696809  0.48926834  1
  Se  Se169  1  0.96776383  0.40303191  0.01073166  1
  Se  Se170  1  0.53223617  0.40303191  0.51073166  1
  Se  Se171  1  0.03223617  0.59696809  0.98926834  1
  Sb  Sb172  1  0.54840862  0.03083088  0.91089814  1
  Sb  Sb173  1  0.04840862  0.96916912  0.58910186  1
  Sb  Sb174  1  0.45159138  0.96916912  0.08910186  1
  Sb  Sb175  1  0.95159138  0.03083088  0.41089814  1
  Sb  Sb176  1  0.43775149  0.46501228  0.91585511  1
  Sb  Sb177  1  0.93775149  0.53498772  0.58414489  1
  Sb  Sb178  1  0.56224851  0.53498772  0.08414489  1
  Sb  Sb179  1  0.06224851  0.46501228  0.41585511  1
  Sb  Sb180  1  0.62380067  0.80278676  0.78746827  1
  Sb  Sb181  1  0.12380067  0.19721324  0.71253173  1
  Sb  Sb182  1  0.37619933  0.19721324  0.21253173  1
  Sb  Sb183  1  0.87619933  0.80278676  0.28746827  1
  Sb  Sb184  1  0.35237212  0.68800202  0.79362823  1
  Sb  Sb185  1  0.85237212  0.31199798  0.70637177  1
  Sb  Sb186  1  0.64762788  0.31199798  0.20637177  1
  Sb  Sb187  1  0.14762788  0.68800202  0.29362823  1
  Sb  Sb188  1  0.18647318  0.46729656  0.75548042  1
  Sb  Sb189  1  0.68647318  0.53270344  0.74451958  1
  Sb  Sb190  1  0.81352682  0.53270344  0.24451958  1
  Sb  Sb191  1  0.31352682  0.46729656  0.25548042  1
  Sb  Sb192  1  0.77465235  0.03116282  0.73149591  1
  Sb  Sb193  1  0.27465235  0.96883718  0.76850409  1
  Sb  Sb194  1  0.22534765  0.96883718  0.26850409  1
  Sb  Sb195  1  0.72534765  0.03116282  0.23149591  1
  Sb  Sb196  1  0.70939345  0.26711351  0.93942155  1
  Sb  Sb197  1  0.20939345  0.73288649  0.56057845  1
  Sb  Sb198  1  0.29060655  0.73288649  0.06057845  1
  Sb  Sb199  1  0.79060655  0.26711351  0.43942155  1
  Sb  Sb200  1  0.28709700  0.23515701  0.95253466  1
  Sb  Sb201  1  0.78709700  0.76484299  0.54746534  1
  Sb  Sb202  1  0.71290300  0.76484299  0.04746534  1
  Sb  Sb203  1  0.21290300  0.23515701  0.45253466  1
  Sb  Sb204  1  0.97811284  0.75825646  0.80934258  1
  Sb  Sb205  1  0.47811284  0.24174354  0.69065742  1
  Sb  Sb206  1  0.02188716  0.24174354  0.19065742  1
  Sb  Sb207  1  0.52188716  0.75825646  0.30934258  1
