# generated using pymatgen
data_KAlNiF6
_symmetry_space_group_name_H-M   'P 1'
_cell_length_a   7.12141758
_cell_length_b   7.12141758
_cell_length_c   7.12141758
_cell_angle_alpha   120.28232950
_cell_angle_beta   119.82624883
_cell_angle_gamma   89.90644866
_symmetry_Int_Tables_number   1
_chemical_formula_structural   KAlNiF6
_chemical_formula_sum   'K2 Al2 Ni2 F12'
_cell_volume   255.16352664
_cell_formula_units_Z   2
loop_
 _symmetry_equiv_pos_site_id
 _symmetry_equiv_pos_as_xyz
  1  'x, y, z'
loop_
 _atom_site_type_symbol
 _atom_site_label
 _atom_site_symmetry_multiplicity
 _atom_site_fract_x
 _atom_site_fract_y
 _atom_site_fract_z
 _atom_site_occupancy
  K  K0  1  0.61786300  0.86786300  0.75000000  1
  K  K1  1  0.38213700  0.13213700  0.25000000  1
  Al  Al2  1  0.00000000  0.50000000  0.00000000  1
  Al  Al3  1  0.00000000  0.00000000  0.50000000  1
  Ni  Ni4  1  0.50000000  0.50000000  0.00000000  1
  Ni  Ni5  1  0.00000000  0.50000000  0.50000000  1
  F  F6  1  0.05106300  0.80106300  0.25000000  1
  F  F7  1  0.66165200  0.41165200  0.25000000  1
  F  F8  1  0.06006500  0.83829800  0.64178400  1
  F  F9  1  0.69651400  0.41828100  0.85821600  1
  F  F10  1  0.69651400  0.83829800  0.27823300  1
  F  F11  1  0.06006500  0.41828100  0.22176700  1
  F  F12  1  0.94893700  0.19893700  0.75000000  1
  F  F13  1  0.33834800  0.58834800  0.75000000  1
  F  F14  1  0.93993500  0.16170200  0.35821600  1
  F  F15  1  0.30348600  0.58171900  0.14178400  1
  F  F16  1  0.30348600  0.16170200  0.72176700  1
  F  F17  1  0.93993500  0.58171900  0.77823300  1
