# generated using pymatgen
data_Cs4BiAs3Se7
_symmetry_space_group_name_H-M   'P 1'
_cell_length_a   13.74845035
_cell_length_b   14.29513307
_cell_length_c   24.27285753
_cell_angle_alpha   90.00000000
_cell_angle_beta   90.00000000
_cell_angle_gamma   98.41237695
_symmetry_Int_Tables_number   1
_chemical_formula_structural   Cs4BiAs3Se7
_chemical_formula_sum   'Cs32 Bi8 As24 Se56'
_cell_volume   4719.16169907
_cell_formula_units_Z   8
loop_
 _symmetry_equiv_pos_site_id
 _symmetry_equiv_pos_as_xyz
  1  'x, y, z'
loop_
 _atom_site_type_symbol
 _atom_site_label
 _atom_site_symmetry_multiplicity
 _atom_site_fract_x
 _atom_site_fract_y
 _atom_site_fract_z
 _atom_site_occupancy
  Cs  Cs0  1  0.23383832  0.90731792  0.72604384  1
  Cs  Cs1  1  0.73383832  0.40731792  0.77395616  1
  Cs  Cs2  1  0.76616168  0.09268208  0.27395616  1
  Cs  Cs3  1  0.26616168  0.59268208  0.22604384  1
  Cs  Cs4  1  0.53808604  0.39446397  0.07354671  1
  Cs  Cs5  1  0.03808604  0.89446397  0.42645329  1
  Cs  Cs6  1  0.46191396  0.60553603  0.92645329  1
  Cs  Cs7  1  0.96191396  0.10553603  0.57354671  1
  Cs  Cs8  1  0.54989732  0.11266885  0.68679183  1
  Cs  Cs9  1  0.04989732  0.61266885  0.81320817  1
  Cs  Cs10  1  0.45010268  0.88733115  0.31320817  1
  Cs  Cs11  1  0.95010268  0.38733115  0.18679183  1
  Cs  Cs12  1  0.84286236  0.57496692  0.02159370  1
  Cs  Cs13  1  0.34286236  0.07496692  0.47840630  1
  Cs  Cs14  1  0.15713764  0.42503308  0.97840630  1
  Cs  Cs15  1  0.65713764  0.92503308  0.52159370  1
  Cs  Cs16  1  0.07429297  0.37969975  0.65806630  1
  Cs  Cs17  1  0.57429297  0.87969975  0.84193370  1
  Cs  Cs18  1  0.92570703  0.62030025  0.34193370  1
  Cs  Cs19  1  0.42570703  0.12030025  0.15806630  1
  Cs  Cs20  1  0.87647095  0.04633086  0.76479291  1
  Cs  Cs21  1  0.37647095  0.54633086  0.73520709  1
  Cs  Cs22  1  0.12352905  0.95366914  0.23520709  1
  Cs  Cs23  1  0.62352905  0.45366914  0.26479291  1
  Cs  Cs24  1  0.01405372  0.12904392  0.06575257  1
  Cs  Cs25  1  0.51405372  0.62904392  0.43424743  1
  Cs  Cs26  1  0.98594628  0.87095608  0.93424743  1
  Cs  Cs27  1  0.48594628  0.37095608  0.56575257  1
  Cs  Cs28  1  0.68914723  0.92969095  0.03317241  1
  Cs  Cs29  1  0.18914723  0.42969095  0.46682759  1
  Cs  Cs30  1  0.31085277  0.07030905  0.96682759  1
  Cs  Cs31  1  0.81085277  0.57030905  0.53317241  1
  Bi  Bi32  1  0.75119087  0.25489479  0.94451723  1
  Bi  Bi33  1  0.25119087  0.75489479  0.55548277  1
  Bi  Bi34  1  0.24880913  0.74510521  0.05548277  1
  Bi  Bi35  1  0.74880913  0.24510521  0.44451723  1
  Bi  Bi36  1  0.25256743  0.22183821  0.79555731  1
  Bi  Bi37  1  0.75256743  0.72183821  0.70444269  1
  Bi  Bi38  1  0.74743257  0.77816179  0.20444269  1
  Bi  Bi39  1  0.24743257  0.27816179  0.29555731  1
  As  As40  1  0.27400548  0.16852612  0.64359828  1
  As  As41  1  0.77400548  0.66852612  0.85640172  1
  As  As42  1  0.72599452  0.83147388  0.35640172  1
  As  As43  1  0.22599452  0.33147388  0.14359828  1
  As  As44  1  0.74343074  0.19123636  0.09505072  1
  As  As45  1  0.24343074  0.69123636  0.40494928  1
  As  As46  1  0.25656926  0.80876364  0.90494928  1
  As  As47  1  0.75656926  0.30876364  0.59505072  1
  As  As48  1  0.97523496  0.28743362  0.83321758  1
  As  As49  1  0.47523496  0.78743362  0.66678242  1
  As  As50  1  0.02476504  0.71256638  0.16678242  1
  As  As51  1  0.52476504  0.21256638  0.33321758  1
  As  As52  1  0.02933641  0.19265832  0.91177661  1
  As  As53  1  0.52933641  0.69265832  0.58822339  1
  As  As54  1  0.97066359  0.80734168  0.08822339  1
  As  As55  1  0.47066359  0.30734168  0.41177661  1
  As  As56  1  0.48462062  0.27982038  0.91722795  1
  As  As57  1  0.98462062  0.77982038  0.58277205  1
  As  As58  1  0.51537938  0.72017962  0.08277205  1
  As  As59  1  0.01537938  0.22017962  0.41722795  1
  As  As60  1  0.52407373  0.22246520  0.82363592  1
  As  As61  1  0.02407373  0.72246520  0.67636408  1
  As  As62  1  0.47592627  0.77753480  0.17636408  1
  As  As63  1  0.97592627  0.27753480  0.32363592  1
  Se  Se64  1  0.13153370  0.13376011  0.70479643  1
  Se  Se65  1  0.63153370  0.63376011  0.79520357  1
  Se  Se66  1  0.86846630  0.86623989  0.29520357  1
  Se  Se67  1  0.36846630  0.36623989  0.20479643  1
  Se  Se68  1  0.36904252  0.29607862  0.69753530  1
  Se  Se69  1  0.86904252  0.79607862  0.80246470  1
  Se  Se70  1  0.63095748  0.70392138  0.30246470  1
  Se  Se71  1  0.13095748  0.20392138  0.19753530  1
  Se  Se72  1  0.21974640  0.24101211  0.56348791  1
  Se  Se73  1  0.71974640  0.74101211  0.93651209  1
  Se  Se74  1  0.78025360  0.75898789  0.43651209  1
  Se  Se75  1  0.28025360  0.25898789  0.06348791  1
  Se  Se76  1  0.60881082  0.16363595  0.02739269  1
  Se  Se77  1  0.10881082  0.66363595  0.47260731  1
  Se  Se78  1  0.39118918  0.83636405  0.97260731  1
  Se  Se79  1  0.89118918  0.33636405  0.52739269  1
  Se  Se80  1  0.85112245  0.32036864  0.04854171  1
  Se  Se81  1  0.35112245  0.82036864  0.45145829  1
  Se  Se82  1  0.14887755  0.67963136  0.95145829  1
  Se  Se83  1  0.64887755  0.17963136  0.54854171  1
  Se  Se84  1  0.67928541  0.26123442  0.17289636  1
  Se  Se85  1  0.17928541  0.76123442  0.32710364  1
  Se  Se86  1  0.32071459  0.73876558  0.82710364  1
  Se  Se87  1  0.82071459  0.23876558  0.67289636  1
  Se  Se88  1  0.13273613  0.37928529  0.81258775  1
  Se  Se89  1  0.63273613  0.87928529  0.68741225  1
  Se  Se90  1  0.86726387  0.62071471  0.18741225  1
  Se  Se91  1  0.36726387  0.12071471  0.31258775  1
  Se  Se92  1  0.90730941  0.39683560  0.89240534  1
  Se  Se93  1  0.40730941  0.89683560  0.60759466  1
  Se  Se94  1  0.09269059  0.60316440  0.10759466  1
  Se  Se95  1  0.59269059  0.10316440  0.39240534  1
  Se  Se96  1  0.11072288  0.08392396  0.85927485  1
  Se  Se97  1  0.61072288  0.58392396  0.64072515  1
  Se  Se98  1  0.88927712  0.91607604  0.14072515  1
  Se  Se99  1  0.38927712  0.41607604  0.35927485  1
  Se  Se100  1  0.87251425  0.09554401  0.92814439  1
  Se  Se101  1  0.37251425  0.59554401  0.57185561  1
  Se  Se102  1  0.12748575  0.90445599  0.07185561  1
  Se  Se103  1  0.62748575  0.40445599  0.42814439  1
  Se  Se104  1  0.35040076  0.35446262  0.88295061  1
  Se  Se105  1  0.85040076  0.85446262  0.61704939  1
  Se  Se106  1  0.64959924  0.64553738  0.11704939  1
  Se  Se107  1  0.14959924  0.14553738  0.38295061  1
  Se  Se108  1  0.62608187  0.40275743  0.92194191  1
  Se  Se109  1  0.12608187  0.90275743  0.57805809  1
  Se  Se110  1  0.37391813  0.59724257  0.07805809  1
  Se  Se111  1  0.87391813  0.09724257  0.42194191  1
  Se  Se112  1  0.66848261  0.15116341  0.84440689  1
  Se  Se113  1  0.16848261  0.65116341  0.65559311  1
  Se  Se114  1  0.33151739  0.84883659  0.15559311  1
  Se  Se115  1  0.83151739  0.34883659  0.34440689  1
  Se  Se116  1  0.39395441  0.08761457  0.82022018  1
  Se  Se117  1  0.89395441  0.58761457  0.67977982  1
  Se  Se118  1  0.60604559  0.91238543  0.17977982  1
  Se  Se119  1  0.10604559  0.41238543  0.32022018  1
