# generated using pymatgen
data_RbAg(PO3)2
_symmetry_space_group_name_H-M   'P 1'
_cell_length_a   13.56657700
_cell_length_b   6.30989300
_cell_length_c   7.65522357
_cell_angle_alpha   84.75569977
_cell_angle_beta   90.00000000
_cell_angle_gamma   90.00000000
_symmetry_Int_Tables_number   1
_chemical_formula_structural   RbAg(PO3)2
_chemical_formula_sum   'Rb4 Ag4 P8 O24'
_cell_volume   652.57194126
_cell_formula_units_Z   4
loop_
 _symmetry_equiv_pos_site_id
 _symmetry_equiv_pos_as_xyz
  1  'x, y, z'
loop_
 _atom_site_type_symbol
 _atom_site_label
 _atom_site_symmetry_multiplicity
 _atom_site_fract_x
 _atom_site_fract_y
 _atom_site_fract_z
 _atom_site_occupancy
  Rb  Rb0  1  0.16898000  0.29259500  0.76684000  1
  Rb  Rb1  1  0.83102000  0.70740500  0.23316000  1
  Rb  Rb2  1  0.66898000  0.70740500  0.73316000  1
  Rb  Rb3  1  0.33102000  0.29259500  0.26684000  1
  Ag  Ag4  1  0.97154500  0.81391600  0.80299100  1
  Ag  Ag5  1  0.02845500  0.18608400  0.19700900  1
  Ag  Ag6  1  0.47154500  0.18608400  0.69700900  1
  Ag  Ag7  1  0.52845500  0.81391600  0.30299000  1
  P  P8  1  0.36690000  0.68998900  0.65197000  1
  P  P9  1  0.63310000  0.31001100  0.34803000  1
  P  P10  1  0.86690000  0.31001100  0.84803000  1
  P  P11  1  0.13310000  0.68998900  0.15197000  1
  P  P12  1  0.17312200  0.84619600  0.50426400  1
  P  P13  1  0.82687800  0.15380400  0.49573600  1
  P  P14  1  0.67312200  0.15380400  0.99573600  1
  P  P15  1  0.32687800  0.84619600  0.00426400  1
  O  O16  1  0.85289100  0.93188500  0.56837900  1
  O  O17  1  0.14710900  0.06811500  0.43162100  1
  O  O18  1  0.35289100  0.06811500  0.93162100  1
  O  O19  1  0.64710900  0.93188500  0.06837900  1
  O  O20  1  0.35147000  0.46853400  0.59917000  1
  O  O21  1  0.64853000  0.53146600  0.40083000  1
  O  O22  1  0.85147000  0.53146600  0.90083000  1
  O  O23  1  0.14853000  0.46853400  0.09917000  1
  O  O24  1  0.12138600  0.74172000  0.66261300  1
  O  O25  1  0.87861400  0.25828000  0.33738700  1
  O  O26  1  0.62138600  0.25828000  0.83738700  1
  O  O27  1  0.37861400  0.74172000  0.16261300  1
  O  O28  1  0.29121800  0.85646100  0.54676300  1
  O  O29  1  0.70878200  0.14353900  0.45323700  1
  O  O30  1  0.79121800  0.14353900  0.95323700  1
  O  O31  1  0.20878200  0.85646100  0.04676300  1
  O  O32  1  0.46685700  0.79384400  0.63313200  1
  O  O33  1  0.53314300  0.20615600  0.36686800  1
  O  O34  1  0.96685700  0.20615600  0.86686800  1
  O  O35  1  0.03314300  0.79384400  0.13313200  1
  O  O36  1  0.32893500  0.68003200  0.85400600  1
  O  O37  1  0.67106500  0.31996800  0.14599400  1
  O  O38  1  0.82893500  0.31996800  0.64599400  1
  O  O39  1  0.17106500  0.68003200  0.35400600  1
