# generated using pymatgen
data_Na(FeSb3)4
_symmetry_space_group_name_H-M   'P 1'
_cell_length_a   7.96978930
_cell_length_b   7.96978930
_cell_length_c   7.96978930
_cell_angle_alpha   109.47122063
_cell_angle_beta   109.47122063
_cell_angle_gamma   109.47122063
_symmetry_Int_Tables_number   1
_chemical_formula_structural   Na(FeSb3)4
_chemical_formula_sum   'Na1 Fe4 Sb12'
_cell_volume   389.68943331
_cell_formula_units_Z   1
loop_
 _symmetry_equiv_pos_site_id
 _symmetry_equiv_pos_as_xyz
  1  'x, y, z'
loop_
 _atom_site_type_symbol
 _atom_site_label
 _atom_site_symmetry_multiplicity
 _atom_site_fract_x
 _atom_site_fract_y
 _atom_site_fract_z
 _atom_site_occupancy
  Na  Na0  1  0.00000000  0.00000000  0.00000000  1
  Fe  Fe1  1  0.00000000  0.00000000  0.50000000  1
  Fe  Fe2  1  0.00000000  0.50000000  0.00000000  1
  Fe  Fe3  1  0.50000000  0.50000000  0.50000000  1
  Fe  Fe4  1  0.50000000  0.00000000  0.00000000  1
  Sb  Sb5  1  0.66608600  0.82721200  0.16112600  1
  Sb  Sb6  1  0.83887400  0.33391400  0.17278800  1
  Sb  Sb7  1  0.50496000  0.83887400  0.66608600  1
  Sb  Sb8  1  0.83887400  0.66608600  0.50496000  1
  Sb  Sb9  1  0.49504000  0.16112600  0.33391400  1
  Sb  Sb10  1  0.16112600  0.66608600  0.82721200  1
  Sb  Sb11  1  0.82721200  0.16112600  0.66608600  1
  Sb  Sb12  1  0.17278800  0.83887400  0.33391400  1
  Sb  Sb13  1  0.16112600  0.33391400  0.49504000  1
  Sb  Sb14  1  0.66608600  0.50496000  0.83887400  1
  Sb  Sb15  1  0.33391400  0.49504000  0.16112600  1
  Sb  Sb16  1  0.33391400  0.17278800  0.83887400  1
