# generated using pymatgen
data_Cs3CdH5
_symmetry_space_group_name_H-M   'P 1'
_cell_length_a   8.79584217
_cell_length_b   8.79584217
_cell_length_c   8.79584217
_cell_angle_alpha   121.64198672
_cell_angle_beta   121.64198672
_cell_angle_gamma   87.17877144
_symmetry_Int_Tables_number   1
_chemical_formula_structural   Cs3CdH5
_chemical_formula_sum   'Cs6 Cd2 H10'
_cell_volume   468.63060266
_cell_formula_units_Z   2
loop_
 _symmetry_equiv_pos_site_id
 _symmetry_equiv_pos_as_xyz
  1  'x, y, z'
loop_
 _atom_site_type_symbol
 _atom_site_label
 _atom_site_symmetry_multiplicity
 _atom_site_fract_x
 _atom_site_fract_y
 _atom_site_fract_z
 _atom_site_occupancy
  Cs  Cs0  1  0.81813600  0.31813600  0.13627200  1
  Cs  Cs1  1  0.68186400  0.81813600  0.50000000  1
  Cs  Cs2  1  0.31813600  0.18186400  0.50000000  1
  Cs  Cs3  1  0.18186400  0.68186400  0.86372800  1
  Cs  Cs4  1  0.25000000  0.25000000  0.00000000  1
  Cs  Cs5  1  0.75000000  0.75000000  0.00000000  1
  Cd  Cd6  1  0.25000000  0.75000000  0.50000000  1
  Cd  Cd7  1  0.75000000  0.25000000  0.50000000  1
  H  H8  1  0.00000000  0.00000000  0.00000000  1
  H  H9  1  0.50000000  0.50000000  0.00000000  1
  H  H10  1  0.28482100  0.54116400  0.50000000  1
  H  H11  1  0.04116400  0.78482100  0.50000000  1
  H  H12  1  0.78482100  0.28482100  0.74365700  1
  H  H13  1  0.54116400  0.04116400  0.25634300  1
  H  H14  1  0.45883600  0.95883600  0.74365700  1
  H  H15  1  0.21517900  0.71517900  0.25634300  1
  H  H16  1  0.95883600  0.21517900  0.50000000  1
  H  H17  1  0.71517900  0.45883600  0.50000000  1
