# generated using pymatgen
data_Ga2Hg3Cl8
_symmetry_space_group_name_H-M   'P 1'
_cell_length_a   15.72874100
_cell_length_b   7.40957200
_cell_length_c   14.87925040
_cell_angle_alpha   82.34443905
_cell_angle_beta   90.00000000
_cell_angle_gamma   90.00000000
_symmetry_Int_Tables_number   1
_chemical_formula_structural   Ga2Hg3Cl8
_chemical_formula_sum   'Ga8 Hg12 Cl32'
_cell_volume   1718.61990665
_cell_formula_units_Z   4
loop_
 _symmetry_equiv_pos_site_id
 _symmetry_equiv_pos_as_xyz
  1  'x, y, z'
loop_
 _atom_site_type_symbol
 _atom_site_label
 _atom_site_symmetry_multiplicity
 _atom_site_fract_x
 _atom_site_fract_y
 _atom_site_fract_z
 _atom_site_occupancy
  Ga  Ga0  1  0.31676100  0.60011400  0.90510900  1
  Ga  Ga1  1  0.81676100  0.39988600  0.59489100  1
  Ga  Ga2  1  0.68323900  0.39988600  0.09489100  1
  Ga  Ga3  1  0.18323900  0.60011400  0.40510900  1
  Ga  Ga4  1  0.89763900  0.80489300  0.22170900  1
  Ga  Ga5  1  0.39763900  0.19510700  0.27829100  1
  Ga  Ga6  1  0.10236100  0.19510700  0.77829100  1
  Ga  Ga7  1  0.60236100  0.80489300  0.72170900  1
  Hg  Hg8  1  0.13689700  0.18455100  0.10890400  1
  Hg  Hg9  1  0.63689700  0.81544900  0.39109600  1
  Hg  Hg10  1  0.86310300  0.81544900  0.89109600  1
  Hg  Hg11  1  0.36310300  0.18455100  0.60890400  1
  Hg  Hg12  1  0.25936600  0.00747000  0.03477500  1
  Hg  Hg13  1  0.75936600  0.99253000  0.46522500  1
  Hg  Hg14  1  0.74063400  0.99253000  0.96522500  1
  Hg  Hg15  1  0.24063400  0.00747000  0.53477500  1
  Hg  Hg16  1  0.02405000  0.36720500  0.19547000  1
  Hg  Hg17  1  0.52405000  0.63279500  0.30453000  1
  Hg  Hg18  1  0.97595000  0.63279500  0.80453000  1
  Hg  Hg19  1  0.47595000  0.36720500  0.69547000  1
  Cl  Cl20  1  0.32961400  0.67592400  0.75913200  1
  Cl  Cl21  1  0.82961400  0.32407600  0.74086800  1
  Cl  Cl22  1  0.67038600  0.32407600  0.24086800  1
  Cl  Cl23  1  0.17038600  0.67592400  0.25913200  1
  Cl  Cl24  1  0.18479100  0.59474300  0.95409200  1
  Cl  Cl25  1  0.68479100  0.40525700  0.54590800  1
  Cl  Cl26  1  0.81520900  0.40525700  0.04590800  1
  Cl  Cl27  1  0.31520900  0.59474300  0.45409200  1
  Cl  Cl28  1  0.37962500  0.82513600  0.97424300  1
  Cl  Cl29  1  0.87962500  0.17486400  0.52575700  1
  Cl  Cl30  1  0.62037500  0.17486400  0.02575700  1
  Cl  Cl31  1  0.12037500  0.82513600  0.47424300  1
  Cl  Cl32  1  0.38906000  0.35601000  0.95403100  1
  Cl  Cl33  1  0.88906000  0.64399000  0.54596900  1
  Cl  Cl34  1  0.61094000  0.64399000  0.04596900  1
  Cl  Cl35  1  0.11094000  0.35601000  0.45403100  1
  Cl  Cl36  1  0.76291000  0.84504100  0.18970000  1
  Cl  Cl37  1  0.26291000  0.15495900  0.31030000  1
  Cl  Cl38  1  0.23709000  0.15495900  0.81030000  1
  Cl  Cl39  1  0.73709000  0.84504100  0.68970000  1
  Cl  Cl40  1  0.91458700  0.51718000  0.29370600  1
  Cl  Cl41  1  0.41458700  0.48282000  0.20629400  1
  Cl  Cl42  1  0.08541300  0.48282000  0.70629400  1
  Cl  Cl43  1  0.58541300  0.51718000  0.79370600  1
  Cl  Cl44  1  0.93740000  0.99199400  0.31517800  1
  Cl  Cl45  1  0.43740000  0.00800600  0.18482200  1
  Cl  Cl46  1  0.06260000  0.00800600  0.68482200  1
  Cl  Cl47  1  0.56260000  0.99199400  0.81517800  1
  Cl  Cl48  1  0.97801000  0.82235300  0.10023200  1
  Cl  Cl49  1  0.47801000  0.17764700  0.39976800  1
  Cl  Cl50  1  0.02199000  0.17764700  0.89976800  1
  Cl  Cl51  1  0.52199000  0.82235300  0.60023200  1
