# generated using pymatgen
data_Nd2TiO5
_symmetry_space_group_name_H-M   'P 1'
_cell_length_a   3.85837600
_cell_length_b   10.82527000
_cell_length_c   11.55630700
_cell_angle_alpha   90.00000000
_cell_angle_beta   90.00000000
_cell_angle_gamma   90.00000000
_symmetry_Int_Tables_number   1
_chemical_formula_structural   Nd2TiO5
_chemical_formula_sum   'Nd8 Ti4 O20'
_cell_volume   482.68339119
_cell_formula_units_Z   4
loop_
 _symmetry_equiv_pos_site_id
 _symmetry_equiv_pos_as_xyz
  1  'x, y, z'
loop_
 _atom_site_type_symbol
 _atom_site_label
 _atom_site_symmetry_multiplicity
 _atom_site_fract_x
 _atom_site_fract_y
 _atom_site_fract_z
 _atom_site_occupancy
  Nd  Nd0  1  0.75000000  0.10589100  0.72049600  1
  Nd  Nd1  1  0.25000000  0.89410900  0.27950400  1
  Nd  Nd2  1  0.75000000  0.60589100  0.77950400  1
  Nd  Nd3  1  0.25000000  0.39410900  0.22049600  1
  Nd  Nd4  1  0.25000000  0.36236000  0.55564700  1
  Nd  Nd5  1  0.75000000  0.63764000  0.44435300  1
  Nd  Nd6  1  0.25000000  0.86236000  0.94435300  1
  Nd  Nd7  1  0.75000000  0.13764000  0.05564700  1
  Ti  Ti8  1  0.25000000  0.31687700  0.87568900  1
  Ti  Ti9  1  0.75000000  0.68312300  0.12431100  1
  Ti  Ti10  1  0.25000000  0.81687700  0.62431100  1
  Ti  Ti11  1  0.75000000  0.18312300  0.37568900  1
  O  O12  1  0.25000000  0.47765700  0.84080200  1
  O  O13  1  0.75000000  0.52234300  0.15919800  1
  O  O14  1  0.25000000  0.97765700  0.65919800  1
  O  O15  1  0.75000000  0.02234300  0.34080200  1
  O  O16  1  0.25000000  0.23278900  0.72919600  1
  O  O17  1  0.75000000  0.76721100  0.27080400  1
  O  O18  1  0.25000000  0.73278900  0.77080400  1
  O  O19  1  0.75000000  0.26721100  0.22919600  1
  O  O20  1  0.75000000  0.26267500  0.87848200  1
  O  O21  1  0.25000000  0.73732500  0.12151800  1
  O  O22  1  0.75000000  0.76267500  0.62151800  1
  O  O23  1  0.25000000  0.23732500  0.37848200  1
  O  O24  1  0.25000000  0.00872100  0.10377100  1
  O  O25  1  0.75000000  0.99127900  0.89622900  1
  O  O26  1  0.25000000  0.50872100  0.39622900  1
  O  O27  1  0.75000000  0.49127900  0.60377100  1
  O  O28  1  0.25000000  0.27688400  0.03588300  1
  O  O29  1  0.75000000  0.72311600  0.96411700  1
  O  O30  1  0.25000000  0.77688400  0.46411700  1
  O  O31  1  0.75000000  0.22311600  0.53588300  1
