# generated using pymatgen
data_Sr3AlAs3
_symmetry_space_group_name_H-M   'P 1'
_cell_length_a   10.20650577
_cell_length_b   10.20650577
_cell_length_c   12.80683200
_cell_angle_alpha   90.00000000
_cell_angle_beta   90.00000000
_cell_angle_gamma   142.01280311
_symmetry_Int_Tables_number   1
_chemical_formula_structural   Sr3AlAs3
_chemical_formula_sum   'Sr12 Al4 As12'
_cell_volume   821.13321610
_cell_formula_units_Z   4
loop_
 _symmetry_equiv_pos_site_id
 _symmetry_equiv_pos_as_xyz
  1  'x, y, z'
loop_
 _atom_site_type_symbol
 _atom_site_label
 _atom_site_symmetry_multiplicity
 _atom_site_fract_x
 _atom_site_fract_y
 _atom_site_fract_z
 _atom_site_occupancy
  Sr  Sr0  1  0.82444400  0.82444400  0.34947300  1
  Sr  Sr1  1  0.17555600  0.17555600  0.65052700  1
  Sr  Sr2  1  0.67555600  0.67555600  0.84947300  1
  Sr  Sr3  1  0.32444400  0.32444400  0.15052700  1
  Sr  Sr4  1  0.86495300  0.51085100  0.13094200  1
  Sr  Sr5  1  0.48914900  0.13504700  0.86905800  1
  Sr  Sr6  1  0.98914900  0.63504700  0.63094200  1
  Sr  Sr7  1  0.36495300  0.01085100  0.36905800  1
  Sr  Sr8  1  0.13504700  0.48914900  0.86905800  1
  Sr  Sr9  1  0.51085100  0.86495300  0.13094200  1
  Sr  Sr10  1  0.01085100  0.36495300  0.36905800  1
  Sr  Sr11  1  0.63504700  0.98914900  0.63094200  1
  Al  Al12  1  0.08473400  0.91526600  0.00000000  1
  Al  Al13  1  0.58473400  0.41526600  0.50000000  1
  Al  Al14  1  0.91526600  0.08473400  0.00000000  1
  Al  Al15  1  0.41526600  0.58473400  0.50000000  1
  As  As16  1  0.79161600  0.79161600  0.10207900  1
  As  As17  1  0.20838400  0.20838400  0.89792100  1
  As  As18  1  0.70838400  0.70838400  0.60207900  1
  As  As19  1  0.29161600  0.29161600  0.39792100  1
  As  As20  1  0.04567900  0.36286000  0.12019500  1
  As  As21  1  0.63714000  0.95432100  0.87980500  1
  As  As22  1  0.13714000  0.45432100  0.62019500  1
  As  As23  1  0.54567900  0.86286000  0.37980500  1
  As  As24  1  0.95432100  0.63714000  0.87980500  1
  As  As25  1  0.36286000  0.04567900  0.12019500  1
  As  As26  1  0.86286000  0.54567900  0.37980500  1
  As  As27  1  0.45432100  0.13714000  0.62019500  1
