# generated using pymatgen
data_YbMgPd
_symmetry_space_group_name_H-M   'P 1'
_cell_length_a   4.18773800
_cell_length_b   7.38986800
_cell_length_c   8.56904900
_cell_angle_alpha   90.00000000
_cell_angle_beta   90.00000000
_cell_angle_gamma   90.00000000
_symmetry_Int_Tables_number   1
_chemical_formula_structural   YbMgPd
_chemical_formula_sum   'Yb4 Mg4 Pd4'
_cell_volume   265.18491156
_cell_formula_units_Z   4
loop_
 _symmetry_equiv_pos_site_id
 _symmetry_equiv_pos_as_xyz
  1  'x, y, z'
loop_
 _atom_site_type_symbol
 _atom_site_label
 _atom_site_symmetry_multiplicity
 _atom_site_fract_x
 _atom_site_fract_y
 _atom_site_fract_z
 _atom_site_occupancy
  Yb  Yb0  1  0.25000000  0.53297100  0.17481800  1
  Yb  Yb1  1  0.75000000  0.46702900  0.82518200  1
  Yb  Yb2  1  0.25000000  0.03297100  0.32518200  1
  Yb  Yb3  1  0.75000000  0.96702900  0.67481800  1
  Mg  Mg4  1  0.25000000  0.63721300  0.56097900  1
  Mg  Mg5  1  0.75000000  0.36278700  0.43902100  1
  Mg  Mg6  1  0.25000000  0.13721300  0.93902100  1
  Mg  Mg7  1  0.75000000  0.86278700  0.06097900  1
  Pd  Pd8  1  0.75000000  0.73479100  0.37079600  1
  Pd  Pd9  1  0.25000000  0.26520900  0.62920400  1
  Pd  Pd10  1  0.75000000  0.23479100  0.12920400  1
  Pd  Pd11  1  0.25000000  0.76520900  0.87079600  1
