# generated using pymatgen
data_Yb2Be2Si2NiO10
_symmetry_space_group_name_H-M   'P 1'
_cell_length_a   7.48728100
_cell_length_b   4.65705800
_cell_length_c   10.08681978
_cell_angle_alpha   89.36638226
_cell_angle_beta   90.00000000
_cell_angle_gamma   90.00000000
_symmetry_Int_Tables_number   1
_chemical_formula_structural   Yb2Be2Si2NiO10
_chemical_formula_sum   'Yb4 Be4 Si4 Ni2 O20'
_cell_volume   351.69280550
_cell_formula_units_Z   2
loop_
 _symmetry_equiv_pos_site_id
 _symmetry_equiv_pos_as_xyz
  1  'x, y, z'
loop_
 _atom_site_type_symbol
 _atom_site_label
 _atom_site_symmetry_multiplicity
 _atom_site_fract_x
 _atom_site_fract_y
 _atom_site_fract_z
 _atom_site_occupancy
  Yb  Yb0  1  0.38450900  0.99839800  0.82265200  1
  Yb  Yb1  1  0.88450900  0.00160200  0.67734800  1
  Yb  Yb2  1  0.61549100  0.00160200  0.17734800  1
  Yb  Yb3  1  0.11549100  0.99839800  0.32265200  1
  Be  Be4  1  0.91789200  0.44581400  0.15547800  1
  Be  Be5  1  0.08210800  0.55418600  0.84452200  1
  Be  Be6  1  0.58210800  0.44581400  0.65547800  1
  Be  Be7  1  0.41789200  0.55418600  0.34452200  1
  Si  Si8  1  0.22102600  0.50382600  0.58189200  1
  Si  Si9  1  0.72102600  0.49617400  0.91810800  1
  Si  Si10  1  0.77897400  0.49617400  0.41810800  1
  Si  Si11  1  0.27897400  0.50382600  0.08189200  1
  Ni  Ni12  1  0.50000000  0.00000000  0.50000000  1
  Ni  Ni13  1  0.00000000  0.00000000  0.00000000  1
  O  O14  1  0.38392600  0.28700000  0.63147400  1
  O  O15  1  0.88392600  0.71300000  0.86852600  1
  O  O16  1  0.61607400  0.71300000  0.36852600  1
  O  O17  1  0.11607400  0.28700000  0.13147400  1
  O  O18  1  0.15736900  0.69456800  0.70755000  1
  O  O19  1  0.65736900  0.30543200  0.79245000  1
  O  O20  1  0.41982000  0.21342400  0.34729400  1
  O  O21  1  0.08018000  0.21342400  0.84729400  1
  O  O22  1  0.91982000  0.78657600  0.15270600  1
  O  O23  1  0.58018000  0.78657600  0.65270600  1
  O  O24  1  0.43092300  0.28260100  0.02315700  1
  O  O25  1  0.93092300  0.71739900  0.47684300  1
  O  O26  1  0.56907700  0.71739900  0.97684300  1
  O  O27  1  0.06907700  0.28260100  0.52315700  1
  O  O28  1  0.30057900  0.71516200  0.46352100  1
  O  O29  1  0.80057900  0.28483800  0.03647900  1
  O  O30  1  0.69942100  0.28483800  0.53647900  1
  O  O31  1  0.19942100  0.71516200  0.96352100  1
  O  O32  1  0.34263100  0.69456800  0.20755000  1
  O  O33  1  0.84263100  0.30543200  0.29245000  1
