# generated using pymatgen
data_CeSb2Pd
_symmetry_space_group_name_H-M   'P 1'
_cell_length_a   4.43494300
_cell_length_b   4.43494300
_cell_length_c   9.79896500
_cell_angle_alpha   90.00000000
_cell_angle_beta   90.00000000
_cell_angle_gamma   90.00000000
_symmetry_Int_Tables_number   1
_chemical_formula_structural   CeSb2Pd
_chemical_formula_sum   'Ce2 Sb4 Pd2'
_cell_volume   192.73309313
_cell_formula_units_Z   2
loop_
 _symmetry_equiv_pos_site_id
 _symmetry_equiv_pos_as_xyz
  1  'x, y, z'
loop_
 _atom_site_type_symbol
 _atom_site_label
 _atom_site_symmetry_multiplicity
 _atom_site_fract_x
 _atom_site_fract_y
 _atom_site_fract_z
 _atom_site_occupancy
  Ce  Ce0  1  0.00000000  0.50000000  0.74441800  1
  Ce  Ce1  1  0.50000000  0.00000000  0.25558200  1
  Sb  Sb2  1  0.50000000  0.50000000  0.00000000  1
  Sb  Sb3  1  0.00000000  0.00000000  0.00000000  1
  Sb  Sb4  1  0.00000000  0.50000000  0.33557100  1
  Sb  Sb5  1  0.50000000  0.00000000  0.66442900  1
  Pd  Pd6  1  0.50000000  0.50000000  0.50000000  1
  Pd  Pd7  1  0.00000000  0.00000000  0.50000000  1
