# generated using pymatgen
data_UB4W
_symmetry_space_group_name_H-M   'P 1'
_cell_length_a   5.95970721
_cell_length_b   5.95970721
_cell_length_c   3.64827500
_cell_angle_alpha   90.00000000
_cell_angle_beta   90.00000000
_cell_angle_gamma   103.82289638
_symmetry_Int_Tables_number   1
_chemical_formula_structural   UB4W
_chemical_formula_sum   'U2 B8 W2'
_cell_volume   125.82705597
_cell_formula_units_Z   2
loop_
 _symmetry_equiv_pos_site_id
 _symmetry_equiv_pos_as_xyz
  1  'x, y, z'
loop_
 _atom_site_type_symbol
 _atom_site_label
 _atom_site_symmetry_multiplicity
 _atom_site_fract_x
 _atom_site_fract_y
 _atom_site_fract_z
 _atom_site_occupancy
  U  U0  1  0.30098200  0.69901800  0.00000000  1
  U  U1  1  0.69901800  0.30098200  0.00000000  1
  B  B2  1  0.38387300  0.06422400  0.50000000  1
  B  B3  1  0.61612700  0.93577600  0.50000000  1
  B  B4  1  0.06422400  0.38387300  0.50000000  1
  B  B5  1  0.93577600  0.61612700  0.50000000  1
  B  B6  1  0.38156400  0.38156400  0.50000000  1
  B  B7  1  0.61843600  0.61843600  0.50000000  1
  B  B8  1  0.09362700  0.90637300  0.50000000  1
  B  B9  1  0.90637300  0.09362700  0.50000000  1
  W  W10  1  0.18226600  0.18226600  0.00000000  1
  W  W11  1  0.81773400  0.81773400  0.00000000  1
