# generated using pymatgen
data_Y3Ru
_symmetry_space_group_name_H-M   'P 1'
_cell_length_a   6.34809600
_cell_length_b   7.35858300
_cell_length_c   9.26966400
_cell_angle_alpha   90.00000000
_cell_angle_beta   90.00000000
_cell_angle_gamma   90.00000000
_symmetry_Int_Tables_number   1
_chemical_formula_structural   Y3Ru
_chemical_formula_sum   'Y12 Ru4'
_cell_volume   433.01373386
_cell_formula_units_Z   4
loop_
 _symmetry_equiv_pos_site_id
 _symmetry_equiv_pos_as_xyz
  1  'x, y, z'
loop_
 _atom_site_type_symbol
 _atom_site_label
 _atom_site_symmetry_multiplicity
 _atom_site_fract_x
 _atom_site_fract_y
 _atom_site_fract_z
 _atom_site_occupancy
  Y  Y0  1  0.63589600  0.04238100  0.25000000  1
  Y  Y1  1  0.36410400  0.95761900  0.75000000  1
  Y  Y2  1  0.13589600  0.45761900  0.75000000  1
  Y  Y3  1  0.86410400  0.54238100  0.25000000  1
  Y  Y4  1  0.17014600  0.17570300  0.06486100  1
  Y  Y5  1  0.82985400  0.82429700  0.93513900  1
  Y  Y6  1  0.67014600  0.32429700  0.93513900  1
  Y  Y7  1  0.82985400  0.82429700  0.56486100  1
  Y  Y8  1  0.32985400  0.67570300  0.06486100  1
  Y  Y9  1  0.17014600  0.17570300  0.43513900  1
  Y  Y10  1  0.32985400  0.67570300  0.43513900  1
  Y  Y11  1  0.67014600  0.32429700  0.56486100  1
  Ru  Ru12  1  0.45990300  0.38462000  0.25000000  1
  Ru  Ru13  1  0.54009700  0.61538000  0.75000000  1
  Ru  Ru14  1  0.95990300  0.11538000  0.75000000  1
  Ru  Ru15  1  0.04009700  0.88462000  0.25000000  1
