# generated using pymatgen
data_Mg149H
_symmetry_space_group_name_H-M   'P 1'
_cell_length_a   15.94712798
_cell_length_b   15.94713525
_cell_length_c   15.64515602
_cell_angle_alpha   90.00000000
_cell_angle_beta   90.00000000
_cell_angle_gamma   120.00001051
_symmetry_Int_Tables_number   1
_chemical_formula_structural   Mg149H
_chemical_formula_sum   'Mg149 H1'
_cell_volume   3445.68554863
_cell_formula_units_Z   1
loop_
 _symmetry_equiv_pos_site_id
 _symmetry_equiv_pos_as_xyz
  1  'x, y, z'
loop_
 _atom_site_type_symbol
 _atom_site_label
 _atom_site_symmetry_multiplicity
 _atom_site_fract_x
 _atom_site_fract_y
 _atom_site_fract_z
 _atom_site_occupancy
  Mg  Mg0  1  0.80426668  0.00078690  -0.00000000  1
  Mg  Mg1  1  0.19652022  0.00078690  -0.00000000  1
  Mg  Mg2  1  0.19652022  0.19573232  -0.00000000  1
  Mg  Mg3  1  0.99921310  0.19573332  -0.00000000  1
  Mg  Mg4  1  0.39907225  0.19953612  -0.00000000  1
  Mg  Mg5  1  0.80046388  0.19953612  -0.00000000  1
  Mg  Mg6  1  0.59994812  0.19989624  -0.00000000  1
  Mg  Mg7  1  0.19935145  0.39870290  -0.00000000  1
  Mg  Mg8  1  0.00024235  0.39964207  -0.00000000  1
  Mg  Mg9  1  0.39939972  0.39964307  -0.00000000  1
  Mg  Mg10  1  0.80010376  0.40005188  -0.00000000  1
  Mg  Mg11  1  0.59994812  0.40005188  -0.00000000  1
  Mg  Mg12  1  0.20018096  0.60008998  -0.00000000  1
  Mg  Mg13  1  0.39990902  0.60008998  -0.00000000  1
  Mg  Mg14  1  0.00024235  0.60059928  -0.00000000  1
  Mg  Mg15  1  0.60035693  0.60060028  -0.00000000  1
  Mg  Mg16  1  0.80046388  0.60092875  -0.00000000  1
  Mg  Mg17  1  0.39990902  0.79981904  -0.00000000  1
  Mg  Mg18  1  0.60129810  0.80064855  -0.00000000  1
  Mg  Mg19  1  0.19935145  0.80064855  -0.00000000  1
  Mg  Mg20  1  0.80426668  0.80347978  -0.00000000  1
  Mg  Mg21  1  0.99921310  0.80348078  -0.00000000  1
  Mg  Mg22  1  0.60035693  0.99975665  -0.00000000  1
  Mg  Mg23  1  0.39939972  0.99975665  -0.00000000  1
  Mg  Mg24  1  0.06509454  0.13018809  0.16279252  1
  Mg  Mg25  1  0.06509454  0.93490546  0.16279252  1
  Mg  Mg26  1  0.86981191  0.93490546  0.16279252  1
  Mg  Mg27  1  0.26583390  0.33244644  0.16615081  1
  Mg  Mg28  1  0.06661154  0.33244644  0.16615081  1
  Mg  Mg29  1  0.06661154  0.73416510  0.16615081  1
  Mg  Mg30  1  0.66755356  0.73416510  0.16615081  1
  Mg  Mg31  1  0.66755356  0.93338846  0.16615081  1
  Mg  Mg32  1  0.26583390  0.93338846  0.16615081  1
  Mg  Mg33  1  0.66666700  0.33333300  0.16637823  1
  Mg  Mg34  1  0.66689911  0.13311682  0.16640233  1
  Mg  Mg35  1  0.46621772  0.13311782  0.16640233  1
  Mg  Mg36  1  0.86688218  0.33309989  0.16640233  1
  Mg  Mg37  1  0.46621772  0.33310089  0.16640233  1
  Mg  Mg38  1  0.86688218  0.53378228  0.16640233  1
  Mg  Mg39  1  0.66689911  0.53378228  0.16640233  1
  Mg  Mg40  1  0.86710031  0.13289969  0.16644322  1
  Mg  Mg41  1  0.26579938  0.13289969  0.16644322  1
  Mg  Mg42  1  0.86710031  0.73420062  0.16644322  1
  Mg  Mg43  1  0.26644207  0.53288314  0.16645089  1
  Mg  Mg44  1  0.46711686  0.73355793  0.16645089  1
  Mg  Mg45  1  0.26644207  0.73355893  0.16645089  1
  Mg  Mg46  1  0.06665929  0.53332965  0.16663688  1
  Mg  Mg47  1  0.46667035  0.53332965  0.16663688  1
  Mg  Mg48  1  0.46667035  0.93333971  0.16663688  1
  Mg  Mg49  1  0.00000000  -0.00000000  0.33088160  1
  Mg  Mg50  1  0.19952595  0.99969741  0.33294646  1
  Mg  Mg51  1  0.80017246  0.99969841  0.33294646  1
  Mg  Mg52  1  0.00030259  0.19982854  0.33294646  1
  Mg  Mg53  1  0.19952595  0.19982854  0.33294646  1
  Mg  Mg54  1  0.80017246  0.80047405  0.33294646  1
  Mg  Mg55  1  0.00030259  0.80047405  0.33294646  1
  Mg  Mg56  1  0.59999428  0.19998757  0.33304267  1
  Mg  Mg57  1  0.80001243  0.40000572  0.33304267  1
  Mg  Mg58  1  0.59999428  0.40000672  0.33304267  1
  Mg  Mg59  1  0.80020274  0.19979726  0.33308636  1
  Mg  Mg60  1  0.39959453  0.19979726  0.33308636  1
  Mg  Mg61  1  0.80020274  0.60040547  0.33308636  1
  Mg  Mg62  1  0.39992330  0.99995800  0.33324039  1
  Mg  Mg63  1  0.60003570  0.99995800  0.33324039  1
  Mg  Mg64  1  0.00004200  0.39996430  0.33324039  1
  Mg  Mg65  1  0.39992330  0.39996530  0.33324039  1
  Mg  Mg66  1  0.00004200  0.60007670  0.33324039  1
  Mg  Mg67  1  0.60003570  0.60007670  0.33324039  1
  Mg  Mg68  1  0.20000183  0.40000266  0.33314891  1
  Mg  Mg69  1  0.59999734  0.79999817  0.33314891  1
  Mg  Mg70  1  0.20000183  0.79999917  0.33314891  1
  Mg  Mg71  1  0.20003543  0.60001722  0.33342376  1
  Mg  Mg72  1  0.39998178  0.60001722  0.33342376  1
  Mg  Mg73  1  0.39998178  0.79996457  0.33342376  1
  Mg  Mg74  1  0.06641262  0.13282525  0.50000000  1
  Mg  Mg75  1  0.26661305  0.13330653  0.50000000  1
  Mg  Mg76  1  0.86669347  0.13330653  0.50000000  1
  Mg  Mg77  1  0.66670125  0.13361993  0.50000000  1
  Mg  Mg78  1  0.46691869  0.13361993  0.50000000  1
  Mg  Mg79  1  0.06655285  0.33312849  0.50000000  1
  Mg  Mg80  1  0.26657464  0.33312849  0.50000000  1
  Mg  Mg81  1  0.86637907  0.33329775  0.50000000  1
  Mg  Mg82  1  0.46691869  0.33329775  0.50000000  1
  Mg  Mg83  1  0.66666700  0.33333300  0.50000000  1
  Mg  Mg84  1  0.66670125  0.53308131  0.50000000  1
  Mg  Mg85  1  0.86637907  0.53308131  0.50000000  1
  Mg  Mg86  1  0.06644114  0.53322057  0.50000000  1
  Mg  Mg87  1  0.46677943  0.53322057  0.50000000  1
  Mg  Mg88  1  0.26654626  0.53309252  0.50000000  1
  Mg  Mg89  1  0.86669347  0.73338695  0.50000000  1
  Mg  Mg90  1  0.06655285  0.73342436  0.50000000  1
  Mg  Mg91  1  0.66687051  0.73342536  0.50000000  1
  Mg  Mg92  1  0.46690748  0.73345374  0.50000000  1
  Mg  Mg93  1  0.26654626  0.73345374  0.50000000  1
  Mg  Mg94  1  0.66687051  0.93344615  0.50000000  1
  Mg  Mg95  1  0.26657464  0.93344615  0.50000000  1
  Mg  Mg96  1  0.86717475  0.93358738  0.50000000  1
  Mg  Mg97  1  0.06641262  0.93358738  0.50000000  1
  Mg  Mg98  1  0.46677943  0.93355886  0.50000000  1
  Mg  Mg99  1  0.20003543  0.60001722  0.66657624  1
  Mg  Mg100  1  0.39998178  0.60001722  0.66657624  1
  Mg  Mg101  1  0.39998178  0.79996457  0.66657624  1
  Mg  Mg102  1  0.20000183  0.40000266  0.66685209  1
  Mg  Mg103  1  0.59999734  0.79999817  0.66685209  1
  Mg  Mg104  1  0.20000183  0.79999917  0.66685209  1
  Mg  Mg105  1  0.39992330  0.99995800  0.66675961  1
  Mg  Mg106  1  0.60003570  0.99995800  0.66675961  1
  Mg  Mg107  1  0.00004200  0.39996430  0.66675961  1
  Mg  Mg108  1  0.39992330  0.39996530  0.66675961  1
  Mg  Mg109  1  0.00004200  0.60007670  0.66675961  1
  Mg  Mg110  1  0.60003570  0.60007670  0.66675961  1
  Mg  Mg111  1  0.80020274  0.19979726  0.66691364  1
  Mg  Mg112  1  0.39959453  0.19979726  0.66691364  1
  Mg  Mg113  1  0.80020274  0.60040547  0.66691364  1
  Mg  Mg114  1  0.59999428  0.19998757  0.66695633  1
  Mg  Mg115  1  0.80001243  0.40000572  0.66695633  1
  Mg  Mg116  1  0.59999428  0.40000672  0.66695633  1
  Mg  Mg117  1  0.19952595  0.99969741  0.66705354  1
  Mg  Mg118  1  0.80017246  0.99969841  0.66705354  1
  Mg  Mg119  1  0.00030259  0.19982854  0.66705354  1
  Mg  Mg120  1  0.19952595  0.19982854  0.66705354  1
  Mg  Mg121  1  0.80017246  0.80047405  0.66705354  1
  Mg  Mg122  1  0.00030259  0.80047405  0.66705354  1
  Mg  Mg123  1  0.00000000  -0.00000000  0.66911840  1
  Mg  Mg124  1  0.06665929  0.53332965  0.83336312  1
  Mg  Mg125  1  0.46667035  0.53332965  0.83336312  1
  Mg  Mg126  1  0.46667035  0.93333971  0.83336312  1
  Mg  Mg127  1  0.26644207  0.53288314  0.83354911  1
  Mg  Mg128  1  0.46711686  0.73355793  0.83354911  1
  Mg  Mg129  1  0.26644207  0.73355893  0.83354911  1
  Mg  Mg130  1  0.86710031  0.13289969  0.83355678  1
  Mg  Mg131  1  0.26579938  0.13289969  0.83355678  1
  Mg  Mg132  1  0.86710031  0.73420062  0.83355678  1
  Mg  Mg133  1  0.66689911  0.13311682  0.83359767  1
  Mg  Mg134  1  0.46621772  0.13311782  0.83359767  1
  Mg  Mg135  1  0.86688218  0.33309989  0.83359767  1
  Mg  Mg136  1  0.46621772  0.33310089  0.83359767  1
  Mg  Mg137  1  0.86688218  0.53378228  0.83359767  1
  Mg  Mg138  1  0.66689911  0.53378228  0.83359767  1
  Mg  Mg139  1  0.66666700  0.33333300  0.83362177  1
  Mg  Mg140  1  0.26583390  0.33244644  0.83384919  1
  Mg  Mg141  1  0.06661154  0.33244644  0.83384919  1
  Mg  Mg142  1  0.06661154  0.73416510  0.83384919  1
  Mg  Mg143  1  0.66755356  0.73416510  0.83384919  1
  Mg  Mg144  1  0.66755356  0.93338846  0.83384919  1
  Mg  Mg145  1  0.26583390  0.93338846  0.83384919  1
  Mg  Mg146  1  0.06509454  0.13018809  0.83720748  1
  Mg  Mg147  1  0.06509454  0.93490546  0.83720748  1
  Mg  Mg148  1  0.86981191  0.93490546  0.83720748  1
  H  H149  1  0.00000000  -0.00000000  -0.00000000  1
