# generated using pymatgen
data_SmYCo17
_symmetry_space_group_name_H-M   'P 1'
_cell_length_a   6.28925896
_cell_length_b   6.28925896
_cell_length_c   6.28925835
_cell_angle_alpha   83.09786160
_cell_angle_beta   83.09786160
_cell_angle_gamma   83.09785594
_symmetry_Int_Tables_number   1
_chemical_formula_structural   SmYCo17
_chemical_formula_sum   'Sm1 Y1 Co17'
_cell_volume   243.76254047
_cell_formula_units_Z   1
loop_
 _symmetry_equiv_pos_site_id
 _symmetry_equiv_pos_as_xyz
  1  'x, y, z'
loop_
 _atom_site_type_symbol
 _atom_site_label
 _atom_site_symmetry_multiplicity
 _atom_site_fract_x
 _atom_site_fract_y
 _atom_site_fract_z
 _atom_site_occupancy
  Sm  Sm0  1  0.34432800  0.34432800  0.34432800  1
  Y  Y1  1  0.65670600  0.65670600  0.65670600  1
  Co  Co2  1  0.34552100  0.34552100  0.84941200  1
  Co  Co3  1  0.84941200  0.34552100  0.34552100  1
  Co  Co4  1  0.34552100  0.84941200  0.34552100  1
  Co  Co5  1  0.65529800  0.65529800  0.15044600  1
  Co  Co6  1  0.15044600  0.65529800  0.65529800  1
  Co  Co7  1  0.65529800  0.15044600  0.65529800  1
  Co  Co8  1  0.71295800  0.28721500  0.99938300  1
  Co  Co9  1  0.99938300  0.71295800  0.28721500  1
  Co  Co10  1  0.28721500  0.99938300  0.71295800  1
  Co  Co11  1  0.99938300  0.28721500  0.71295800  1
  Co  Co12  1  0.71295800  0.99938300  0.28721500  1
  Co  Co13  1  0.28721500  0.71295800  0.99938300  1
  Co  Co14  1  0.99922700  0.99922700  0.50042100  1
  Co  Co15  1  0.50042100  0.99922700  0.99922700  1
  Co  Co16  1  0.99922700  0.50042100  0.99922700  1
  Co  Co17  1  0.90375800  0.90375800  0.90375800  1
  Co  Co18  1  0.09572700  0.09572700  0.09572700  1
