# generated using pymatgen
data_SrNiP2O7
_symmetry_space_group_name_H-M   'P 1'
_cell_length_a   8.33559200
_cell_length_b   5.33077200
_cell_length_c   12.79510326
_cell_angle_alpha   89.87335463
_cell_angle_beta   90.00000000
_cell_angle_gamma   90.00000000
_symmetry_Int_Tables_number   1
_chemical_formula_structural   SrNiP2O7
_chemical_formula_sum   'Sr4 Ni4 P8 O28'
_cell_volume   568.55082122
_cell_formula_units_Z   4
loop_
 _symmetry_equiv_pos_site_id
 _symmetry_equiv_pos_as_xyz
  1  'x, y, z'
loop_
 _atom_site_type_symbol
 _atom_site_label
 _atom_site_symmetry_multiplicity
 _atom_site_fract_x
 _atom_site_fract_y
 _atom_site_fract_z
 _atom_site_occupancy
  Sr  Sr0  1  0.15865100  0.21473200  0.78162500  1
  Sr  Sr1  1  0.65865100  0.28526800  0.71837500  1
  Sr  Sr2  1  0.84134900  0.78526800  0.21837500  1
  Sr  Sr3  1  0.34134900  0.71473200  0.28162500  1
  Ni  Ni4  1  0.35106900  0.68698500  0.61254100  1
  Ni  Ni5  1  0.85106900  0.81301500  0.88745900  1
  Ni  Ni6  1  0.64893100  0.31301500  0.38745900  1
  Ni  Ni7  1  0.14893100  0.18698500  0.11254100  1
  P  P8  1  0.30357100  0.19164100  0.48245700  1
  P  P9  1  0.80357100  0.30835900  0.01754300  1
  P  P10  1  0.69642900  0.80835900  0.51754300  1
  P  P11  1  0.19642900  0.69164100  0.98245700  1
  P  P12  1  0.96296000  0.74708100  0.66423400  1
  P  P13  1  0.46296000  0.75291900  0.83576600  1
  P  P14  1  0.03704000  0.25291900  0.33576600  1
  P  P15  1  0.53704000  0.24708100  0.16423400  1
  O  O16  1  0.31720500  0.30978800  0.59154500  1
  O  O17  1  0.81720500  0.19021200  0.90845500  1
  O  O18  1  0.68279500  0.69021200  0.40845500  1
  O  O19  1  0.18279500  0.80978800  0.09154500  1
  O  O20  1  0.16602200  0.40718600  0.97905300  1
  O  O21  1  0.66602200  0.09281400  0.52094700  1
  O  O22  1  0.83397800  0.59281400  0.02094700  1
  O  O23  1  0.33397800  0.90718600  0.47905300  1
  O  O24  1  0.43863800  0.01830900  0.79451600  1
  O  O25  1  0.93863800  0.48169100  0.70548400  1
  O  O26  1  0.56136200  0.98169100  0.20548400  1
  O  O27  1  0.06136200  0.51830900  0.29451600  1
  O  O28  1  0.38346300  0.73667100  0.95073800  1
  O  O29  1  0.88346300  0.76332900  0.54926200  1
  O  O30  1  0.61653700  0.26332900  0.04926200  1
  O  O31  1  0.11653700  0.23667100  0.45073800  1
  O  O32  1  0.36174700  0.32513300  0.15198800  1
  O  O33  1  0.86174700  0.17486700  0.34801200  1
  O  O34  1  0.63825300  0.67486700  0.84801200  1
  O  O35  1  0.13825300  0.82513300  0.65198800  1
  O  O36  1  0.40393200  0.33137700  0.39935900  1
  O  O37  1  0.90393200  0.16862300  0.10064100  1
  O  O38  1  0.59606800  0.66862300  0.60064100  1
  O  O39  1  0.09606800  0.83137700  0.89935900  1
  O  O40  1  0.12200800  0.05641100  0.26611000  1
  O  O41  1  0.62200800  0.44358900  0.23389000  1
  O  O42  1  0.87799200  0.94358900  0.73389000  1
  O  O43  1  0.37799200  0.55641100  0.76611000  1
