# generated using pymatgen
data_Ba7Sr5(MoN4)4
_symmetry_space_group_name_H-M   'P 1'
_cell_length_a   10.71549600
_cell_length_b   10.08739700
_cell_length_c   12.11085187
_cell_angle_alpha   89.87273746
_cell_angle_beta   90.00000000
_cell_angle_gamma   90.00000000
_symmetry_Int_Tables_number   1
_chemical_formula_structural   Ba7Sr5(MoN4)4
_chemical_formula_sum   'Ba14 Sr10 Mo8 N32'
_cell_volume   1309.07645847
_cell_formula_units_Z   2
loop_
 _symmetry_equiv_pos_site_id
 _symmetry_equiv_pos_as_xyz
  1  'x, y, z'
loop_
 _atom_site_type_symbol
 _atom_site_label
 _atom_site_symmetry_multiplicity
 _atom_site_fract_x
 _atom_site_fract_y
 _atom_site_fract_z
 _atom_site_occupancy
  Ba  Ba0  1  0.77408800  0.55844300  0.38284900  1
  Ba  Ba1  1  0.27408800  0.44155700  0.61715100  1
  Ba  Ba2  1  0.22550800  0.05453300  0.11900200  1
  Ba  Ba3  1  0.72550800  0.94546700  0.88099800  1
  Ba  Ba4  1  0.22742900  0.94453300  0.61703800  1
  Ba  Ba5  1  0.72742900  0.05546700  0.38296200  1
  Ba  Ba6  1  0.77418300  0.44313200  0.88317200  1
  Ba  Ba7  1  0.27418300  0.55686800  0.11682800  1
  Ba  Ba8  1  0.97160400  0.37613900  0.14673700  1
  Ba  Ba9  1  0.47160400  0.62386100  0.85326300  1
  Ba  Ba10  1  0.97137700  0.62310400  0.64602600  1
  Ba  Ba11  1  0.47137700  0.37689600  0.35397400  1
  Ba  Ba12  1  0.02848400  0.12239800  0.85451400  1
  Ba  Ba13  1  0.52848400  0.87760200  0.14548600  1
  Sr  Sr14  1  0.12397100  0.21719300  0.39607500  1
  Sr  Sr15  1  0.62397100  0.78280700  0.60392500  1
  Sr  Sr16  1  0.87684000  0.71899000  0.10456400  1
  Sr  Sr17  1  0.37684000  0.28101000  0.89543600  1
  Sr  Sr18  1  0.87606200  0.28192300  0.60324200  1
  Sr  Sr19  1  0.37606200  0.71807700  0.39675800  1
  Sr  Sr20  1  0.12375300  0.78241500  0.89591400  1
  Sr  Sr21  1  0.62375300  0.21758500  0.10408600  1
  Sr  Sr22  1  0.03465200  0.87150500  0.36240600  1
  Sr  Sr23  1  0.53465200  0.12849500  0.63759400  1
  Mo  Mo24  1  0.09623300  0.55119500  0.38450500  1
  Mo  Mo25  1  0.59623300  0.44880500  0.61549500  1
  Mo  Mo26  1  0.90358400  0.04557100  0.11698200  1
  Mo  Mo27  1  0.40358400  0.95442900  0.88301800  1
  Mo  Mo28  1  0.90218200  0.95270900  0.61232200  1
  Mo  Mo29  1  0.40218200  0.04729100  0.38767800  1
  Mo  Mo30  1  0.09683000  0.45266200  0.88467500  1
  Mo  Mo31  1  0.59683000  0.54733800  0.11532500  1
  N  N32  1  0.22431900  0.45097600  0.31873500  1
  N  N33  1  0.72431900  0.54902400  0.68126500  1
  N  N34  1  0.77366100  0.94729100  0.18125300  1
  N  N35  1  0.27366100  0.05270900  0.81874700  1
  N  N36  1  0.76961000  0.05067600  0.67553200  1
  N  N37  1  0.26961000  0.94932400  0.32446800  1
  N  N38  1  0.22554200  0.55187900  0.81846900  1
  N  N39  1  0.72554200  0.44812100  0.18153100  1
  N  N40  1  0.15937800  0.68085200  0.48206400  1
  N  N41  1  0.65937800  0.31914800  0.51793600  1
  N  N42  1  0.84086500  0.17707900  0.01978400  1
  N  N43  1  0.34086500  0.82292100  0.98021600  1
  N  N44  1  0.84220800  0.82210800  0.51418100  1
  N  N45  1  0.34220800  0.17789200  0.48581900  1
  N  N46  1  0.15979100  0.32264100  0.98231500  1
  N  N47  1  0.65979100  0.67735900  0.01768500  1
  N  N48  1  0.99349200  0.43219400  0.46462200  1
  N  N49  1  0.49349200  0.56780600  0.53537800  1
  N  N50  1  0.00573500  0.92960500  0.03412800  1
  N  N51  1  0.50573500  0.07039500  0.96587200  1
  N  N52  1  0.00618800  0.06845900  0.53075100  1
  N  N53  1  0.50618800  0.93154100  0.46924900  1
  N  N54  1  0.99430400  0.56994900  0.96586300  1
  N  N55  1  0.49430400  0.43005100  0.03413700  1
  N  N56  1  0.99568500  0.63696200  0.27865900  1
  N  N57  1  0.49568500  0.36303800  0.72134100  1
  N  N58  1  0.00502500  0.12334500  0.22622000  1
  N  N59  1  0.50502500  0.87665500  0.77378000  1
  N  N60  1  0.00240700  0.87369400  0.72197500  1
  N  N61  1  0.50240700  0.12630600  0.27802500  1
  N  N62  1  0.99501000  0.37244700  0.77684400  1
  N  N63  1  0.49501000  0.62755300  0.22315600  1
