# generated using pymatgen
data_DyAlGe
_symmetry_space_group_name_H-M   'P 1'
_cell_length_a   5.60446612
_cell_length_b   5.60446612
_cell_length_c   5.75123200
_cell_angle_alpha   90.00000000
_cell_angle_beta   90.00000000
_cell_angle_gamma   137.19676248
_symmetry_Int_Tables_number   1
_chemical_formula_structural   DyAlGe
_chemical_formula_sum   'Dy2 Al2 Ge2'
_cell_volume   122.74613541
_cell_formula_units_Z   2
loop_
 _symmetry_equiv_pos_site_id
 _symmetry_equiv_pos_as_xyz
  1  'x, y, z'
loop_
 _atom_site_type_symbol
 _atom_site_label
 _atom_site_symmetry_multiplicity
 _atom_site_fract_x
 _atom_site_fract_y
 _atom_site_fract_z
 _atom_site_occupancy
  Dy  Dy0  1  0.68934800  0.31065200  0.25000000  1
  Dy  Dy1  1  0.31065200  0.68934800  0.75000000  1
  Al  Al2  1  0.00000000  0.00000000  0.50000000  1
  Al  Al3  1  0.00000000  0.00000000  0.00000000  1
  Ge  Ge4  1  0.39359400  0.60640600  0.25000000  1
  Ge  Ge5  1  0.60640600  0.39359400  0.75000000  1
