# generated using pymatgen
data_RbNa3Fe7(PO4)6
_symmetry_space_group_name_H-M   'P 1'
_cell_length_a   8.54277429
_cell_length_b   8.54277429
_cell_length_c   15.96481005
_cell_angle_alpha   72.24977751
_cell_angle_beta   72.24977751
_cell_angle_gamma   79.60330538
_symmetry_Int_Tables_number   1
_chemical_formula_structural   RbNa3Fe7(PO4)6
_chemical_formula_sum   'Rb2 Na6 Fe14 P12 O48'
_cell_volume   1051.87584778
_cell_formula_units_Z   2
loop_
 _symmetry_equiv_pos_site_id
 _symmetry_equiv_pos_as_xyz
  1  'x, y, z'
loop_
 _atom_site_type_symbol
 _atom_site_label
 _atom_site_symmetry_multiplicity
 _atom_site_fract_x
 _atom_site_fract_y
 _atom_site_fract_z
 _atom_site_occupancy
  Rb  Rb0  1  0.25356400  0.74643600  0.75000000  1
  Rb  Rb1  1  0.74643600  0.25356400  0.25000000  1
  Na  Na2  1  0.71948400  0.24113500  0.52003700  1
  Na  Na3  1  0.28051600  0.75886500  0.47996300  1
  Na  Na4  1  0.75886500  0.28051600  0.97996300  1
  Na  Na5  1  0.24113500  0.71948400  0.02003700  1
  Na  Na6  1  0.50000000  0.00000000  0.00000000  1
  Na  Na7  1  0.00000000  0.50000000  0.50000000  1
  Fe  Fe8  1  0.61759700  0.38240300  0.75000000  1
  Fe  Fe9  1  0.38240300  0.61759700  0.25000000  1
  Fe  Fe10  1  0.69223700  0.69350400  0.85643500  1
  Fe  Fe11  1  0.30776300  0.30649600  0.14356500  1
  Fe  Fe12  1  0.30649600  0.30776300  0.64356500  1
  Fe  Fe13  1  0.69350400  0.69223700  0.35643500  1
  Fe  Fe14  1  0.91495100  0.08504900  0.75000000  1
  Fe  Fe15  1  0.08504900  0.91495100  0.25000000  1
  Fe  Fe16  1  0.50000000  0.00000000  0.50000000  1
  Fe  Fe17  1  0.00000000  0.50000000  0.00000000  1
  Fe  Fe18  1  0.77699900  0.85479600  0.12544600  1
  Fe  Fe19  1  0.22300100  0.14520400  0.87455400  1
  Fe  Fe20  1  0.14520400  0.22300100  0.37455400  1
  Fe  Fe21  1  0.85479600  0.77699900  0.62544600  1
  P  P22  1  0.55925200  0.02026400  0.73037200  1
  P  P23  1  0.44074800  0.97973600  0.26962800  1
  P  P24  1  0.97973600  0.44074800  0.76962800  1
  P  P25  1  0.02026400  0.55925200  0.23037200  1
  P  P26  1  0.90617600  0.90759000  0.92835800  1
  P  P27  1  0.09382400  0.09241000  0.07164200  1
  P  P28  1  0.09241000  0.09382400  0.57164200  1
  P  P29  1  0.90759000  0.90617600  0.42835800  1
  P  P30  1  0.58665100  0.58884900  0.57889400  1
  P  P31  1  0.41334900  0.41115100  0.42110600  1
  P  P32  1  0.41115100  0.41334900  0.92110600  1
  P  P33  1  0.58884900  0.58665100  0.07889400  1
  O  O34  1  0.48602000  0.08928800  0.64591900  1
  O  O35  1  0.51398000  0.91071200  0.35408100  1
  O  O36  1  0.91071200  0.51398000  0.85408100  1
  O  O37  1  0.08928800  0.48602000  0.14591900  1
  O  O38  1  0.31873800  0.46105300  0.50983200  1
  O  O39  1  0.68126200  0.53894700  0.49016800  1
  O  O40  1  0.53894700  0.68126200  0.99016800  1
  O  O41  1  0.46105300  0.31873800  0.00983200  1
  O  O42  1  0.94945300  0.99050400  0.13777600  1
  O  O43  1  0.05054700  0.00949600  0.86222400  1
  O  O44  1  0.00949600  0.05054700  0.36222400  1
  O  O45  1  0.99050400  0.94945300  0.63777600  1
  O  O46  1  0.47761300  0.45152500  0.64900300  1
  O  O47  1  0.52238700  0.54847500  0.35099700  1
  O  O48  1  0.54847500  0.52238700  0.85099700  1
  O  O49  1  0.45152500  0.47761300  0.14900300  1
  O  O50  1  0.47595900  0.75349300  0.56012200  1
  O  O51  1  0.52404100  0.24650700  0.43987800  1
  O  O52  1  0.24650700  0.52404100  0.93987800  1
  O  O53  1  0.75349300  0.47595900  0.06012200  1
  O  O54  1  0.66232100  0.84875800  0.72845700  1
  O  O55  1  0.33767900  0.15124200  0.27154300  1
  O  O56  1  0.15124200  0.33767900  0.77154300  1
  O  O57  1  0.84875800  0.66232100  0.22845700  1
  O  O58  1  0.68040900  0.14547100  0.72347000  1
  O  O59  1  0.31959100  0.85452900  0.27653000  1
  O  O60  1  0.85452900  0.31959100  0.77653000  1
  O  O61  1  0.14547100  0.68040900  0.22347000  1
  O  O62  1  0.77435600  0.00699600  0.98852500  1
  O  O63  1  0.22564400  0.99300400  0.01147500  1
  O  O64  1  0.99300400  0.22564400  0.51147500  1
  O  O65  1  0.00699600  0.77435600  0.48852500  1
  O  O66  1  0.42349300  0.98865500  0.82073300  1
  O  O67  1  0.57650700  0.01134500  0.17926700  1
  O  O68  1  0.01134500  0.57650700  0.67926700  1
  O  O69  1  0.98865500  0.42349300  0.32073300  1
  O  O70  1  0.24844400  0.03311800  0.50470000  1
  O  O71  1  0.75155600  0.96688200  0.49530000  1
  O  O72  1  0.96688200  0.75155600  0.99530000  1
  O  O73  1  0.03311800  0.24844400  0.00470000  1
  O  O74  1  0.83134000  0.86826600  0.85984800  1
  O  O75  1  0.16866000  0.13173400  0.14015200  1
  O  O76  1  0.13173400  0.16866000  0.64015200  1
  O  O77  1  0.86826600  0.83134000  0.35984800  1
  O  O78  1  0.40831900  0.28658900  0.86903900  1
  O  O79  1  0.59168100  0.71341100  0.13096100  1
  O  O80  1  0.71341100  0.59168100  0.63096100  1
  O  O81  1  0.28658900  0.40831900  0.36903900  1
