# generated using pymatgen
data_NaTmCl4
_symmetry_space_group_name_H-M   'P 1'
_cell_length_a   6.56862449
_cell_length_b   6.75327146
_cell_length_c   7.66091500
_cell_angle_alpha   90.00000000
_cell_angle_beta   90.00000000
_cell_angle_gamma   93.48729819
_symmetry_Int_Tables_number   1
_chemical_formula_structural   NaTmCl4
_chemical_formula_sum   'Na2 Tm2 Cl8'
_cell_volume   339.20665230
_cell_formula_units_Z   2
loop_
 _symmetry_equiv_pos_site_id
 _symmetry_equiv_pos_as_xyz
  1  'x, y, z'
loop_
 _atom_site_type_symbol
 _atom_site_label
 _atom_site_symmetry_multiplicity
 _atom_site_fract_x
 _atom_site_fract_y
 _atom_site_fract_z
 _atom_site_occupancy
  Na  Na0  1  0.00000000  0.75000000  0.83105400  1
  Na  Na1  1  0.00000000  0.25000000  0.16894600  1
  Tm  Tm2  1  0.50000000  0.75000000  0.33992500  1
  Tm  Tm3  1  0.50000000  0.25000000  0.66007500  1
  Cl  Cl4  1  0.75694400  0.39841200  0.87597100  1
  Cl  Cl5  1  0.24305600  0.60158800  0.12402900  1
  Cl  Cl6  1  0.24305600  0.10158800  0.87597100  1
  Cl  Cl7  1  0.75694400  0.89841200  0.12402900  1
  Cl  Cl8  1  0.71378000  0.93586900  0.60344200  1
  Cl  Cl9  1  0.28622000  0.06413100  0.39655800  1
  Cl  Cl10  1  0.28622000  0.56413100  0.60344200  1
  Cl  Cl11  1  0.71378000  0.43586900  0.39655800  1
