# generated using pymatgen
data_Li2Sm5Sn7
_symmetry_space_group_name_H-M   'P 1'
_cell_length_a   6.21171000
_cell_length_b   13.72841600
_cell_length_c   17.30719600
_cell_angle_alpha   90.00000000
_cell_angle_beta   90.00000000
_cell_angle_gamma   90.00000000
_symmetry_Int_Tables_number   1
_chemical_formula_structural   Li2Sm5Sn7
_chemical_formula_sum   'Li8 Sm20 Sn28'
_cell_volume   1475.90469671
_cell_formula_units_Z   4
loop_
 _symmetry_equiv_pos_site_id
 _symmetry_equiv_pos_as_xyz
  1  'x, y, z'
loop_
 _atom_site_type_symbol
 _atom_site_label
 _atom_site_symmetry_multiplicity
 _atom_site_fract_x
 _atom_site_fract_y
 _atom_site_fract_z
 _atom_site_occupancy
  Li  Li0  1  0.11013800  0.73106400  0.72841200  1
  Li  Li1  1  0.38986200  0.26893600  0.22841200  1
  Li  Li2  1  0.61013800  0.76893600  0.27158800  1
  Li  Li3  1  0.88986200  0.23106400  0.77158800  1
  Li  Li4  1  0.42347900  0.26923000  0.51993800  1
  Li  Li5  1  0.07652100  0.73077000  0.01993800  1
  Li  Li6  1  0.92347900  0.23077000  0.48006200  1
  Li  Li7  1  0.57652100  0.76923000  0.98006200  1
  Sm  Sm8  1  0.14445400  0.00156300  0.76401900  1
  Sm  Sm9  1  0.35554600  0.99843700  0.26401900  1
  Sm  Sm10  1  0.64445400  0.49843700  0.23598100  1
  Sm  Sm11  1  0.85554600  0.50156300  0.73598100  1
  Sm  Sm12  1  0.35541600  0.31959000  0.04070900  1
  Sm  Sm13  1  0.14458400  0.68041000  0.54070900  1
  Sm  Sm14  1  0.85541600  0.18041000  0.95929100  1
  Sm  Sm15  1  0.64458400  0.81959000  0.45929100  1
  Sm  Sm16  1  0.36196400  0.32379900  0.71727800  1
  Sm  Sm17  1  0.13803600  0.67620100  0.21727800  1
  Sm  Sm18  1  0.86196400  0.17620100  0.28272200  1
  Sm  Sm19  1  0.63803600  0.82379900  0.78272200  1
  Sm  Sm20  1  0.64064200  0.49743700  0.51729900  1
  Sm  Sm21  1  0.85935800  0.50256300  0.01729900  1
  Sm  Sm22  1  0.14064200  0.00256300  0.48270100  1
  Sm  Sm23  1  0.35935800  0.99743700  0.98270100  1
  Sm  Sm24  1  0.65160100  0.07528600  0.62328400  1
  Sm  Sm25  1  0.84839900  0.92471400  0.12328400  1
  Sm  Sm26  1  0.15160100  0.42471400  0.37671600  1
  Sm  Sm27  1  0.34839900  0.57528600  0.87671600  1
  Sn  Sn28  1  0.09269000  0.37937000  0.87895900  1
  Sn  Sn29  1  0.40731000  0.62063000  0.37895900  1
  Sn  Sn30  1  0.59269000  0.12063000  0.12104100  1
  Sn  Sn31  1  0.90731000  0.87937000  0.62104100  1
  Sn  Sn32  1  0.13856700  0.15054100  0.62285400  1
  Sn  Sn33  1  0.36143300  0.84945900  0.12285400  1
  Sn  Sn34  1  0.63856700  0.34945900  0.37714600  1
  Sn  Sn35  1  0.86143300  0.65054100  0.87714600  1
  Sn  Sn36  1  0.13859400  0.43684800  0.56498200  1
  Sn  Sn37  1  0.36140600  0.56315200  0.06498200  1
  Sn  Sn38  1  0.63859400  0.06315200  0.43501800  1
  Sn  Sn39  1  0.86140600  0.93684800  0.93501800  1
  Sn  Sn40  1  0.15188100  0.44387600  0.18836900  1
  Sn  Sn41  1  0.34811900  0.55612400  0.68836900  1
  Sn  Sn42  1  0.65188100  0.05612400  0.81163100  1
  Sn  Sn43  1  0.84811900  0.94387600  0.31163100  1
  Sn  Sn44  1  0.20129400  0.80948600  0.87156900  1
  Sn  Sn45  1  0.29870600  0.19051400  0.37156900  1
  Sn  Sn46  1  0.70129400  0.69051400  0.12843100  1
  Sn  Sn47  1  0.79870600  0.30948600  0.62843100  1
  Sn  Sn48  1  0.32278000  0.18663600  0.87799700  1
  Sn  Sn49  1  0.17722000  0.81336400  0.37799700  1
  Sn  Sn50  1  0.82278000  0.31336400  0.12200300  1
  Sn  Sn51  1  0.67722000  0.68663600  0.62200300  1
  Sn  Sn52  1  0.61013900  0.37364100  0.87909500  1
  Sn  Sn53  1  0.88986100  0.62635900  0.37909500  1
  Sn  Sn54  1  0.11013900  0.12635900  0.12090500  1
  Sn  Sn55  1  0.38986100  0.87364100  0.62090500  1
