# generated using pymatgen
data_CaSnHg
_symmetry_space_group_name_H-M   'P 1'
_cell_length_a   4.90421768
_cell_length_b   4.90421768
_cell_length_c   7.82155100
_cell_angle_alpha   90.00000000
_cell_angle_beta   90.00000000
_cell_angle_gamma   119.99999563
_symmetry_Int_Tables_number   1
_chemical_formula_structural   CaSnHg
_chemical_formula_sum   'Ca2 Sn2 Hg2'
_cell_volume   162.91572631
_cell_formula_units_Z   2
loop_
 _symmetry_equiv_pos_site_id
 _symmetry_equiv_pos_as_xyz
  1  'x, y, z'
loop_
 _atom_site_type_symbol
 _atom_site_label
 _atom_site_symmetry_multiplicity
 _atom_site_fract_x
 _atom_site_fract_y
 _atom_site_fract_z
 _atom_site_occupancy
  Ca  Ca0  1  0.00000000  0.00000000  0.75088500  1
  Ca  Ca1  1  0.00000000  0.00000000  0.25088500  1
  Sn  Sn2  1  0.66666700  0.33333300  0.96243400  1
  Sn  Sn3  1  0.33333300  0.66666700  0.46243400  1
  Hg  Hg4  1  0.66666700  0.33333300  0.56168100  1
  Hg  Hg5  1  0.33333300  0.66666700  0.06168100  1
