# generated using pymatgen
data_YbAlPt
_symmetry_space_group_name_H-M   'P 1'
_cell_length_a   4.21060500
_cell_length_b   7.16715500
_cell_length_c   7.86925900
_cell_angle_alpha   90.00000000
_cell_angle_beta   90.00000000
_cell_angle_gamma   90.00000000
_symmetry_Int_Tables_number   1
_chemical_formula_structural   YbAlPt
_chemical_formula_sum   'Yb4 Al4 Pt4'
_cell_volume   237.47895986
_cell_formula_units_Z   4
loop_
 _symmetry_equiv_pos_site_id
 _symmetry_equiv_pos_as_xyz
  1  'x, y, z'
loop_
 _atom_site_type_symbol
 _atom_site_label
 _atom_site_symmetry_multiplicity
 _atom_site_fract_x
 _atom_site_fract_y
 _atom_site_fract_z
 _atom_site_occupancy
  Yb  Yb0  1  0.25000000  0.02816600  0.32655200  1
  Yb  Yb1  1  0.25000000  0.52816600  0.17344800  1
  Yb  Yb2  1  0.75000000  0.97183400  0.67344800  1
  Yb  Yb3  1  0.75000000  0.47183400  0.82655200  1
  Al  Al4  1  0.25000000  0.13874500  0.93785800  1
  Al  Al5  1  0.25000000  0.63874500  0.56214200  1
  Al  Al6  1  0.75000000  0.86125500  0.06214200  1
  Al  Al7  1  0.75000000  0.36125500  0.43785800  1
  Pt  Pt8  1  0.25000000  0.28156500  0.62299100  1
  Pt  Pt9  1  0.25000000  0.78156500  0.87700900  1
  Pt  Pt10  1  0.75000000  0.71843500  0.37700900  1
  Pt  Pt11  1  0.75000000  0.21843500  0.12299100  1
