# generated using pymatgen
data_K2H3IrNCl5
_symmetry_space_group_name_H-M   'P 1'
_cell_length_a   7.04124600
_cell_length_b   10.15183900
_cell_length_c   13.80273400
_cell_angle_alpha   90.00000000
_cell_angle_beta   90.00000000
_cell_angle_gamma   90.00000000
_symmetry_Int_Tables_number   1
_chemical_formula_structural   K2H3IrNCl5
_chemical_formula_sum   'K8 H12 Ir4 N4 Cl20'
_cell_volume   986.64145205
_cell_formula_units_Z   4
loop_
 _symmetry_equiv_pos_site_id
 _symmetry_equiv_pos_as_xyz
  1  'x, y, z'
loop_
 _atom_site_type_symbol
 _atom_site_label
 _atom_site_symmetry_multiplicity
 _atom_site_fract_x
 _atom_site_fract_y
 _atom_site_fract_z
 _atom_site_occupancy
  K  K0  1  0.86885600  0.50139100  0.34675900  1
  K  K1  1  0.63114400  0.99860900  0.84675900  1
  K  K2  1  0.13114400  0.00139100  0.65324100  1
  K  K3  1  0.36885600  0.49860900  0.15324100  1
  K  K4  1  0.13114400  0.49860900  0.65324100  1
  K  K5  1  0.36885600  0.00139100  0.15324100  1
  K  K6  1  0.86885600  0.99860900  0.34675900  1
  K  K7  1  0.63114400  0.50139100  0.84675900  1
  H  H8  1  0.08098100  0.83217600  0.99586700  1
  H  H9  1  0.41901900  0.66782400  0.49586700  1
  H  H10  1  0.91901900  0.33217700  0.00413300  1
  H  H11  1  0.58098100  0.16782400  0.50413300  1
  H  H12  1  0.91901900  0.16782400  0.00413300  1
  H  H13  1  0.58098100  0.33217700  0.50413300  1
  H  H14  1  0.08098100  0.66782400  0.99586700  1
  H  H15  1  0.41901900  0.83217600  0.49586700  1
  H  H16  1  0.92239000  0.75000000  0.93212100  1
  H  H17  1  0.57761000  0.75000000  0.43212100  1
  H  H18  1  0.07761000  0.25000000  0.06787900  1
  H  H19  1  0.42239000  0.25000000  0.56787900  1
  Ir  Ir20  1  0.81361400  0.75000000  0.11413900  1
  Ir  Ir21  1  0.68638600  0.75000000  0.61413900  1
  Ir  Ir22  1  0.18638600  0.25000000  0.88586100  1
  Ir  Ir23  1  0.31361400  0.25000000  0.38586100  1
  N  N24  1  0.99491700  0.75000000  0.99668500  1
  N  N25  1  0.50508300  0.75000000  0.49668500  1
  N  N26  1  0.00508300  0.25000000  0.00331500  1
  N  N27  1  0.49491700  0.25000000  0.50331500  1
  Cl  Cl28  1  0.08529300  0.75000000  0.21534700  1
  Cl  Cl29  1  0.41470700  0.75000000  0.71534700  1
  Cl  Cl30  1  0.91470700  0.25000000  0.78465300  1
  Cl  Cl31  1  0.58529300  0.25000000  0.28465300  1
  Cl  Cl32  1  0.81700900  0.51684900  0.11094500  1
  Cl  Cl33  1  0.68299100  0.98315100  0.61094500  1
  Cl  Cl34  1  0.18299100  0.01684900  0.88905500  1
  Cl  Cl35  1  0.31700900  0.48315100  0.38905500  1
  Cl  Cl36  1  0.18299100  0.48315100  0.88905500  1
  Cl  Cl37  1  0.31700900  0.01684900  0.38905500  1
  Cl  Cl38  1  0.81700900  0.98315100  0.11094500  1
  Cl  Cl39  1  0.68299100  0.51684900  0.61094500  1
  Cl  Cl40  1  0.54788800  0.75000000  0.00656400  1
  Cl  Cl41  1  0.95211200  0.75000000  0.50656400  1
  Cl  Cl42  1  0.45211200  0.25000000  0.99343600  1
  Cl  Cl43  1  0.04788800  0.25000000  0.49343600  1
  Cl  Cl44  1  0.60746200  0.75000000  0.25386400  1
  Cl  Cl45  1  0.89253800  0.75000000  0.75386400  1
  Cl  Cl46  1  0.39253800  0.25000000  0.74613600  1
  Cl  Cl47  1  0.10746200  0.25000000  0.24613600  1
