# generated using pymatgen
data_ThNiGe2
_symmetry_space_group_name_H-M   'P 1'
_cell_length_a   8.58341048
_cell_length_b   8.58341048
_cell_length_c   4.26589300
_cell_angle_alpha   90.00000000
_cell_angle_beta   90.00000000
_cell_angle_gamma   151.21348523
_symmetry_Int_Tables_number   1
_chemical_formula_structural   ThNiGe2
_chemical_formula_sum   'Th2 Ni2 Ge4'
_cell_volume   151.34524298
_cell_formula_units_Z   2
loop_
 _symmetry_equiv_pos_site_id
 _symmetry_equiv_pos_as_xyz
  1  'x, y, z'
loop_
 _atom_site_type_symbol
 _atom_site_label
 _atom_site_symmetry_multiplicity
 _atom_site_fract_x
 _atom_site_fract_y
 _atom_site_fract_z
 _atom_site_occupancy
  Th  Th0  1  0.60786500  0.39213500  0.75000000  1
  Th  Th1  1  0.39213600  0.60786500  0.25000000  1
  Ni  Ni2  1  0.81828500  0.18171500  0.75000000  1
  Ni  Ni3  1  0.18171500  0.81828500  0.25000000  1
  Ge  Ge4  1  0.95857600  0.04142400  0.75000000  1
  Ge  Ge5  1  0.04142400  0.95857600  0.25000000  1
  Ge  Ge6  1  0.25069400  0.74930600  0.75000000  1
  Ge  Ge7  1  0.74930600  0.25069400  0.25000000  1
