# generated using pymatgen
data_BaLaCuTe3
_symmetry_space_group_name_H-M   'P 1'
_cell_length_a   4.55027900
_cell_length_b   11.98632400
_cell_length_c   15.00676300
_cell_angle_alpha   90.00000000
_cell_angle_beta   90.00000000
_cell_angle_gamma   90.00000000
_symmetry_Int_Tables_number   1
_chemical_formula_structural   BaLaCuTe3
_chemical_formula_sum   'Ba4 La4 Cu4 Te12'
_cell_volume   818.48563735
_cell_formula_units_Z   4
loop_
 _symmetry_equiv_pos_site_id
 _symmetry_equiv_pos_as_xyz
  1  'x, y, z'
loop_
 _atom_site_type_symbol
 _atom_site_label
 _atom_site_symmetry_multiplicity
 _atom_site_fract_x
 _atom_site_fract_y
 _atom_site_fract_z
 _atom_site_occupancy
  Ba  Ba0  1  0.25000000  0.27515000  0.99835400  1
  Ba  Ba1  1  0.75000000  0.72485000  0.00164600  1
  Ba  Ba2  1  0.25000000  0.77515000  0.50164600  1
  Ba  Ba3  1  0.75000000  0.22485000  0.49835400  1
  La  La4  1  0.25000000  0.01727400  0.24199100  1
  La  La5  1  0.75000000  0.98272600  0.75800900  1
  La  La6  1  0.25000000  0.51727400  0.25800900  1
  La  La7  1  0.75000000  0.48272600  0.74199100  1
  Cu  Cu8  1  0.75000000  0.26152300  0.21926500  1
  Cu  Cu9  1  0.25000000  0.23847700  0.71926500  1
  Cu  Cu10  1  0.75000000  0.76152300  0.28073500  1
  Cu  Cu11  1  0.25000000  0.73847700  0.78073500  1
  Te  Te12  1  0.25000000  0.26297300  0.32121900  1
  Te  Te13  1  0.75000000  0.73702700  0.67878100  1
  Te  Te14  1  0.25000000  0.76297300  0.17878100  1
  Te  Te15  1  0.75000000  0.23702700  0.82121900  1
  Te  Te16  1  0.25000000  0.40753500  0.60488100  1
  Te  Te17  1  0.75000000  0.09246500  0.10488100  1
  Te  Te18  1  0.25000000  0.90753500  0.89511900  1
  Te  Te19  1  0.75000000  0.59246500  0.39511900  1
  Te  Te20  1  0.75000000  0.44533300  0.11658800  1
  Te  Te21  1  0.25000000  0.55466700  0.88341200  1
  Te  Te22  1  0.75000000  0.94533300  0.38341200  1
  Te  Te23  1  0.25000000  0.05466700  0.61658800  1
