# generated using pymatgen
data_PrAlGe
_symmetry_space_group_name_H-M   'P 1'
_cell_length_a   7.99938840
_cell_length_b   7.99938840
_cell_length_c   7.99938840
_cell_angle_alpha   148.78619909
_cell_angle_beta   148.78619909
_cell_angle_gamma   44.72610546
_symmetry_Int_Tables_number   1
_chemical_formula_structural   PrAlGe
_chemical_formula_sum   'Pr2 Al2 Ge2'
_cell_volume   137.05485173
_cell_formula_units_Z   2
loop_
 _symmetry_equiv_pos_site_id
 _symmetry_equiv_pos_as_xyz
  1  'x, y, z'
loop_
 _atom_site_type_symbol
 _atom_site_label
 _atom_site_symmetry_multiplicity
 _atom_site_fract_x
 _atom_site_fract_y
 _atom_site_fract_z
 _atom_site_occupancy
  Pr  Pr0  1  0.16672100  0.16672100  0.00000000  1
  Pr  Pr1  1  0.91672100  0.41672100  0.50000000  1
  Al  Al2  1  0.58277200  0.58277200  0.00000000  1
  Al  Al3  1  0.33277200  0.83277200  0.50000000  1
  Ge  Ge4  1  0.49900700  0.99900700  0.50000000  1
  Ge  Ge5  1  0.74900700  0.74900700  0.00000000  1
