# generated using pymatgen
data_BaAlGe
_symmetry_space_group_name_H-M   'P 1'
_cell_length_a   4.38665864
_cell_length_b   4.38665864
_cell_length_c   5.19409800
_cell_angle_alpha   90.00000000
_cell_angle_beta   90.00000000
_cell_angle_gamma   120.00000959
_symmetry_Int_Tables_number   1
_chemical_formula_structural   BaAlGe
_chemical_formula_sum   'Ba1 Al1 Ge1'
_cell_volume   86.55823818
_cell_formula_units_Z   1
loop_
 _symmetry_equiv_pos_site_id
 _symmetry_equiv_pos_as_xyz
  1  'x, y, z'
loop_
 _atom_site_type_symbol
 _atom_site_label
 _atom_site_symmetry_multiplicity
 _atom_site_fract_x
 _atom_site_fract_y
 _atom_site_fract_z
 _atom_site_occupancy
  Ba  Ba0  1  0.00000000  0.00000000  0.00000000  1
  Al  Al1  1  0.66666700  0.33333300  0.50000000  1
  Ge  Ge2  1  0.33333300  0.66666700  0.50000000  1
