# generated using pymatgen
data_Tm(BIr)4
_symmetry_space_group_name_H-M   'P 1'
_cell_length_a   5.39486400
_cell_length_b   5.39486400
_cell_length_c   7.44503500
_cell_angle_alpha   90.00000000
_cell_angle_beta   90.00000000
_cell_angle_gamma   90.00000000
_symmetry_Int_Tables_number   1
_chemical_formula_structural   Tm(BIr)4
_chemical_formula_sum   'Tm2 B8 Ir8'
_cell_volume   216.68444983
_cell_formula_units_Z   2
loop_
 _symmetry_equiv_pos_site_id
 _symmetry_equiv_pos_as_xyz
  1  'x, y, z'
loop_
 _atom_site_type_symbol
 _atom_site_label
 _atom_site_symmetry_multiplicity
 _atom_site_fract_x
 _atom_site_fract_y
 _atom_site_fract_z
 _atom_site_occupancy
  Tm  Tm0  1  0.00000000  0.00000000  0.00000000  1
  Tm  Tm1  1  0.50000000  0.50000000  0.50000000  1
  B  B2  1  0.82754700  0.50000000  0.15318800  1
  B  B3  1  0.17245300  0.50000000  0.15318800  1
  B  B4  1  0.00000000  0.32754700  0.65318800  1
  B  B5  1  0.00000000  0.67245300  0.65318800  1
  B  B6  1  0.67245300  0.00000000  0.34681200  1
  B  B7  1  0.32754700  0.00000000  0.34681200  1
  B  B8  1  0.50000000  0.17245300  0.84681200  1
  B  B9  1  0.50000000  0.82754700  0.84681200  1
  Ir  Ir10  1  0.25113000  0.50000000  0.85506100  1
  Ir  Ir11  1  0.74887000  0.50000000  0.85506100  1
  Ir  Ir12  1  0.00000000  0.75113000  0.35506100  1
  Ir  Ir13  1  0.00000000  0.24887000  0.35506100  1
  Ir  Ir14  1  0.24887000  0.00000000  0.64493900  1
  Ir  Ir15  1  0.75113000  0.00000000  0.64493900  1
  Ir  Ir16  1  0.50000000  0.74887000  0.14493900  1
  Ir  Ir17  1  0.50000000  0.25113000  0.14493900  1
