# generated using pymatgen
data_Sr(BH)12
_symmetry_space_group_name_H-M   'P 1'
_cell_length_a   7.14734396
_cell_length_b   7.14723303
_cell_length_c   11.60282800
_cell_angle_alpha   90.00035787
_cell_angle_beta   89.99918251
_cell_angle_gamma   120.00053219
_symmetry_Int_Tables_number   1
_chemical_formula_structural   Sr(BH)12
_chemical_formula_sum   'Sr2 B24 H24'
_cell_volume   513.30415720
_cell_formula_units_Z   2
loop_
 _symmetry_equiv_pos_site_id
 _symmetry_equiv_pos_as_xyz
  1  'x, y, z'
loop_
 _atom_site_type_symbol
 _atom_site_label
 _atom_site_symmetry_multiplicity
 _atom_site_fract_x
 _atom_site_fract_y
 _atom_site_fract_z
 _atom_site_occupancy
  Sr  Sr0  1  0.66668400  0.33332700  0.25159000  1
  Sr  Sr1  1  0.33335100  0.66667400  0.75159000  1
  B  B2  1  0.92410200  0.39831500  0.59561800  1
  B  B3  1  0.47421300  0.07589700  0.59562000  1
  B  B4  1  0.60169000  0.52578800  0.59561900  1
  B  B5  1  0.52578800  0.60168500  0.09561800  1
  B  B6  1  0.39831700  0.92410400  0.09562000  1
  B  B7  1  0.07590300  0.47421100  0.09561800  1
  B  B8  1  0.50718200  0.29273400  0.50749700  1
  B  B9  1  0.78555900  0.49282100  0.50749600  1
  B  B10  1  0.70726600  0.21444100  0.50749700  1
  B  B11  1  0.21444800  0.70726600  0.00749600  1
  B  B12  1  0.29273800  0.50717800  0.00749600  1
  B  B13  1  0.49282500  0.78556000  0.00749700  1
  B  B14  1  0.82575000  0.37259000  0.73816300  1
  B  B15  1  0.54683800  0.17425200  0.73816500  1
  B  B16  1  0.62741700  0.45316500  0.73816300  1
  B  B17  1  0.45315900  0.62741000  0.23816400  1
  B  B18  1  0.37258600  0.82574700  0.23816400  1
  B  B19  1  0.17425400  0.54683700  0.23816300  1
  B  B20  1  0.40790000  0.26882200  0.65066300  1
  B  B21  1  0.86092700  0.59210800  0.65066100  1
  B  B22  1  0.73117500  0.13907500  0.65066200  1
  B  B23  1  0.13907900  0.73117900  0.15066300  1
  B  B24  1  0.26882000  0.40789300  0.15066200  1
  B  B25  1  0.59210000  0.86092500  0.15066200  1
  H  H26  1  0.10729400  0.44409200  0.57431400  1
  H  H27  1  0.33679900  0.89270200  0.57431500  1
  H  H28  1  0.55591500  0.66320500  0.57431200  1
  H  H29  1  0.66320100  0.55590800  0.07431400  1
  H  H30  1  0.44409600  0.10729800  0.07431500  1
  H  H31  1  0.89271100  0.33679600  0.07431200  1
  H  H32  1  0.39298200  0.26261100  0.42487900  1
  H  H33  1  0.86963800  0.60702500  0.42487700  1
  H  H34  1  0.73738800  0.13035700  0.42488000  1
  H  H35  1  0.13037100  0.73739000  0.92487900  1
  H  H36  1  0.26261300  0.39297400  0.92487800  1
  H  H37  1  0.60703200  0.86964400  0.92488000  1
  H  H38  1  0.93737000  0.39910900  0.82137100  1
  H  H39  1  0.46173500  0.06263300  0.82137500  1
  H  H40  1  0.60089800  0.53826400  0.82137600  1
  H  H41  1  0.53826000  0.60089000  0.32137200  1
  H  H42  1  0.39910100  0.93736700  0.32137600  1
  H  H43  1  0.06263400  0.46173700  0.32137600  1
  H  H44  1  0.22588300  0.22414500  0.67086500  1
  H  H45  1  0.99826400  0.77412600  0.67086100  1
  H  H46  1  0.77584800  0.00173000  0.67086200  1
  H  H47  1  0.00173800  0.77585400  0.17086400  1
  H  H48  1  0.22413800  0.22587300  0.17086100  1
  H  H49  1  0.77411900  0.99827000  0.17086200  1
