# generated using pymatgen
data_Tb(Ni2B)6
_symmetry_space_group_name_H-M   'P 1'
_cell_length_a   6.02682981
_cell_length_b   6.02682981
_cell_length_c   10.96144600
_cell_angle_alpha   90.00000000
_cell_angle_beta   90.00000000
_cell_angle_gamma   104.77146483
_symmetry_Int_Tables_number   1
_chemical_formula_structural   Tb(Ni2B)6
_chemical_formula_sum   'Tb2 Ni24 B12'
_cell_volume   384.99043666
_cell_formula_units_Z   2
loop_
 _symmetry_equiv_pos_site_id
 _symmetry_equiv_pos_as_xyz
  1  'x, y, z'
loop_
 _atom_site_type_symbol
 _atom_site_label
 _atom_site_symmetry_multiplicity
 _atom_site_fract_x
 _atom_site_fract_y
 _atom_site_fract_z
 _atom_site_occupancy
  Tb  Tb0  1  0.83320100  0.83320100  0.00357600  1
  Tb  Tb1  1  0.16679900  0.16679900  0.50357600  1
  Ni  Ni2  1  0.99759400  0.63170600  0.56273200  1
  Ni  Ni3  1  0.73068800  0.34260200  0.43217500  1
  Ni  Ni4  1  0.34260200  0.73068800  0.43217500  1
  Ni  Ni5  1  0.65739800  0.26931200  0.93217500  1
  Ni  Ni6  1  0.00240600  0.36829400  0.06273200  1
  Ni  Ni7  1  0.36829400  0.00240600  0.06273200  1
  Ni  Ni8  1  0.63170600  0.99759400  0.56273200  1
  Ni  Ni9  1  0.43320700  0.43320700  0.08154500  1
  Ni  Ni10  1  0.21252100  0.47399300  0.72348700  1
  Ni  Ni11  1  0.78747900  0.52600700  0.22348700  1
  Ni  Ni12  1  0.52600700  0.78747900  0.22348700  1
  Ni  Ni13  1  0.47399300  0.21252100  0.72348700  1
  Ni  Ni14  1  0.56679300  0.56679300  0.58154500  1
  Ni  Ni15  1  0.21761600  0.21761600  0.90082100  1
  Ni  Ni16  1  0.14577200  0.88232400  0.74435700  1
  Ni  Ni17  1  0.85422800  0.11767600  0.24435700  1
  Ni  Ni18  1  0.11767600  0.85422800  0.24435700  1
  Ni  Ni19  1  0.88232400  0.14577200  0.74435700  1
  Ni  Ni20  1  0.54421300  0.80557500  0.76676200  1
  Ni  Ni21  1  0.45578700  0.19442500  0.26676200  1
  Ni  Ni22  1  0.19442500  0.45578700  0.26676200  1
  Ni  Ni23  1  0.80557500  0.54421300  0.76676200  1
  Ni  Ni24  1  0.78238400  0.78238400  0.40082100  1
  Ni  Ni25  1  0.26931200  0.65739800  0.93217500  1
  B  B26  1  0.40010400  0.98752200  0.87746400  1
  B  B27  1  0.59989600  0.01247800  0.37746400  1
  B  B28  1  0.01247800  0.59989600  0.37746400  1
  B  B29  1  0.98752200  0.40010400  0.87746400  1
  B  B30  1  0.32759100  0.75860600  0.61513400  1
  B  B31  1  0.67240900  0.24139400  0.11513400  1
  B  B32  1  0.24139400  0.67240900  0.11513400  1
  B  B33  1  0.75860600  0.32759100  0.61513400  1
  B  B34  1  0.51232900  0.51232900  0.34479600  1
  B  B35  1  0.48767100  0.48767100  0.84479600  1
  B  B36  1  0.16344400  0.16344400  0.16204100  1
  B  B37  1  0.83655600  0.83655600  0.66204100  1
