# generated using pymatgen
data_SrTl2(PO3)4
_symmetry_space_group_name_H-M   'P 1'
_cell_length_a   7.50900975
_cell_length_b   7.50900975
_cell_length_c   7.50900975
_cell_angle_alpha   118.62216137
_cell_angle_beta   118.62216137
_cell_angle_gamma   92.40352759
_symmetry_Int_Tables_number   1
_chemical_formula_structural   SrTl2(PO3)4
_chemical_formula_sum   'Sr1 Tl2 P4 O12'
_cell_volume   305.33144550
_cell_formula_units_Z   1
loop_
 _symmetry_equiv_pos_site_id
 _symmetry_equiv_pos_as_xyz
  1  'x, y, z'
loop_
 _atom_site_type_symbol
 _atom_site_label
 _atom_site_symmetry_multiplicity
 _atom_site_fract_x
 _atom_site_fract_y
 _atom_site_fract_z
 _atom_site_occupancy
  Sr  Sr0  1  0.00000000  0.00000000  0.00000000  1
  Tl  Tl1  1  0.42110300  0.92110300  0.50000000  1
  Tl  Tl2  1  0.07889700  0.57889700  0.50000000  1
  P  P3  1  0.56362900  0.00151800  0.12935500  1
  P  P4  1  0.87216400  0.43427500  0.87064500  1
  P  P5  1  0.56572500  0.43637100  0.43788900  1
  P  P6  1  0.99848200  0.12783600  0.56211100  1
  O  O7  1  0.62141800  0.26119800  0.25430900  1
  O  O8  1  0.00688900  0.36711000  0.74569100  1
  O  O9  1  0.63289000  0.37858200  0.63977900  1
  O  O10  1  0.73880200  0.99311100  0.36022100  1
  O  O11  1  0.61160300  0.91582400  0.93796800  1
  O  O12  1  0.97785600  0.67363600  0.06203200  1
  O  O13  1  0.32636400  0.38839700  0.30422100  1
  O  O14  1  0.08417600  0.02214400  0.69577900  1
  O  O15  1  0.34567800  0.90180700  0.06604200  1
  O  O16  1  0.83576500  0.27963600  0.93395800  1
  O  O17  1  0.72036400  0.65432200  0.55612900  1
  O  O18  1  0.09819300  0.16423500  0.44387100  1
