# generated using pymatgen
data_Sr2V4Te2H2O17
_symmetry_space_group_name_H-M   'P 1'
_cell_length_a   10.97970169
_cell_length_b   10.97970169
_cell_length_c   16.56086403
_cell_angle_alpha   62.22752914
_cell_angle_beta   62.22752914
_cell_angle_gamma   27.46802310
_symmetry_Int_Tables_number   1
_chemical_formula_structural   Sr2V4Te2H2O17
_chemical_formula_sum   'Sr4 V8 Te4 H4 O34'
_cell_volume   808.02334655
_cell_formula_units_Z   2
loop_
 _symmetry_equiv_pos_site_id
 _symmetry_equiv_pos_as_xyz
  1  'x, y, z'
loop_
 _atom_site_type_symbol
 _atom_site_label
 _atom_site_symmetry_multiplicity
 _atom_site_fract_x
 _atom_site_fract_y
 _atom_site_fract_z
 _atom_site_occupancy
  Sr  Sr0  1  0.37205900  0.66445700  0.11798200  1
  Sr  Sr1  1  0.33554300  0.62794100  0.38201800  1
  Sr  Sr2  1  0.62794100  0.33554300  0.88201800  1
  Sr  Sr3  1  0.66445700  0.37205900  0.61798200  1
  V  V4  1  0.04511300  0.30645600  0.01045200  1
  V  V5  1  0.69354400  0.95488700  0.48954800  1
  V  V6  1  0.95488700  0.69354400  0.98954800  1
  V  V7  1  0.30645600  0.04511300  0.51045200  1
  V  V8  1  0.25519800  0.00091300  0.85855800  1
  V  V9  1  0.99908700  0.74480200  0.64144200  1
  V  V10  1  0.74480200  0.99908700  0.14144200  1
  V  V11  1  0.00091300  0.25519800  0.35855800  1
  Te  Te12  1  0.58932200  0.74767500  0.18473700  1
  Te  Te13  1  0.25232500  0.41067800  0.31526300  1
  Te  Te14  1  0.41067800  0.25232500  0.81526300  1
  Te  Te15  1  0.74767500  0.58932200  0.68473700  1
  H  H16  1  0.84318000  0.07503000  0.26845200  1
  H  H17  1  0.92497000  0.15682000  0.23154800  1
  H  H18  1  0.15682000  0.92497000  0.73154800  1
  H  H19  1  0.07503000  0.84318000  0.76845200  1
  O  O20  1  0.86785400  0.56525300  0.07233000  1
  O  O21  1  0.43474700  0.13214600  0.42767000  1
  O  O22  1  0.13214600  0.43474700  0.92767000  1
  O  O23  1  0.56525300  0.86785400  0.57233000  1
  O  O24  1  0.00111400  0.99888600  0.25000000  1
  O  O25  1  0.99888600  0.00111400  0.75000000  1
  O  O26  1  0.86872200  0.49957400  0.25780100  1
  O  O27  1  0.50042600  0.13127800  0.24219900  1
  O  O28  1  0.13127800  0.50042600  0.74219900  1
  O  O29  1  0.49957400  0.86872200  0.75780100  1
  O  O30  1  0.60651000  0.54537000  0.21862300  1
  O  O31  1  0.45463000  0.39349000  0.28137700  1
  O  O32  1  0.39349000  0.45463000  0.78137700  1
  O  O33  1  0.54537000  0.60651000  0.71862300  1
  O  O34  1  0.77641300  0.44996000  0.02049000  1
  O  O35  1  0.55004000  0.22358700  0.47951000  1
  O  O36  1  0.22358700  0.55004000  0.97951000  1
  O  O37  1  0.44996000  0.77641300  0.52049000  1
  O  O38  1  0.23829800  0.03556400  0.09147500  1
  O  O39  1  0.96443600  0.76170200  0.40852500  1
  O  O40  1  0.76170200  0.96443600  0.90852500  1
  O  O41  1  0.03556400  0.23829800  0.59147500  1
  O  O42  1  0.24266000  0.12559200  0.90776600  1
  O  O43  1  0.87440800  0.75734000  0.59223400  1
  O  O44  1  0.75734000  0.87440800  0.09223400  1
  O  O45  1  0.12559200  0.24266000  0.40776600  1
  O  O46  1  0.33271100  0.77245700  0.93298400  1
  O  O47  1  0.22754300  0.66728900  0.56701600  1
  O  O48  1  0.66728900  0.22754300  0.06701600  1
  O  O49  1  0.77245700  0.33271100  0.43298400  1
  O  O50  1  0.95163800  0.25734900  0.82475000  1
  O  O51  1  0.74265100  0.04836200  0.67525000  1
  O  O52  1  0.04836200  0.74265100  0.17525000  1
  O  O53  1  0.25734900  0.95163800  0.32475000  1
