# generated using pymatgen
data_KZn2BCl2O3
_symmetry_space_group_name_H-M   'P 1'
_cell_length_a   9.51385702
_cell_length_b   9.51385702
_cell_length_c   9.51385673
_cell_angle_alpha   30.49695646
_cell_angle_beta   30.49695646
_cell_angle_gamma   30.49696175
_symmetry_Int_Tables_number   1
_chemical_formula_structural   KZn2BCl2O3
_chemical_formula_sum   'K1 Zn2 B1 Cl2 O3'
_cell_volume   196.59776046
_cell_formula_units_Z   1
loop_
 _symmetry_equiv_pos_site_id
 _symmetry_equiv_pos_as_xyz
  1  'x, y, z'
loop_
 _atom_site_type_symbol
 _atom_site_label
 _atom_site_symmetry_multiplicity
 _atom_site_fract_x
 _atom_site_fract_y
 _atom_site_fract_z
 _atom_site_occupancy
  K  K0  1  0.50000000  0.50000000  0.50000000  1
  Zn  Zn1  1  0.30571600  0.30571600  0.30571600  1
  Zn  Zn2  1  0.69428400  0.69428400  0.69428400  1
  B  B3  1  0.00000000  0.00000000  0.00000000  1
  Cl  Cl4  1  0.22196200  0.22196200  0.22196200  1
  Cl  Cl5  1  0.77803800  0.77803800  0.77803800  1
  O  O6  1  0.72332100  0.00000000  0.27667900  1
  O  O7  1  0.00000000  0.27667900  0.72332100  1
  O  O8  1  0.27667900  0.72332100  0.00000000  1
