# generated using pymatgen
data_Sr6(CoO3)5
_symmetry_space_group_name_H-M   'P 1'
_cell_length_a   6.91558123
_cell_length_b   6.91558123
_cell_length_c   6.91558137
_cell_angle_alpha   87.86794165
_cell_angle_beta   87.86794165
_cell_angle_gamma   87.86793529
_symmetry_Int_Tables_number   1
_chemical_formula_structural   Sr6(CoO3)5
_chemical_formula_sum   'Sr6 Co5 O15'
_cell_volume   330.06921143
_cell_formula_units_Z   1
loop_
 _symmetry_equiv_pos_site_id
 _symmetry_equiv_pos_as_xyz
  1  'x, y, z'
loop_
 _atom_site_type_symbol
 _atom_site_label
 _atom_site_symmetry_multiplicity
 _atom_site_fract_x
 _atom_site_fract_y
 _atom_site_fract_z
 _atom_site_occupancy
  Sr  Sr0  1  0.50000000  0.86118300  0.13881700  1
  Sr  Sr1  1  0.13881700  0.50000000  0.86118300  1
  Sr  Sr2  1  0.86118300  0.13881700  0.50000000  1
  Sr  Sr3  1  0.00000000  0.67805200  0.32194800  1
  Sr  Sr4  1  0.32194800  0.00000000  0.67805200  1
  Sr  Sr5  1  0.67805200  0.32194800  0.00000000  1
  Co  Co6  1  0.70545200  0.70545200  0.70545200  1
  Co  Co7  1  0.29454800  0.29454800  0.29454800  1
  Co  Co8  1  0.90493900  0.90493900  0.90493900  1
  Co  Co9  1  0.09506100  0.09506100  0.09506100  1
  Co  Co10  1  0.50000000  0.50000000  0.50000000  1
  O  O11  1  0.36628800  0.55538500  0.26583200  1
  O  O12  1  0.26583200  0.36628800  0.55538500  1
  O  O13  1  0.55538500  0.26583200  0.36628800  1
  O  O14  1  0.63371200  0.73416800  0.44461500  1
  O  O15  1  0.44461500  0.63371200  0.73416800  1
  O  O16  1  0.73416800  0.44461500  0.63371200  1
  O  O17  1  0.20482400  0.03017800  0.34066600  1
  O  O18  1  0.34066600  0.20482400  0.03017800  1
  O  O19  1  0.03017800  0.34066600  0.20482400  1
  O  O20  1  0.79517600  0.65933400  0.96982200  1
  O  O21  1  0.96982200  0.79517600  0.65933400  1
  O  O22  1  0.15676600  0.84323400  0.00000000  1
  O  O23  1  0.84323400  0.00000000  0.15676600  1
  O  O24  1  0.00000000  0.15676600  0.84323400  1
  O  O25  1  0.65933400  0.96982200  0.79517600  1
