# generated using pymatgen
data_K6HgSe4
_symmetry_space_group_name_H-M   'P 1'
_cell_length_a   10.52190746
_cell_length_b   10.52190746
_cell_length_c   8.00664800
_cell_angle_alpha   90.00000000
_cell_angle_beta   90.00000000
_cell_angle_gamma   119.99999660
_symmetry_Int_Tables_number   1
_chemical_formula_structural   K6HgSe4
_chemical_formula_sum   'K12 Hg2 Se8'
_cell_volume   767.66252133
_cell_formula_units_Z   2
loop_
 _symmetry_equiv_pos_site_id
 _symmetry_equiv_pos_as_xyz
  1  'x, y, z'
loop_
 _atom_site_type_symbol
 _atom_site_label
 _atom_site_symmetry_multiplicity
 _atom_site_fract_x
 _atom_site_fract_y
 _atom_site_fract_z
 _atom_site_occupancy
  K  K0  1  0.14868200  0.29736500  0.20599600  1
  K  K1  1  0.14868200  0.85131800  0.20599600  1
  K  K2  1  0.70263500  0.85131800  0.20599600  1
  K  K3  1  0.85131800  0.70263500  0.70599700  1
  K  K4  1  0.85131800  0.14868200  0.70599700  1
  K  K5  1  0.29736500  0.14868200  0.70599700  1
  K  K6  1  0.52756600  0.05513100  0.37748100  1
  K  K7  1  0.52756600  0.47243400  0.37748100  1
  K  K8  1  0.94486900  0.47243400  0.37748100  1
  K  K9  1  0.47243400  0.94486900  0.87748100  1
  K  K10  1  0.47243400  0.52756600  0.87748100  1
  K  K11  1  0.05513100  0.52756600  0.87748100  1
  Hg  Hg12  1  0.33333300  0.66666700  0.50160200  1
  Hg  Hg13  1  0.66666700  0.33333300  0.00160200  1
  Se  Se14  1  0.33333300  0.66666700  0.15621200  1
  Se  Se15  1  0.66666700  0.33333300  0.65621200  1
  Se  Se16  1  0.81082200  0.62164400  0.10490100  1
  Se  Se17  1  0.81082200  0.18917800  0.10490100  1
  Se  Se18  1  0.37835600  0.18917800  0.10490100  1
  Se  Se19  1  0.18917800  0.37835600  0.60490100  1
  Se  Se20  1  0.18917800  0.81082200  0.60490100  1
  Se  Se21  1  0.62164400  0.81082200  0.60490100  1
