# generated using pymatgen
data_SrMn3(PO4)3
_symmetry_space_group_name_H-M   'P 1'
_cell_length_a   9.37945102
_cell_length_b   9.37945102
_cell_length_c   9.37945102
_cell_angle_alpha   138.09416385
_cell_angle_beta   112.36593865
_cell_angle_gamma   82.83286120
_symmetry_Int_Tables_number   1
_chemical_formula_structural   SrMn3(PO4)3
_chemical_formula_sum   'Sr2 Mn6 P6 O24'
_cell_volume   492.61170954
_cell_formula_units_Z   2
loop_
 _symmetry_equiv_pos_site_id
 _symmetry_equiv_pos_as_xyz
  1  'x, y, z'
loop_
 _atom_site_type_symbol
 _atom_site_label
 _atom_site_symmetry_multiplicity
 _atom_site_fract_x
 _atom_site_fract_y
 _atom_site_fract_z
 _atom_site_occupancy
  Sr  Sr0  1  0.25000000  0.35697300  0.10697300  1
  Sr  Sr1  1  0.75000000  0.64302700  0.89302700  1
  Mn  Mn2  1  0.11804600  0.11804600  0.50000000  1
  Mn  Mn3  1  0.38195400  0.88195400  0.00000000  1
  Mn  Mn4  1  0.61804600  0.11804600  0.00000000  1
  Mn  Mn5  1  0.88195400  0.88195400  0.50000000  1
  Mn  Mn6  1  0.50000000  0.00000000  0.50000000  1
  Mn  Mn7  1  0.00000000  0.50000000  0.50000000  1
  P  P8  1  0.25000000  0.84298000  0.59298000  1
  P  P9  1  0.75000000  0.15702000  0.40702000  1
  P  P10  1  0.32354400  0.32354400  0.50000000  1
  P  P11  1  0.17645600  0.67645600  0.00000000  1
  P  P12  1  0.82354400  0.32354400  0.00000000  1
  P  P13  1  0.67645600  0.67645600  0.50000000  1
  O  O14  1  0.16069500  0.62158200  0.46088700  1
  O  O15  1  0.83930500  0.37841800  0.53911300  1
  O  O16  1  0.66069500  0.19980800  0.53911300  1
  O  O17  1  0.33930500  0.80019200  0.46088700  1
  O  O18  1  0.13269500  0.98954500  0.62224000  1
  O  O19  1  0.63269500  0.01045500  0.14314900  1
  O  O20  1  0.86730500  0.01045500  0.37776000  1
  O  O21  1  0.36730500  0.98954500  0.85685100  1
  O  O22  1  0.42893900  0.56065400  0.72198800  1
  O  O23  1  0.16133300  0.43934600  0.86828400  1
  O  O24  1  0.92893900  0.20695100  0.86828400  1
  O  O25  1  0.66133300  0.79304900  0.72198800  1
  O  O26  1  0.57106100  0.43934600  0.27801200  1
  O  O27  1  0.83866700  0.56065400  0.13171600  1
  O  O28  1  0.07106100  0.79304900  0.13171600  1
  O  O29  1  0.33866700  0.20695100  0.27801200  1
  O  O30  1  0.13878200  0.30106100  0.44064600  1
  O  O31  1  0.13958500  0.69893900  0.83772100  1
  O  O32  1  0.63878200  0.19813600  0.83772100  1
  O  O33  1  0.63958500  0.80186400  0.44064600  1
  O  O34  1  0.86121800  0.69893900  0.55935400  1
  O  O35  1  0.86041500  0.30106100  0.16227900  1
  O  O36  1  0.36121800  0.80186400  0.16227900  1
  O  O37  1  0.36041500  0.19813600  0.55935400  1
