# generated using pymatgen
data_Gd4(SiS4)3
_symmetry_space_group_name_H-M   'P 1'
_cell_length_a   9.96922022
_cell_length_b   11.10280556
_cell_length_c   16.63102659
_cell_angle_alpha   90.00000000
_cell_angle_beta   102.77638563
_cell_angle_gamma   90.00000000
_symmetry_Int_Tables_number   1
_chemical_formula_structural   Gd4(SiS4)3
_chemical_formula_sum   'Gd16 Si12 S48'
_cell_volume   1795.24922119
_cell_formula_units_Z   4
loop_
 _symmetry_equiv_pos_site_id
 _symmetry_equiv_pos_as_xyz
  1  'x, y, z'
loop_
 _atom_site_type_symbol
 _atom_site_label
 _atom_site_symmetry_multiplicity
 _atom_site_fract_x
 _atom_site_fract_y
 _atom_site_fract_z
 _atom_site_occupancy
  Gd  Gd0  1  0.88912302  0.48272191  0.37527347  1
  Gd  Gd1  1  0.38912302  0.01727809  0.87527347  1
  Gd  Gd2  1  0.11087698  0.51727809  0.62472653  1
  Gd  Gd3  1  0.61087698  0.98272191  0.12472653  1
  Gd  Gd4  1  0.62303344  0.15242631  0.44035922  1
  Gd  Gd5  1  0.12303344  0.34757369  0.94035922  1
  Gd  Gd6  1  0.37696656  0.84757369  0.55964078  1
  Gd  Gd7  1  0.87696656  0.65242631  0.05964078  1
  Gd  Gd8  1  0.96772494  0.87629920  0.36972681  1
  Gd  Gd9  1  0.46772494  0.62370080  0.86972681  1
  Gd  Gd10  1  0.03227506  0.12370080  0.63027319  1
  Gd  Gd11  1  0.53227506  0.37629920  0.13027319  1
  Gd  Gd12  1  0.17713244  0.26000423  0.21087359  1
  Gd  Gd13  1  0.67713244  0.23999577  0.71087359  1
  Gd  Gd14  1  0.82286756  0.73999577  0.78912641  1
  Gd  Gd15  1  0.32286756  0.76000423  0.28912641  1
  Si  Si16  1  0.27787906  0.05321712  0.38321602  1
  Si  Si17  1  0.77787906  0.44678288  0.88321602  1
  Si  Si18  1  0.72212094  0.94678288  0.61678398  1
  Si  Si19  1  0.22212094  0.55321712  0.11678398  1
  Si  Si20  1  0.80025917  0.38337190  0.56080934  1
  Si  Si21  1  0.30025917  0.11662810  0.06080934  1
  Si  Si22  1  0.19974083  0.61662810  0.43919066  1
  Si  Si23  1  0.69974083  0.88337190  0.93919066  1
  Si  Si24  1  0.79002895  0.21537646  0.26644673  1
  Si  Si25  1  0.29002895  0.28462354  0.76644673  1
  Si  Si26  1  0.20997105  0.78462354  0.73355327  1
  Si  Si27  1  0.70997105  0.71537646  0.23355327  1
  S  S28  1  0.99389852  0.27624125  0.31126032  1
  S  S29  1  0.49389852  0.22375875  0.81126032  1
  S  S30  1  0.00610148  0.72375875  0.68873968  1
  S  S31  1  0.50610148  0.77624125  0.18873968  1
  S  S32  1  0.08153485  0.65372184  0.31748274  1
  S  S33  1  0.58153485  0.84627816  0.81748274  1
  S  S34  1  0.91846515  0.34627816  0.68251726  1
  S  S35  1  0.41846515  0.15372184  0.18251726  1
  S  S36  1  0.75215743  0.71258301  0.36361173  1
  S  S37  1  0.25215743  0.78741699  0.86361173  1
  S  S38  1  0.24784257  0.28741699  0.63638827  1
  S  S39  1  0.74784257  0.21258301  0.13638827  1
  S  S40  1  0.65321588  0.33544234  0.31103580  1
  S  S41  1  0.15321588  0.16455766  0.81103580  1
  S  S42  1  0.34678412  0.66455766  0.68896420  1
  S  S43  1  0.84678412  0.83544234  0.18896420  1
  S  S44  1  0.88591407  0.26147250  0.48655012  1
  S  S45  1  0.38591407  0.23852750  0.98655012  1
  S  S46  1  0.11408593  0.73852750  0.51344988  1
  S  S47  1  0.61408593  0.76147250  0.01344988  1
  S  S48  1  0.59223409  0.34676214  0.55394560  1
  S  S49  1  0.09223409  0.15323786  0.05394560  1
  S  S50  1  0.40776591  0.65323786  0.44605440  1
  S  S51  1  0.90776591  0.84676214  0.94605440  1
  S  S52  1  0.45521778  0.93707071  0.40618456  1
  S  S53  1  0.95521778  0.56292929  0.90618456  1
  S  S54  1  0.54478222  0.06292929  0.59381544  1
  S  S55  1  0.04478222  0.43707071  0.09381544  1
  S  S56  1  0.15116644  0.97939550  0.27338208  1
  S  S57  1  0.65116644  0.52060450  0.77338208  1
  S  S58  1  0.84883356  0.02060450  0.72661792  1
  S  S59  1  0.34883356  0.47939550  0.22661792  1
  S  S60  1  0.83323334  0.97481962  0.52256803  1
  S  S61  1  0.33323334  0.52518038  0.02256803  1
  S  S62  1  0.16676666  0.02518038  0.47743197  1
  S  S63  1  0.66676666  0.47481962  0.97743197  1
  S  S64  1  0.34748891  0.22982953  0.37314616  1
  S  S65  1  0.84748891  0.27017047  0.87314616  1
  S  S66  1  0.65251109  0.77017047  0.62685384  1
  S  S67  1  0.15251109  0.72982953  0.12685384  1
  S  S68  1  0.84317051  0.55790502  0.52797802  1
  S  S69  1  0.34317051  0.94209498  0.02797802  1
  S  S70  1  0.15682949  0.44209498  0.47202198  1
  S  S71  1  0.65682949  0.05790502  0.97202198  1
  S  S72  1  0.74248234  0.04356629  0.31167237  1
  S  S73  1  0.24248234  0.45643371  0.81167237  1
  S  S74  1  0.25751766  0.95643371  0.68832763  1
  S  S75  1  0.75751766  0.54356629  0.18832763  1
