# generated using pymatgen
data_Rb4GeO4
_symmetry_space_group_name_H-M   'P 1'
_cell_length_a   6.93862900
_cell_length_b   11.08660700
_cell_length_c   11.12859582
_cell_angle_alpha   68.19077571
_cell_angle_beta   90.00000000
_cell_angle_gamma   90.00000000
_symmetry_Int_Tables_number   1
_chemical_formula_structural   Rb4GeO4
_chemical_formula_sum   'Rb16 Ge4 O16'
_cell_volume   794.80391178
_cell_formula_units_Z   4
loop_
 _symmetry_equiv_pos_site_id
 _symmetry_equiv_pos_as_xyz
  1  'x, y, z'
loop_
 _atom_site_type_symbol
 _atom_site_label
 _atom_site_symmetry_multiplicity
 _atom_site_fract_x
 _atom_site_fract_y
 _atom_site_fract_z
 _atom_site_occupancy
  Rb  Rb0  1  0.68371300  0.29489800  0.07546200  1
  Rb  Rb1  1  0.18371300  0.20510200  0.92453800  1
  Rb  Rb2  1  0.31628700  0.70510200  0.92453800  1
  Rb  Rb3  1  0.81628700  0.79489800  0.07546200  1
  Rb  Rb4  1  0.90799800  0.19564200  0.43975900  1
  Rb  Rb5  1  0.40799800  0.30435800  0.56024100  1
  Rb  Rb6  1  0.09200200  0.80435800  0.56024100  1
  Rb  Rb7  1  0.59200200  0.69564200  0.43975900  1
  Rb  Rb8  1  0.16357500  0.39039600  0.13278100  1
  Rb  Rb9  1  0.66357500  0.10960400  0.86721900  1
  Rb  Rb10  1  0.83642500  0.60960400  0.86721900  1
  Rb  Rb11  1  0.33642500  0.89039600  0.13278100  1
  Rb  Rb12  1  0.88901100  0.41384200  0.65718900  1
  Rb  Rb13  1  0.38901100  0.08615800  0.34281100  1
  Rb  Rb14  1  0.11098900  0.58615800  0.34281100  1
  Rb  Rb15  1  0.61098900  0.91384200  0.65718900  1
  Ge  Ge16  1  0.86879600  0.99079400  0.25829500  1
  Ge  Ge17  1  0.36879600  0.50920600  0.74170500  1
  Ge  Ge18  1  0.13120400  0.00920600  0.74170500  1
  Ge  Ge19  1  0.63120400  0.49079400  0.25829500  1
  O  O20  1  0.00362100  0.84544200  0.27872600  1
  O  O21  1  0.50362100  0.65455800  0.72127400  1
  O  O22  1  0.99637900  0.15455800  0.72127400  1
  O  O23  1  0.49637900  0.34544200  0.27872600  1
  O  O24  1  0.73931500  0.46904800  0.41208600  1
  O  O25  1  0.23931500  0.03095200  0.58791400  1
  O  O26  1  0.26068500  0.53095200  0.58791400  1
  O  O27  1  0.76068500  0.96904800  0.41208600  1
  O  O28  1  0.02317800  0.13282600  0.20178200  1
  O  O29  1  0.52317800  0.36717400  0.79821800  1
  O  O30  1  0.97682200  0.86717400  0.79821800  1
  O  O31  1  0.47682200  0.63282600  0.20178200  1
  O  O32  1  0.67843200  0.01425100  0.14049200  1
  O  O33  1  0.17843200  0.48574900  0.85950800  1
  O  O34  1  0.32156800  0.98574900  0.85950800  1
  O  O35  1  0.82156800  0.51425100  0.14049200  1
