# generated using pymatgen
data_Lu2Te3
_symmetry_space_group_name_H-M   'P 1'
_cell_length_a   14.24754402
_cell_length_b   13.59378715
_cell_length_c   7.41819413
_cell_angle_alpha   79.47850626
_cell_angle_beta   69.73031901
_cell_angle_gamma   30.79117474
_symmetry_Int_Tables_number   1
_chemical_formula_structural   Lu2Te3
_chemical_formula_sum   'Lu8 Te12'
_cell_volume   669.86024003
_cell_formula_units_Z   4
loop_
 _symmetry_equiv_pos_site_id
 _symmetry_equiv_pos_as_xyz
  1  'x, y, z'
loop_
 _atom_site_type_symbol
 _atom_site_label
 _atom_site_symmetry_multiplicity
 _atom_site_fract_x
 _atom_site_fract_y
 _atom_site_fract_z
 _atom_site_occupancy
  Lu  Lu0  1  0.33281100  0.33281100  0.16718900  1
  Lu  Lu1  1  0.16718900  0.16718900  0.33281100  1
  Lu  Lu2  1  0.91718900  0.91718900  0.08281100  1
  Lu  Lu3  1  0.08281100  0.08281100  0.91718900  1
  Lu  Lu4  1  0.00002200  0.00002200  0.49997800  1
  Lu  Lu5  1  0.49997800  0.49997800  0.00002200  1
  Lu  Lu6  1  0.24997800  0.24997800  0.75002200  1
  Lu  Lu7  1  0.75002200  0.75002200  0.24997800  1
  Te  Te8  1  0.99692200  0.50307800  0.50307800  1
  Te  Te9  1  0.50307800  0.99692200  0.99692200  1
  Te  Te10  1  0.25307800  0.74692200  0.74692200  1
  Te  Te11  1  0.74692200  0.25307800  0.25307800  1
  Te  Te12  1  0.66616100  0.16805000  0.83280300  1
  Te  Te13  1  0.83280300  0.33298600  0.66616100  1
  Te  Te14  1  0.33298600  0.83280300  0.16805000  1
  Te  Te15  1  0.16805000  0.66616100  0.33298600  1
  Te  Te16  1  0.58383900  0.08195000  0.41719700  1
  Te  Te17  1  0.41719700  0.91701400  0.58383900  1
  Te  Te18  1  0.91701400  0.41719700  0.08195000  1
  Te  Te19  1  0.08195000  0.58383900  0.91701400  1
