# generated using pymatgen
data_NdAs2Pd3
_symmetry_space_group_name_H-M   'P 1'
_cell_length_a   4.15496800
_cell_length_b   8.65753316
_cell_length_c   10.08934438
_cell_angle_alpha   107.50624749
_cell_angle_beta   90.00000000
_cell_angle_gamma   103.88432505
_symmetry_Int_Tables_number   1
_chemical_formula_structural   NdAs2Pd3
_chemical_formula_sum   'Nd3 As6 Pd9'
_cell_volume   334.98636287
_cell_formula_units_Z   3
loop_
 _symmetry_equiv_pos_site_id
 _symmetry_equiv_pos_as_xyz
  1  'x, y, z'
loop_
 _atom_site_type_symbol
 _atom_site_label
 _atom_site_symmetry_multiplicity
 _atom_site_fract_x
 _atom_site_fract_y
 _atom_site_fract_z
 _atom_site_occupancy
  Nd  Nd0  1  0.84518700  0.69037400  0.29897400  1
  Nd  Nd1  1  0.15481300  0.30962600  0.70102600  1
  Nd  Nd2  1  0.00000000  0.00000000  0.00000000  1
  As  As3  1  0.80081700  0.60163500  0.86833000  1
  As  As4  1  0.19918300  0.39836500  0.13167000  1
  As  As5  1  0.53917600  0.07835200  0.78608000  1
  As  As6  1  0.46082400  0.92164800  0.21392000  1
  As  As7  1  0.63600300  0.27200700  0.45389500  1
  As  As8  1  0.36399700  0.72799300  0.54610500  1
  Pd  Pd9  1  0.95709100  0.91418200  0.66867800  1
  Pd  Pd10  1  0.04290900  0.08581800  0.33132200  1
  Pd  Pd11  1  0.77890400  0.55780800  0.60922300  1
  Pd  Pd12  1  0.22109600  0.44219200  0.39077700  1
  Pd  Pd13  1  0.37784500  0.75569000  0.80094000  1
  Pd  Pd14  1  0.62215500  0.24431000  0.19906000  1
  Pd  Pd15  1  0.50000000  0.00000000  0.50000000  1
  Pd  Pd16  1  0.68027900  0.36055800  0.96718700  1
  Pd  Pd17  1  0.31972100  0.63944200  0.03281300  1
