# generated using pymatgen
data_Cs2MoO4
_symmetry_space_group_name_H-M   'P 1'
_cell_length_a   6.67968800
_cell_length_b   8.64794700
_cell_length_c   11.82830000
_cell_angle_alpha   90.00000000
_cell_angle_beta   90.00000000
_cell_angle_gamma   90.00000000
_symmetry_Int_Tables_number   1
_chemical_formula_structural   Cs2MoO4
_chemical_formula_sum   'Cs8 Mo4 O16'
_cell_volume   683.26870218
_cell_formula_units_Z   4
loop_
 _symmetry_equiv_pos_site_id
 _symmetry_equiv_pos_as_xyz
  1  'x, y, z'
loop_
 _atom_site_type_symbol
 _atom_site_label
 _atom_site_symmetry_multiplicity
 _atom_site_fract_x
 _atom_site_fract_y
 _atom_site_fract_z
 _atom_site_occupancy
  Cs  Cs0  1  0.25000000  0.17220900  0.91467000  1
  Cs  Cs1  1  0.25000000  0.67220900  0.58533000  1
  Cs  Cs2  1  0.75000000  0.82779100  0.08533000  1
  Cs  Cs3  1  0.75000000  0.32779100  0.41467000  1
  Cs  Cs4  1  0.25000000  0.49086700  0.20746800  1
  Cs  Cs5  1  0.25000000  0.99086700  0.29253200  1
  Cs  Cs6  1  0.75000000  0.50913300  0.79253200  1
  Cs  Cs7  1  0.75000000  0.00913300  0.70746800  1
  Mo  Mo8  1  0.25000000  0.72584100  0.92075400  1
  Mo  Mo9  1  0.25000000  0.22584100  0.57924600  1
  Mo  Mo10  1  0.75000000  0.27415900  0.07924600  1
  Mo  Mo11  1  0.75000000  0.77415900  0.42075400  1
  O  O12  1  0.25000000  0.51874800  0.91839100  1
  O  O13  1  0.25000000  0.01874800  0.58160900  1
  O  O14  1  0.75000000  0.48125200  0.08160900  1
  O  O15  1  0.75000000  0.98125200  0.41839100  1
  O  O16  1  0.25000000  0.79477100  0.06496300  1
  O  O17  1  0.25000000  0.29477100  0.43503700  1
  O  O18  1  0.75000000  0.20522900  0.93503700  1
  O  O19  1  0.75000000  0.70522900  0.56496300  1
  O  O20  1  0.02916500  0.79781200  0.85055200  1
  O  O21  1  0.47083500  0.29781200  0.64944800  1
  O  O22  1  0.52916500  0.20218800  0.14944800  1
  O  O23  1  0.97083500  0.70218800  0.35055200  1
  O  O24  1  0.97083500  0.20218800  0.14944800  1
  O  O25  1  0.52916500  0.70218800  0.35055200  1
  O  O26  1  0.47083500  0.79781200  0.85055200  1
  O  O27  1  0.02916500  0.29781200  0.64944800  1
