# generated using pymatgen
data_Cs6K3AlSb4
_symmetry_space_group_name_H-M   'P 1'
_cell_length_a   11.17576937
_cell_length_b   11.17576937
_cell_length_c   11.71776400
_cell_angle_alpha   90.00000000
_cell_angle_beta   90.00000000
_cell_angle_gamma   119.99999627
_symmetry_Int_Tables_number   1
_chemical_formula_structural   Cs6K3AlSb4
_chemical_formula_sum   'Cs12 K6 Al2 Sb8'
_cell_volume   1267.44830991
_cell_formula_units_Z   2
loop_
 _symmetry_equiv_pos_site_id
 _symmetry_equiv_pos_as_xyz
  1  'x, y, z'
loop_
 _atom_site_type_symbol
 _atom_site_label
 _atom_site_symmetry_multiplicity
 _atom_site_fract_x
 _atom_site_fract_y
 _atom_site_fract_z
 _atom_site_occupancy
  Cs  Cs0  1  0.20888400  0.79111600  0.95645400  1
  Cs  Cs1  1  0.20888400  0.41776700  0.95645400  1
  Cs  Cs2  1  0.58223300  0.79111600  0.95645400  1
  Cs  Cs3  1  0.41776700  0.20888400  0.45645400  1
  Cs  Cs4  1  0.79111600  0.58223300  0.04354600  1
  Cs  Cs5  1  0.79111600  0.20888400  0.45645400  1
  Cs  Cs6  1  0.79111600  0.58223300  0.45645400  1
  Cs  Cs7  1  0.20888400  0.79111600  0.54354600  1
  Cs  Cs8  1  0.58223300  0.79111600  0.54354600  1
  Cs  Cs9  1  0.41776700  0.20888400  0.04354600  1
  Cs  Cs10  1  0.79111600  0.20888400  0.04354600  1
  Cs  Cs11  1  0.20888400  0.41776700  0.54354600  1
  K  K12  1  0.23909000  0.11954500  0.75000000  1
  K  K13  1  0.88045500  0.11954500  0.75000000  1
  K  K14  1  0.76091000  0.88045500  0.25000000  1
  K  K15  1  0.11954500  0.23909000  0.25000000  1
  K  K16  1  0.11954500  0.88045500  0.25000000  1
  K  K17  1  0.88045500  0.76091000  0.75000000  1
  Al  Al18  1  0.33333300  0.66666700  0.25000000  1
  Al  Al19  1  0.66666700  0.33333300  0.75000000  1
  Sb  Sb20  1  0.00000000  0.00000000  0.00000000  1
  Sb  Sb21  1  0.05565000  0.52782500  0.25000000  1
  Sb  Sb22  1  0.47217500  0.94435000  0.25000000  1
  Sb  Sb23  1  0.52782500  0.05565000  0.75000000  1
  Sb  Sb24  1  0.52782500  0.47217500  0.75000000  1
  Sb  Sb25  1  0.00000000  0.00000000  0.50000000  1
  Sb  Sb26  1  0.47217500  0.52782500  0.25000000  1
  Sb  Sb27  1  0.94435000  0.47217500  0.75000000  1
