# generated using pymatgen
data_MoPbSeO6
_symmetry_space_group_name_H-M   'P 1'
_cell_length_a   7.06185000
_cell_length_b   7.33241896
_cell_length_c   11.09851662
_cell_angle_alpha   99.35413185
_cell_angle_beta   100.09608021
_cell_angle_gamma   89.79062246
_symmetry_Int_Tables_number   1
_chemical_formula_structural   MoPbSeO6
_chemical_formula_sum   'Mo4 Pb4 Se4 O24'
_cell_volume   558.08117439
_cell_formula_units_Z   4
loop_
 _symmetry_equiv_pos_site_id
 _symmetry_equiv_pos_as_xyz
  1  'x, y, z'
loop_
 _atom_site_type_symbol
 _atom_site_label
 _atom_site_symmetry_multiplicity
 _atom_site_fract_x
 _atom_site_fract_y
 _atom_site_fract_z
 _atom_site_occupancy
  Mo  Mo0  1  0.15869800  0.95267000  0.80054500  1
  Mo  Mo1  1  0.84130200  0.04733000  0.19945500  1
  Mo  Mo2  1  0.15936400  0.44996200  0.79735900  1
  Mo  Mo3  1  0.84063600  0.55003800  0.20264100  1
  Pb  Pb4  1  0.75063200  0.86136700  0.50572000  1
  Pb  Pb5  1  0.24936800  0.13863300  0.49428000  1
  Pb  Pb6  1  0.64874500  0.71080100  0.84145100  1
  Pb  Pb7  1  0.35125500  0.28919900  0.15854900  1
  Se  Se8  1  0.29067800  0.64051200  0.53397600  1
  Se  Se9  1  0.70932200  0.35948800  0.46602400  1
  Se  Se10  1  0.60860800  0.19430200  0.78441700  1
  Se  Se11  1  0.39139200  0.80569800  0.21558300  1
  O  O12  1  0.17295800  0.04791700  0.95586500  1
  O  O13  1  0.82704200  0.95208300  0.04413500  1
  O  O14  1  0.90857000  0.88904400  0.75628500  1
  O  O15  1  0.09143000  0.11095600  0.24371500  1
  O  O16  1  0.13798800  0.18477300  0.72793500  1
  O  O17  1  0.86201200  0.81522700  0.27206500  1
  O  O18  1  0.26200100  0.71073900  0.82355300  1
  O  O19  1  0.73799900  0.28926100  0.17644700  1
  O  O20  1  0.18464000  0.84220900  0.59854000  1
  O  O21  1  0.81536000  0.15779100  0.40146000  1
  O  O22  1  0.47394400  0.02325700  0.82527400  1
  O  O23  1  0.52605600  0.97674300  0.17472600  1
  O  O24  1  0.18382300  0.43089400  0.95346500  1
  O  O25  1  0.81617700  0.56910600  0.04653500  1
  O  O26  1  0.91409100  0.50193800  0.75791900  1
  O  O27  1  0.08590900  0.49806200  0.24208100  1
  O  O28  1  0.20478000  0.46563100  0.60338100  1
  O  O29  1  0.79522000  0.53436900  0.39661900  1
  O  O30  1  0.47842400  0.39323500  0.81323300  1
  O  O31  1  0.52157600  0.60676500  0.18676700  1
  O  O32  1  0.52802800  0.67327700  0.60883900  1
  O  O33  1  0.47197200  0.32672300  0.39116100  1
  O  O34  1  0.56354700  0.14005800  0.62325500  1
  O  O35  1  0.43645300  0.85994200  0.37674500  1
