# generated using pymatgen
data_KNa2WN3
_symmetry_space_group_name_H-M   'P 1'
_cell_length_a   6.30960500
_cell_length_b   12.18346700
_cell_length_c   12.52177200
_cell_angle_alpha   90.00000000
_cell_angle_beta   90.00000000
_cell_angle_gamma   90.00000000
_symmetry_Int_Tables_number   1
_chemical_formula_structural   KNa2WN3
_chemical_formula_sum   'K8 Na16 W8 N24'
_cell_volume   962.58447976
_cell_formula_units_Z   8
loop_
 _symmetry_equiv_pos_site_id
 _symmetry_equiv_pos_as_xyz
  1  'x, y, z'
loop_
 _atom_site_type_symbol
 _atom_site_label
 _atom_site_symmetry_multiplicity
 _atom_site_fract_x
 _atom_site_fract_y
 _atom_site_fract_z
 _atom_site_occupancy
  K  K0  1  0.37639000  0.24927800  0.69864100  1
  K  K1  1  0.62361000  0.74927800  0.30135900  1
  K  K2  1  0.37639000  0.74927800  0.80135900  1
  K  K3  1  0.62361000  0.24927800  0.19864100  1
  K  K4  1  0.94062800  0.49682500  0.01083600  1
  K  K5  1  0.05937200  0.99682500  0.98916400  1
  K  K6  1  0.05937200  0.49682500  0.51083600  1
  K  K7  1  0.94062800  0.99682500  0.48916400  1
  Na  Na8  1  0.84610200  0.24905400  0.62000500  1
  Na  Na9  1  0.15389800  0.74905400  0.37999500  1
  Na  Na10  1  0.84610200  0.74905400  0.87999500  1
  Na  Na11  1  0.15389800  0.24905400  0.12000500  1
  Na  Na12  1  0.51440100  0.37517500  0.96324300  1
  Na  Na13  1  0.48559900  0.87517500  0.03675700  1
  Na  Na14  1  0.54224500  0.62310300  0.53472300  1
  Na  Na15  1  0.45775500  0.12310300  0.46527700  1
  Na  Na16  1  0.45775500  0.62310300  0.03472300  1
  Na  Na17  1  0.54224500  0.12310300  0.96527700  1
  Na  Na18  1  0.48559900  0.37517500  0.46324300  1
  Na  Na19  1  0.51440100  0.87517500  0.53675700  1
  Na  Na20  1  0.23186000  0.50032400  0.76035800  1
  Na  Na21  1  0.76814000  0.00032400  0.23964200  1
  Na  Na22  1  0.76814000  0.50032400  0.26035800  1
  Na  Na23  1  0.23186000  0.00032400  0.73964200  1
  W  W24  1  0.97564200  0.25052900  0.88129300  1
  W  W25  1  0.02435800  0.75052900  0.11870700  1
  W  W26  1  0.97564200  0.75052900  0.61870700  1
  W  W27  1  0.02435800  0.25052900  0.38129300  1
  W  W28  1  0.72366800  0.49984800  0.74938600  1
  W  W29  1  0.27633200  0.99984800  0.25061400  1
  W  W30  1  0.27633200  0.49984800  0.24938600  1
  W  W31  1  0.72366800  0.99984800  0.75061400  1
  N  N32  1  0.91076500  0.38133100  0.79600900  1
  N  N33  1  0.08923500  0.88133100  0.20399100  1
  N  N34  1  0.90544600  0.61891300  0.70089500  1
  N  N35  1  0.09455400  0.11891300  0.29910500  1
  N  N36  1  0.09455400  0.61891300  0.20089500  1
  N  N37  1  0.90544600  0.11891300  0.79910500  1
  N  N38  1  0.08923500  0.38133100  0.29600900  1
  N  N39  1  0.91076500  0.88133100  0.70399100  1
  N  N40  1  0.82920700  0.25405400  0.00725800  1
  N  N41  1  0.17079300  0.75405400  0.99274200  1
  N  N42  1  0.82920700  0.75405400  0.49274200  1
  N  N43  1  0.17079300  0.25405400  0.50725800  1
  N  N44  1  0.54579500  0.45302700  0.64222400  1
  N  N45  1  0.45420500  0.95302700  0.35777600  1
  N  N46  1  0.56001300  0.54807400  0.86152300  1
  N  N47  1  0.43998700  0.04807400  0.13847700  1
  N  N48  1  0.43998700  0.54807400  0.36152300  1
  N  N49  1  0.56001300  0.04807400  0.63847700  1
  N  N50  1  0.45420500  0.45302700  0.14222400  1
  N  N51  1  0.54579500  0.95302700  0.85777600  1
  N  N52  1  0.25747900  0.24566600  0.91524800  1
  N  N53  1  0.74252100  0.74566600  0.08475200  1
  N  N54  1  0.25747900  0.74566600  0.58475200  1
  N  N55  1  0.74252100  0.24566600  0.41524800  1
