# generated using pymatgen
data_In2As2Cl2O5
_symmetry_space_group_name_H-M   'P 1'
_cell_length_a   6.84376100
_cell_length_b   7.63316310
_cell_length_c   9.17066783
_cell_angle_alpha   108.41518677
_cell_angle_beta   104.79502943
_cell_angle_gamma   102.17767143
_symmetry_Int_Tables_number   1
_chemical_formula_structural   In2As2Cl2O5
_chemical_formula_sum   'In4 As4 Cl4 O10'
_cell_volume   416.67286491
_cell_formula_units_Z   2
loop_
 _symmetry_equiv_pos_site_id
 _symmetry_equiv_pos_as_xyz
  1  'x, y, z'
loop_
 _atom_site_type_symbol
 _atom_site_label
 _atom_site_symmetry_multiplicity
 _atom_site_fract_x
 _atom_site_fract_y
 _atom_site_fract_z
 _atom_site_occupancy
  In  In0  1  0.40108500  0.69474600  0.52378000  1
  In  In1  1  0.59891500  0.30525400  0.47622000  1
  In  In2  1  0.85248800  0.77590800  0.33847700  1
  In  In3  1  0.14751200  0.22409200  0.66152300  1
  As  As4  1  0.88964800  0.84547400  0.75199300  1
  As  As5  1  0.11035200  0.15452600  0.24800700  1
  As  As6  1  0.70210500  0.22890700  0.79744900  1
  As  As7  1  0.29789500  0.77109300  0.20255100  1
  Cl  Cl8  1  0.23611400  0.61027700  0.71801700  1
  Cl  Cl9  1  0.76388600  0.38972300  0.28198300  1
  Cl  Cl10  1  0.75383200  0.71135600  0.04483600  1
  Cl  Cl11  1  0.24616800  0.28864400  0.95516400  1
  O  O12  1  0.83768500  0.26890200  0.65730600  1
  O  O13  1  0.16231500  0.73109800  0.34269400  1
  O  O14  1  0.54157600  0.78756800  0.35002900  1
  O  O15  1  0.45842400  0.21243200  0.64997100  1
  O  O16  1  0.66082100  0.95891400  0.73154900  1
  O  O17  1  0.33917900  0.04108600  0.26845100  1
  O  O18  1  0.68635400  0.62077100  0.61463300  1
  O  O19  1  0.31364600  0.37922900  0.38536700  1
  O  O20  1  0.99168100  0.90638800  0.60450300  1
  O  O21  1  0.00831900  0.09361200  0.39549700  1
