# generated using pymatgen
data_Rb6V6P6O31
_symmetry_space_group_name_H-M   'P 1'
_cell_length_a   7.19146000
_cell_length_b   13.66096900
_cell_length_c   14.71064500
_cell_angle_alpha   90.00000000
_cell_angle_beta   90.00000000
_cell_angle_gamma   90.00000000
_symmetry_Int_Tables_number   1
_chemical_formula_structural   Rb6V6P6O31
_chemical_formula_sum   'Rb12 V12 P12 O62'
_cell_volume   1445.20777765
_cell_formula_units_Z   2
loop_
 _symmetry_equiv_pos_site_id
 _symmetry_equiv_pos_as_xyz
  1  'x, y, z'
loop_
 _atom_site_type_symbol
 _atom_site_label
 _atom_site_symmetry_multiplicity
 _atom_site_fract_x
 _atom_site_fract_y
 _atom_site_fract_z
 _atom_site_occupancy
  Rb  Rb0  1  0.35608900  0.50000000  0.33368300  1
  Rb  Rb1  1  0.64391100  0.00000000  0.83368300  1
  Rb  Rb2  1  0.15107500  0.76200600  0.18143800  1
  Rb  Rb3  1  0.84892500  0.73799400  0.68143800  1
  Rb  Rb4  1  0.84892500  0.26200600  0.68143800  1
  Rb  Rb5  1  0.15107500  0.23799400  0.18143800  1
  Rb  Rb6  1  0.33926400  0.74615900  0.50607600  1
  Rb  Rb7  1  0.66073600  0.75384100  0.00607600  1
  Rb  Rb8  1  0.66073600  0.24615900  0.00607600  1
  Rb  Rb9  1  0.33926400  0.25384100  0.50607600  1
  Rb  Rb10  1  0.86532200  0.50000000  0.84723000  1
  Rb  Rb11  1  0.13467800  0.00000000  0.34723000  1
  V  V12  1  0.48574900  0.50000000  0.08618600  1
  V  V13  1  0.51425100  0.00000000  0.58618600  1
  V  V14  1  0.40475000  0.62562600  0.76896600  1
  V  V15  1  0.59525000  0.87437400  0.26896600  1
  V  V16  1  0.59525000  0.12562600  0.26896600  1
  V  V17  1  0.40475000  0.37437400  0.76896600  1
  V  V18  1  0.09839300  0.87518100  0.92093200  1
  V  V19  1  0.90160700  0.62481900  0.42093200  1
  V  V20  1  0.90160700  0.37518100  0.42093200  1
  V  V21  1  0.09839300  0.12481900  0.92093200  1
  V  V22  1  0.98489700  0.50000000  0.10175400  1
  V  V23  1  0.01510300  0.00000000  0.60175400  1
  P  P24  1  0.21052300  0.65014300  0.96352000  1
  P  P25  1  0.78947700  0.84985700  0.46352000  1
  P  P26  1  0.78947700  0.15014300  0.46352000  1
  P  P27  1  0.21052300  0.34985700  0.96352000  1
  P  P28  1  0.51256300  0.50000000  0.58548000  1
  P  P29  1  0.48743700  0.00000000  0.08548000  1
  P  P30  1  0.29022800  0.85036000  0.72535600  1
  P  P31  1  0.70977200  0.64964000  0.22535600  1
  P  P32  1  0.70977200  0.35036000  0.22535600  1
  P  P33  1  0.29022800  0.14964000  0.72535600  1
  P  P34  1  0.10248300  0.50000000  0.58191900  1
  P  P35  1  0.89751700  0.00000000  0.08191900  1
  O  O36  1  0.46830400  0.89324700  0.68112700  1
  O  O37  1  0.53169600  0.60675300  0.18112700  1
  O  O38  1  0.53169600  0.39324700  0.18112700  1
  O  O39  1  0.46830400  0.10675300  0.68112700  1
  O  O40  1  0.58058700  0.68259900  0.81676300  1
  O  O41  1  0.41941300  0.81740100  0.31676300  1
  O  O42  1  0.41941300  0.18259900  0.31676300  1
  O  O43  1  0.58058700  0.31740100  0.81676300  1
  O  O44  1  0.30899500  0.50000000  0.53336800  1
  O  O45  1  0.69100500  0.00000000  0.03336800  1
  O  O46  1  0.38693100  0.60421900  0.00494100  1
  O  O47  1  0.61306900  0.89578100  0.50494100  1
  O  O48  1  0.61306900  0.10421900  0.50494100  1
  O  O49  1  0.38693100  0.39578100  0.00494100  1
  O  O50  1  0.64904700  0.50000000  0.50783900  1
  O  O51  1  0.35095300  0.00000000  0.00783900  1
  O  O52  1  0.22199300  0.76214100  0.98407100  1
  O  O53  1  0.77800700  0.73785900  0.48407100  1
  O  O54  1  0.77800700  0.26214100  0.48407100  1
  O  O55  1  0.22199300  0.23785900  0.98407100  1
  O  O56  1  0.45605200  0.50000000  0.79902100  1
  O  O57  1  0.54394800  0.00000000  0.29902100  1
  O  O58  1  0.12811200  0.50000000  0.68392500  1
  O  O59  1  0.87188800  0.00000000  0.18392500  1
  O  O60  1  0.28032800  0.73800400  0.70553800  1
  O  O61  1  0.71967200  0.76199600  0.20553800  1
  O  O62  1  0.71967200  0.23800400  0.20553800  1
  O  O63  1  0.28032800  0.26199600  0.70553800  1
  O  O64  1  0.51417400  0.59474600  0.64350500  1
  O  O65  1  0.48582600  0.90525400  0.14350500  1
  O  O66  1  0.48582600  0.09474600  0.14350500  1
  O  O67  1  0.51417400  0.40525400  0.64350500  1
  O  O68  1  0.20938100  0.50000000  0.13964700  1
  O  O69  1  0.79061900  0.00000000  0.63964700  1
  O  O70  1  0.03132600  0.60689600  0.00634100  1
  O  O71  1  0.96867400  0.89310400  0.50634100  1
  O  O72  1  0.96867400  0.10689600  0.50634100  1
  O  O73  1  0.03132600  0.39310400  0.00634100  1
  O  O74  1  0.01088600  0.59522500  0.54605500  1
  O  O75  1  0.98911400  0.90477500  0.04605500  1
  O  O76  1  0.98911400  0.09522500  0.04605500  1
  O  O77  1  0.01088600  0.40477500  0.54605500  1
  O  O78  1  0.11319900  0.89514100  0.68319700  1
  O  O79  1  0.88680100  0.60485900  0.18319700  1
  O  O80  1  0.88680100  0.39514100  0.18319700  1
  O  O81  1  0.11319900  0.10485900  0.68319700  1
  O  O82  1  0.71009300  0.50000000  0.04757600  1
  O  O83  1  0.28990700  0.00000000  0.54757600  1
  O  O84  1  0.95737000  0.50000000  0.38969600  1
  O  O85  1  0.04263000  0.00000000  0.88969600  1
  O  O86  1  0.30031000  0.86849500  0.82952400  1
  O  O87  1  0.69969000  0.63150500  0.32952400  1
  O  O88  1  0.69969000  0.36849500  0.32952400  1
  O  O89  1  0.30031000  0.13150500  0.82952400  1
  O  O90  1  0.20190500  0.63293100  0.85906300  1
  O  O91  1  0.79809500  0.86706900  0.35906300  1
  O  O92  1  0.79809500  0.13293100  0.35906300  1
  O  O93  1  0.20190500  0.36706900  0.85906300  1
  O  O94  1  0.07467400  0.68327700  0.37232200  1
  O  O95  1  0.92532600  0.81672300  0.87232200  1
  O  O96  1  0.92532600  0.18327700  0.87232200  1
  O  O97  1  0.07467400  0.31672300  0.37232200  1
