# generated using pymatgen
data_Sr2MgWO6
_symmetry_space_group_name_H-M   'P 1'
_cell_length_a   5.68478288
_cell_length_b   5.68478288
_cell_length_c   5.68478288
_cell_angle_alpha   120.41714402
_cell_angle_beta   120.41714402
_cell_angle_gamma   89.27899122
_symmetry_Int_Tables_number   1
_chemical_formula_structural   Sr2MgWO6
_chemical_formula_sum   'Sr2 Mg1 W1 O6'
_cell_volume   129.07508495
_cell_formula_units_Z   1
loop_
 _symmetry_equiv_pos_site_id
 _symmetry_equiv_pos_as_xyz
  1  'x, y, z'
loop_
 _atom_site_type_symbol
 _atom_site_label
 _atom_site_symmetry_multiplicity
 _atom_site_fract_x
 _atom_site_fract_y
 _atom_site_fract_z
 _atom_site_occupancy
  Sr  Sr0  1  0.75000000  0.25000000  0.50000000  1
  Sr  Sr1  1  0.25000000  0.75000000  0.50000000  1
  Mg  Mg2  1  0.00000000  0.00000000  0.00000000  1
  W  W3  1  0.50000000  0.50000000  0.00000000  1
  O  O4  1  0.74170400  0.74170400  0.00000000  1
  O  O5  1  0.25829600  0.25829600  0.00000000  1
  O  O6  1  0.70109500  0.78129100  0.48238500  1
  O  O7  1  0.78129100  0.29890500  0.08019600  1
  O  O8  1  0.29890500  0.21870900  0.51761500  1
  O  O9  1  0.21870900  0.70109500  0.91980400  1
