# generated using pymatgen
data_Cs2Sn(HO2)6
_symmetry_space_group_name_H-M   'P 1'
_cell_length_a   7.86258668
_cell_length_b   7.86258668
_cell_length_c   5.09961600
_cell_angle_alpha   90.00000000
_cell_angle_beta   90.00000000
_cell_angle_gamma   120.00000572
_symmetry_Int_Tables_number   1
_chemical_formula_structural   Cs2Sn(HO2)6
_chemical_formula_sum   'Cs2 Sn1 H6 O12'
_cell_volume   273.02283645
_cell_formula_units_Z   1
loop_
 _symmetry_equiv_pos_site_id
 _symmetry_equiv_pos_as_xyz
  1  'x, y, z'
loop_
 _atom_site_type_symbol
 _atom_site_label
 _atom_site_symmetry_multiplicity
 _atom_site_fract_x
 _atom_site_fract_y
 _atom_site_fract_z
 _atom_site_occupancy
  Cs  Cs0  1  0.33333300  0.66666700  0.37886300  1
  Cs  Cs1  1  0.66666700  0.33333300  0.62113700  1
  Sn  Sn2  1  0.00000000  0.00000000  0.50000000  1
  H  H3  1  0.27182000  0.28416300  0.99993900  1
  H  H4  1  0.01234300  0.72818000  0.99993900  1
  H  H5  1  0.71583700  0.98765700  0.99993900  1
  H  H6  1  0.72818000  0.71583700  0.00006100  1
  H  H7  1  0.98765700  0.27182000  0.00006100  1
  H  H8  1  0.28416300  0.01234300  0.00006100  1
  O  O9  1  0.08416200  0.25831200  0.72915400  1
  O  O10  1  0.17415000  0.91583800  0.72915400  1
  O  O11  1  0.74168800  0.82585000  0.72915400  1
  O  O12  1  0.91583800  0.74168800  0.27084600  1
  O  O13  1  0.82585000  0.08416200  0.27084600  1
  O  O14  1  0.25831200  0.17415000  0.27084600  1
  O  O15  1  0.28856300  0.34950400  0.82152700  1
  O  O16  1  0.06094100  0.71143700  0.82152700  1
  O  O17  1  0.65049600  0.93905900  0.82152700  1
  O  O18  1  0.71143700  0.65049600  0.17847300  1
  O  O19  1  0.93905900  0.28856300  0.17847300  1
  O  O20  1  0.34950400  0.06094100  0.17847300  1
