# generated using pymatgen
data_Na2(TaSe2)3
_symmetry_space_group_name_H-M   'P 1'
_cell_length_a   15.73975251
_cell_length_b   15.73975251
_cell_length_c   15.73975291
_cell_angle_alpha   22.27654483
_cell_angle_beta   22.27654483
_cell_angle_gamma   22.27654796
_symmetry_Int_Tables_number   1
_chemical_formula_structural   Na2(TaSe2)3
_chemical_formula_sum   'Na4 Ta6 Se12'
_cell_volume   491.37657469
_cell_formula_units_Z   2
loop_
 _symmetry_equiv_pos_site_id
 _symmetry_equiv_pos_as_xyz
  1  'x, y, z'
loop_
 _atom_site_type_symbol
 _atom_site_label
 _atom_site_symmetry_multiplicity
 _atom_site_fract_x
 _atom_site_fract_y
 _atom_site_fract_z
 _atom_site_occupancy
  Na  Na0  1  0.41669900  0.41669900  0.41669900  1
  Na  Na1  1  0.08336600  0.08336600  0.08336600  1
  Na  Na2  1  0.91663400  0.91663400  0.91663400  1
  Na  Na3  1  0.58330100  0.58330100  0.58330100  1
  Ta  Ta4  1  0.83324000  0.83324000  0.83324000  1
  Ta  Ta5  1  0.16676000  0.16676000  0.16676000  1
  Ta  Ta6  1  0.50000000  0.50000000  0.50000000  1
  Ta  Ta7  1  0.33372400  0.66627600  0.00000000  1
  Ta  Ta8  1  0.00000000  0.33372400  0.66627600  1
  Ta  Ta9  1  0.66627600  0.00000000  0.33372400  1
  Se  Se10  1  0.46552900  0.12881400  0.79720300  1
  Se  Se11  1  0.79720300  0.46552900  0.12881400  1
  Se  Se12  1  0.12881400  0.79720300  0.46552900  1
  Se  Se13  1  0.20279700  0.87118600  0.53447100  1
  Se  Se14  1  0.53447100  0.20279700  0.87118600  1
  Se  Se15  1  0.87118600  0.53447100  0.20279700  1
  Se  Se16  1  0.37043900  0.03507500  0.70280700  1
  Se  Se17  1  0.70280700  0.37043900  0.03507500  1
  Se  Se18  1  0.03507500  0.70280700  0.37043900  1
  Se  Se19  1  0.29719300  0.96492500  0.62956100  1
  Se  Se20  1  0.62956100  0.29719300  0.96492500  1
  Se  Se21  1  0.96492500  0.62956100  0.29719300  1
