# generated using pymatgen
data_Rb2U(Si2O5)3
_symmetry_space_group_name_H-M   'P 1'
_cell_length_a   12.88650666
_cell_length_b   12.88650666
_cell_length_c   17.52946128
_cell_angle_alpha   83.34785327
_cell_angle_beta   83.34785327
_cell_angle_gamma   32.68383270
_symmetry_Int_Tables_number   1
_chemical_formula_structural   Rb2U(Si2O5)3
_chemical_formula_sum   'Rb8 U4 Si24 O60'
_cell_volume   1560.44072542
_cell_formula_units_Z   4
loop_
 _symmetry_equiv_pos_site_id
 _symmetry_equiv_pos_as_xyz
  1  'x, y, z'
loop_
 _atom_site_type_symbol
 _atom_site_label
 _atom_site_symmetry_multiplicity
 _atom_site_fract_x
 _atom_site_fract_y
 _atom_site_fract_z
 _atom_site_occupancy
  Rb  Rb0  1  0.65200800  0.56132800  0.24709300  1
  Rb  Rb1  1  0.43867200  0.34799200  0.25290700  1
  Rb  Rb2  1  0.34799200  0.43867200  0.75290700  1
  Rb  Rb3  1  0.56132800  0.65200800  0.74709300  1
  Rb  Rb4  1  0.67357100  0.63917000  0.00778300  1
  Rb  Rb5  1  0.36083000  0.32642900  0.49221700  1
  Rb  Rb6  1  0.32642900  0.36083000  0.99221700  1
  Rb  Rb7  1  0.63917000  0.67357100  0.50778300  1
  U  U8  1  0.15483300  0.08909700  0.12571500  1
  U  U9  1  0.91090300  0.84516700  0.37428500  1
  U  U10  1  0.84516700  0.91090300  0.87428500  1
  U  U11  1  0.08909700  0.15483300  0.62571500  1
  Si  Si12  1  0.03978400  0.11626700  0.83646900  1
  Si  Si13  1  0.88373300  0.96021600  0.66353100  1
  Si  Si14  1  0.96021600  0.88373300  0.16353100  1
  Si  Si15  1  0.11626700  0.03978400  0.33646900  1
  Si  Si16  1  0.75436500  0.25430900  0.07472600  1
  Si  Si17  1  0.74569100  0.24563500  0.42527400  1
  Si  Si18  1  0.24563500  0.74569100  0.92527400  1
  Si  Si19  1  0.25430900  0.75436500  0.57472600  1
  Si  Si20  1  0.20524500  0.15288200  0.91815200  1
  Si  Si21  1  0.84711800  0.79475500  0.58184800  1
  Si  Si22  1  0.79475500  0.84711800  0.08184800  1
  Si  Si23  1  0.15288200  0.20524500  0.41815200  1
  Si  Si24  1  0.34042100  0.67382600  0.10488200  1
  Si  Si25  1  0.32617400  0.65957900  0.39511800  1
  Si  Si26  1  0.65957900  0.32617400  0.89511800  1
  Si  Si27  1  0.67382600  0.34042100  0.60488200  1
  Si  Si28  1  0.41441000  0.08917200  0.17764300  1
  Si  Si29  1  0.91082800  0.58559000  0.32235700  1
  Si  Si30  1  0.58559000  0.91082800  0.82235700  1
  Si  Si31  1  0.08917200  0.41441000  0.67764300  1
  Si  Si32  1  0.99247300  0.48321100  0.14747500  1
  Si  Si33  1  0.51678900  0.00752700  0.35252500  1
  Si  Si34  1  0.00752700  0.51678900  0.85252500  1
  Si  Si35  1  0.48321100  0.99247300  0.64747500  1
  O  O36  1  0.95494100  0.39645500  0.12988800  1
  O  O37  1  0.60354500  0.04505900  0.37011200  1
  O  O38  1  0.04505900  0.60354500  0.87011200  1
  O  O39  1  0.39645500  0.95494100  0.62988800  1
  O  O40  1  0.22443500  0.31592400  0.14434700  1
  O  O41  1  0.68407600  0.77556500  0.35565300  1
  O  O42  1  0.77556500  0.68407600  0.85565300  1
  O  O43  1  0.31592400  0.22443500  0.64434700  1
  O  O44  1  0.54551700  0.44003600  0.12084800  1
  O  O45  1  0.55996400  0.45448300  0.37915200  1
  O  O46  1  0.45448300  0.55996400  0.87915200  1
  O  O47  1  0.44003600  0.54551700  0.62084800  1
  O  O48  1  0.10832900  0.35151600  0.91931800  1
  O  O49  1  0.64848400  0.89167100  0.58068200  1
  O  O50  1  0.89167100  0.64848400  0.08068200  1
  O  O51  1  0.35151600  0.10832900  0.41931800  1
  O  O52  1  0.59522600  0.00496100  0.13529900  1
  O  O53  1  0.99503900  0.40477400  0.36470100  1
  O  O54  1  0.40477400  0.99503900  0.86470100  1
  O  O55  1  0.00496100  0.59522600  0.63529900  1
  O  O56  1  0.35457900  0.78061900  0.12556300  1
  O  O57  1  0.21938100  0.64542100  0.37443700  1
  O  O58  1  0.64542100  0.21938100  0.87443700  1
  O  O59  1  0.78061900  0.35457900  0.62556300  1
  O  O60  1  0.18676600  0.72991300  0.16041400  1
  O  O61  1  0.27008700  0.81323400  0.33958600  1
  O  O62  1  0.81323400  0.27008700  0.83958600  1
  O  O63  1  0.72991300  0.18676600  0.66041400  1
  O  O64  1  0.40272300  0.97819200  0.16180400  1
  O  O65  1  0.02180800  0.59727700  0.33819600  1
  O  O66  1  0.59727700  0.02180800  0.83819600  1
  O  O67  1  0.97819200  0.40272300  0.66180400  1
  O  O68  1  0.25178400  0.06340000  0.00370600  1
  O  O69  1  0.93660000  0.74821600  0.49629400  1
  O  O70  1  0.74821600  0.93660000  0.99629400  1
  O  O71  1  0.06340000  0.25178400  0.50370600  1
  O  O72  1  0.89607000  0.58409300  0.23098300  1
  O  O73  1  0.41590700  0.10393000  0.26901700  1
  O  O74  1  0.10393000  0.41590700  0.76901700  1
  O  O75  1  0.58409300  0.89607000  0.73098300  1
  O  O76  1  0.06193500  0.12282600  0.24916100  1
  O  O77  1  0.87717400  0.93806500  0.25083900  1
  O  O78  1  0.93806500  0.87717400  0.75083900  1
  O  O79  1  0.12282600  0.06193500  0.74916100  1
  O  O80  1  0.04581900  0.22042800  0.87664300  1
  O  O81  1  0.77957200  0.95418100  0.62335700  1
  O  O82  1  0.95418100  0.77957200  0.12335700  1
  O  O83  1  0.22042800  0.04581900  0.37664300  1
  O  O84  1  0.28750600  0.71497900  0.01550400  1
  O  O85  1  0.28502100  0.71249400  0.48449600  1
  O  O86  1  0.71249400  0.28502100  0.98449600  1
  O  O87  1  0.71497900  0.28750600  0.51550400  1
  O  O88  1  0.89507700  0.23174900  0.08647300  1
  O  O89  1  0.76825100  0.10492300  0.41352700  1
  O  O90  1  0.10492300  0.76825100  0.91352700  1
  O  O91  1  0.23174900  0.89507700  0.58647300  1
  O  O92  1  0.83445200  0.07354400  0.10941000  1
  O  O93  1  0.92645600  0.16554800  0.39059000  1
  O  O94  1  0.16554800  0.92645600  0.89059000  1
  O  O95  1  0.07354400  0.83445200  0.60941000  1
