# generated using pymatgen
data_ErTl(WO4)2
_symmetry_space_group_name_H-M   'P 1'
_cell_length_a   7.59309818
_cell_length_b   7.59309818
_cell_length_c   7.47434491
_cell_angle_alpha   62.50139000
_cell_angle_beta   62.50139000
_cell_angle_gamma   88.54346275
_symmetry_Int_Tables_number   1
_chemical_formula_structural   ErTl(WO4)2
_chemical_formula_sum   'Er2 Tl2 W4 O16'
_cell_volume   329.26551618
_cell_formula_units_Z   2
loop_
 _symmetry_equiv_pos_site_id
 _symmetry_equiv_pos_as_xyz
  1  'x, y, z'
loop_
 _atom_site_type_symbol
 _atom_site_label
 _atom_site_symmetry_multiplicity
 _atom_site_fract_x
 _atom_site_fract_y
 _atom_site_fract_z
 _atom_site_occupancy
  Er  Er0  1  0.77596300  0.22403700  0.75000000  1
  Er  Er1  1  0.22403700  0.77596300  0.25000000  1
  Tl  Tl2  1  0.20266100  0.79733900  0.75000000  1
  Tl  Tl3  1  0.79733900  0.20266100  0.25000000  1
  W  W4  1  0.70077300  0.69042700  0.77935500  1
  W  W5  1  0.29922700  0.30957300  0.22064500  1
  W  W6  1  0.30957300  0.29922700  0.72064500  1
  W  W7  1  0.69042700  0.70077300  0.27935500  1
  O  O8  1  0.61921300  0.75942800  0.55662100  1
  O  O9  1  0.38078700  0.24057200  0.44337900  1
  O  O10  1  0.24057200  0.38078700  0.94337900  1
  O  O11  1  0.75942800  0.61921300  0.05662100  1
  O  O12  1  0.37534700  0.06165800  0.88110800  1
  O  O13  1  0.62465300  0.93834200  0.11889200  1
  O  O14  1  0.93834200  0.62465300  0.61889200  1
  O  O15  1  0.06165800  0.37534700  0.38110800  1
  O  O16  1  0.58923500  0.36968000  0.96475600  1
  O  O17  1  0.41076500  0.63032000  0.03524400  1
  O  O18  1  0.63032000  0.41076500  0.53524400  1
  O  O19  1  0.36968000  0.58923500  0.46475600  1
  O  O20  1  0.78656100  0.95661400  0.69029100  1
  O  O21  1  0.21343900  0.04338600  0.30970900  1
  O  O22  1  0.04338600  0.21343900  0.80970900  1
  O  O23  1  0.95661400  0.78656100  0.19029100  1
