# generated using pymatgen
data_Sn2Rh3S2
_symmetry_space_group_name_H-M   'P 1'
_cell_length_a   5.58347456
_cell_length_b   5.58347456
_cell_length_c   5.58347426
_cell_angle_alpha   61.68394076
_cell_angle_beta   61.68394076
_cell_angle_gamma   61.68394797
_symmetry_Int_Tables_number   1
_chemical_formula_structural   Sn2Rh3S2
_chemical_formula_sum   'Sn2 Rh3 S2'
_cell_volume   127.72968723
_cell_formula_units_Z   1
loop_
 _symmetry_equiv_pos_site_id
 _symmetry_equiv_pos_as_xyz
  1  'x, y, z'
loop_
 _atom_site_type_symbol
 _atom_site_label
 _atom_site_symmetry_multiplicity
 _atom_site_fract_x
 _atom_site_fract_y
 _atom_site_fract_z
 _atom_site_occupancy
  Sn  Sn0  1  0.00000000  0.00000000  0.00000000  1
  Sn  Sn1  1  0.50000000  0.50000000  0.50000000  1
  Rh  Rh2  1  0.00000000  0.00000000  0.50000000  1
  Rh  Rh3  1  0.50000000  0.00000000  0.00000000  1
  Rh  Rh4  1  0.00000000  0.50000000  0.00000000  1
  S  S5  1  0.71202700  0.71202700  0.71202700  1
  S  S6  1  0.28797300  0.28797300  0.28797300  1
