# generated using pymatgen
data_LiThF5
_symmetry_space_group_name_H-M   'P 1'
_cell_length_a   11.28452159
_cell_length_b   11.28452159
_cell_length_c   11.28452159
_cell_angle_alpha   95.07382088
_cell_angle_beta   95.07382088
_cell_angle_gamma   145.39851296
_symmetry_Int_Tables_number   1
_chemical_formula_structural   LiThF5
_chemical_formula_sum   'Li8 Th8 F40'
_cell_volume   779.08970283
_cell_formula_units_Z   8
loop_
 _symmetry_equiv_pos_site_id
 _symmetry_equiv_pos_as_xyz
  1  'x, y, z'
loop_
 _atom_site_type_symbol
 _atom_site_label
 _atom_site_symmetry_multiplicity
 _atom_site_fract_x
 _atom_site_fract_y
 _atom_site_fract_z
 _atom_site_occupancy
  Li  Li0  1  0.28979800  0.43564200  0.01710800  1
  Li  Li1  1  0.41853400  0.27269000  0.98289200  1
  Li  Li2  1  0.83146600  0.47731000  0.51710800  1
  Li  Li3  1  0.96020200  0.31435800  0.48289200  1
  Li  Li4  1  0.72731000  0.71020200  0.14584400  1
  Li  Li5  1  0.56435800  0.58146600  0.85415600  1
  Li  Li6  1  0.68564200  0.16853400  0.64584400  1
  Li  Li7  1  0.52269000  0.03979800  0.35415600  1
  Th  Th8  1  0.43465900  0.67972500  0.36679900  1
  Th  Th9  1  0.31292600  0.06786000  0.63320100  1
  Th  Th10  1  0.93707400  0.68214000  0.86679900  1
  Th  Th11  1  0.81534100  0.07027500  0.13320100  1
  Th  Th12  1  0.93214000  0.56534100  0.24506600  1
  Th  Th13  1  0.32027500  0.68707400  0.75493400  1
  Th  Th14  1  0.92972500  0.06292600  0.74506600  1
  Th  Th15  1  0.31786000  0.18465900  0.25493400  1
  F  F16  1  0.70075000  0.83510000  0.27677400  1
  F  F17  1  0.55832600  0.42397500  0.72322600  1
  F  F18  1  0.69167400  0.32602500  0.77677400  1
  F  F19  1  0.54925000  0.91490000  0.22322600  1
  F  F20  1  0.57602500  0.29925000  0.13435100  1
  F  F21  1  0.16490000  0.44167400  0.86564900  1
  F  F22  1  0.08510000  0.30832600  0.63435100  1
  F  F23  1  0.67397500  0.45075000  0.36564900  1
  F  F24  1  0.40070800  0.44585100  0.36035200  1
  F  F25  1  0.08549900  0.04035600  0.63964800  1
  F  F26  1  0.16450100  0.70964400  0.86035200  1
  F  F27  1  0.84929200  0.30414900  0.13964800  1
  F  F28  1  0.95964400  0.59929200  0.04514300  1
  F  F29  1  0.55414900  0.91450100  0.95485700  1
  F  F30  1  0.69585100  0.83549900  0.54514300  1
  F  F31  1  0.29035600  0.15070800  0.45485700  1
  F  F32  1  0.65357600  0.02553500  0.46918100  1
  F  F33  1  0.55635400  0.18439500  0.53081900  1
  F  F34  1  0.69364600  0.56560500  0.96918100  1
  F  F35  1  0.59642400  0.72446500  0.03081900  1
  F  F36  1  0.81560500  0.34642400  0.37195900  1
  F  F37  1  0.97446500  0.44364600  0.62804100  1
  F  F38  1  0.27553500  0.30635400  0.87195900  1
  F  F39  1  0.43439500  0.40357600  0.12804100  1
  F  F40  1  0.21228700  0.44827400  0.16028400  1
  F  F41  1  0.28799000  0.05200300  0.83971600  1
  F  F42  1  0.96201000  0.69799700  0.66028400  1
  F  F43  1  0.03771300  0.30172600  0.33971600  1
  F  F44  1  0.94799700  0.78771300  0.23598700  1
  F  F45  1  0.55172600  0.71201000  0.76401300  1
  F  F46  1  0.69827400  0.03799000  0.73598700  1
  F  F47  1  0.30200300  0.96228700  0.26401300  1
  F  F48  1  0.30946100  0.63326000  0.54145400  1
  F  F49  1  0.09180600  0.76800800  0.45854600  1
  F  F50  1  0.15819400  0.98199200  0.04145400  1
  F  F51  1  0.94053900  0.11674000  0.95854600  1
  F  F52  1  0.23199200  0.69053900  0.32379900  1
  F  F53  1  0.36674000  0.90819400  0.67620100  1
  F  F54  1  0.88326000  0.84180600  0.82379900  1
  F  F55  1  0.01800800  0.05946100  0.17620100  1
