# generated using pymatgen
data_LaZn2Ni3
_symmetry_space_group_name_H-M   'P 1'
_cell_length_a   3.90740200
_cell_length_b   5.24195816
_cell_length_c   5.24195746
_cell_angle_alpha   60.02870977
_cell_angle_beta   90.00000000
_cell_angle_gamma   90.00000000
_symmetry_Int_Tables_number   1
_chemical_formula_structural   LaZn2Ni3
_chemical_formula_sum   'La1 Zn2 Ni3'
_cell_volume   93.01036244
_cell_formula_units_Z   1
loop_
 _symmetry_equiv_pos_site_id
 _symmetry_equiv_pos_as_xyz
  1  'x, y, z'
loop_
 _atom_site_type_symbol
 _atom_site_label
 _atom_site_symmetry_multiplicity
 _atom_site_fract_x
 _atom_site_fract_y
 _atom_site_fract_z
 _atom_site_occupancy
  La  La0  1  0.00000000  0.99997800  0.00002200  1
  Zn  Zn1  1  0.00000000  0.33334300  0.33339800  1
  Zn  Zn2  1  0.00000000  0.66660200  0.66665700  1
  Ni  Ni3  1  0.50000000  0.49999400  0.50000600  1
  Ni  Ni4  1  0.50000000  0.49999500  0.00001300  1
  Ni  Ni5  1  0.50000000  0.99998700  0.50000500  1
