# generated using pymatgen
data_U5ClO12
_symmetry_space_group_name_H-M   'P 1'
_cell_length_a   4.16541100
_cell_length_b   7.15401500
_cell_length_c   19.82621300
_cell_angle_alpha   90.00000000
_cell_angle_beta   90.00000000
_cell_angle_gamma   90.00000000
_symmetry_Int_Tables_number   1
_chemical_formula_structural   U5ClO12
_chemical_formula_sum   'U10 Cl2 O24'
_cell_volume   590.80950496
_cell_formula_units_Z   2
loop_
 _symmetry_equiv_pos_site_id
 _symmetry_equiv_pos_as_xyz
  1  'x, y, z'
loop_
 _atom_site_type_symbol
 _atom_site_label
 _atom_site_symmetry_multiplicity
 _atom_site_fract_x
 _atom_site_fract_y
 _atom_site_fract_z
 _atom_site_occupancy
  U  U0  1  0.00000000  0.21332400  0.85362700  1
  U  U1  1  0.00000000  0.78667600  0.14637300  1
  U  U2  1  0.00000000  0.21332400  0.64637300  1
  U  U3  1  0.00000000  0.78667600  0.35362700  1
  U  U4  1  0.00000000  0.33205100  0.42952300  1
  U  U5  1  0.00000000  0.66794900  0.57047700  1
  U  U6  1  0.00000000  0.33205100  0.07047700  1
  U  U7  1  0.00000000  0.66794900  0.92952300  1
  U  U8  1  0.00000000  0.23895900  0.25000000  1
  U  U9  1  0.00000000  0.76104100  0.75000000  1
  Cl  Cl10  1  0.00000000  0.00000000  0.50000000  1
  Cl  Cl11  1  0.00000000  0.00000000  0.00000000  1
  O  O12  1  0.00000000  0.62521200  0.04878000  1
  O  O13  1  0.00000000  0.37478800  0.95122000  1
  O  O14  1  0.00000000  0.62521200  0.45122000  1
  O  O15  1  0.00000000  0.37478800  0.54878000  1
  O  O16  1  0.00000000  0.10429900  0.14540800  1
  O  O17  1  0.00000000  0.89570100  0.85459200  1
  O  O18  1  0.00000000  0.10429900  0.35459200  1
  O  O19  1  0.00000000  0.89570100  0.64540800  1
  O  O20  1  0.50000000  0.21261000  0.85503900  1
  O  O21  1  0.50000000  0.78739000  0.14496100  1
  O  O22  1  0.50000000  0.21261000  0.64496100  1
  O  O23  1  0.50000000  0.78739000  0.35503900  1
  O  O24  1  0.50000000  0.23249400  0.25000000  1
  O  O25  1  0.50000000  0.76750600  0.75000000  1
  O  O26  1  0.00000000  0.87349600  0.25000000  1
  O  O27  1  0.00000000  0.12650400  0.75000000  1
  O  O28  1  0.50000000  0.32523700  0.43035600  1
  O  O29  1  0.50000000  0.67476300  0.56964400  1
  O  O30  1  0.50000000  0.32523700  0.06964400  1
  O  O31  1  0.50000000  0.67476300  0.93035600  1
  O  O32  1  0.00000000  0.47418700  0.17144400  1
  O  O33  1  0.00000000  0.52581300  0.82855600  1
  O  O34  1  0.00000000  0.47418700  0.32855600  1
  O  O35  1  0.00000000  0.52581300  0.67144400  1
