# generated using pymatgen
data_Eu5Si3O13
_symmetry_space_group_name_H-M   'P 1'
_cell_length_a   9.60131328
_cell_length_b   9.60131328
_cell_length_c   7.08320400
_cell_angle_alpha   90.00000000
_cell_angle_beta   90.00000000
_cell_angle_gamma   119.99999502
_symmetry_Int_Tables_number   1
_chemical_formula_structural   Eu5Si3O13
_chemical_formula_sum   'Eu10 Si6 O26'
_cell_volume   565.48577439
_cell_formula_units_Z   2
loop_
 _symmetry_equiv_pos_site_id
 _symmetry_equiv_pos_as_xyz
  1  'x, y, z'
loop_
 _atom_site_type_symbol
 _atom_site_label
 _atom_site_symmetry_multiplicity
 _atom_site_fract_x
 _atom_site_fract_y
 _atom_site_fract_z
 _atom_site_occupancy
  Eu  Eu0  1  0.76479800  0.75839500  0.75000000  1
  Eu  Eu1  1  0.23520200  0.24160500  0.25000000  1
  Eu  Eu2  1  0.99359700  0.23520200  0.75000000  1
  Eu  Eu3  1  0.00640300  0.76479800  0.25000000  1
  Eu  Eu4  1  0.24160500  0.00640300  0.75000000  1
  Eu  Eu5  1  0.75839500  0.99359700  0.25000000  1
  Eu  Eu6  1  0.33333300  0.66666700  0.00149900  1
  Eu  Eu7  1  0.66666700  0.33333300  0.99850100  1
  Eu  Eu8  1  0.66666700  0.33333300  0.50149900  1
  Eu  Eu9  1  0.33333300  0.66666700  0.49850100  1
  Si  Si10  1  0.59975200  0.96829000  0.75000000  1
  Si  Si11  1  0.40024800  0.03171000  0.25000000  1
  Si  Si12  1  0.36853800  0.40024800  0.75000000  1
  Si  Si13  1  0.63146200  0.59975200  0.25000000  1
  Si  Si14  1  0.03171000  0.63146200  0.75000000  1
  Si  Si15  1  0.96829000  0.36853800  0.25000000  1
  O  O16  1  0.40171000  0.87160300  0.75000000  1
  O  O17  1  0.59829000  0.12839700  0.25000000  1
  O  O18  1  0.46989300  0.59829000  0.75000000  1
  O  O19  1  0.53010700  0.40171000  0.25000000  1
  O  O20  1  0.12839700  0.53010700  0.75000000  1
  O  O21  1  0.87160300  0.46989300  0.25000000  1
  O  O22  1  0.65650600  0.90572000  0.93545600  1
  O  O23  1  0.34349400  0.09428000  0.06454400  1
  O  O24  1  0.24921400  0.34349400  0.93545600  1
  O  O25  1  0.34349400  0.09428000  0.43545600  1
  O  O26  1  0.75078600  0.65650600  0.06454400  1
  O  O27  1  0.65650600  0.90572000  0.56454400  1
  O  O28  1  0.09428000  0.75078600  0.93545600  1
  O  O29  1  0.75078600  0.65650600  0.43545600  1
  O  O30  1  0.90572000  0.24921400  0.06454400  1
  O  O31  1  0.24921400  0.34349400  0.56454400  1
  O  O32  1  0.90572000  0.24921400  0.43545600  1
  O  O33  1  0.09428000  0.75078600  0.56454400  1
  O  O34  1  0.83733000  0.51274200  0.75000000  1
  O  O35  1  0.16267000  0.48725800  0.25000000  1
  O  O36  1  0.67541200  0.16267000  0.75000000  1
  O  O37  1  0.32458800  0.83733000  0.25000000  1
  O  O38  1  0.48725800  0.32458800  0.75000000  1
  O  O39  1  0.51274200  0.67541200  0.25000000  1
  O  O40  1  0.00000000  0.00000000  0.75000000  1
  O  O41  1  0.00000000  0.00000000  0.25000000  1
