# generated using pymatgen
data_CsTb(NbBr3)6
_symmetry_space_group_name_H-M   'P 1'
_cell_length_a   9.97950985
_cell_length_b   9.97950985
_cell_length_c   18.62718800
_cell_angle_alpha   90.00000000
_cell_angle_beta   90.00000000
_cell_angle_gamma   119.99999898
_symmetry_Int_Tables_number   1
_chemical_formula_structural   CsTb(NbBr3)6
_chemical_formula_sum   'Cs2 Tb2 Nb12 Br36'
_cell_volume   1606.55780358
_cell_formula_units_Z   2
loop_
 _symmetry_equiv_pos_site_id
 _symmetry_equiv_pos_as_xyz
  1  'x, y, z'
loop_
 _atom_site_type_symbol
 _atom_site_label
 _atom_site_symmetry_multiplicity
 _atom_site_fract_x
 _atom_site_fract_y
 _atom_site_fract_z
 _atom_site_occupancy
  Cs  Cs0  1  0.33333300  0.66666700  0.75000000  1
  Cs  Cs1  1  0.66666700  0.33333300  0.25000000  1
  Tb  Tb2  1  0.66666700  0.33333300  0.75000000  1
  Tb  Tb3  1  0.33333300  0.66666700  0.25000000  1
  Nb  Nb4  1  0.85065100  0.03820800  0.56482100  1
  Nb  Nb5  1  0.14934900  0.96179200  0.43517900  1
  Nb  Nb6  1  0.96179200  0.81244300  0.56482100  1
  Nb  Nb7  1  0.85065100  0.81244300  0.93517900  1
  Nb  Nb8  1  0.03820800  0.18755700  0.43517900  1
  Nb  Nb9  1  0.14934900  0.18755700  0.06482100  1
  Nb  Nb10  1  0.18755700  0.14934900  0.56482100  1
  Nb  Nb11  1  0.96179200  0.14934900  0.93517900  1
  Nb  Nb12  1  0.81244300  0.85065100  0.43517900  1
  Nb  Nb13  1  0.03820800  0.85065100  0.06482100  1
  Nb  Nb14  1  0.18755700  0.03820800  0.93517900  1
  Nb  Nb15  1  0.81244300  0.96179200  0.06482100  1
  Br  Br16  1  0.63705800  0.08508300  0.66137600  1
  Br  Br17  1  0.36294200  0.91491700  0.33862400  1
  Br  Br18  1  0.91491700  0.55197500  0.66137600  1
  Br  Br19  1  0.63705800  0.55197500  0.83862400  1
  Br  Br20  1  0.08508300  0.44802500  0.33862400  1
  Br  Br21  1  0.36294200  0.44802500  0.16137600  1
  Br  Br22  1  0.44802500  0.36294200  0.66137600  1
  Br  Br23  1  0.91491700  0.36294200  0.83862400  1
  Br  Br24  1  0.55197500  0.63705800  0.33862400  1
  Br  Br25  1  0.08508300  0.63705800  0.16137600  1
  Br  Br26  1  0.44802500  0.08508300  0.83862400  1
  Br  Br27  1  0.55197500  0.91491700  0.16137600  1
  Br  Br28  1  0.04615900  0.23094800  0.65900100  1
  Br  Br29  1  0.95384100  0.76905200  0.34099900  1
  Br  Br30  1  0.76905200  0.81521000  0.65900100  1
  Br  Br31  1  0.04615900  0.81521000  0.84099900  1
  Br  Br32  1  0.23094800  0.18479000  0.34099900  1
  Br  Br33  1  0.95384100  0.18479000  0.15900100  1
  Br  Br34  1  0.18479000  0.95384100  0.65900100  1
  Br  Br35  1  0.76905200  0.95384100  0.84099900  1
  Br  Br36  1  0.81521000  0.04615900  0.34099900  1
  Br  Br37  1  0.23094800  0.04615900  0.15900100  1
  Br  Br38  1  0.18479000  0.23094800  0.84099900  1
  Br  Br39  1  0.81521000  0.76905200  0.15900100  1
  Br  Br40  1  0.27546400  0.41424100  0.50082400  1
  Br  Br41  1  0.72453600  0.58575900  0.49917600  1
  Br  Br42  1  0.58575900  0.86122300  0.50082400  1
  Br  Br43  1  0.27546400  0.86122300  0.99917600  1
  Br  Br44  1  0.41424100  0.13877700  0.49917600  1
  Br  Br45  1  0.72453600  0.13877700  0.00082400  1
  Br  Br46  1  0.13877700  0.72453600  0.50082400  1
  Br  Br47  1  0.58575900  0.72453600  0.99917600  1
  Br  Br48  1  0.86122300  0.27546400  0.49917600  1
  Br  Br49  1  0.41424100  0.27546400  0.00082400  1
  Br  Br50  1  0.13877700  0.41424100  0.99917600  1
  Br  Br51  1  0.86122300  0.58575900  0.00082400  1
