# generated using pymatgen
data_Rb3Sc2Br9
_symmetry_space_group_name_H-M   'P 1'
_cell_length_a   7.67808194
_cell_length_b   7.67808194
_cell_length_c   19.69285000
_cell_angle_alpha   90.00000000
_cell_angle_beta   90.00000000
_cell_angle_gamma   119.99999952
_symmetry_Int_Tables_number   1
_chemical_formula_structural   Rb3Sc2Br9
_chemical_formula_sum   'Rb6 Sc4 Br18'
_cell_volume   1005.41345366
_cell_formula_units_Z   2
loop_
 _symmetry_equiv_pos_site_id
 _symmetry_equiv_pos_as_xyz
  1  'x, y, z'
loop_
 _atom_site_type_symbol
 _atom_site_label
 _atom_site_symmetry_multiplicity
 _atom_site_fract_x
 _atom_site_fract_y
 _atom_site_fract_z
 _atom_site_occupancy
  Rb  Rb0  1  0.33333300  0.66666700  0.07023400  1
  Rb  Rb1  1  0.66666700  0.33333300  0.92976600  1
  Rb  Rb2  1  0.66666700  0.33333300  0.57023400  1
  Rb  Rb3  1  0.33333300  0.66666700  0.42976600  1
  Rb  Rb4  1  0.00000000  0.00000000  0.25000000  1
  Rb  Rb5  1  0.00000000  0.00000000  0.75000000  1
  Sc  Sc6  1  0.33333300  0.66666700  0.65666200  1
  Sc  Sc7  1  0.66666700  0.33333300  0.34333800  1
  Sc  Sc8  1  0.66666700  0.33333300  0.15666200  1
  Sc  Sc9  1  0.33333300  0.66666700  0.84333800  1
  Br  Br10  1  0.16832500  0.33665100  0.58970500  1
  Br  Br11  1  0.83167500  0.66334900  0.41029500  1
  Br  Br12  1  0.66334900  0.83167500  0.58970500  1
  Br  Br13  1  0.83167500  0.66334900  0.08970500  1
  Br  Br14  1  0.33665100  0.16832500  0.41029500  1
  Br  Br15  1  0.16832500  0.33665100  0.91029500  1
  Br  Br16  1  0.16832500  0.83167500  0.58970500  1
  Br  Br17  1  0.33665100  0.16832500  0.08970500  1
  Br  Br18  1  0.83167500  0.16832500  0.41029500  1
  Br  Br19  1  0.66334900  0.83167500  0.91029500  1
  Br  Br20  1  0.83167500  0.16832500  0.08970500  1
  Br  Br21  1  0.16832500  0.83167500  0.91029500  1
  Br  Br22  1  0.50933200  0.01866500  0.25000000  1
  Br  Br23  1  0.49066800  0.98133500  0.75000000  1
  Br  Br24  1  0.98133500  0.49066800  0.25000000  1
  Br  Br25  1  0.01866500  0.50933200  0.75000000  1
  Br  Br26  1  0.50933200  0.49066800  0.25000000  1
  Br  Br27  1  0.49066800  0.50933200  0.75000000  1
