# generated using pymatgen
data_Gd2Al4CoGe2
_symmetry_space_group_name_H-M   'P 1'
_cell_length_a   10.24272213
_cell_length_b   10.24272213
_cell_length_c   10.24272213
_cell_angle_alpha   156.63814577
_cell_angle_beta   156.63814577
_cell_angle_gamma   33.27595822
_symmetry_Int_Tables_number   1
_chemical_formula_structural   Gd2Al4CoGe2
_chemical_formula_sum   'Gd2 Al4 Co1 Ge2'
_cell_volume   168.81695771
_cell_formula_units_Z   1
loop_
 _symmetry_equiv_pos_site_id
 _symmetry_equiv_pos_as_xyz
  1  'x, y, z'
loop_
 _atom_site_type_symbol
 _atom_site_label
 _atom_site_symmetry_multiplicity
 _atom_site_fract_x
 _atom_site_fract_y
 _atom_site_fract_z
 _atom_site_occupancy
  Gd  Gd0  1  0.81625300  0.81625300  0.00000000  1
  Gd  Gd1  1  0.18374700  0.18374700  0.00000000  1
  Al  Al2  1  0.43458500  0.93458500  0.50000000  1
  Al  Al3  1  0.93458500  0.43458500  0.50000000  1
  Al  Al4  1  0.56541500  0.06541500  0.50000000  1
  Al  Al5  1  0.06541500  0.56541500  0.50000000  1
  Co  Co6  1  0.00000000  0.00000000  0.00000000  1
  Ge  Ge7  1  0.66150100  0.66150100  0.00000000  1
  Ge  Ge8  1  0.33849900  0.33849900  0.00000000  1
