# generated using pymatgen
data_Tb(Al5Ru)2
_symmetry_space_group_name_H-M   'P 1'
_cell_length_a   6.86102525
_cell_length_b   6.86102525
_cell_length_c   9.15719700
_cell_angle_alpha   90.00000000
_cell_angle_beta   90.00000000
_cell_angle_gamma   96.86324759
_symmetry_Int_Tables_number   1
_chemical_formula_structural   Tb(Al5Ru)2
_chemical_formula_sum   'Tb2 Al20 Ru4'
_cell_volume   427.97393604
_cell_formula_units_Z   2
loop_
 _symmetry_equiv_pos_site_id
 _symmetry_equiv_pos_as_xyz
  1  'x, y, z'
loop_
 _atom_site_type_symbol
 _atom_site_label
 _atom_site_symmetry_multiplicity
 _atom_site_fract_x
 _atom_site_fract_y
 _atom_site_fract_z
 _atom_site_occupancy
  Tb  Tb0  1  0.87385100  0.12614900  0.75000000  1
  Tb  Tb1  1  0.12614900  0.87385100  0.25000000  1
  Al  Al2  1  0.62348800  0.37651200  0.54925800  1
  Al  Al3  1  0.37651200  0.62348800  0.45074200  1
  Al  Al4  1  0.37651200  0.62348800  0.04925800  1
  Al  Al5  1  0.62348800  0.37651200  0.95074200  1
  Al  Al6  1  0.22739000  0.22739000  0.50000000  1
  Al  Al7  1  0.77261000  0.77261000  0.50000000  1
  Al  Al8  1  0.77261000  0.77261000  0.00000000  1
  Al  Al9  1  0.22739000  0.22739000  0.00000000  1
  Al  Al10  1  0.84339200  0.15660800  0.09956600  1
  Al  Al11  1  0.15660800  0.84339200  0.90043400  1
  Al  Al12  1  0.15660800  0.84339200  0.59956600  1
  Al  Al13  1  0.84339200  0.15660800  0.40043400  1
  Al  Al14  1  0.86110300  0.58604300  0.75000000  1
  Al  Al15  1  0.13889700  0.41395700  0.25000000  1
  Al  Al16  1  0.41395700  0.13889700  0.75000000  1
  Al  Al17  1  0.58604300  0.86110300  0.25000000  1
  Al  Al18  1  0.22243200  0.47988900  0.75000000  1
  Al  Al19  1  0.77756800  0.52011100  0.25000000  1
  Al  Al20  1  0.52011100  0.77756800  0.75000000  1
  Al  Al21  1  0.47988900  0.22243200  0.25000000  1
  Ru  Ru22  1  0.00000000  0.50000000  0.50000000  1
  Ru  Ru23  1  0.00000000  0.50000000  0.00000000  1
  Ru  Ru24  1  0.50000000  0.00000000  0.00000000  1
  Ru  Ru25  1  0.50000000  0.00000000  0.50000000  1
