# generated using pymatgen
data_RbNd2CuS4
_symmetry_space_group_name_H-M   'P 1'
_cell_length_a   7.37361934
_cell_length_b   7.37361934
_cell_length_c   14.08177700
_cell_angle_alpha   90.00000000
_cell_angle_beta   90.00000000
_cell_angle_gamma   147.74771349
_symmetry_Int_Tables_number   1
_chemical_formula_structural   RbNd2CuS4
_chemical_formula_sum   'Rb2 Nd4 Cu2 S8'
_cell_volume   408.57707301
_cell_formula_units_Z   2
loop_
 _symmetry_equiv_pos_site_id
 _symmetry_equiv_pos_as_xyz
  1  'x, y, z'
loop_
 _atom_site_type_symbol
 _atom_site_label
 _atom_site_symmetry_multiplicity
 _atom_site_fract_x
 _atom_site_fract_y
 _atom_site_fract_z
 _atom_site_occupancy
  Rb  Rb0  1  0.10594900  0.89405100  0.25000000  1
  Rb  Rb1  1  0.89405100  0.10594900  0.75000000  1
  Nd  Nd2  1  0.63445700  0.36554300  0.93851400  1
  Nd  Nd3  1  0.36554300  0.63445700  0.43851400  1
  Nd  Nd4  1  0.63445700  0.36554300  0.56148600  1
  Nd  Nd5  1  0.36554300  0.63445700  0.06148600  1
  Cu  Cu6  1  0.16465000  0.83535000  0.75000000  1
  Cu  Cu7  1  0.83535000  0.16465000  0.25000000  1
  S  S8  1  0.00000000  0.00000000  0.50000000  1
  S  S9  1  0.00000000  0.00000000  0.00000000  1
  S  S10  1  0.42420200  0.57579800  0.25000000  1
  S  S11  1  0.57579800  0.42420200  0.75000000  1
  S  S12  1  0.74000600  0.25999400  0.38722700  1
  S  S13  1  0.25999400  0.74000600  0.88722700  1
  S  S14  1  0.25999400  0.74000600  0.61277300  1
  S  S15  1  0.74000600  0.25999400  0.11277300  1
