# generated using pymatgen
data_Cs3Gd(PO4)2
_symmetry_space_group_name_H-M   'P 1'
_cell_length_a   10.57649600
_cell_length_b   10.43486100
_cell_length_c   10.72199821
_cell_angle_alpha   72.30420656
_cell_angle_beta   90.00000000
_cell_angle_gamma   90.00000000
_symmetry_Int_Tables_number   1
_chemical_formula_structural   Cs3Gd(PO4)2
_chemical_formula_sum   'Cs12 Gd4 P8 O32'
_cell_volume   1127.33499463
_cell_formula_units_Z   4
loop_
 _symmetry_equiv_pos_site_id
 _symmetry_equiv_pos_as_xyz
  1  'x, y, z'
loop_
 _atom_site_type_symbol
 _atom_site_label
 _atom_site_symmetry_multiplicity
 _atom_site_fract_x
 _atom_site_fract_y
 _atom_site_fract_z
 _atom_site_occupancy
  Cs  Cs0  1  0.10286300  0.27828000  0.98121500  1
  Cs  Cs1  1  0.60286300  0.72172000  0.01878500  1
  Cs  Cs2  1  0.67993800  0.47976300  0.77777000  1
  Cs  Cs3  1  0.17993800  0.52023700  0.22223000  1
  Cs  Cs4  1  0.73373900  0.96547100  0.66534100  1
  Cs  Cs5  1  0.23373900  0.03452900  0.33465900  1
  Cs  Cs6  1  0.48176100  0.66758900  0.45417300  1
  Cs  Cs7  1  0.98176100  0.33241100  0.54582700  1
  Cs  Cs8  1  0.08378900  0.99027200  0.78940700  1
  Cs  Cs9  1  0.58378900  0.00972800  0.21059300  1
  Cs  Cs10  1  0.02285800  0.72549700  0.56397500  1
  Cs  Cs11  1  0.52285800  0.27450300  0.43602500  1
  Gd  Gd12  1  0.43531400  0.15857500  0.83719500  1
  Gd  Gd13  1  0.93531400  0.84142500  0.16280500  1
  Gd  Gd14  1  0.29202900  0.65667500  0.83625400  1
  Gd  Gd15  1  0.79202900  0.34332500  0.16374600  1
  P  P16  1  0.41436100  0.90244300  0.64609600  1
  P  P17  1  0.91436100  0.09755700  0.35390400  1
  P  P18  1  0.94563000  0.63863900  0.92284900  1
  P  P19  1  0.44563000  0.36136100  0.07715100  1
  P  P20  1  0.30425800  0.39994800  0.65119000  1
  P  P21  1  0.80425800  0.60005200  0.34881000  1
  P  P22  1  0.28275200  0.86592200  0.07778100  1
  P  P23  1  0.78275200  0.13407800  0.92221900  1
  O  O24  1  0.43306900  0.02244900  0.70334600  1
  O  O25  1  0.93306900  0.97755100  0.29665400  1
  O  O26  1  0.48057900  0.77262900  0.73909800  1
  O  O27  1  0.98057900  0.22737100  0.26090200  1
  O  O28  1  0.46904400  0.94278400  0.50666300  1
  O  O29  1  0.96904400  0.05721600  0.49333700  1
  O  O30  1  0.45043700  0.36645400  0.66713400  1
  O  O31  1  0.95043700  0.63354600  0.33286600  1
  O  O32  1  0.26412200  0.43450300  0.50759500  1
  O  O33  1  0.76412200  0.56549700  0.49240500  1
  O  O34  1  0.23980900  0.26828100  0.74099900  1
  O  O35  1  0.73980900  0.73171900  0.25900100  1
  O  O36  1  0.27591500  0.52047700  0.70525700  1
  O  O37  1  0.77591500  0.47952300  0.29474300  1
  O  O38  1  0.86064900  0.70771000  0.80553500  1
  O  O39  1  0.36064900  0.29229000  0.19446500  1
  O  O40  1  0.08219900  0.61792200  0.87445400  1
  O  O41  1  0.58219900  0.38207800  0.12554600  1
  O  O42  1  0.89188400  0.49626400  0.99873500  1
  O  O43  1  0.39188400  0.50373600  0.00126500  1
  O  O44  1  0.95604900  0.72265000  0.01923200  1
  O  O45  1  0.45604900  0.27735000  0.98076800  1
  O  O46  1  0.14549600  0.88123100  0.12747800  1
  O  O47  1  0.64549600  0.11876900  0.87252200  1
  O  O48  1  0.28022000  0.77920300  0.98214600  1
  O  O49  1  0.78022000  0.22079700  0.01785400  1
  O  O50  1  0.32726400  0.01096000  0.99873100  1
  O  O51  1  0.82726400  0.98904000  0.00126900  1
  O  O52  1  0.37023400  0.80398800  0.19456400  1
  O  O53  1  0.87023400  0.19601200  0.80543600  1
  O  O54  1  0.27124500  0.85962600  0.65066900  1
  O  O55  1  0.77124500  0.14037400  0.34933100  1
