# generated using pymatgen
data_VPbSeO5F
_symmetry_space_group_name_H-M   'P 1'
_cell_length_a   8.30227000
_cell_length_b   13.23116300
_cell_length_c   10.01049500
_cell_angle_alpha   90.00000000
_cell_angle_beta   90.00000000
_cell_angle_gamma   90.00000000
_symmetry_Int_Tables_number   1
_chemical_formula_structural   VPbSeO5F
_chemical_formula_sum   'V8 Pb8 Se8 O40 F8'
_cell_volume   1099.63973838
_cell_formula_units_Z   8
loop_
 _symmetry_equiv_pos_site_id
 _symmetry_equiv_pos_as_xyz
  1  'x, y, z'
loop_
 _atom_site_type_symbol
 _atom_site_label
 _atom_site_symmetry_multiplicity
 _atom_site_fract_x
 _atom_site_fract_y
 _atom_site_fract_z
 _atom_site_occupancy
  V  V0  1  0.41851100  0.09608200  0.04967900  1
  V  V1  1  0.08148900  0.90391800  0.54967900  1
  V  V2  1  0.91851100  0.40391800  0.95032100  1
  V  V3  1  0.58148900  0.59608200  0.45032100  1
  V  V4  1  0.58148900  0.90391800  0.95032100  1
  V  V5  1  0.91851100  0.09608200  0.45032100  1
  V  V6  1  0.08148900  0.59608200  0.04967900  1
  V  V7  1  0.41851100  0.40391800  0.54967900  1
  Pb  Pb8  1  0.35521700  0.82866400  0.26340400  1
  Pb  Pb9  1  0.14478300  0.17133600  0.76340400  1
  Pb  Pb10  1  0.85521700  0.67133600  0.73659600  1
  Pb  Pb11  1  0.64478300  0.32866400  0.23659600  1
  Pb  Pb12  1  0.64478300  0.17133600  0.73659600  1
  Pb  Pb13  1  0.85521700  0.82866400  0.23659600  1
  Pb  Pb14  1  0.14478300  0.32866400  0.26340400  1
  Pb  Pb15  1  0.35521700  0.67133600  0.76340400  1
  Se  Se16  1  0.82507100  0.08902700  0.04958400  1
  Se  Se17  1  0.67492900  0.91097300  0.54958400  1
  Se  Se18  1  0.32507100  0.41097300  0.95041600  1
  Se  Se19  1  0.17492900  0.58902700  0.45041600  1
  Se  Se20  1  0.17492900  0.91097300  0.95041600  1
  Se  Se21  1  0.32507100  0.08902700  0.45041600  1
  Se  Se22  1  0.67492900  0.58902700  0.04958400  1
  Se  Se23  1  0.82507100  0.41097300  0.54958400  1
  O  O24  1  0.86474600  0.10870700  0.88525200  1
  O  O25  1  0.63525400  0.89129300  0.38525200  1
  O  O26  1  0.36474600  0.39129300  0.11474800  1
  O  O27  1  0.13525400  0.60870700  0.61474800  1
  O  O28  1  0.13525400  0.89129300  0.11474800  1
  O  O29  1  0.36474600  0.10870700  0.61474800  1
  O  O30  1  0.63525400  0.60870700  0.88525200  1
  O  O31  1  0.86474600  0.39129300  0.38525200  1
  O  O32  1  0.77052800  0.95926400  0.05326400  1
  O  O33  1  0.72947200  0.04073600  0.55326400  1
  O  O34  1  0.27052800  0.54073600  0.94673600  1
  O  O35  1  0.22947200  0.45926400  0.44673600  1
  O  O36  1  0.22947200  0.04073600  0.94673600  1
  O  O37  1  0.27052800  0.95926400  0.44673600  1
  O  O38  1  0.72947200  0.45926400  0.05326400  1
  O  O39  1  0.77052800  0.54073600  0.55326400  1
  O  O40  1  0.63812600  0.15145600  0.06741300  1
  O  O41  1  0.86187400  0.84854400  0.56741300  1
  O  O42  1  0.13812600  0.34854400  0.93258700  1
  O  O43  1  0.36187400  0.65145600  0.43258700  1
  O  O44  1  0.36187400  0.84854400  0.93258700  1
  O  O45  1  0.13812600  0.15145600  0.43258700  1
  O  O46  1  0.86187400  0.65145600  0.06741300  1
  O  O47  1  0.63812600  0.34854400  0.56741300  1
  O  O48  1  0.45520000  0.98220000  0.12614200  1
  O  O49  1  0.04480000  0.01780000  0.62614200  1
  O  O50  1  0.95520000  0.51780000  0.87385800  1
  O  O51  1  0.54480000  0.48220000  0.37385800  1
  O  O52  1  0.54480000  0.01780000  0.87385800  1
  O  O53  1  0.95520000  0.98220000  0.37385800  1
  O  O54  1  0.04480000  0.48220000  0.12614200  1
  O  O55  1  0.45520000  0.51780000  0.62614200  1
  O  O56  1  0.32419800  0.16672000  0.16146200  1
  O  O57  1  0.17580200  0.83328000  0.66146200  1
  O  O58  1  0.82419800  0.33328000  0.83853800  1
  O  O59  1  0.67580200  0.66672000  0.33853800  1
  O  O60  1  0.67580200  0.83328000  0.83853800  1
  O  O61  1  0.82419800  0.16672000  0.33853800  1
  O  O62  1  0.17580200  0.66672000  0.16146200  1
  O  O63  1  0.32419800  0.33328000  0.66146200  1
  F  F64  1  0.40257800  0.19941200  0.89917000  1
  F  F65  1  0.09742200  0.80058800  0.39917000  1
  F  F66  1  0.90257800  0.30058800  0.10083000  1
  F  F67  1  0.59742200  0.69941200  0.60083000  1
  F  F68  1  0.59742200  0.80058800  0.10083000  1
  F  F69  1  0.90257800  0.19941200  0.60083000  1
  F  F70  1  0.09742200  0.69941200  0.89917000  1
  F  F71  1  0.40257800  0.30058800  0.39917000  1
