# generated using pymatgen
data_AlH6C2SeCl3
_symmetry_space_group_name_H-M   'P 1'
_cell_length_a   6.60685600
_cell_length_b   11.01103800
_cell_length_c   13.42708200
_cell_angle_alpha   90.00000000
_cell_angle_beta   90.00000000
_cell_angle_gamma   90.00000000
_symmetry_Int_Tables_number   1
_chemical_formula_structural   AlH6C2SeCl3
_chemical_formula_sum   'Al4 H24 C8 Se4 Cl12'
_cell_volume   976.79795980
_cell_formula_units_Z   4
loop_
 _symmetry_equiv_pos_site_id
 _symmetry_equiv_pos_as_xyz
  1  'x, y, z'
loop_
 _atom_site_type_symbol
 _atom_site_label
 _atom_site_symmetry_multiplicity
 _atom_site_fract_x
 _atom_site_fract_y
 _atom_site_fract_z
 _atom_site_occupancy
  Al  Al0  1  0.43760600  0.75000000  0.94217500  1
  Al  Al1  1  0.56239400  0.25000000  0.05782500  1
  Al  Al2  1  0.43760600  0.25000000  0.55782500  1
  Al  Al3  1  0.56239400  0.75000000  0.44217500  1
  H  H4  1  0.04405800  0.87872300  0.07883600  1
  H  H5  1  0.95594200  0.37872300  0.92116400  1
  H  H6  1  0.04405800  0.12127700  0.42116400  1
  H  H7  1  0.95594200  0.62127700  0.57883600  1
  H  H8  1  0.95594200  0.12127700  0.92116400  1
  H  H9  1  0.04405800  0.62127700  0.07883600  1
  H  H10  1  0.95594200  0.87872300  0.57883600  1
  H  H11  1  0.04405800  0.37872300  0.42116400  1
  H  H12  1  0.24549500  0.96847300  0.13191400  1
  H  H13  1  0.75450500  0.46847300  0.86808600  1
  H  H14  1  0.24549500  0.03152700  0.36808600  1
  H  H15  1  0.75450500  0.53152700  0.63191400  1
  H  H16  1  0.75450500  0.03152700  0.86808600  1
  H  H17  1  0.24549500  0.53152700  0.13191400  1
  H  H18  1  0.75450500  0.96847300  0.63191400  1
  H  H19  1  0.24549500  0.46847300  0.36808600  1
  H  H20  1  0.08986800  0.87514000  0.21186000  1
  H  H21  1  0.91013200  0.37514000  0.78814000  1
  H  H22  1  0.08986800  0.12486000  0.28814000  1
  H  H23  1  0.91013200  0.62486000  0.71186000  1
  H  H24  1  0.91013200  0.12486000  0.78814000  1
  H  H25  1  0.08986800  0.62486000  0.21186000  1
  H  H26  1  0.91013200  0.87514000  0.71186000  1
  H  H27  1  0.08986800  0.37514000  0.28814000  1
  C  C28  1  0.15815600  0.88429400  0.13780500  1
  C  C29  1  0.84184400  0.38429400  0.86219500  1
  C  C30  1  0.15815600  0.11570600  0.36219500  1
  C  C31  1  0.84184400  0.61570600  0.63780500  1
  C  C32  1  0.84184400  0.11570600  0.86219500  1
  C  C33  1  0.15815600  0.61570600  0.13780500  1
  C  C34  1  0.84184400  0.88429400  0.63780500  1
  C  C35  1  0.15815600  0.38429400  0.36219500  1
  Se  Se36  1  0.35248700  0.75000000  0.12684600  1
  Se  Se37  1  0.64751300  0.25000000  0.87315400  1
  Se  Se38  1  0.35248700  0.25000000  0.37315400  1
  Se  Se39  1  0.64751300  0.75000000  0.62684600  1
  Cl  Cl40  1  0.76192400  0.75000000  0.93400300  1
  Cl  Cl41  1  0.23807600  0.25000000  0.06599700  1
  Cl  Cl42  1  0.76192400  0.25000000  0.56599700  1
  Cl  Cl43  1  0.23807600  0.75000000  0.43400300  1
  Cl  Cl44  1  0.31614600  0.58602600  0.88187900  1
  Cl  Cl45  1  0.68385400  0.08602600  0.11812100  1
  Cl  Cl46  1  0.31614600  0.41397400  0.61812100  1
  Cl  Cl47  1  0.68385400  0.91397400  0.38187900  1
  Cl  Cl48  1  0.68385400  0.41397400  0.11812100  1
  Cl  Cl49  1  0.31614600  0.91397400  0.88187900  1
  Cl  Cl50  1  0.68385400  0.58602600  0.38187900  1
  Cl  Cl51  1  0.31614600  0.08602600  0.61812100  1
