# generated using pymatgen
data_LuAu4
_symmetry_space_group_name_H-M   'P 1'
_cell_length_a   5.21177079
_cell_length_b   5.21177079
_cell_length_c   5.21177079
_cell_angle_alpha   99.26758278
_cell_angle_beta   99.26758278
_cell_angle_gamma   132.68046880
_symmetry_Int_Tables_number   1
_chemical_formula_structural   LuAu4
_chemical_formula_sum   'Lu1 Au4'
_cell_volume   95.32319197
_cell_formula_units_Z   1
loop_
 _symmetry_equiv_pos_site_id
 _symmetry_equiv_pos_as_xyz
  1  'x, y, z'
loop_
 _atom_site_type_symbol
 _atom_site_label
 _atom_site_symmetry_multiplicity
 _atom_site_fract_x
 _atom_site_fract_y
 _atom_site_fract_z
 _atom_site_occupancy
  Lu  Lu0  1  0.00000000  0.00000000  0.00000000  1
  Au  Au1  1  0.60011300  0.20037500  0.80048900  1
  Au  Au2  1  0.39988700  0.79962500  0.19951100  1
  Au  Au3  1  0.20037500  0.39988700  0.60026200  1
  Au  Au4  1  0.79962500  0.60011300  0.39973800  1
