# generated using pymatgen
data_Sr10In17Au27
_symmetry_space_group_name_H-M   'P 1'
_cell_length_a   4.75191700
_cell_length_b   9.15209700
_cell_length_c   30.06357032
_cell_angle_alpha   89.61341274
_cell_angle_beta   90.00000000
_cell_angle_gamma   90.00000000
_symmetry_Int_Tables_number   1
_chemical_formula_structural   Sr10In17Au27
_chemical_formula_sum   'Sr10 In17 Au27'
_cell_volume   1307.43507207
_cell_formula_units_Z   1
loop_
 _symmetry_equiv_pos_site_id
 _symmetry_equiv_pos_as_xyz
  1  'x, y, z'
loop_
 _atom_site_type_symbol
 _atom_site_label
 _atom_site_symmetry_multiplicity
 _atom_site_fract_x
 _atom_site_fract_y
 _atom_site_fract_z
 _atom_site_occupancy
  Sr  Sr0  1  0.50000000  0.33097700  0.25187900  1
  Sr  Sr1  1  0.00000000  0.66249700  0.75001200  1
  Sr  Sr2  1  0.50000000  0.20081600  0.87588800  1
  Sr  Sr3  1  0.50000000  0.20093400  0.62387600  1
  Sr  Sr4  1  0.00000000  0.80029500  0.12453600  1
  Sr  Sr5  1  0.00000000  0.80914000  0.37146500  1
  Sr  Sr6  1  0.50000000  0.31505700  0.48426600  1
  Sr  Sr7  1  0.50000000  0.31528600  0.01561400  1
  Sr  Sr8  1  0.00000000  0.68438400  0.51481400  1
  Sr  Sr9  1  0.00000000  0.68371200  0.98467800  1
  In  In10  1  0.50000000  0.43153600  0.36897200  1
  In  In11  1  0.50000000  0.42972900  0.13188300  1
  In  In12  1  0.00000000  0.57061400  0.63095900  1
  In  In13  1  0.00000000  0.57066200  0.86896500  1
  In  In14  1  0.50000000  0.27245700  0.75016400  1
  In  In15  1  0.00000000  0.72973900  0.25068800  1
  In  In16  1  0.50000000  0.93549800  0.46507900  1
  In  In17  1  0.50000000  0.93605100  0.03544900  1
  In  In18  1  0.00000000  0.06438000  0.53515300  1
  In  In19  1  0.00000000  0.06444400  0.96464200  1
  In  In20  1  0.50000000  0.80851700  0.83907500  1
  In  In21  1  0.50000000  0.80899200  0.66109700  1
  In  In22  1  0.00000000  0.19049000  0.16152900  1
  In  In23  1  0.00000000  0.17924000  0.33606400  1
  In  In24  1  0.50000000  0.96705800  0.20290500  1
  In  In25  1  0.00000000  0.02858300  0.69867700  1
  In  In26  1  0.00000000  0.02960100  0.80124300  1
  Au  Au27  1  0.50000000  0.11669300  0.38601700  1
  Au  Au28  1  0.50000000  0.11176000  0.11604600  1
  Au  Au29  1  0.00000000  0.88578600  0.61473300  1
  Au  Au30  1  0.00000000  0.88589100  0.88529400  1
  Au  Au31  1  0.50000000  0.64720500  0.43872300  1
  Au  Au32  1  0.50000000  0.64569400  0.06118400  1
  Au  Au33  1  0.00000000  0.35395000  0.56091200  1
  Au  Au34  1  0.00000000  0.35423200  0.93884700  1
  Au  Au35  1  0.50000000  0.51308200  0.81496000  1
  Au  Au36  1  0.50000000  0.51282900  0.68518100  1
  Au  Au37  1  0.00000000  0.48782600  0.18507200  1
  Au  Au38  1  0.00000000  0.48371800  0.31547800  1
  Au  Au39  1  0.50000000  0.66664700  0.30306100  1
  Au  Au40  1  0.50000000  0.66714700  0.19529900  1
  Au  Au41  1  0.00000000  0.33176500  0.69552600  1
  Au  Au42  1  0.00000000  0.33230600  0.80479300  1
  Au  Au43  1  0.50000000  0.53059700  0.92515700  1
  Au  Au44  1  0.50000000  0.52976500  0.57458600  1
  Au  Au45  1  0.00000000  0.46818900  0.07512100  1
  Au  Au46  1  0.00000000  0.47252000  0.42483000  1
  Au  Au47  1  0.50000000  0.94689400  0.75015800  1
  Au  Au48  1  0.00000000  0.05507700  0.24832100  1
  Au  Au49  1  0.50000000  0.90352400  0.94006600  1
  Au  Au50  1  0.50000000  0.90372400  0.55998100  1
  Au  Au51  1  0.00000000  0.09623500  0.05992000  1
  Au  Au52  1  0.00000000  0.09533400  0.43992000  1
  Au  Au53  1  0.50000000  0.98092300  0.30124300  1
