# generated using pymatgen
data_SrCaCrF7
_symmetry_space_group_name_H-M   'P 1'
_cell_length_a   7.41077100
_cell_length_b   8.09472900
_cell_length_c   10.01235800
_cell_angle_alpha   90.00000000
_cell_angle_beta   90.00000000
_cell_angle_gamma   90.00000000
_symmetry_Int_Tables_number   1
_chemical_formula_structural   SrCaCrF7
_chemical_formula_sum   'Sr4 Ca4 Cr4 F28'
_cell_volume   600.62316323
_cell_formula_units_Z   4
loop_
 _symmetry_equiv_pos_site_id
 _symmetry_equiv_pos_as_xyz
  1  'x, y, z'
loop_
 _atom_site_type_symbol
 _atom_site_label
 _atom_site_symmetry_multiplicity
 _atom_site_fract_x
 _atom_site_fract_y
 _atom_site_fract_z
 _atom_site_occupancy
  Sr  Sr0  1  0.25000000  0.80327100  0.39429800  1
  Sr  Sr1  1  0.75000000  0.19672900  0.60570200  1
  Sr  Sr2  1  0.75000000  0.69672900  0.89429800  1
  Sr  Sr3  1  0.25000000  0.30327100  0.10570200  1
  Ca  Ca4  1  0.25000000  0.61866300  0.74337200  1
  Ca  Ca5  1  0.75000000  0.38133700  0.25662800  1
  Ca  Ca6  1  0.75000000  0.88133700  0.24337200  1
  Ca  Ca7  1  0.25000000  0.11866300  0.75662800  1
  Cr  Cr8  1  0.25000000  0.81464600  0.05475400  1
  Cr  Cr9  1  0.75000000  0.18535400  0.94524600  1
  Cr  Cr10  1  0.75000000  0.68535400  0.55475400  1
  Cr  Cr11  1  0.25000000  0.31464600  0.44524600  1
  F  F12  1  0.25000000  0.60136400  0.13736700  1
  F  F13  1  0.75000000  0.39863600  0.86263300  1
  F  F14  1  0.75000000  0.89863600  0.63736700  1
  F  F15  1  0.25000000  0.10136400  0.36263300  1
  F  F16  1  0.25000000  0.53673800  0.52170800  1
  F  F17  1  0.75000000  0.46326200  0.47829200  1
  F  F18  1  0.75000000  0.96326200  0.02170800  1
  F  F19  1  0.25000000  0.03673800  0.97829200  1
  F  F20  1  0.07712300  0.74101300  0.91985800  1
  F  F21  1  0.92287700  0.25898700  0.08014200  1
  F  F22  1  0.92287700  0.75898700  0.41985800  1
  F  F23  1  0.57712300  0.25898700  0.08014200  1
  F  F24  1  0.07712300  0.24101300  0.58014200  1
  F  F25  1  0.42287700  0.74101300  0.91985800  1
  F  F26  1  0.42287700  0.24101300  0.58014200  1
  F  F27  1  0.57712300  0.75898700  0.41985800  1
  F  F28  1  0.25000000  0.87391900  0.64142500  1
  F  F29  1  0.75000000  0.12608100  0.35857500  1
  F  F30  1  0.75000000  0.62608100  0.14142500  1
  F  F31  1  0.25000000  0.37391900  0.85857500  1
  F  F32  1  0.56559600  0.62133800  0.68467500  1
  F  F33  1  0.43440400  0.37866200  0.31532500  1
  F  F34  1  0.43440400  0.87866200  0.18467500  1
  F  F35  1  0.06559600  0.37866200  0.31532500  1
  F  F36  1  0.56559600  0.12133800  0.81532500  1
  F  F37  1  0.93440400  0.62133800  0.68467500  1
  F  F38  1  0.93440400  0.12133800  0.81532500  1
  F  F39  1  0.06559600  0.87866200  0.18467500  1
