# generated using pymatgen
data_Ce3GeS2
_symmetry_space_group_name_H-M   'P 1'
_cell_length_a   7.11072830
_cell_length_b   7.11072830
_cell_length_c   7.11072830
_cell_angle_alpha   146.30889438
_cell_angle_beta   131.78425133
_cell_angle_gamma   60.10792798
_symmetry_Int_Tables_number   1
_chemical_formula_structural   Ce3GeS2
_chemical_formula_sum   'Ce3 Ge1 S2'
_cell_volume   147.34291749
_cell_formula_units_Z   1
loop_
 _symmetry_equiv_pos_site_id
 _symmetry_equiv_pos_as_xyz
  1  'x, y, z'
loop_
 _atom_site_type_symbol
 _atom_site_label
 _atom_site_symmetry_multiplicity
 _atom_site_fract_x
 _atom_site_fract_y
 _atom_site_fract_z
 _atom_site_occupancy
  Ce  Ce0  1  0.32815400  0.32815400  0.00000000  1
  Ce  Ce1  1  0.00000000  0.00000000  0.00000000  1
  Ce  Ce2  1  0.67184600  0.67184600  0.00000000  1
  Ge  Ge3  1  0.50000000  0.00000000  0.50000000  1
  S  S4  1  0.16502600  0.66502600  0.50000000  1
  S  S5  1  0.83497400  0.33497400  0.50000000  1
