# generated using pymatgen
data_YbAlRh
_symmetry_space_group_name_H-M   'P 1'
_cell_length_a   4.06777700
_cell_length_b   7.06940400
_cell_length_c   7.88512600
_cell_angle_alpha   90.00000000
_cell_angle_beta   90.00000000
_cell_angle_gamma   90.00000000
_symmetry_Int_Tables_number   1
_chemical_formula_structural   YbAlRh
_chemical_formula_sum   'Yb4 Al4 Rh4'
_cell_volume   226.75066803
_cell_formula_units_Z   4
loop_
 _symmetry_equiv_pos_site_id
 _symmetry_equiv_pos_as_xyz
  1  'x, y, z'
loop_
 _atom_site_type_symbol
 _atom_site_label
 _atom_site_symmetry_multiplicity
 _atom_site_fract_x
 _atom_site_fract_y
 _atom_site_fract_z
 _atom_site_occupancy
  Yb  Yb0  1  0.75000000  0.97053700  0.32685900  1
  Yb  Yb1  1  0.25000000  0.02946300  0.67314100  1
  Yb  Yb2  1  0.25000000  0.52946300  0.82685900  1
  Yb  Yb3  1  0.75000000  0.47053700  0.17314100  1
  Al  Al4  1  0.75000000  0.86366300  0.94000100  1
  Al  Al5  1  0.25000000  0.13633700  0.05999900  1
  Al  Al6  1  0.25000000  0.63633700  0.44000100  1
  Al  Al7  1  0.75000000  0.36366300  0.55999900  1
  Rh  Rh8  1  0.75000000  0.71776400  0.62547800  1
  Rh  Rh9  1  0.25000000  0.28223600  0.37452200  1
  Rh  Rh10  1  0.25000000  0.78223600  0.12547800  1
  Rh  Rh11  1  0.75000000  0.21776400  0.87452200  1
