# generated using pymatgen
data_Ca2Ga7Ag
_symmetry_space_group_name_H-M   'P 1'
_cell_length_a   4.31465300
_cell_length_b   4.31465300
_cell_length_c   11.07144000
_cell_angle_alpha   90.00000000
_cell_angle_beta   90.00000000
_cell_angle_gamma   90.00000000
_symmetry_Int_Tables_number   1
_chemical_formula_structural   Ca2Ga7Ag
_chemical_formula_sum   'Ca2 Ga7 Ag1'
_cell_volume   206.10847912
_cell_formula_units_Z   1
loop_
 _symmetry_equiv_pos_site_id
 _symmetry_equiv_pos_as_xyz
  1  'x, y, z'
loop_
 _atom_site_type_symbol
 _atom_site_label
 _atom_site_symmetry_multiplicity
 _atom_site_fract_x
 _atom_site_fract_y
 _atom_site_fract_z
 _atom_site_occupancy
  Ca  Ca0  1  0.50000000  0.00000000  0.75002000  1
  Ca  Ca1  1  0.00000000  0.50000000  0.24998000  1
  Ga  Ga2  1  0.00000000  0.50000000  0.86149000  1
  Ga  Ga3  1  0.50000000  0.00000000  0.36233900  1
  Ga  Ga4  1  0.50000000  0.00000000  0.13851000  1
  Ga  Ga5  1  0.00000000  0.50000000  0.63766100  1
  Ga  Ga6  1  0.00000000  0.00000000  0.50000000  1
  Ga  Ga7  1  0.00000000  0.00000000  0.00000000  1
  Ga  Ga8  1  0.50000000  0.50000000  0.50000000  1
  Ag  Ag9  1  0.50000000  0.50000000  0.00000000  1
