# generated using pymatgen
data_Pr8Br13N3O
_symmetry_space_group_name_H-M   'P 1'
_cell_length_a   11.93584412
_cell_length_b   11.93584412
_cell_length_c   17.13769771
_cell_angle_alpha   62.85057910
_cell_angle_beta   62.85057910
_cell_angle_gamma   41.91540848
_symmetry_Int_Tables_number   1
_chemical_formula_structural   Pr8Br13N3O
_chemical_formula_sum   'Pr16 Br26 N6 O2'
_cell_volume   1423.03334800
_cell_formula_units_Z   2
loop_
 _symmetry_equiv_pos_site_id
 _symmetry_equiv_pos_as_xyz
  1  'x, y, z'
loop_
 _atom_site_type_symbol
 _atom_site_label
 _atom_site_symmetry_multiplicity
 _atom_site_fract_x
 _atom_site_fract_y
 _atom_site_fract_z
 _atom_site_occupancy
  Pr  Pr0  1  0.79836900  0.93962500  0.44467100  1
  Pr  Pr1  1  0.05438700  0.20489000  0.05565700  1
  Pr  Pr2  1  0.20489000  0.05438700  0.55565700  1
  Pr  Pr3  1  0.93962500  0.79836900  0.94467100  1
  Pr  Pr4  1  0.50983400  0.95442000  0.11201300  1
  Pr  Pr5  1  0.04567200  0.50060700  0.38577600  1
  Pr  Pr6  1  0.50060700  0.04567200  0.88577600  1
  Pr  Pr7  1  0.95442000  0.50983400  0.61201300  1
  Pr  Pr8  1  0.90124300  0.97247800  0.11263100  1
  Pr  Pr9  1  0.02740100  0.09878800  0.38647600  1
  Pr  Pr10  1  0.09878800  0.02740100  0.88647600  1
  Pr  Pr11  1  0.97247800  0.90124300  0.61263100  1
  Pr  Pr12  1  0.39091800  0.75119000  0.05998900  1
  Pr  Pr13  1  0.24506000  0.60789100  0.44076700  1
  Pr  Pr14  1  0.60789100  0.24506000  0.94076700  1
  Pr  Pr15  1  0.75119000  0.39091800  0.55998900  1
  Br  Br16  1  0.37354900  0.77523000  0.27159700  1
  Br  Br17  1  0.22582400  0.62561000  0.22673000  1
  Br  Br18  1  0.62561000  0.22582400  0.72673000  1
  Br  Br19  1  0.77523000  0.37354900  0.77159700  1
  Br  Br20  1  0.39688700  0.24756700  0.43774500  1
  Br  Br21  1  0.74845200  0.60464100  0.06241700  1
  Br  Br22  1  0.60464100  0.74845200  0.56241700  1
  Br  Br23  1  0.24756700  0.39688700  0.93774500  1
  Br  Br24  1  0.29479500  0.10511600  0.36162300  1
  Br  Br25  1  0.89405200  0.70449200  0.13936400  1
  Br  Br26  1  0.70449200  0.89405200  0.63936400  1
  Br  Br27  1  0.10511600  0.29479500  0.86162300  1
  Br  Br28  1  0.63694100  0.29479700  0.47141100  1
  Br  Br29  1  0.70635500  0.36339400  0.02943100  1
  Br  Br30  1  0.36339400  0.70635500  0.52943100  1
  Br  Br31  1  0.29479700  0.63694100  0.97141100  1
  Br  Br32  1  0.86896900  0.13176300  0.24945000  1
  Br  Br33  1  0.13176300  0.86896900  0.74945000  1
  Br  Br34  1  0.75644700  0.87214600  0.31574500  1
  Br  Br35  1  0.12878100  0.24257900  0.18264400  1
  Br  Br36  1  0.24257900  0.12878100  0.68264400  1
  Br  Br37  1  0.87214600  0.75644700  0.81574500  1
  Br  Br38  1  0.50112200  0.19649300  0.13769200  1
  Br  Br39  1  0.80365000  0.49861900  0.36396900  1
  Br  Br40  1  0.49861900  0.80365000  0.86396900  1
  Br  Br41  1  0.19649300  0.50112200  0.63769200  1
  N  N42  1  0.01010600  0.63433000  0.46892700  1
  N  N43  1  0.63433000  0.01010600  0.96892700  1
  N  N44  1  0.11564200  0.98147700  0.03632000  1
  N  N45  1  0.01860500  0.88626300  0.46482300  1
  N  N46  1  0.88626300  0.01860500  0.96482300  1
  N  N47  1  0.98147700  0.11564200  0.53632000  1
  O  O48  1  0.36316200  0.98937100  0.03213100  1
  O  O49  1  0.98937100  0.36316200  0.53213100  1
