# generated using pymatgen
data_DyFe2
_symmetry_space_group_name_H-M   'P 1'
_cell_length_a   5.13673479
_cell_length_b   5.13673479
_cell_length_c   5.13673479
_cell_angle_alpha   60.00000000
_cell_angle_beta   60.00000000
_cell_angle_gamma   60.00000000
_symmetry_Int_Tables_number   1
_chemical_formula_structural   DyFe2
_chemical_formula_sum   'Dy2 Fe4'
_cell_volume   95.83991767
_cell_formula_units_Z   2
loop_
 _symmetry_equiv_pos_site_id
 _symmetry_equiv_pos_as_xyz
  1  'x, y, z'
loop_
 _atom_site_type_symbol
 _atom_site_label
 _atom_site_symmetry_multiplicity
 _atom_site_fract_x
 _atom_site_fract_y
 _atom_site_fract_z
 _atom_site_occupancy
  Dy  Dy0  1  0.00000000  0.00000000  0.00000000  1
  Dy  Dy1  1  0.25000000  0.25000000  0.25000000  1
  Fe  Fe2  1  0.62500000  0.62500000  0.62500000  1
  Fe  Fe3  1  0.12500000  0.62500000  0.62500000  1
  Fe  Fe4  1  0.62500000  0.12500000  0.62500000  1
  Fe  Fe5  1  0.62500000  0.62500000  0.12500000  1
