# generated using pymatgen
data_Eu2InPt2
_symmetry_space_group_name_H-M   'P 1'
_cell_length_a   5.90638868
_cell_length_b   5.90638868
_cell_length_c   8.40391048
_cell_angle_alpha   77.72207193
_cell_angle_beta   77.72207193
_cell_angle_gamma   59.70485459
_symmetry_Int_Tables_number   1
_chemical_formula_structural   Eu2InPt2
_chemical_formula_sum   'Eu4 In2 Pt4'
_cell_volume   245.41078520
_cell_formula_units_Z   2
loop_
 _symmetry_equiv_pos_site_id
 _symmetry_equiv_pos_as_xyz
  1  'x, y, z'
loop_
 _atom_site_type_symbol
 _atom_site_label
 _atom_site_symmetry_multiplicity
 _atom_site_fract_x
 _atom_site_fract_y
 _atom_site_fract_z
 _atom_site_occupancy
  Eu  Eu0  1  0.79138300  0.50432600  0.35221300  1
  Eu  Eu1  1  0.49567400  0.20861700  0.14778700  1
  Eu  Eu2  1  0.20861700  0.49567400  0.64778700  1
  Eu  Eu3  1  0.50432600  0.79138300  0.85221300  1
  In  In4  1  0.14605000  0.85395000  0.25000000  1
  In  In5  1  0.85395000  0.14605000  0.75000000  1
  Pt  Pt6  1  0.00041500  0.72600000  0.00261000  1
  Pt  Pt7  1  0.27400000  0.99958500  0.49739000  1
  Pt  Pt8  1  0.99958500  0.27400000  0.99739000  1
  Pt  Pt9  1  0.72600000  0.00041500  0.50261000  1
