# generated using pymatgen
data_Th4P6PbO24
_symmetry_space_group_name_H-M   'P 1'
_cell_length_a   6.91175400
_cell_length_b   8.22878291
_cell_length_c   9.45045494
_cell_angle_alpha   100.83002049
_cell_angle_beta   111.14272300
_cell_angle_gamma   90.02691838
_symmetry_Int_Tables_number   1
_chemical_formula_structural   Th4P6PbO24
_chemical_formula_sum   'Th4 P6 Pb1 O24'
_cell_volume   491.01882966
_cell_formula_units_Z   1
loop_
 _symmetry_equiv_pos_site_id
 _symmetry_equiv_pos_as_xyz
  1  'x, y, z'
loop_
 _atom_site_type_symbol
 _atom_site_label
 _atom_site_symmetry_multiplicity
 _atom_site_fract_x
 _atom_site_fract_y
 _atom_site_fract_z
 _atom_site_occupancy
  Th  Th0  1  0.75482900  0.46619400  0.69368300  1
  Th  Th1  1  0.06712100  0.03504100  0.31080500  1
  Th  Th2  1  0.24890100  0.53898600  0.30209000  1
  Th  Th3  1  0.94048700  0.95783500  0.68720200  1
  P  P4  1  0.09436400  0.24859600  0.99954700  1
  P  P5  1  0.90216100  0.75048600  0.99724900  1
  P  P6  1  0.59836700  0.18561100  0.37555100  1
  P  P7  1  0.22292300  0.31528500  0.62427600  1
  P  P8  1  0.40096400  0.81451500  0.62533900  1
  P  P9  1  0.77679000  0.68362000  0.37444300  1
  Pb  Pb10  1  0.57177700  0.13136400  0.95252400  1
  O  O11  1  0.72815800  0.15614700  0.27093500  1
  O  O12  1  0.45671100  0.33671300  0.72401100  1
  O  O13  1  0.27030200  0.84966000  0.72766500  1
  O  O14  1  0.54332600  0.65728600  0.28245300  1
  O  O15  1  0.72783100  0.16771700  0.54493300  1
  O  O16  1  0.18017300  0.32995200  0.45349400  1
  O  O17  1  0.27724400  0.83167500  0.45505600  1
  O  O18  1  0.82258800  0.67085300  0.54780800  1
  O  O19  1  0.54943900  0.37296700  0.40330000  1
  O  O20  1  0.14841100  0.12696900  0.60017900  1
  O  O21  1  0.45266700  0.62920100  0.59982300  1
  O  O22  1  0.85410600  0.87177400  0.40132500  1
  O  O23  1  0.23885000  0.40752500  0.04939600  1
  O  O24  1  0.19787000  0.09275300  0.94707300  1
  O  O25  1  0.76393400  0.58792600  0.94734100  1
  O  O26  1  0.80659700  0.91399400  0.04654600  1
  O  O27  1  0.39566600  0.07417200  0.30563500  1
  O  O28  1  0.08981500  0.42665500  0.69493900  1
  O  O29  1  0.60004800  0.93390200  0.70264200  1
  O  O30  1  0.91084200  0.57209400  0.30549400  1
  O  O31  1  0.88951100  0.24506800  0.85557100  1
  O  O32  1  0.03412000  0.23994900  0.14186300  1
  O  O33  1  0.09627800  0.75244600  0.14711400  1
  O  O34  1  0.95412700  0.75796800  0.85129300  1
