# generated using pymatgen
data_Tb3Ge4
_symmetry_space_group_name_H-M   'P 1'
_cell_length_a   5.74966517
_cell_length_b   5.74966517
_cell_length_c   14.36228900
_cell_angle_alpha   90.00000000
_cell_angle_beta   90.00000000
_cell_angle_gamma   138.33311578
_symmetry_Int_Tables_number   1
_chemical_formula_structural   Tb3Ge4
_chemical_formula_sum   'Tb6 Ge8'
_cell_volume   315.64501373
_cell_formula_units_Z   2
loop_
 _symmetry_equiv_pos_site_id
 _symmetry_equiv_pos_as_xyz
  1  'x, y, z'
loop_
 _atom_site_type_symbol
 _atom_site_label
 _atom_site_symmetry_multiplicity
 _atom_site_fract_x
 _atom_site_fract_y
 _atom_site_fract_z
 _atom_site_occupancy
  Tb  Tb0  1  0.66800000  0.33200000  0.09684900  1
  Tb  Tb1  1  0.33200000  0.66800000  0.90315100  1
  Tb  Tb2  1  0.33200000  0.66800000  0.59684900  1
  Tb  Tb3  1  0.66800000  0.33200000  0.40315100  1
  Tb  Tb4  1  0.95198700  0.04801300  0.25000000  1
  Tb  Tb5  1  0.04801300  0.95198700  0.75000000  1
  Ge  Ge6  1  0.37861200  0.62138800  0.10867000  1
  Ge  Ge7  1  0.62138800  0.37861200  0.89133000  1
  Ge  Ge8  1  0.62138800  0.37861200  0.60867000  1
  Ge  Ge9  1  0.37861200  0.62138800  0.39133000  1
  Ge  Ge10  1  0.22417300  0.77582700  0.25000000  1
  Ge  Ge11  1  0.77582700  0.22417300  0.75000000  1
  Ge  Ge12  1  0.00000000  0.00000000  0.00000000  1
  Ge  Ge13  1  0.00000000  0.00000000  0.50000000  1
