# generated using pymatgen
data_GdHg3
_symmetry_space_group_name_H-M   'P 1'
_cell_length_a   6.73428398
_cell_length_b   6.73428398
_cell_length_c   5.07666200
_cell_angle_alpha   90.00000000
_cell_angle_beta   90.00000000
_cell_angle_gamma   119.99999983
_symmetry_Int_Tables_number   1
_chemical_formula_structural   GdHg3
_chemical_formula_sum   'Gd2 Hg6'
_cell_volume   199.38465667
_cell_formula_units_Z   2
loop_
 _symmetry_equiv_pos_site_id
 _symmetry_equiv_pos_as_xyz
  1  'x, y, z'
loop_
 _atom_site_type_symbol
 _atom_site_label
 _atom_site_symmetry_multiplicity
 _atom_site_fract_x
 _atom_site_fract_y
 _atom_site_fract_z
 _atom_site_occupancy
  Gd  Gd0  1  0.33333300  0.66666700  0.25000000  1
  Gd  Gd1  1  0.66666700  0.33333300  0.75000000  1
  Hg  Hg2  1  0.83503500  0.16496500  0.25000000  1
  Hg  Hg3  1  0.83503500  0.67007000  0.25000000  1
  Hg  Hg4  1  0.32993000  0.16496500  0.25000000  1
  Hg  Hg5  1  0.16496500  0.83503500  0.75000000  1
  Hg  Hg6  1  0.16496500  0.32993000  0.75000000  1
  Hg  Hg7  1  0.67007000  0.83503500  0.75000000  1
