# generated using pymatgen
data_Ba3Sb2S7
_symmetry_space_group_name_H-M   'P 1'
_cell_length_a   11.19649241
_cell_length_b   11.19649241
_cell_length_c   13.40988778
_cell_angle_alpha   73.33607699
_cell_angle_beta   73.33607699
_cell_angle_gamma   67.48368027
_symmetry_Int_Tables_number   1
_chemical_formula_structural   Ba3Sb2S7
_chemical_formula_sum   'Ba12 Sb8 S28'
_cell_volume   1457.67585431
_cell_formula_units_Z   4
loop_
 _symmetry_equiv_pos_site_id
 _symmetry_equiv_pos_as_xyz
  1  'x, y, z'
loop_
 _atom_site_type_symbol
 _atom_site_label
 _atom_site_symmetry_multiplicity
 _atom_site_fract_x
 _atom_site_fract_y
 _atom_site_fract_z
 _atom_site_occupancy
  Ba  Ba0  1  0.39761900  0.40577800  0.67279600  1
  Ba  Ba1  1  0.59422200  0.60238100  0.82720400  1
  Ba  Ba2  1  0.60238100  0.59422200  0.32720400  1
  Ba  Ba3  1  0.40577800  0.39761900  0.17279600  1
  Ba  Ba4  1  0.89490200  0.89217500  0.67702500  1
  Ba  Ba5  1  0.10782500  0.10509800  0.82297500  1
  Ba  Ba6  1  0.10509800  0.10782500  0.32297500  1
  Ba  Ba7  1  0.89217500  0.89490200  0.17702500  1
  Ba  Ba8  1  0.11364100  0.62375800  0.94315400  1
  Ba  Ba9  1  0.37624200  0.88635900  0.55684600  1
  Ba  Ba10  1  0.88635900  0.37624200  0.05684600  1
  Ba  Ba11  1  0.62375800  0.11364100  0.44315400  1
  Sb  Sb12  1  0.75679800  0.70205500  0.51088200  1
  Sb  Sb13  1  0.29794500  0.24320200  0.98911800  1
  Sb  Sb14  1  0.24320200  0.29794500  0.48911800  1
  Sb  Sb15  1  0.70205500  0.75679800  0.01088200  1
  Sb  Sb16  1  0.86068900  0.30486600  0.59096200  1
  Sb  Sb17  1  0.69513400  0.13931100  0.90903800  1
  Sb  Sb18  1  0.13931100  0.69513400  0.40903800  1
  Sb  Sb19  1  0.30486600  0.86068900  0.09096200  1
  S  S20  1  0.19180600  0.70001200  0.68038000  1
  S  S21  1  0.29998800  0.80819400  0.81962000  1
  S  S22  1  0.80819400  0.29998800  0.31962000  1
  S  S23  1  0.70001200  0.19180600  0.18038000  1
  S  S24  1  0.10749400  0.61126600  0.61342100  1
  S  S25  1  0.38873400  0.89250600  0.88657900  1
  S  S26  1  0.89250600  0.38873400  0.38657900  1
  S  S27  1  0.61126600  0.10749400  0.11342100  1
  S  S28  1  0.15010000  0.35530000  0.86257300  1
  S  S29  1  0.64470000  0.84990000  0.63742700  1
  S  S30  1  0.84990000  0.64470000  0.13742700  1
  S  S31  1  0.35530000  0.15010000  0.36257300  1
  S  S32  1  0.84590300  0.64492400  0.86632600  1
  S  S33  1  0.35507600  0.15409700  0.63367400  1
  S  S34  1  0.15409700  0.35507600  0.13367400  1
  S  S35  1  0.64492400  0.84590300  0.36632600  1
  S  S36  1  0.59361100  0.57820100  0.58461900  1
  S  S37  1  0.42179900  0.40638900  0.91538100  1
  S  S38  1  0.40638900  0.42179900  0.41538100  1
  S  S39  1  0.57820100  0.59361100  0.08461900  1
  S  S40  1  0.05728100  0.10019700  0.58776700  1
  S  S41  1  0.89980300  0.94271900  0.91223300  1
  S  S42  1  0.94271900  0.89980300  0.41223300  1
  S  S43  1  0.10019700  0.05728100  0.08776700  1
  S  S44  1  0.69883400  0.19641400  0.62786100  1
  S  S45  1  0.80358600  0.30116600  0.87213900  1
  S  S46  1  0.30116600  0.80358600  0.37213900  1
  S  S47  1  0.19641400  0.69883400  0.12786100  1
