# generated using pymatgen
data_RhSe2
_symmetry_space_group_name_H-M   'P 1'
_cell_length_a   3.78918300
_cell_length_b   6.02896000
_cell_length_c   21.22295100
_cell_angle_alpha   90.00000000
_cell_angle_beta   90.00000000
_cell_angle_gamma   90.00000000
_symmetry_Int_Tables_number   1
_chemical_formula_structural   RhSe2
_chemical_formula_sum   'Rh8 Se16'
_cell_volume   484.83476584
_cell_formula_units_Z   8
loop_
 _symmetry_equiv_pos_site_id
 _symmetry_equiv_pos_as_xyz
  1  'x, y, z'
loop_
 _atom_site_type_symbol
 _atom_site_label
 _atom_site_symmetry_multiplicity
 _atom_site_fract_x
 _atom_site_fract_y
 _atom_site_fract_z
 _atom_site_occupancy
  Rh  Rh0  1  0.25000000  0.07234200  0.57589200  1
  Rh  Rh1  1  0.25000000  0.42765800  0.07589200  1
  Rh  Rh2  1  0.75000000  0.92765800  0.42410800  1
  Rh  Rh3  1  0.75000000  0.57234200  0.92410800  1
  Rh  Rh4  1  0.25000000  0.05618300  0.80528500  1
  Rh  Rh5  1  0.25000000  0.44381700  0.30528500  1
  Rh  Rh6  1  0.75000000  0.94381700  0.19471500  1
  Rh  Rh7  1  0.75000000  0.55618300  0.69471500  1
  Se  Se8  1  0.25000000  0.42831800  0.86034500  1
  Se  Se9  1  0.25000000  0.07168200  0.36034500  1
  Se  Se10  1  0.75000000  0.57168200  0.13965500  1
  Se  Se11  1  0.75000000  0.92831800  0.63965500  1
  Se  Se12  1  0.75000000  0.17857800  0.73701200  1
  Se  Se13  1  0.75000000  0.32142200  0.23701200  1
  Se  Se14  1  0.25000000  0.82142200  0.26298800  1
  Se  Se15  1  0.25000000  0.67857800  0.76298800  1
  Se  Se16  1  0.75000000  0.95250100  0.87861500  1
  Se  Se17  1  0.75000000  0.54749900  0.37861500  1
  Se  Se18  1  0.25000000  0.04749900  0.12138500  1
  Se  Se19  1  0.25000000  0.45250100  0.62138500  1
  Se  Se20  1  0.75000000  0.22362300  0.50831300  1
  Se  Se21  1  0.75000000  0.27637700  0.00831300  1
  Se  Se22  1  0.25000000  0.77637700  0.49168700  1
  Se  Se23  1  0.25000000  0.72362300  0.99168700  1
