# generated using pymatgen
data_Er5Re2C7
_symmetry_space_group_name_H-M   'P 1'
_cell_length_a   8.26626693
_cell_length_b   8.26626693
_cell_length_c   3.40124200
_cell_angle_alpha   90.00000000
_cell_angle_beta   90.00000000
_cell_angle_gamma   122.37379317
_symmetry_Int_Tables_number   1
_chemical_formula_structural   Er5Re2C7
_chemical_formula_sum   'Er5 Re2 C7'
_cell_volume   196.28790393
_cell_formula_units_Z   1
loop_
 _symmetry_equiv_pos_site_id
 _symmetry_equiv_pos_as_xyz
  1  'x, y, z'
loop_
 _atom_site_type_symbol
 _atom_site_label
 _atom_site_symmetry_multiplicity
 _atom_site_fract_x
 _atom_site_fract_y
 _atom_site_fract_z
 _atom_site_occupancy
  Er  Er0  1  0.50000000  0.50000000  0.00000000  1
  Er  Er1  1  0.07658000  0.33555100  0.50000000  1
  Er  Er2  1  0.92342000  0.66444900  0.50000000  1
  Er  Er3  1  0.66444900  0.92342000  0.50000000  1
  Er  Er4  1  0.33555100  0.07658000  0.50000000  1
  Re  Re5  1  0.71424400  0.28575600  0.00000000  1
  Re  Re6  1  0.28575600  0.71424400  0.00000000  1
  C  C7  1  0.62506500  0.37493500  0.50000000  1
  C  C8  1  0.37493500  0.62506500  0.50000000  1
  C  C9  1  0.00000000  0.00000000  0.00000000  1
  C  C10  1  0.17015900  0.17015900  0.00000000  1
  C  C11  1  0.82984100  0.82984100  0.00000000  1
  C  C12  1  0.00000000  0.50000000  0.00000000  1
  C  C13  1  0.50000000  0.00000000  0.00000000  1
