# generated using pymatgen
data_Ca2CdAs2
_symmetry_space_group_name_H-M   'P 1'
_cell_length_a   8.58287429
_cell_length_b   8.58287429
_cell_length_c   7.18601100
_cell_angle_alpha   90.00000000
_cell_angle_beta   90.00000000
_cell_angle_gamma   150.66691919
_symmetry_Int_Tables_number   1
_chemical_formula_structural   Ca2CdAs2
_chemical_formula_sum   'Ca4 Cd2 As4'
_cell_volume   259.32733613
_cell_formula_units_Z   2
loop_
 _symmetry_equiv_pos_site_id
 _symmetry_equiv_pos_as_xyz
  1  'x, y, z'
loop_
 _atom_site_type_symbol
 _atom_site_label
 _atom_site_symmetry_multiplicity
 _atom_site_fract_x
 _atom_site_fract_y
 _atom_site_fract_z
 _atom_site_occupancy
  Ca  Ca0  1  0.30021800  0.69978200  0.93317000  1
  Ca  Ca1  1  0.69978200  0.30021800  0.43317000  1
  Ca  Ca2  1  0.46804000  0.53196000  0.27170400  1
  Ca  Ca3  1  0.53196000  0.46804000  0.77170400  1
  Cd  Cd4  1  0.09925400  0.90074600  0.10671500  1
  Cd  Cd5  1  0.90074600  0.09925400  0.60671500  1
  As  As6  1  0.06468500  0.93531500  0.48552000  1
  As  As7  1  0.93531500  0.06468500  0.98552000  1
  As  As8  1  0.31891500  0.68108500  0.49844100  1
  As  As9  1  0.68108500  0.31891500  0.99844100  1
