# generated using pymatgen
data_Tb17Mg11Ni8
_symmetry_space_group_name_H-M   'P 1'
_cell_length_a   3.64396700
_cell_length_b   10.94972900
_cell_length_c   21.90459000
_cell_angle_alpha   90.00000000
_cell_angle_beta   90.00000000
_cell_angle_gamma   90.00000000
_symmetry_Int_Tables_number   1
_chemical_formula_structural   Tb17Mg11Ni8
_chemical_formula_sum   'Tb17 Mg11 Ni8'
_cell_volume   874.00302293
_cell_formula_units_Z   1
loop_
 _symmetry_equiv_pos_site_id
 _symmetry_equiv_pos_as_xyz
  1  'x, y, z'
loop_
 _atom_site_type_symbol
 _atom_site_label
 _atom_site_symmetry_multiplicity
 _atom_site_fract_x
 _atom_site_fract_y
 _atom_site_fract_z
 _atom_site_occupancy
  Tb  Tb0  1  0.50000000  0.32417200  0.16213000  1
  Tb  Tb1  1  0.50000000  0.32478100  0.66205900  1
  Tb  Tb2  1  0.50000000  0.67521900  0.33794100  1
  Tb  Tb3  1  0.50000000  0.67582800  0.83787000  1
  Tb  Tb4  1  0.50000000  0.67582800  0.16213000  1
  Tb  Tb5  1  0.50000000  0.67521900  0.66205900  1
  Tb  Tb6  1  0.50000000  0.32478100  0.33794100  1
  Tb  Tb7  1  0.50000000  0.32417200  0.83787000  1
  Tb  Tb8  1  0.50000000  0.00000000  0.13562400  1
  Tb  Tb9  1  0.50000000  0.00000000  0.63334800  1
  Tb  Tb10  1  0.50000000  0.00000000  0.36665200  1
  Tb  Tb11  1  0.50000000  0.00000000  0.86437600  1
  Tb  Tb12  1  0.50000000  0.72875900  0.00000000  1
  Tb  Tb13  1  0.50000000  0.73334500  0.50000000  1
  Tb  Tb14  1  0.50000000  0.27124100  0.00000000  1
  Tb  Tb15  1  0.50000000  0.26665500  0.50000000  1
  Tb  Tb16  1  0.00000000  0.00000000  0.00000000  1
  Mg  Mg17  1  0.00000000  0.50000000  0.07083800  1
  Mg  Mg18  1  0.00000000  0.50000000  0.57083200  1
  Mg  Mg19  1  0.00000000  0.50000000  0.42916800  1
  Mg  Mg20  1  0.00000000  0.50000000  0.92916200  1
  Mg  Mg21  1  0.00000000  0.85835300  0.25017700  1
  Mg  Mg22  1  0.00000000  0.85835300  0.74982300  1
  Mg  Mg23  1  0.00000000  0.14164700  0.25017700  1
  Mg  Mg24  1  0.00000000  0.14164700  0.74982300  1
  Mg  Mg25  1  0.00000000  0.50000000  0.25007800  1
  Mg  Mg26  1  0.00000000  0.50000000  0.74992200  1
  Mg  Mg27  1  0.00000000  0.00000000  0.50000000  1
  Ni  Ni28  1  0.00000000  0.19030700  0.09525900  1
  Ni  Ni29  1  0.00000000  0.19014100  0.59516100  1
  Ni  Ni30  1  0.00000000  0.80985900  0.40483900  1
  Ni  Ni31  1  0.00000000  0.80969300  0.90474100  1
  Ni  Ni32  1  0.00000000  0.80969300  0.09525900  1
  Ni  Ni33  1  0.00000000  0.80985900  0.59516100  1
  Ni  Ni34  1  0.00000000  0.19014100  0.40483900  1
  Ni  Ni35  1  0.00000000  0.19030700  0.90474100  1
