# generated using pymatgen
data_Ho3(SbPd2)4
_symmetry_space_group_name_H-M   'P 1'
_cell_length_a   9.36536627
_cell_length_b   9.36536627
_cell_length_c   9.36536627
_cell_angle_alpha   60.00000000
_cell_angle_beta   60.00000000
_cell_angle_gamma   60.00000000
_symmetry_Int_Tables_number   1
_chemical_formula_structural   Ho3(SbPd2)4
_chemical_formula_sum   'Ho6 Sb8 Pd16'
_cell_volume   580.84372668
_cell_formula_units_Z   2
loop_
 _symmetry_equiv_pos_site_id
 _symmetry_equiv_pos_as_xyz
  1  'x, y, z'
loop_
 _atom_site_type_symbol
 _atom_site_label
 _atom_site_symmetry_multiplicity
 _atom_site_fract_x
 _atom_site_fract_y
 _atom_site_fract_z
 _atom_site_occupancy
  Ho  Ho0  1  0.72440000  0.27560000  0.27560000  1
  Ho  Ho1  1  0.27560000  0.72440000  0.72440000  1
  Ho  Ho2  1  0.27560000  0.72440000  0.27560000  1
  Ho  Ho3  1  0.72440000  0.27560000  0.72440000  1
  Ho  Ho4  1  0.27560000  0.27560000  0.72440000  1
  Ho  Ho5  1  0.72440000  0.72440000  0.27560000  1
  Sb  Sb6  1  0.00000000  0.00000000  0.00000000  1
  Sb  Sb7  1  0.50000000  0.00000000  0.00000000  1
  Sb  Sb8  1  0.00000000  0.50000000  0.50000000  1
  Sb  Sb9  1  0.00000000  0.50000000  0.00000000  1
  Sb  Sb10  1  0.50000000  0.00000000  0.50000000  1
  Sb  Sb11  1  0.00000000  0.00000000  0.50000000  1
  Sb  Sb12  1  0.50000000  0.50000000  0.00000000  1
  Sb  Sb13  1  0.50000000  0.50000000  0.50000000  1
  Pd  Pd14  1  0.11876500  0.11876500  0.11876500  1
  Pd  Pd15  1  0.88123500  0.88123500  0.88123500  1
  Pd  Pd16  1  0.11876500  0.11876500  0.64370400  1
  Pd  Pd17  1  0.11876500  0.64370400  0.11876500  1
  Pd  Pd18  1  0.88123500  0.88123500  0.35629600  1
  Pd  Pd19  1  0.88123500  0.35629600  0.88123500  1
  Pd  Pd20  1  0.64370400  0.11876500  0.11876500  1
  Pd  Pd21  1  0.35629600  0.88123500  0.88123500  1
  Pd  Pd22  1  0.33368200  0.33368200  0.33368200  1
  Pd  Pd23  1  0.66631800  0.66631800  0.66631800  1
  Pd  Pd24  1  0.33368200  0.33368200  0.99895400  1
  Pd  Pd25  1  0.33368200  0.99895400  0.33368200  1
  Pd  Pd26  1  0.66631800  0.66631800  0.00104600  1
  Pd  Pd27  1  0.66631800  0.00104600  0.66631800  1
  Pd  Pd28  1  0.99895400  0.33368200  0.33368200  1
  Pd  Pd29  1  0.00104600  0.66631800  0.66631800  1
