# generated using pymatgen
data_PrGa
_symmetry_space_group_name_H-M   'P 1'
_cell_length_a   6.15225847
_cell_length_b   6.15225847
_cell_length_c   4.20531000
_cell_angle_alpha   90.00000000
_cell_angle_beta   90.00000000
_cell_angle_gamma   137.03287470
_symmetry_Int_Tables_number   1
_chemical_formula_structural   PrGa
_chemical_formula_sum   'Pr2 Ga2'
_cell_volume   108.48835371
_cell_formula_units_Z   2
loop_
 _symmetry_equiv_pos_site_id
 _symmetry_equiv_pos_as_xyz
  1  'x, y, z'
loop_
 _atom_site_type_symbol
 _atom_site_label
 _atom_site_symmetry_multiplicity
 _atom_site_fract_x
 _atom_site_fract_y
 _atom_site_fract_z
 _atom_site_occupancy
  Pr  Pr0  1  0.85901500  0.14098500  0.75000000  1
  Pr  Pr1  1  0.14098500  0.85901500  0.25000000  1
  Ga  Ga2  1  0.56963100  0.43036900  0.75000000  1
  Ga  Ga3  1  0.43036900  0.56963100  0.25000000  1
