# generated using pymatgen
data_CsHoSiS4
_symmetry_space_group_name_H-M   'P 1'
_cell_length_a   6.37266100
_cell_length_b   6.72488300
_cell_length_c   17.81103300
_cell_angle_alpha   90.00000000
_cell_angle_beta   90.00000000
_cell_angle_gamma   90.00000000
_symmetry_Int_Tables_number   1
_chemical_formula_structural   CsHoSiS4
_chemical_formula_sum   'Cs4 Ho4 Si4 S16'
_cell_volume   763.29893693
_cell_formula_units_Z   4
loop_
 _symmetry_equiv_pos_site_id
 _symmetry_equiv_pos_as_xyz
  1  'x, y, z'
loop_
 _atom_site_type_symbol
 _atom_site_label
 _atom_site_symmetry_multiplicity
 _atom_site_fract_x
 _atom_site_fract_y
 _atom_site_fract_z
 _atom_site_occupancy
  Cs  Cs0  1  0.50326900  0.49187700  0.96824700  1
  Cs  Cs1  1  0.99673100  0.50812300  0.46824700  1
  Cs  Cs2  1  0.00326900  0.00812300  0.03175300  1
  Cs  Cs3  1  0.49673100  0.99187700  0.53175300  1
  Ho  Ho4  1  0.29187700  0.48059600  0.22821200  1
  Ho  Ho5  1  0.20812300  0.51940400  0.72821200  1
  Ho  Ho6  1  0.79187700  0.01940400  0.77178800  1
  Ho  Ho7  1  0.70812300  0.98059600  0.27178800  1
  Si  Si8  1  0.78997000  0.51777100  0.16749200  1
  Si  Si9  1  0.71003000  0.48222900  0.66749200  1
  Si  Si10  1  0.28997000  0.98222900  0.83250800  1
  Si  Si11  1  0.21003000  0.01777100  0.33250800  1
  S  S12  1  0.05547600  0.51282300  0.09616500  1
  S  S13  1  0.44452400  0.48717700  0.59616500  1
  S  S14  1  0.55547600  0.98717700  0.90383500  1
  S  S15  1  0.94452400  0.01282300  0.40383500  1
  S  S16  1  0.60749300  0.42666300  0.77966000  1
  S  S17  1  0.89250700  0.57333700  0.27966000  1
  S  S18  1  0.10749300  0.07333700  0.22034000  1
  S  S19  1  0.39250700  0.92666300  0.72034000  1
  S  S20  1  0.56742500  0.75057200  0.14719700  1
  S  S21  1  0.93257500  0.24942800  0.64719700  1
  S  S22  1  0.06742500  0.74942800  0.85280300  1
  S  S23  1  0.43257500  0.25057200  0.35280300  1
  S  S24  1  0.60221000  0.25390200  0.15604100  1
  S  S25  1  0.89779000  0.74609800  0.65604100  1
  S  S26  1  0.10221000  0.24609800  0.84395900  1
  S  S27  1  0.39779000  0.75390200  0.34395900  1
