# generated using pymatgen
data_CsNbS2O9
_symmetry_space_group_name_H-M   'P 1'
_cell_length_a   5.26203400
_cell_length_b   9.18625100
_cell_length_c   18.69041900
_cell_angle_alpha   90.00000000
_cell_angle_beta   90.00000000
_cell_angle_gamma   90.00000000
_symmetry_Int_Tables_number   1
_chemical_formula_structural   CsNbS2O9
_chemical_formula_sum   'Cs4 Nb4 S8 O36'
_cell_volume   903.46429739
_cell_formula_units_Z   4
loop_
 _symmetry_equiv_pos_site_id
 _symmetry_equiv_pos_as_xyz
  1  'x, y, z'
loop_
 _atom_site_type_symbol
 _atom_site_label
 _atom_site_symmetry_multiplicity
 _atom_site_fract_x
 _atom_site_fract_y
 _atom_site_fract_z
 _atom_site_occupancy
  Cs  Cs0  1  0.25000000  0.16809100  0.07103600  1
  Cs  Cs1  1  0.25000000  0.33190900  0.57103600  1
  Cs  Cs2  1  0.75000000  0.83190900  0.92896400  1
  Cs  Cs3  1  0.75000000  0.66809100  0.42896400  1
  Nb  Nb4  1  0.25000000  0.06697100  0.31482000  1
  Nb  Nb5  1  0.25000000  0.43302900  0.81482000  1
  Nb  Nb6  1  0.75000000  0.93302900  0.68518000  1
  Nb  Nb7  1  0.75000000  0.56697100  0.18518000  1
  S  S8  1  0.25000000  0.46199900  0.29538300  1
  S  S9  1  0.25000000  0.03800100  0.79538300  1
  S  S10  1  0.75000000  0.53800100  0.70461700  1
  S  S11  1  0.75000000  0.96199900  0.20461700  1
  S  S12  1  0.75000000  0.13175200  0.42819800  1
  S  S13  1  0.75000000  0.36824800  0.92819800  1
  S  S14  1  0.25000000  0.86824800  0.57180200  1
  S  S15  1  0.25000000  0.63175200  0.07180200  1
  O  O16  1  0.98017600  0.04272100  0.23422100  1
  O  O17  1  0.51982400  0.45727900  0.73422100  1
  O  O18  1  0.48017600  0.95727900  0.76577900  1
  O  O19  1  0.01982400  0.54272100  0.26577900  1
  O  O20  1  0.01982400  0.95727900  0.76577900  1
  O  O21  1  0.48017600  0.54272100  0.26577900  1
  O  O22  1  0.51982400  0.04272100  0.23422100  1
  O  O23  1  0.98017600  0.45727900  0.73422100  1
  O  O24  1  0.97676600  0.15434600  0.37734000  1
  O  O25  1  0.52323400  0.34565400  0.87734000  1
  O  O26  1  0.47676600  0.84565400  0.62266000  1
  O  O27  1  0.02323400  0.65434600  0.12266000  1
  O  O28  1  0.02323400  0.84565400  0.62266000  1
  O  O29  1  0.47676600  0.65434600  0.12266000  1
  O  O30  1  0.52323400  0.15434600  0.37734000  1
  O  O31  1  0.97676600  0.34565400  0.87734000  1
  O  O32  1  0.25000000  0.31270600  0.26745100  1
  O  O33  1  0.25000000  0.18729400  0.76745100  1
  O  O34  1  0.75000000  0.68729400  0.73254900  1
  O  O35  1  0.75000000  0.81270600  0.23254900  1
  O  O36  1  0.75000000  0.98579300  0.45638200  1
  O  O37  1  0.75000000  0.51420700  0.95638200  1
  O  O38  1  0.25000000  0.01420700  0.54361800  1
  O  O39  1  0.25000000  0.48579300  0.04361800  1
  O  O40  1  0.75000000  0.25104200  0.47896700  1
  O  O41  1  0.75000000  0.24895800  0.97896700  1
  O  O42  1  0.25000000  0.74895800  0.52103300  1
  O  O43  1  0.25000000  0.75104200  0.02103300  1
  O  O44  1  0.25000000  0.47627000  0.37260200  1
  O  O45  1  0.25000000  0.02373000  0.87260200  1
  O  O46  1  0.75000000  0.52373000  0.62739800  1
  O  O47  1  0.75000000  0.97627000  0.12739800  1
  O  O48  1  0.75000000  0.39103000  0.15150500  1
  O  O49  1  0.75000000  0.10897000  0.65150500  1
  O  O50  1  0.25000000  0.60897000  0.84849500  1
  O  O51  1  0.25000000  0.89103000  0.34849500  1
