# generated using pymatgen
data_LiZnP2HO7
_symmetry_space_group_name_H-M   'P 1'
_cell_length_a   5.09930700
_cell_length_b   13.59292100
_cell_length_c   16.27862400
_cell_angle_alpha   90.00000000
_cell_angle_beta   90.00000000
_cell_angle_gamma   90.00000000
_symmetry_Int_Tables_number   1
_chemical_formula_structural   LiZnP2HO7
_chemical_formula_sum   'Li8 Zn8 P16 H8 O56'
_cell_volume   1128.34431219
_cell_formula_units_Z   8
loop_
 _symmetry_equiv_pos_site_id
 _symmetry_equiv_pos_as_xyz
  1  'x, y, z'
loop_
 _atom_site_type_symbol
 _atom_site_label
 _atom_site_symmetry_multiplicity
 _atom_site_fract_x
 _atom_site_fract_y
 _atom_site_fract_z
 _atom_site_occupancy
  Li  Li0  1  0.70443500  0.24078100  0.84811900  1
  Li  Li1  1  0.29556500  0.75921900  0.34811900  1
  Li  Li2  1  0.29556500  0.74078100  0.84811900  1
  Li  Li3  1  0.70443500  0.25921900  0.34811900  1
  Li  Li4  1  0.08348100  0.55276000  0.58641400  1
  Li  Li5  1  0.91651900  0.44724000  0.08641400  1
  Li  Li6  1  0.91651900  0.05276000  0.58641400  1
  Li  Li7  1  0.08348100  0.94724000  0.08641400  1
  Zn  Zn8  1  0.08126600  0.55349900  0.92260300  1
  Zn  Zn9  1  0.91873400  0.44650100  0.42260300  1
  Zn  Zn10  1  0.91873400  0.05349900  0.92260300  1
  Zn  Zn11  1  0.08126600  0.94650100  0.42260300  1
  Zn  Zn12  1  0.68783600  0.24059300  0.66584800  1
  Zn  Zn13  1  0.31216400  0.75940700  0.16584800  1
  Zn  Zn14  1  0.31216400  0.74059300  0.66584800  1
  Zn  Zn15  1  0.68783600  0.25940700  0.16584800  1
  P  P16  1  0.41559800  0.35036900  0.51386400  1
  P  P17  1  0.58440200  0.64963100  0.01386400  1
  P  P18  1  0.58440200  0.85036900  0.51386400  1
  P  P19  1  0.41559800  0.14963100  0.01386400  1
  P  P20  1  0.02401900  0.56420700  0.25736600  1
  P  P21  1  0.97598100  0.43579300  0.75736600  1
  P  P22  1  0.97598100  0.06420700  0.25736600  1
  P  P23  1  0.02401900  0.93579300  0.75736600  1
  P  P24  1  0.41140400  0.14003200  0.50112000  1
  P  P25  1  0.58859600  0.85996800  0.00112000  1
  P  P26  1  0.58859600  0.64003200  0.50112000  1
  P  P27  1  0.41140400  0.35996800  0.00112000  1
  P  P28  1  0.17996300  0.14169600  0.75437000  1
  P  P29  1  0.82003700  0.85830400  0.25437000  1
  P  P30  1  0.82003700  0.64169600  0.75437000  1
  P  P31  1  0.17996300  0.35830400  0.25437000  1
  H  H32  1  0.29139800  0.40692600  0.65867500  1
  H  H33  1  0.70860200  0.59307400  0.15867500  1
  H  H34  1  0.70860200  0.90692600  0.65867500  1
  H  H35  1  0.29139800  0.09307400  0.15867500  1
  H  H36  1  0.43084800  0.39925800  0.87316600  1
  H  H37  1  0.56915200  0.60074200  0.37316600  1
  H  H38  1  0.56915200  0.89925800  0.87316600  1
  H  H39  1  0.43084800  0.10074200  0.37316600  1
  O  O40  1  0.14714300  0.45213800  0.83320600  1
  O  O41  1  0.85285700  0.54786200  0.33320600  1
  O  O42  1  0.85285700  0.95213800  0.83320600  1
  O  O43  1  0.14714300  0.04786200  0.33320600  1
  O  O44  1  0.17159600  0.83956200  0.75645000  1
  O  O45  1  0.82840400  0.16043800  0.25645000  1
  O  O46  1  0.82840400  0.33956200  0.75645000  1
  O  O47  1  0.17159600  0.66043800  0.25645000  1
  O  O48  1  0.50932700  0.35154800  0.60436200  1
  O  O49  1  0.49067300  0.64845200  0.10436200  1
  O  O50  1  0.49067300  0.85154800  0.60436200  1
  O  O51  1  0.50932700  0.14845200  0.10436200  1
  O  O52  1  0.02662600  0.15786700  0.83380900  1
  O  O53  1  0.97337400  0.84213300  0.33380900  1
  O  O54  1  0.97337400  0.65786700  0.83380900  1
  O  O55  1  0.02662600  0.34213300  0.33380900  1
  O  O56  1  0.63554200  0.14994500  0.95009500  1
  O  O57  1  0.36445800  0.85005500  0.45009500  1
  O  O58  1  0.36445800  0.64994500  0.95009500  1
  O  O59  1  0.63554200  0.35005500  0.45009500  1
  O  O60  1  0.02629100  0.16371300  0.67526300  1
  O  O61  1  0.97370900  0.83628700  0.17526300  1
  O  O62  1  0.97370900  0.66371300  0.67526300  1
  O  O63  1  0.02629100  0.33628700  0.17526300  1
  O  O64  1  0.55314300  0.36712600  0.91344600  1
  O  O65  1  0.44685700  0.63287400  0.41344600  1
  O  O66  1  0.44685700  0.86712600  0.91344600  1
  O  O67  1  0.55314300  0.13287400  0.41344600  1
  O  O68  1  0.26429500  0.24518700  0.50018300  1
  O  O69  1  0.73570500  0.75481300  0.00018300  1
  O  O70  1  0.73570500  0.74518700  0.50018300  1
  O  O71  1  0.26429500  0.25481300  0.00018300  1
  O  O72  1  0.20988300  0.43028000  0.50195200  1
  O  O73  1  0.79011700  0.56972000  0.00195200  1
  O  O74  1  0.79011700  0.93028000  0.50195200  1
  O  O75  1  0.20988300  0.06972000  0.00195200  1
  O  O76  1  0.14233900  0.45244600  0.67644000  1
  O  O77  1  0.85766100  0.54755400  0.17644000  1
  O  O78  1  0.85766100  0.95244600  0.67644000  1
  O  O79  1  0.14233900  0.04755400  0.17644000  1
  O  O80  1  0.23835200  0.02196700  0.75063900  1
  O  O81  1  0.76164800  0.97803300  0.25063900  1
  O  O82  1  0.76164800  0.52196700  0.75063900  1
  O  O83  1  0.23835200  0.47803300  0.25063900  1
  O  O84  1  0.45170300  0.18935600  0.75625200  1
  O  O85  1  0.54829700  0.81064400  0.25625200  1
  O  O86  1  0.54829700  0.68935600  0.75625200  1
  O  O87  1  0.45170300  0.31064400  0.25625200  1
  O  O88  1  0.20353500  0.06109500  0.50743100  1
  O  O89  1  0.79646500  0.93890500  0.00743100  1
  O  O90  1  0.79646500  0.56109500  0.50743100  1
  O  O91  1  0.20353500  0.43890500  0.00743100  1
  O  O92  1  0.62158700  0.14268000  0.56671800  1
  O  O93  1  0.37841300  0.85732000  0.06671800  1
  O  O94  1  0.37841300  0.64268000  0.56671800  1
  O  O95  1  0.62158700  0.35732000  0.06671800  1
