# generated using pymatgen
data_K2ThO3
_symmetry_space_group_name_H-M   'P 1'
_cell_length_a   6.45928119
_cell_length_b   6.45928119
_cell_length_c   12.80873195
_cell_angle_alpha   85.06389725
_cell_angle_beta   85.06389725
_cell_angle_gamma   120.07779929
_symmetry_Int_Tables_number   1
_chemical_formula_structural   K2ThO3
_chemical_formula_sum   'K8 Th4 O12'
_cell_volume   455.53381375
_cell_formula_units_Z   4
loop_
 _symmetry_equiv_pos_site_id
 _symmetry_equiv_pos_as_xyz
  1  'x, y, z'
loop_
 _atom_site_type_symbol
 _atom_site_label
 _atom_site_symmetry_multiplicity
 _atom_site_fract_x
 _atom_site_fract_y
 _atom_site_fract_z
 _atom_site_occupancy
  K  K0  1  0.65815900  0.81510600  0.00051400  1
  K  K1  1  0.34184100  0.18489400  0.99948600  1
  K  K2  1  0.18489400  0.34184100  0.49948600  1
  K  K3  1  0.81510600  0.65815900  0.50051400  1
  K  K4  1  0.58423400  0.41576600  0.25000000  1
  K  K5  1  0.41576600  0.58423400  0.75000000  1
  K  K6  1  0.50000000  0.00000000  0.50000000  1
  K  K7  1  0.00000000  0.50000000  0.00000000  1
  Th  Th8  1  0.24993800  0.75006200  0.25000000  1
  Th  Th9  1  0.75006200  0.24993800  0.75000000  1
  Th  Th10  1  0.91755400  0.08244600  0.25000000  1
  Th  Th11  1  0.08244600  0.91755400  0.75000000  1
  O  O12  1  0.83439500  0.00197300  0.65225500  1
  O  O13  1  0.16560500  0.99802700  0.34774500  1
  O  O14  1  0.99802700  0.16560500  0.84774500  1
  O  O15  1  0.00197300  0.83439500  0.15225500  1
  O  O16  1  0.55034900  0.76583700  0.34803800  1
  O  O17  1  0.44965100  0.23416300  0.65196200  1
  O  O18  1  0.23416300  0.44965100  0.15196200  1
  O  O19  1  0.76583700  0.55034900  0.84803800  1
  O  O20  1  0.61720800  0.06404900  0.15252700  1
  O  O21  1  0.38279200  0.93595100  0.84747300  1
  O  O22  1  0.93595100  0.38279200  0.34747300  1
  O  O23  1  0.06404900  0.61720800  0.65252700  1
