# generated using pymatgen
data_Rb2(NbBr3)3
_symmetry_space_group_name_H-M   'P 1'
_cell_length_a   10.60196997
_cell_length_b   10.60196997
_cell_length_c   10.50879529
_cell_angle_alpha   76.58859121
_cell_angle_beta   76.58859121
_cell_angle_gamma   116.18342760
_symmetry_Int_Tables_number   1
_chemical_formula_structural   Rb2(NbBr3)3
_chemical_formula_sum   'Rb4 Nb6 Br18'
_cell_volume   952.48997164
_cell_formula_units_Z   2
loop_
 _symmetry_equiv_pos_site_id
 _symmetry_equiv_pos_as_xyz
  1  'x, y, z'
loop_
 _atom_site_type_symbol
 _atom_site_label
 _atom_site_symmetry_multiplicity
 _atom_site_fract_x
 _atom_site_fract_y
 _atom_site_fract_z
 _atom_site_occupancy
  Rb  Rb0  1  0.73264500  0.05232400  0.32570600  1
  Rb  Rb1  1  0.26735500  0.94767600  0.67429400  1
  Rb  Rb2  1  0.94767600  0.26735500  0.67429400  1
  Rb  Rb3  1  0.05232400  0.73264500  0.32570600  1
  Nb  Nb4  1  0.60889400  0.60889400  0.12141900  1
  Nb  Nb5  1  0.39110600  0.39110600  0.87858100  1
  Nb  Nb6  1  0.45692100  0.29136500  0.13264500  1
  Nb  Nb7  1  0.54307900  0.70863500  0.86735500  1
  Nb  Nb8  1  0.70863500  0.54307900  0.86735500  1
  Nb  Nb9  1  0.29136500  0.45692100  0.13264500  1
  Br  Br10  1  0.70274600  0.29725400  0.00000000  1
  Br  Br11  1  0.29725400  0.70274600  0.00000000  1
  Br  Br12  1  0.39397300  0.00350900  0.31557700  1
  Br  Br13  1  0.60602700  0.99649100  0.68442300  1
  Br  Br14  1  0.99649100  0.60602700  0.68442300  1
  Br  Br15  1  0.00350900  0.39397300  0.31557700  1
  Br  Br16  1  0.31432700  0.11124800  0.01419300  1
  Br  Br17  1  0.68567300  0.88875200  0.98580700  1
  Br  Br18  1  0.88875200  0.68567300  0.98580700  1
  Br  Br19  1  0.11124800  0.31432700  0.01419300  1
  Br  Br20  1  0.75562900  0.75562900  0.28313400  1
  Br  Br21  1  0.24437100  0.24437100  0.71686600  1
  Br  Br22  1  0.80999400  0.80999400  0.67455500  1
  Br  Br23  1  0.19000600  0.19000600  0.32544500  1
  Br  Br24  1  0.57960000  0.37702100  0.30983500  1
  Br  Br25  1  0.42040000  0.62297900  0.69016500  1
  Br  Br26  1  0.62297900  0.42040000  0.69016500  1
  Br  Br27  1  0.37702100  0.57960000  0.30983500  1
