# generated using pymatgen
data_RbGaSnSe4
_symmetry_space_group_name_H-M   'P 1'
_cell_length_a   13.19065000
_cell_length_b   7.71238800
_cell_length_c   18.69758810
_cell_angle_alpha   84.28151235
_cell_angle_beta   90.00000000
_cell_angle_gamma   90.00000000
_symmetry_Int_Tables_number   1
_chemical_formula_structural   RbGaSnSe4
_chemical_formula_sum   'Rb8 Ga8 Sn8 Se32'
_cell_volume   1892.66599924
_cell_formula_units_Z   8
loop_
 _symmetry_equiv_pos_site_id
 _symmetry_equiv_pos_as_xyz
  1  'x, y, z'
loop_
 _atom_site_type_symbol
 _atom_site_label
 _atom_site_symmetry_multiplicity
 _atom_site_fract_x
 _atom_site_fract_y
 _atom_site_fract_z
 _atom_site_occupancy
  Rb  Rb0  1  0.43286500  0.76962200  0.33297500  1
  Rb  Rb1  1  0.56713500  0.23037800  0.66702500  1
  Rb  Rb2  1  0.93286500  0.23037800  0.16702500  1
  Rb  Rb3  1  0.06713500  0.76962200  0.83297500  1
  Rb  Rb4  1  0.60708900  0.24809600  0.04919100  1
  Rb  Rb5  1  0.39291100  0.75190400  0.95080900  1
  Rb  Rb6  1  0.10708900  0.75190400  0.45080900  1
  Rb  Rb7  1  0.89291100  0.24809600  0.54919100  1
  Ga  Ga8  1  0.75369500  0.98523200  0.34345900  1
  Ga  Ga9  1  0.24630500  0.01476800  0.65654100  1
  Ga  Ga10  1  0.25369500  0.01476800  0.15654100  1
  Ga  Ga11  1  0.74630500  0.98523200  0.84345900  1
  Ga  Ga12  1  0.75160300  0.47346600  0.35536300  1
  Ga  Ga13  1  0.24839700  0.52653400  0.64463700  1
  Ga  Ga14  1  0.25160300  0.52653400  0.14463700  1
  Ga  Ga15  1  0.74839700  0.47346600  0.85536300  1
  Sn  Sn16  1  0.70295200  0.74118800  0.18264600  1
  Sn  Sn17  1  0.29704800  0.25881200  0.81735400  1
  Sn  Sn18  1  0.20295200  0.25881200  0.31735400  1
  Sn  Sn19  1  0.79704800  0.74118800  0.68264600  1
  Sn  Sn20  1  0.81630800  0.72154800  0.01393100  1
  Sn  Sn21  1  0.18369200  0.27845200  0.98606900  1
  Sn  Sn22  1  0.31630800  0.27845200  0.48606900  1
  Sn  Sn23  1  0.68369200  0.72154800  0.51393100  1
  Se  Se24  1  0.16193000  0.96442400  0.27355800  1
  Se  Se25  1  0.83807000  0.03557600  0.72644200  1
  Se  Se26  1  0.66193000  0.03557600  0.22644200  1
  Se  Se27  1  0.33807000  0.96442400  0.77355800  1
  Se  Se28  1  0.86101000  0.72865100  0.34684800  1
  Se  Se29  1  0.13899000  0.27134900  0.65315200  1
  Se  Se30  1  0.36101000  0.27134900  0.15315200  1
  Se  Se31  1  0.63899000  0.72865100  0.84684800  1
  Se  Se32  1  0.62687900  0.75037500  0.05243400  1
  Se  Se33  1  0.37312100  0.24962500  0.94756600  1
  Se  Se34  1  0.12687900  0.24962500  0.44756600  1
  Se  Se35  1  0.87312100  0.75037500  0.55243400  1
  Se  Se36  1  0.62438700  0.48352100  0.25838800  1
  Se  Se37  1  0.37561300  0.51647900  0.74161200  1
  Se  Se38  1  0.12438700  0.51647900  0.24161200  1
  Se  Se39  1  0.87561300  0.48352100  0.75838800  1
  Se  Se40  1  0.61707300  0.98238300  0.43351000  1
  Se  Se41  1  0.38292700  0.01761700  0.56649000  1
  Se  Se42  1  0.11707300  0.01761700  0.06649000  1
  Se  Se43  1  0.88292700  0.98238300  0.93351000  1
  Se  Se44  1  0.89124500  0.71534200  0.14316500  1
  Se  Se45  1  0.10875500  0.28465800  0.85683500  1
  Se  Se46  1  0.39124500  0.28465800  0.35683500  1
  Se  Se47  1  0.60875500  0.71534200  0.64316500  1
  Se  Se48  1  0.36806500  0.77147000  0.14629800  1
  Se  Se49  1  0.63193500  0.22853000  0.85370200  1
  Se  Se50  1  0.86806500  0.22853000  0.35370200  1
  Se  Se51  1  0.13193500  0.77147000  0.64629800  1
  Se  Se52  1  0.65114200  0.42566600  0.46853100  1
  Se  Se53  1  0.34885800  0.57433400  0.53146900  1
  Se  Se54  1  0.15114200  0.57433400  0.03146900  1
  Se  Se55  1  0.84885800  0.42566600  0.96853100  1
