# generated using pymatgen
data_Sn2Au
_symmetry_space_group_name_H-M   'P 1'
_cell_length_a   7.02769100
_cell_length_b   7.18515500
_cell_length_c   12.14447300
_cell_angle_alpha   90.00000000
_cell_angle_beta   90.00000000
_cell_angle_gamma   90.00000000
_symmetry_Int_Tables_number   1
_chemical_formula_structural   Sn2Au
_chemical_formula_sum   'Sn16 Au8'
_cell_volume   613.23576076
_cell_formula_units_Z   8
loop_
 _symmetry_equiv_pos_site_id
 _symmetry_equiv_pos_as_xyz
  1  'x, y, z'
loop_
 _atom_site_type_symbol
 _atom_site_label
 _atom_site_symmetry_multiplicity
 _atom_site_fract_x
 _atom_site_fract_y
 _atom_site_fract_z
 _atom_site_occupancy
  Sn  Sn0  1  0.62817000  0.52640200  0.32517600  1
  Sn  Sn1  1  0.12817000  0.97359800  0.67482400  1
  Sn  Sn2  1  0.37183000  0.02640200  0.17482400  1
  Sn  Sn3  1  0.87183000  0.47359800  0.82517600  1
  Sn  Sn4  1  0.37183000  0.47359800  0.67482400  1
  Sn  Sn5  1  0.87183000  0.02640200  0.32517600  1
  Sn  Sn6  1  0.62817000  0.97359800  0.82517600  1
  Sn  Sn7  1  0.12817000  0.52640200  0.17482400  1
  Sn  Sn8  1  0.85460900  0.24834200  0.08807800  1
  Sn  Sn9  1  0.35460900  0.25165800  0.91192200  1
  Sn  Sn10  1  0.14539100  0.74834200  0.41192200  1
  Sn  Sn11  1  0.64539100  0.75165800  0.58807800  1
  Sn  Sn12  1  0.14539100  0.75165800  0.91192200  1
  Sn  Sn13  1  0.64539100  0.74834200  0.08807800  1
  Sn  Sn14  1  0.85460900  0.25165800  0.58807800  1
  Sn  Sn15  1  0.35460900  0.24834200  0.41192200  1
  Au  Au16  1  0.51223500  0.88844100  0.38284800  1
  Au  Au17  1  0.01223500  0.61155900  0.61715200  1
  Au  Au18  1  0.48776500  0.38844100  0.11715200  1
  Au  Au19  1  0.98776500  0.11155900  0.88284800  1
  Au  Au20  1  0.48776500  0.11155900  0.61715200  1
  Au  Au21  1  0.98776500  0.38844100  0.38284800  1
  Au  Au22  1  0.51223500  0.61155900  0.88284800  1
  Au  Au23  1  0.01223500  0.88844100  0.11715200  1
