# generated using pymatgen
data_Er5CoBi2
_symmetry_space_group_name_H-M   'P 1'
_cell_length_a   7.85484100
_cell_length_b   8.88959800
_cell_length_c   12.40472400
_cell_angle_alpha   90.00000000
_cell_angle_beta   90.00000000
_cell_angle_gamma   90.00000000
_symmetry_Int_Tables_number   1
_chemical_formula_structural   Er5CoBi2
_chemical_formula_sum   'Er20 Co4 Bi8'
_cell_volume   866.17695748
_cell_formula_units_Z   4
loop_
 _symmetry_equiv_pos_site_id
 _symmetry_equiv_pos_as_xyz
  1  'x, y, z'
loop_
 _atom_site_type_symbol
 _atom_site_label
 _atom_site_symmetry_multiplicity
 _atom_site_fract_x
 _atom_site_fract_y
 _atom_site_fract_z
 _atom_site_occupancy
  Er  Er0  1  0.65549800  0.75000000  0.70233800  1
  Er  Er1  1  0.34450200  0.25000000  0.29766200  1
  Er  Er2  1  0.15549800  0.25000000  0.79766200  1
  Er  Er3  1  0.84450200  0.75000000  0.20233800  1
  Er  Er4  1  0.13017100  0.75000000  0.81899000  1
  Er  Er5  1  0.86982900  0.25000000  0.18101000  1
  Er  Er6  1  0.63017100  0.25000000  0.68101000  1
  Er  Er7  1  0.36982900  0.75000000  0.31899000  1
  Er  Er8  1  0.55987600  0.75000000  0.99594600  1
  Er  Er9  1  0.44012400  0.25000000  0.00405400  1
  Er  Er10  1  0.05987600  0.25000000  0.50405400  1
  Er  Er11  1  0.94012400  0.75000000  0.49594600  1
  Er  Er12  1  0.83070600  0.46349700  0.93176800  1
  Er  Er13  1  0.16929400  0.53650300  0.06823200  1
  Er  Er14  1  0.33070600  0.53650300  0.56823200  1
  Er  Er15  1  0.16929400  0.96349700  0.06823200  1
  Er  Er16  1  0.66929400  0.46349700  0.43176800  1
  Er  Er17  1  0.83070600  0.03650300  0.93176800  1
  Er  Er18  1  0.66929400  0.03650300  0.43176800  1
  Er  Er19  1  0.33070600  0.96349700  0.56823200  1
  Co  Co20  1  0.93444000  0.75000000  0.99427700  1
  Co  Co21  1  0.06556000  0.25000000  0.00572300  1
  Co  Co22  1  0.43444000  0.25000000  0.50572300  1
  Co  Co23  1  0.56556000  0.75000000  0.49427700  1
  Bi  Bi24  1  0.93788800  0.00298400  0.67307500  1
  Bi  Bi25  1  0.06211200  0.99701600  0.32692500  1
  Bi  Bi26  1  0.43788800  0.99701600  0.82692500  1
  Bi  Bi27  1  0.06211200  0.50298400  0.32692500  1
  Bi  Bi28  1  0.56211200  0.00298400  0.17307500  1
  Bi  Bi29  1  0.93788800  0.49701600  0.67307500  1
  Bi  Bi30  1  0.56211200  0.49701600  0.17307500  1
  Bi  Bi31  1  0.43788800  0.50298400  0.82692500  1
