# generated using pymatgen
data_CsGd2Ag3Te5
_symmetry_space_group_name_H-M   'P 1'
_cell_length_a   8.50744644
_cell_length_b   8.50744644
_cell_length_c   18.82820700
_cell_angle_alpha   90.00000000
_cell_angle_beta   90.00000000
_cell_angle_gamma   147.81369056
_symmetry_Int_Tables_number   1
_chemical_formula_structural   CsGd2Ag3Te5
_chemical_formula_sum   'Cs2 Gd4 Ag6 Te10'
_cell_volume   725.88691086
_cell_formula_units_Z   2
loop_
 _symmetry_equiv_pos_site_id
 _symmetry_equiv_pos_as_xyz
  1  'x, y, z'
loop_
 _atom_site_type_symbol
 _atom_site_label
 _atom_site_symmetry_multiplicity
 _atom_site_fract_x
 _atom_site_fract_y
 _atom_site_fract_z
 _atom_site_occupancy
  Cs  Cs0  1  0.55915400  0.44084600  0.25000000  1
  Cs  Cs1  1  0.44084600  0.55915400  0.75000000  1
  Gd  Gd2  1  0.69232800  0.30767200  0.90623500  1
  Gd  Gd3  1  0.30767200  0.69232800  0.09376500  1
  Gd  Gd4  1  0.69232800  0.30767200  0.59376500  1
  Gd  Gd5  1  0.30767200  0.69232800  0.40623500  1
  Ag  Ag6  1  0.84187300  0.15812700  0.25000000  1
  Ag  Ag7  1  0.15812700  0.84187300  0.75000000  1
  Ag  Ag8  1  0.08339200  0.91660800  0.46591500  1
  Ag  Ag9  1  0.91660800  0.08339200  0.53408500  1
  Ag  Ag10  1  0.08339200  0.91660800  0.03408500  1
  Ag  Ag11  1  0.91660800  0.08339200  0.96591500  1
  Te  Te12  1  0.06555200  0.93444800  0.88208000  1
  Te  Te13  1  0.93444800  0.06555200  0.11792000  1
  Te  Te14  1  0.06555200  0.93444800  0.61792000  1
  Te  Te15  1  0.93444800  0.06555200  0.38208000  1
  Te  Te16  1  0.67923600  0.32076400  0.42889100  1
  Te  Te17  1  0.32076400  0.67923600  0.57110900  1
  Te  Te18  1  0.67923600  0.32076400  0.07110900  1
  Te  Te19  1  0.32076400  0.67923600  0.92889100  1
  Te  Te20  1  0.24668100  0.75331900  0.25000000  1
  Te  Te21  1  0.75331900  0.24668100  0.75000000  1
