# generated using pymatgen
data_Sc6NiTe2
_symmetry_space_group_name_H-M   'P 1'
_cell_length_a   7.78385597
_cell_length_b   7.78385597
_cell_length_c   3.73823300
_cell_angle_alpha   90.00000000
_cell_angle_beta   90.00000000
_cell_angle_gamma   119.99999974
_symmetry_Int_Tables_number   1
_chemical_formula_structural   Sc6NiTe2
_chemical_formula_sum   'Sc6 Ni1 Te2'
_cell_volume   196.14921858
_cell_formula_units_Z   1
loop_
 _symmetry_equiv_pos_site_id
 _symmetry_equiv_pos_as_xyz
  1  'x, y, z'
loop_
 _atom_site_type_symbol
 _atom_site_label
 _atom_site_symmetry_multiplicity
 _atom_site_fract_x
 _atom_site_fract_y
 _atom_site_fract_z
 _atom_site_occupancy
  Sc  Sc0  1  0.23826500  0.00000000  0.50000000  1
  Sc  Sc1  1  0.76173500  0.76173500  0.50000000  1
  Sc  Sc2  1  0.00000000  0.23826500  0.50000000  1
  Sc  Sc3  1  0.60770400  0.00000000  0.00000000  1
  Sc  Sc4  1  0.39229600  0.39229600  0.00000000  1
  Sc  Sc5  1  0.00000000  0.60770400  0.00000000  1
  Ni  Ni6  1  0.00000000  0.00000000  0.00000000  1
  Te  Te7  1  0.33333300  0.66666700  0.50000000  1
  Te  Te8  1  0.66666700  0.33333300  0.50000000  1
