# generated using pymatgen
data_Li2WO4
_symmetry_space_group_name_H-M   'P 1'
_cell_length_a   5.82723884
_cell_length_b   5.82723884
_cell_length_c   5.17026890
_cell_angle_alpha   88.67058065
_cell_angle_beta   88.67058065
_cell_angle_gamma   61.67989135
_symmetry_Int_Tables_number   1
_chemical_formula_structural   Li2WO4
_chemical_formula_sum   'Li4 W2 O8'
_cell_volume   154.49564563
_cell_formula_units_Z   2
loop_
 _symmetry_equiv_pos_site_id
 _symmetry_equiv_pos_as_xyz
  1  'x, y, z'
loop_
 _atom_site_type_symbol
 _atom_site_label
 _atom_site_symmetry_multiplicity
 _atom_site_fract_x
 _atom_site_fract_y
 _atom_site_fract_z
 _atom_site_occupancy
  Li  Li0  1  0.15733700  0.45746800  0.27141700  1
  Li  Li1  1  0.54253200  0.84266300  0.22858300  1
  Li  Li2  1  0.84266300  0.54253200  0.72858300  1
  Li  Li3  1  0.45746800  0.15733700  0.77141700  1
  W  W4  1  0.83727200  0.16272800  0.25000000  1
  W  W5  1  0.16272800  0.83727200  0.75000000  1
  O  O6  1  0.48283800  0.77707300  0.86385700  1
  O  O7  1  0.77707300  0.48283800  0.36385700  1
  O  O8  1  0.20717100  0.99844200  0.42842200  1
  O  O9  1  0.00155800  0.79282900  0.07157800  1
  O  O10  1  0.79282900  0.00155800  0.57157800  1
  O  O11  1  0.99844200  0.20717100  0.92842200  1
  O  O12  1  0.51716200  0.22292700  0.13614300  1
  O  O13  1  0.22292700  0.51716200  0.63614300  1
