# generated using pymatgen
data_LiRhO2
_symmetry_space_group_name_H-M   'P 1'
_cell_length_a   5.06644132
_cell_length_b   5.06644132
_cell_length_c   5.06644063
_cell_angle_alpha   35.56096701
_cell_angle_beta   35.56096701
_cell_angle_gamma   35.56096510
_symmetry_Int_Tables_number   1
_chemical_formula_structural   LiRhO2
_chemical_formula_sum   'Li1 Rh1 O2'
_cell_volume   39.31189904
_cell_formula_units_Z   1
loop_
 _symmetry_equiv_pos_site_id
 _symmetry_equiv_pos_as_xyz
  1  'x, y, z'
loop_
 _atom_site_type_symbol
 _atom_site_label
 _atom_site_symmetry_multiplicity
 _atom_site_fract_x
 _atom_site_fract_y
 _atom_site_fract_z
 _atom_site_occupancy
  Li  Li0  1  0.50000000  0.50000000  0.50000000  1
  Rh  Rh1  1  0.00000000  0.00000000  0.00000000  1
  O  O2  1  0.74280600  0.74280600  0.74280600  1
  O  O3  1  0.25719400  0.25719400  0.25719400  1
