# generated using pymatgen
data_Li3PO4
_symmetry_space_group_name_H-M   'P 1'
_cell_length_a   4.92244800
_cell_length_b   5.29640200
_cell_length_c   6.17613600
_cell_angle_alpha   90.00000000
_cell_angle_beta   90.00000000
_cell_angle_gamma   90.00000000
_symmetry_Int_Tables_number   1
_chemical_formula_structural   Li3PO4
_chemical_formula_sum   'Li6 P2 O8'
_cell_volume   161.01966865
_cell_formula_units_Z   2
loop_
 _symmetry_equiv_pos_site_id
 _symmetry_equiv_pos_as_xyz
  1  'x, y, z'
loop_
 _atom_site_type_symbol
 _atom_site_label
 _atom_site_symmetry_multiplicity
 _atom_site_fract_x
 _atom_site_fract_y
 _atom_site_fract_z
 _atom_site_occupancy
  Li  Li0  1  0.50941700  0.84452000  0.00000000  1
  Li  Li1  1  0.00941700  0.15548000  0.50000000  1
  Li  Li2  1  0.50836300  0.32643400  0.25287300  1
  Li  Li3  1  0.00836300  0.67356600  0.24712700  1
  Li  Li4  1  0.00836300  0.67356600  0.75287300  1
  Li  Li5  1  0.50836300  0.32643400  0.74712700  1
  P  P6  1  0.50142000  0.82426100  0.50000000  1
  P  P7  1  0.00142000  0.17573900  0.00000000  1
  O  O8  1  0.10701000  0.31350900  0.79286200  1
  O  O9  1  0.60212600  0.10350800  0.50000000  1
  O  O10  1  0.18519100  0.81839600  0.50000000  1
  O  O11  1  0.68519100  0.18160400  0.00000000  1
  O  O12  1  0.60701000  0.68649100  0.29286200  1
  O  O13  1  0.10701000  0.31350900  0.20713800  1
  O  O14  1  0.10212600  0.89649200  0.00000000  1
  O  O15  1  0.60701000  0.68649100  0.70713800  1
