# generated using pymatgen
data_CsLa(WO4)2
_symmetry_space_group_name_H-M   'P 1'
_cell_length_a   7.84262508
_cell_length_b   7.84262508
_cell_length_c   7.69993744
_cell_angle_alpha   63.08029857
_cell_angle_beta   63.08029857
_cell_angle_gamma   90.08083604
_symmetry_Int_Tables_number   1
_chemical_formula_structural   CsLa(WO4)2
_chemical_formula_sum   'Cs2 La2 W4 O16'
_cell_volume   363.61436638
_cell_formula_units_Z   2
loop_
 _symmetry_equiv_pos_site_id
 _symmetry_equiv_pos_as_xyz
  1  'x, y, z'
loop_
 _atom_site_type_symbol
 _atom_site_label
 _atom_site_symmetry_multiplicity
 _atom_site_fract_x
 _atom_site_fract_y
 _atom_site_fract_z
 _atom_site_occupancy
  Cs  Cs0  1  0.19828900  0.80171100  0.25000000  1
  Cs  Cs1  1  0.80171100  0.19828900  0.75000000  1
  La  La2  1  0.77544200  0.22455800  0.25000000  1
  La  La3  1  0.22455800  0.77544200  0.75000000  1
  W  W4  1  0.69416500  0.68527700  0.27777400  1
  W  W5  1  0.30583500  0.31472300  0.72222600  1
  W  W6  1  0.31472300  0.30583500  0.22222600  1
  W  W7  1  0.68527700  0.69416500  0.77777400  1
  O  O8  1  0.62018900  0.74764800  0.06443600  1
  O  O9  1  0.37981100  0.25235200  0.93556400  1
  O  O10  1  0.25235200  0.37981100  0.43556400  1
  O  O11  1  0.74764800  0.62018900  0.56443600  1
  O  O12  1  0.38173000  0.07476200  0.36448200  1
  O  O13  1  0.61827000  0.92523800  0.63551800  1
  O  O14  1  0.92523800  0.61827000  0.13551800  1
  O  O15  1  0.07476200  0.38173000  0.86448200  1
  O  O16  1  0.58223700  0.37347100  0.47124600  1
  O  O17  1  0.41776300  0.62652900  0.52875400  1
  O  O18  1  0.62652900  0.41776300  0.02875400  1
  O  O19  1  0.37347100  0.58223700  0.97124600  1
  O  O20  1  0.78479400  0.93957000  0.19821600  1
  O  O21  1  0.21520600  0.06043000  0.80178400  1
  O  O22  1  0.06043000  0.21520600  0.30178400  1
  O  O23  1  0.93957000  0.78479400  0.69821600  1
