# generated using pymatgen
data_NaH3(SeO3)2
_symmetry_space_group_name_H-M   'P 1'
_cell_length_a   4.88741200
_cell_length_b   5.84045000
_cell_length_c   11.89189298
_cell_angle_alpha   62.02779098
_cell_angle_beta   90.00000000
_cell_angle_gamma   90.00000000
_symmetry_Int_Tables_number   1
_chemical_formula_structural   NaH3(SeO3)2
_chemical_formula_sum   'Na2 H6 Se4 O12'
_cell_volume   299.79412666
_cell_formula_units_Z   2
loop_
 _symmetry_equiv_pos_site_id
 _symmetry_equiv_pos_as_xyz
  1  'x, y, z'
loop_
 _atom_site_type_symbol
 _atom_site_label
 _atom_site_symmetry_multiplicity
 _atom_site_fract_x
 _atom_site_fract_y
 _atom_site_fract_z
 _atom_site_occupancy
  Na  Na0  1  0.75301300  0.99366000  0.49984900  1
  Na  Na1  1  0.24698700  0.99366000  0.99984900  1
  H  H2  1  0.24980500  0.74182400  0.67286800  1
  H  H3  1  0.75019500  0.74182400  0.17286800  1
  H  H4  1  0.22233100  0.27228000  0.33119100  1
  H  H5  1  0.77766900  0.27228000  0.83119100  1
  H  H6  1  0.71971300  0.47045500  0.51330100  1
  H  H7  1  0.28028700  0.47045500  0.01330100  1
  Se  Se8  1  0.35986600  0.33604100  0.67215100  1
  Se  Se9  1  0.64013400  0.33604100  0.17215100  1
  Se  Se10  1  0.13284900  0.66866200  0.33057500  1
  Se  Se11  1  0.86715100  0.66866200  0.83057500  1
  O  O12  1  0.05800000  0.66699600  0.94962900  1
  O  O13  1  0.94200000  0.66699600  0.44962900  1
  O  O14  1  0.43227900  0.32754500  0.04978000  1
  O  O15  1  0.56772100  0.32754500  0.54978000  1
  O  O16  1  0.55233400  0.64871700  0.14676600  1
  O  O17  1  0.44766600  0.64871700  0.64676600  1
  O  O18  1  0.95270400  0.34681300  0.85354500  1
  O  O19  1  0.04729600  0.34681300  0.35354500  1
  O  O20  1  0.53611300  0.14411600  0.80647100  1
  O  O21  1  0.46388700  0.14411600  0.30647100  1
  O  O22  1  0.94554800  0.84999000  0.19187200  1
  O  O23  1  0.05445200  0.84999000  0.69187200  1
