# generated using pymatgen
data_LaNi2AsN
_symmetry_space_group_name_H-M   'P 1'
_cell_length_a   5.99625915
_cell_length_b   5.99625915
_cell_length_c   6.99315900
_cell_angle_alpha   90.00000000
_cell_angle_beta   90.00000000
_cell_angle_gamma   144.01420575
_symmetry_Int_Tables_number   1
_chemical_formula_structural   LaNi2AsN
_chemical_formula_sum   'La2 Ni4 As2 N2'
_cell_volume   147.74222387
_cell_formula_units_Z   2
loop_
 _symmetry_equiv_pos_site_id
 _symmetry_equiv_pos_as_xyz
  1  'x, y, z'
loop_
 _atom_site_type_symbol
 _atom_site_label
 _atom_site_symmetry_multiplicity
 _atom_site_fract_x
 _atom_site_fract_y
 _atom_site_fract_z
 _atom_site_occupancy
  La  La0  1  0.53788300  0.46211700  0.25000000  1
  La  La1  1  0.46211700  0.53788300  0.75000000  1
  Ni  Ni2  1  0.83188000  0.16812000  0.44663600  1
  Ni  Ni3  1  0.16812000  0.83188000  0.55336400  1
  Ni  Ni4  1  0.83188000  0.16812000  0.05336400  1
  Ni  Ni5  1  0.16812000  0.83188000  0.94663600  1
  As  As6  1  0.26762300  0.73237700  0.25000000  1
  As  As7  1  0.73237700  0.26762300  0.75000000  1
  N  N8  1  0.00000000  0.00000000  0.50000000  1
  N  N9  1  0.00000000  0.00000000  0.00000000  1
