# generated using pymatgen
data_Ho4MgNi
_symmetry_space_group_name_H-M   'P 1'
_cell_length_a   9.57400096
_cell_length_b   9.57400096
_cell_length_c   9.57400096
_cell_angle_alpha   60.00000000
_cell_angle_beta   60.00000000
_cell_angle_gamma   60.00000000
_symmetry_Int_Tables_number   1
_chemical_formula_structural   Ho4MgNi
_chemical_formula_sum   'Ho16 Mg4 Ni4'
_cell_volume   620.53374244
_cell_formula_units_Z   4
loop_
 _symmetry_equiv_pos_site_id
 _symmetry_equiv_pos_as_xyz
  1  'x, y, z'
loop_
 _atom_site_type_symbol
 _atom_site_label
 _atom_site_symmetry_multiplicity
 _atom_site_fract_x
 _atom_site_fract_y
 _atom_site_fract_z
 _atom_site_occupancy
  Ho  Ho0  1  0.34717100  0.34717100  0.34717100  1
  Ho  Ho1  1  0.34717100  0.34717100  0.95848700  1
  Ho  Ho2  1  0.34717100  0.95848700  0.34717100  1
  Ho  Ho3  1  0.95848700  0.34717100  0.34717100  1
  Ho  Ho4  1  0.81282200  0.18717800  0.18717800  1
  Ho  Ho5  1  0.18717800  0.81282200  0.81282200  1
  Ho  Ho6  1  0.18717800  0.81282200  0.18717800  1
  Ho  Ho7  1  0.81282200  0.18717800  0.81282200  1
  Ho  Ho8  1  0.18717800  0.18717800  0.81282200  1
  Ho  Ho9  1  0.81282200  0.81282200  0.18717800  1
  Ho  Ho10  1  0.93562000  0.56438100  0.56438000  1
  Ho  Ho11  1  0.56438000  0.93562000  0.93561900  1
  Ho  Ho12  1  0.56438100  0.93562000  0.56438000  1
  Ho  Ho13  1  0.93562000  0.56438100  0.93561900  1
  Ho  Ho14  1  0.56438000  0.56438100  0.93561900  1
  Ho  Ho15  1  0.93562000  0.93562000  0.56438000  1
  Mg  Mg16  1  0.58026400  0.58026400  0.58026400  1
  Mg  Mg17  1  0.58026400  0.58026400  0.25920800  1
  Mg  Mg18  1  0.58026400  0.25920800  0.58026400  1
  Mg  Mg19  1  0.25920800  0.58026400  0.58026400  1
  Ni  Ni20  1  0.14229200  0.14229200  0.14229200  1
  Ni  Ni21  1  0.14229200  0.14229200  0.57312300  1
  Ni  Ni22  1  0.14229200  0.57312300  0.14229200  1
  Ni  Ni23  1  0.57312300  0.14229200  0.14229200  1
