# generated using pymatgen
data_IrO3
_symmetry_space_group_name_H-M   'P 1'
_cell_length_a   5.10174567
_cell_length_b   5.10174567
_cell_length_c   7.34132100
_cell_angle_alpha   90.00000000
_cell_angle_beta   90.00000000
_cell_angle_gamma   91.27688402
_symmetry_Int_Tables_number   1
_chemical_formula_structural   IrO3
_chemical_formula_sum   'Ir4 O12'
_cell_volume   191.03105143
_cell_formula_units_Z   4
loop_
 _symmetry_equiv_pos_site_id
 _symmetry_equiv_pos_as_xyz
  1  'x, y, z'
loop_
 _atom_site_type_symbol
 _atom_site_label
 _atom_site_symmetry_multiplicity
 _atom_site_fract_x
 _atom_site_fract_y
 _atom_site_fract_z
 _atom_site_occupancy
  Ir  Ir0  1  0.00000000  0.50000000  0.50000000  1
  Ir  Ir1  1  0.50000000  0.00000000  0.50000000  1
  Ir  Ir2  1  0.00000000  0.50000000  0.00000000  1
  Ir  Ir3  1  0.50000000  0.00000000  0.00000000  1
  O  O4  1  0.32914100  0.32914100  0.50000000  1
  O  O5  1  0.67085900  0.67085900  0.00000000  1
  O  O6  1  0.67085900  0.67085900  0.50000000  1
  O  O7  1  0.32914100  0.32914100  0.00000000  1
  O  O8  1  0.17157900  0.82842100  0.07370100  1
  O  O9  1  0.82842100  0.17157900  0.92629900  1
  O  O10  1  0.82842100  0.17157900  0.57370100  1
  O  O11  1  0.17157900  0.82842100  0.42629900  1
  O  O12  1  0.05187000  0.59799300  0.75000000  1
  O  O13  1  0.40200700  0.94813000  0.75000000  1
  O  O14  1  0.94813000  0.40200700  0.25000000  1
  O  O15  1  0.59799300  0.05187000  0.25000000  1
