# generated using pymatgen
data_La4B4I5
_symmetry_space_group_name_H-M   'P 1'
_cell_length_a   9.99765820
_cell_length_b   9.99765820
_cell_length_c   10.45510730
_cell_angle_alpha   72.07220359
_cell_angle_beta   72.07220359
_cell_angle_gamma   25.19396836
_symmetry_Int_Tables_number   1
_chemical_formula_structural   La4B4I5
_chemical_formula_sum   'La4 B4 I5'
_cell_volume   422.14161057
_cell_formula_units_Z   1
loop_
 _symmetry_equiv_pos_site_id
 _symmetry_equiv_pos_as_xyz
  1  'x, y, z'
loop_
 _atom_site_type_symbol
 _atom_site_label
 _atom_site_symmetry_multiplicity
 _atom_site_fract_x
 _atom_site_fract_y
 _atom_site_fract_z
 _atom_site_occupancy
  La  La0  1  0.51005400  0.51005400  0.74935400  1
  La  La1  1  0.49023800  0.49023800  0.25046500  1
  La  La2  1  0.13528900  0.13528900  0.93281300  1
  La  La3  1  0.86478600  0.86478600  0.06712600  1
  B  B4  1  0.31587800  0.68407400  0.00008000  1
  B  B5  1  0.68407400  0.31587800  0.00008000  1
  B  B6  1  0.99693600  0.99693600  0.09486600  1
  B  B7  1  0.00288700  0.00288700  0.90540500  1
  I  I8  1  0.68651800  0.68651800  0.68053200  1
  I  I9  1  0.31357900  0.31357900  0.31987400  1
  I  I10  1  0.32972500  0.32972500  0.85059500  1
  I  I11  1  0.67070400  0.67070400  0.14807800  1
  I  I12  1  0.01363200  0.01363200  0.49093200  1
