# generated using pymatgen
data_Ba2HRu3O10
_symmetry_space_group_name_H-M   'P 1'
_cell_length_a   7.16095700
_cell_length_b   10.07833500
_cell_length_c   12.33789000
_cell_angle_alpha   90.00000000
_cell_angle_beta   90.00000000
_cell_angle_gamma   90.00000000
_symmetry_Int_Tables_number   1
_chemical_formula_structural   Ba2HRu3O10
_chemical_formula_sum   'Ba8 H4 Ru12 O40'
_cell_volume   890.43198101
_cell_formula_units_Z   4
loop_
 _symmetry_equiv_pos_site_id
 _symmetry_equiv_pos_as_xyz
  1  'x, y, z'
loop_
 _atom_site_type_symbol
 _atom_site_label
 _atom_site_symmetry_multiplicity
 _atom_site_fract_x
 _atom_site_fract_y
 _atom_site_fract_z
 _atom_site_occupancy
  Ba  Ba0  1  0.47236600  0.41153900  0.35654200  1
  Ba  Ba1  1  0.97236600  0.58846100  0.14345800  1
  Ba  Ba2  1  0.52763400  0.08846100  0.85654200  1
  Ba  Ba3  1  0.02763400  0.91153900  0.64345800  1
  Ba  Ba4  1  0.52752900  0.62171400  0.63801000  1
  Ba  Ba5  1  0.02752900  0.37828600  0.86199000  1
  Ba  Ba6  1  0.47247100  0.87828600  0.13801000  1
  Ba  Ba7  1  0.97247100  0.12171400  0.36199000  1
  H  H8  1  0.88508000  0.87201500  0.22629400  1
  H  H9  1  0.38508000  0.12798500  0.27370600  1
  H  H10  1  0.11492000  0.62798500  0.72629400  1
  H  H11  1  0.61492000  0.37201500  0.77370600  1
  Ru  Ru12  1  0.80914300  0.24386100  0.10106700  1
  Ru  Ru13  1  0.30914300  0.75613900  0.39893300  1
  Ru  Ru14  1  0.19085700  0.25613900  0.60106700  1
  Ru  Ru15  1  0.69085700  0.74386100  0.89893300  1
  Ru  Ru16  1  0.18221500  0.74307700  0.91059600  1
  Ru  Ru17  1  0.68221500  0.25692300  0.58940400  1
  Ru  Ru18  1  0.81778500  0.75692300  0.41059600  1
  Ru  Ru19  1  0.31778500  0.24307700  0.08940400  1
  Ru  Ru20  1  0.50320900  0.49005500  0.99516700  1
  Ru  Ru21  1  0.00320900  0.50994500  0.50483300  1
  Ru  Ru22  1  0.49679100  0.00994500  0.49516700  1
  Ru  Ru23  1  0.99679100  0.99005500  0.00483300  1
  O  O24  1  0.74635800  0.40105900  0.01684900  1
  O  O25  1  0.24635800  0.59894100  0.48315100  1
  O  O26  1  0.25364200  0.09894100  0.51684900  1
  O  O27  1  0.75364200  0.90105900  0.98315100  1
  O  O28  1  0.91077800  0.06203600  0.14184700  1
  O  O29  1  0.41077800  0.93796400  0.35815300  1
  O  O30  1  0.08922200  0.43796400  0.64184700  1
  O  O31  1  0.58922200  0.56203600  0.85815300  1
  O  O32  1  0.06502900  0.84065900  0.40703400  1
  O  O33  1  0.56502900  0.15934100  0.09296600  1
  O  O34  1  0.93497100  0.65934100  0.90703400  1
  O  O35  1  0.43497100  0.34065900  0.59296600  1
  O  O36  1  0.37883600  0.84604300  0.54245900  1
  O  O37  1  0.87883600  0.15395700  0.95754100  1
  O  O38  1  0.62116400  0.65395700  0.04245900  1
  O  O39  1  0.12116400  0.34604200  0.45754100  1
  O  O40  1  0.78126900  0.30682700  0.23819100  1
  O  O41  1  0.28126900  0.69317300  0.26180900  1
  O  O42  1  0.21873100  0.19317300  0.73819100  1
  O  O43  1  0.71873100  0.80682700  0.76180900  1
  O  O44  1  0.62046100  0.17957300  0.44580900  1
  O  O45  1  0.12046100  0.82042700  0.05419100  1
  O  O46  1  0.37953900  0.32042700  0.94580900  1
  O  O47  1  0.87953900  0.67957300  0.55419100  1
  O  O48  1  0.41864800  0.41687600  0.13272900  1
  O  O49  1  0.91864800  0.58312400  0.36727100  1
  O  O50  1  0.58135200  0.08312400  0.63272900  1
  O  O51  1  0.08135200  0.91687600  0.86727100  1
  O  O52  1  0.56779200  0.68257700  0.40408400  1
  O  O53  1  0.06779200  0.31742200  0.09591600  1
  O  O54  1  0.43220800  0.81742300  0.90408400  1
  O  O55  1  0.93220800  0.18257800  0.59591600  1
  O  O56  1  0.24255100  0.07690300  0.02491700  1
  O  O57  1  0.74255100  0.92309700  0.47508300  1
  O  O58  1  0.75744900  0.42309700  0.52491700  1
  O  O59  1  0.25744900  0.57690300  0.97508300  1
  O  O60  1  0.20831400  0.69410300  0.74888000  1
  O  O61  1  0.70831400  0.30589700  0.75112000  1
  O  O62  1  0.79168600  0.80589700  0.24888000  1
  O  O63  1  0.29168600  0.19410300  0.25112000  1
