# generated using pymatgen
data_BeTlPO4
_symmetry_space_group_name_H-M   'P 1'
_cell_length_a   4.92747400
_cell_length_b   8.18597400
_cell_length_c   9.45452100
_cell_angle_alpha   90.00000000
_cell_angle_beta   90.00000000
_cell_angle_gamma   90.00000000
_symmetry_Int_Tables_number   1
_chemical_formula_structural   BeTlPO4
_chemical_formula_sum   'Be4 Tl4 P4 O16'
_cell_volume   381.35920461
_cell_formula_units_Z   4
loop_
 _symmetry_equiv_pos_site_id
 _symmetry_equiv_pos_as_xyz
  1  'x, y, z'
loop_
 _atom_site_type_symbol
 _atom_site_label
 _atom_site_symmetry_multiplicity
 _atom_site_fract_x
 _atom_site_fract_y
 _atom_site_fract_z
 _atom_site_occupancy
  Be  Be0  1  0.96564600  0.11545200  0.14824100  1
  Be  Be1  1  0.46564600  0.88454800  0.85175900  1
  Be  Be2  1  0.46564600  0.61545200  0.35175900  1
  Be  Be3  1  0.96564600  0.38454800  0.64824100  1
  Tl  Tl4  1  0.97156400  0.84392000  0.46712900  1
  Tl  Tl5  1  0.47156400  0.15608000  0.53287100  1
  Tl  Tl6  1  0.47156400  0.34392000  0.03287100  1
  Tl  Tl7  1  0.97156400  0.65608000  0.96712900  1
  P  P8  1  0.46593700  0.91959900  0.17084600  1
  P  P9  1  0.96593700  0.08040100  0.82915400  1
  P  P10  1  0.96593700  0.41959900  0.32915400  1
  P  P11  1  0.46593700  0.58040100  0.67084600  1
  O  O12  1  0.55286900  0.79048900  0.28092000  1
  O  O13  1  0.05286900  0.20951100  0.71908000  1
  O  O14  1  0.05286900  0.29048900  0.21908000  1
  O  O15  1  0.55286900  0.70951100  0.78092000  1
  O  O16  1  0.49577400  0.84364700  0.02139900  1
  O  O17  1  0.99577400  0.15635300  0.97860100  1
  O  O18  1  0.99577400  0.34364700  0.47860100  1
  O  O19  1  0.49577400  0.65635300  0.52139900  1
  O  O20  1  0.16846400  0.97024100  0.19998700  1
  O  O21  1  0.66846400  0.02975900  0.80001300  1
  O  O22  1  0.66846400  0.47024100  0.30001300  1
  O  O23  1  0.16846400  0.52975900  0.69998700  1
  O  O24  1  0.65074700  0.07220100  0.18592800  1
  O  O25  1  0.15074700  0.92779900  0.81407200  1
  O  O26  1  0.15074700  0.57220100  0.31407200  1
  O  O27  1  0.65074700  0.42779900  0.68592800  1
