# generated using pymatgen
data_La3Ta(Cl3O2)2
_symmetry_space_group_name_H-M   'P 1'
_cell_length_a   13.00567257
_cell_length_b   13.00567257
_cell_length_c   4.01542600
_cell_angle_alpha   90.00000000
_cell_angle_beta   90.00000000
_cell_angle_gamma   120.00000288
_symmetry_Int_Tables_number   1
_chemical_formula_structural   La3Ta(Cl3O2)2
_chemical_formula_sum   'La6 Ta2 Cl12 O8'
_cell_volume   588.20387017
_cell_formula_units_Z   2
loop_
 _symmetry_equiv_pos_site_id
 _symmetry_equiv_pos_as_xyz
  1  'x, y, z'
loop_
 _atom_site_type_symbol
 _atom_site_label
 _atom_site_symmetry_multiplicity
 _atom_site_fract_x
 _atom_site_fract_y
 _atom_site_fract_z
 _atom_site_occupancy
  La  La0  1  0.28129200  0.39733100  0.25000000  1
  La  La1  1  0.71870800  0.60266900  0.75000000  1
  La  La2  1  0.60266900  0.88396100  0.25000000  1
  La  La3  1  0.39733100  0.11603900  0.75000000  1
  La  La4  1  0.11603900  0.71870800  0.25000000  1
  La  La5  1  0.88396100  0.28129200  0.75000000  1
  Ta  Ta6  1  0.66666700  0.33333300  0.25000000  1
  Ta  Ta7  1  0.33333300  0.66666700  0.75000000  1
  Cl  Cl8  1  0.07034200  0.44337700  0.25000000  1
  Cl  Cl9  1  0.92965800  0.55662300  0.75000000  1
  Cl  Cl10  1  0.55662300  0.62696500  0.25000000  1
  Cl  Cl11  1  0.44337700  0.37303500  0.75000000  1
  Cl  Cl12  1  0.37303500  0.92965800  0.25000000  1
  Cl  Cl13  1  0.62696500  0.07034200  0.75000000  1
  Cl  Cl14  1  0.24855800  0.14287400  0.25000000  1
  Cl  Cl15  1  0.75144200  0.85712600  0.75000000  1
  Cl  Cl16  1  0.85712600  0.10568400  0.25000000  1
  Cl  Cl17  1  0.14287400  0.89431600  0.75000000  1
  Cl  Cl18  1  0.89431600  0.75144200  0.25000000  1
  Cl  Cl19  1  0.10568400  0.24855800  0.75000000  1
  O  O20  1  0.50902500  0.20122500  0.25000000  1
  O  O21  1  0.49097500  0.79877500  0.75000000  1
  O  O22  1  0.79877500  0.30780000  0.25000000  1
  O  O23  1  0.20122500  0.69220000  0.75000000  1
  O  O24  1  0.69220000  0.49097500  0.25000000  1
  O  O25  1  0.30780000  0.50902500  0.75000000  1
  O  O26  1  0.33333300  0.66666700  0.25000000  1
  O  O27  1  0.66666700  0.33333300  0.75000000  1
