# generated using pymatgen
data_NbRh3
_symmetry_space_group_name_H-M   'P 1'
_cell_length_a   5.54477971
_cell_length_b   5.54477971
_cell_length_c   13.50715900
_cell_angle_alpha   90.00000000
_cell_angle_beta   90.00000000
_cell_angle_gamma   119.99999650
_symmetry_Int_Tables_number   1
_chemical_formula_structural   NbRh3
_chemical_formula_sum   'Nb6 Rh18'
_cell_volume   359.63607730
_cell_formula_units_Z   6
loop_
 _symmetry_equiv_pos_site_id
 _symmetry_equiv_pos_as_xyz
  1  'x, y, z'
loop_
 _atom_site_type_symbol
 _atom_site_label
 _atom_site_symmetry_multiplicity
 _atom_site_fract_x
 _atom_site_fract_y
 _atom_site_fract_z
 _atom_site_occupancy
  Nb  Nb0  1  0.00000000  0.00000000  0.25000000  1
  Nb  Nb1  1  0.00000000  0.00000000  0.75000000  1
  Nb  Nb2  1  0.33333300  0.66666700  0.41069300  1
  Nb  Nb3  1  0.66666700  0.33333300  0.58930700  1
  Nb  Nb4  1  0.66666700  0.33333300  0.91069300  1
  Nb  Nb5  1  0.33333300  0.66666700  0.08930700  1
  Rh  Rh6  1  0.50384100  0.49615900  0.25000000  1
  Rh  Rh7  1  0.50384100  0.00768200  0.25000000  1
  Rh  Rh8  1  0.99231800  0.49615900  0.25000000  1
  Rh  Rh9  1  0.49615900  0.50384100  0.75000000  1
  Rh  Rh10  1  0.49615900  0.99231800  0.75000000  1
  Rh  Rh11  1  0.00768200  0.50384100  0.75000000  1
  Rh  Rh12  1  0.16600100  0.33200100  0.91746900  1
  Rh  Rh13  1  0.66799900  0.83399900  0.91746900  1
  Rh  Rh14  1  0.16600100  0.83399900  0.91746900  1
  Rh  Rh15  1  0.83399900  0.66799900  0.08253100  1
  Rh  Rh16  1  0.33200100  0.16600100  0.08253100  1
  Rh  Rh17  1  0.83399900  0.16600100  0.08253100  1
  Rh  Rh18  1  0.83399900  0.66799900  0.41746900  1
  Rh  Rh19  1  0.33200100  0.16600100  0.41746900  1
  Rh  Rh20  1  0.83399900  0.16600100  0.41746900  1
  Rh  Rh21  1  0.16600100  0.33200100  0.58253100  1
  Rh  Rh22  1  0.66799900  0.83399900  0.58253100  1
  Rh  Rh23  1  0.16600100  0.83399900  0.58253100  1
