# generated using pymatgen
data_Na10NbGaAs6
_symmetry_space_group_name_H-M   'P 1'
_cell_length_a   7.55507600
_cell_length_b   8.39626400
_cell_length_c   15.94301684
_cell_angle_alpha   59.22174960
_cell_angle_beta   90.00000000
_cell_angle_gamma   90.00000000
_symmetry_Int_Tables_number   1
_chemical_formula_structural   Na10NbGaAs6
_chemical_formula_sum   'Na20 Nb2 Ga2 As12'
_cell_volume   868.89350143
_cell_formula_units_Z   2
loop_
 _symmetry_equiv_pos_site_id
 _symmetry_equiv_pos_as_xyz
  1  'x, y, z'
loop_
 _atom_site_type_symbol
 _atom_site_label
 _atom_site_symmetry_multiplicity
 _atom_site_fract_x
 _atom_site_fract_y
 _atom_site_fract_z
 _atom_site_occupancy
  Na  Na0  1  0.73604100  0.94271800  0.24471300  1
  Na  Na1  1  0.26395900  0.94271800  0.74471300  1
  Na  Na2  1  0.76967400  0.05612700  0.75833200  1
  Na  Na3  1  0.23032600  0.05612700  0.25833200  1
  Na  Na4  1  0.27108800  0.24665400  0.41908900  1
  Na  Na5  1  0.72891200  0.24665400  0.91908900  1
  Na  Na6  1  0.22272500  0.75327900  0.57932400  1
  Na  Na7  1  0.77727500  0.75327900  0.07932400  1
  Na  Na8  1  0.08961700  0.34611900  0.58244100  1
  Na  Na9  1  0.91038300  0.34611900  0.08244100  1
  Na  Na10  1  0.40762300  0.65614400  0.41828800  1
  Na  Na11  1  0.59237700  0.65614400  0.91828800  1
  Na  Na12  1  0.59632800  0.33494900  0.24237700  1
  Na  Na13  1  0.40367200  0.33494900  0.74237700  1
  Na  Na14  1  0.90725400  0.66386100  0.75959100  1
  Na  Na15  1  0.09274600  0.66386100  0.25959100  1
  Na  Na16  1  0.76760300  0.42023400  0.40898300  1
  Na  Na17  1  0.23239700  0.42023400  0.90898300  1
  Na  Na18  1  0.73803200  0.58113300  0.58916400  1
  Na  Na19  1  0.26196800  0.58113300  0.08916400  1
  Nb  Nb20  1  0.61696300  0.98828000  0.57901900  1
  Nb  Nb21  1  0.38303700  0.98828000  0.07901900  1
  Ga  Ga22  1  0.88967700  0.01210300  0.41644500  1
  Ga  Ga23  1  0.11032300  0.01210300  0.91644500  1
  As  As24  1  0.98236400  0.31644700  0.27219700  1
  As  As25  1  0.01763600  0.31644700  0.77219700  1
  As  As26  1  0.51940500  0.69057600  0.72601800  1
  As  As27  1  0.48059500  0.69057600  0.22601800  1
  As  As28  1  0.94733600  0.01889200  0.57499000  1
  As  As29  1  0.05266400  0.01889200  0.07499000  1
  As  As30  1  0.54333700  0.98004900  0.42753800  1
  As  As31  1  0.45666300  0.98004900  0.92753800  1
  As  As32  1  0.00500600  0.72550800  0.42227700  1
  As  As33  1  0.99499400  0.72550800  0.92227700  1
  As  As34  1  0.49264900  0.26692500  0.57921400  1
  As  As35  1  0.50735100  0.26692500  0.07921400  1
