# generated using pymatgen
data_K9Fe2S7
_symmetry_space_group_name_H-M   'P 1'
_cell_length_a   12.76149600
_cell_length_b   12.76149600
_cell_length_c   12.76149600
_cell_angle_alpha   90.00000000
_cell_angle_beta   90.00000000
_cell_angle_gamma   90.00000000
_symmetry_Int_Tables_number   1
_chemical_formula_structural   K9Fe2S7
_chemical_formula_sum   'K36 Fe8 S28'
_cell_volume   2078.28338706
_cell_formula_units_Z   4
loop_
 _symmetry_equiv_pos_site_id
 _symmetry_equiv_pos_as_xyz
  1  'x, y, z'
loop_
 _atom_site_type_symbol
 _atom_site_label
 _atom_site_symmetry_multiplicity
 _atom_site_fract_x
 _atom_site_fract_y
 _atom_site_fract_z
 _atom_site_occupancy
  K  K0  1  0.70855800  0.82229500  0.54216600  1
  K  K1  1  0.26236100  0.76236100  0.73763900  1
  K  K2  1  0.73763900  0.26236100  0.76236100  1
  K  K3  1  0.76236100  0.73763900  0.26236100  1
  K  K4  1  0.05888100  0.05888100  0.05888100  1
  K  K5  1  0.44111900  0.94111900  0.55888100  1
  K  K6  1  0.55888100  0.44111900  0.94111900  1
  K  K7  1  0.94111900  0.55888100  0.44111900  1
  K  K8  1  0.83305100  0.00203500  0.29979700  1
  K  K9  1  0.29979700  0.83305100  0.00203500  1
  K  K10  1  0.00203500  0.29979700  0.83305100  1
  K  K11  1  0.49796500  0.70020300  0.33305100  1
  K  K12  1  0.79979700  0.66694900  0.99796500  1
  K  K13  1  0.99796500  0.79979700  0.66694900  1
  K  K14  1  0.20020300  0.16694900  0.50203500  1
  K  K15  1  0.70020300  0.33305100  0.49796500  1
  K  K16  1  0.58720800  0.91279200  0.08720800  1
  K  K17  1  0.91279200  0.08720800  0.58720800  1
  K  K18  1  0.08720800  0.58720800  0.91279200  1
  K  K19  1  0.41279200  0.41279200  0.41279200  1
  K  K20  1  0.32229500  0.95783400  0.29144200  1
  K  K21  1  0.82229500  0.54216600  0.70855800  1
  K  K22  1  0.50203500  0.20020300  0.16694900  1
  K  K23  1  0.54216600  0.70855800  0.82229500  1
  K  K24  1  0.20855800  0.67770500  0.45783400  1
  K  K25  1  0.23763900  0.23763900  0.23763900  1
  K  K26  1  0.95783400  0.29144200  0.32229500  1
  K  K27  1  0.29144200  0.32229500  0.95783400  1
  K  K28  1  0.45783400  0.20855800  0.67770500  1
  K  K29  1  0.04216600  0.79144200  0.17770500  1
  K  K30  1  0.79144200  0.17770500  0.04216600  1
  K  K31  1  0.17770500  0.04216600  0.79144200  1
  K  K32  1  0.66694900  0.99796500  0.79979700  1
  K  K33  1  0.16694900  0.50203500  0.20020300  1
  K  K34  1  0.33305100  0.49796500  0.70020300  1
  K  K35  1  0.67770500  0.45783400  0.20855800  1
  Fe  Fe36  1  0.09930000  0.40070000  0.59930000  1
  Fe  Fe37  1  0.40070000  0.59930000  0.09930000  1
  Fe  Fe38  1  0.59930000  0.09930000  0.40070000  1
  Fe  Fe39  1  0.90070000  0.90070000  0.90070000  1
  Fe  Fe40  1  0.42967300  0.07032700  0.92967300  1
  Fe  Fe41  1  0.07032700  0.92967300  0.42967300  1
  Fe  Fe42  1  0.92967300  0.42967300  0.07032700  1
  Fe  Fe43  1  0.57032700  0.57032700  0.57032700  1
  S  S44  1  0.20603600  0.29396400  0.70603600  1
  S  S45  1  0.29396400  0.70603600  0.20603600  1
  S  S46  1  0.70603600  0.20603600  0.29396400  1
  S  S47  1  0.79396400  0.79396400  0.79396400  1
  S  S48  1  0.42381300  0.94098100  0.81199000  1
  S  S49  1  0.92381300  0.55901900  0.18801000  1
  S  S50  1  0.57618700  0.44098100  0.68801000  1
  S  S51  1  0.55901900  0.18801000  0.92381300  1
  S  S52  1  0.68801000  0.57618700  0.44098100  1
  S  S53  1  0.18801000  0.92381300  0.55901900  1
  S  S54  1  0.94098100  0.81199000  0.42381300  1
  S  S55  1  0.81199000  0.42381300  0.94098100  1
  S  S56  1  0.44098100  0.68801000  0.57618700  1
  S  S57  1  0.05901900  0.31199000  0.07618700  1
  S  S58  1  0.31199000  0.07618700  0.05901900  1
  S  S59  1  0.07618700  0.05901900  0.31199000  1
  S  S60  1  0.58840500  0.93108400  0.33571200  1
  S  S61  1  0.08840500  0.56891600  0.66428800  1
  S  S62  1  0.41159500  0.43108400  0.16428800  1
  S  S63  1  0.56891600  0.66428800  0.08840500  1
  S  S64  1  0.16428800  0.41159500  0.43108400  1
  S  S65  1  0.66428800  0.08840500  0.56891600  1
  S  S66  1  0.93108400  0.33571200  0.58840500  1
  S  S67  1  0.33571200  0.58840500  0.93108400  1
  S  S68  1  0.43108400  0.16428800  0.41159500  1
  S  S69  1  0.06891600  0.83571200  0.91159500  1
  S  S70  1  0.83571200  0.91159500  0.06891600  1
  S  S71  1  0.91159500  0.06891600  0.83571200  1
