# generated using pymatgen
data_Nd2Au
_symmetry_space_group_name_H-M   'P 1'
_cell_length_a   5.07869100
_cell_length_b   7.33022800
_cell_length_c   9.35631600
_cell_angle_alpha   90.00000000
_cell_angle_beta   90.00000000
_cell_angle_gamma   90.00000000
_symmetry_Int_Tables_number   1
_chemical_formula_structural   Nd2Au
_chemical_formula_sum   'Nd8 Au4'
_cell_volume   348.31658560
_cell_formula_units_Z   4
loop_
 _symmetry_equiv_pos_site_id
 _symmetry_equiv_pos_as_xyz
  1  'x, y, z'
loop_
 _atom_site_type_symbol
 _atom_site_label
 _atom_site_symmetry_multiplicity
 _atom_site_fract_x
 _atom_site_fract_y
 _atom_site_fract_z
 _atom_site_occupancy
  Nd  Nd0  1  0.25000000  0.84870300  0.91466400  1
  Nd  Nd1  1  0.25000000  0.34870300  0.58533600  1
  Nd  Nd2  1  0.75000000  0.15129700  0.08533600  1
  Nd  Nd3  1  0.75000000  0.65129700  0.41466400  1
  Nd  Nd4  1  0.25000000  0.49241400  0.17572100  1
  Nd  Nd5  1  0.25000000  0.99241400  0.32427900  1
  Nd  Nd6  1  0.75000000  0.50758600  0.82427900  1
  Nd  Nd7  1  0.75000000  0.00758600  0.67572100  1
  Au  Au8  1  0.25000000  0.25710300  0.90347500  1
  Au  Au9  1  0.25000000  0.75710300  0.59652500  1
  Au  Au10  1  0.75000000  0.74289700  0.09652500  1
  Au  Au11  1  0.75000000  0.24289700  0.40347500  1
