# generated using pymatgen
data_UN2
_symmetry_space_group_name_H-M   'P 1'
_cell_length_a   3.73242213
_cell_length_b   3.73242213
_cell_length_c   3.73242213
_cell_angle_alpha   60.00000000
_cell_angle_beta   60.00000000
_cell_angle_gamma   60.00000000
_symmetry_Int_Tables_number   1
_chemical_formula_structural   UN2
_chemical_formula_sum   'U1 N2'
_cell_volume   36.76692170
_cell_formula_units_Z   1
loop_
 _symmetry_equiv_pos_site_id
 _symmetry_equiv_pos_as_xyz
  1  'x, y, z'
loop_
 _atom_site_type_symbol
 _atom_site_label
 _atom_site_symmetry_multiplicity
 _atom_site_fract_x
 _atom_site_fract_y
 _atom_site_fract_z
 _atom_site_occupancy
  U  U0  1  0.00000000  0.00000000  0.00000000  1
  N  N1  1  0.75000000  0.75000000  0.75000000  1
  N  N2  1  0.25000000  0.25000000  0.25000000  1
