# generated using pymatgen
data_La3Si6N11
_symmetry_space_group_name_H-M   'P 1'
_cell_length_a   10.24418700
_cell_length_b   10.24418700
_cell_length_c   4.88560700
_cell_angle_alpha   90.00000000
_cell_angle_beta   90.00000000
_cell_angle_gamma   90.00000000
_symmetry_Int_Tables_number   1
_chemical_formula_structural   La3Si6N11
_chemical_formula_sum   'La6 Si12 N22'
_cell_volume   512.71204984
_cell_formula_units_Z   2
loop_
 _symmetry_equiv_pos_site_id
 _symmetry_equiv_pos_as_xyz
  1  'x, y, z'
loop_
 _atom_site_type_symbol
 _atom_site_label
 _atom_site_symmetry_multiplicity
 _atom_site_fract_x
 _atom_site_fract_y
 _atom_site_fract_z
 _atom_site_occupancy
  La  La0  1  0.81877200  0.31877200  0.00878300  1
  La  La1  1  0.18122800  0.68122800  0.00878300  1
  La  La2  1  0.31877200  0.18122800  0.00878300  1
  La  La3  1  0.68122800  0.81877200  0.00878300  1
  La  La4  1  0.50000000  0.50000000  0.99757200  1
  La  La5  1  0.00000000  0.00000000  0.99757200  1
  Si  Si6  1  0.29096000  0.42125200  0.53424900  1
  Si  Si7  1  0.70904000  0.57874800  0.53424900  1
  Si  Si8  1  0.79096000  0.07874800  0.53424900  1
  Si  Si9  1  0.20904000  0.92125200  0.53424900  1
  Si  Si10  1  0.57874800  0.29096000  0.53424900  1
  Si  Si11  1  0.42125200  0.70904000  0.53424900  1
  Si  Si12  1  0.92125200  0.79096000  0.53424900  1
  Si  Si13  1  0.07874800  0.20904000  0.53424900  1
  Si  Si14  1  0.38318100  0.88318100  0.04482100  1
  Si  Si15  1  0.61681900  0.11681900  0.04482100  1
  Si  Si16  1  0.88318100  0.61681900  0.04482100  1
  Si  Si17  1  0.11681900  0.38318100  0.04482100  1
  N  N18  1  0.42043400  0.32156200  0.64263500  1
  N  N19  1  0.57956600  0.67843800  0.64263500  1
  N  N20  1  0.92043400  0.17843800  0.64263500  1
  N  N21  1  0.07956600  0.82156200  0.64263500  1
  N  N22  1  0.67843800  0.42043400  0.64263500  1
  N  N23  1  0.32156200  0.57956600  0.64263500  1
  N  N24  1  0.82156200  0.92043400  0.64263500  1
  N  N25  1  0.17843800  0.07956600  0.64263500  1
  N  N26  1  0.26795600  0.42520300  0.18120100  1
  N  N27  1  0.73204400  0.57479700  0.18120100  1
  N  N28  1  0.76795600  0.07479700  0.18120100  1
  N  N29  1  0.23204400  0.92520300  0.18120100  1
  N  N30  1  0.57479700  0.26795600  0.18120100  1
  N  N31  1  0.42520300  0.73204400  0.18120100  1
  N  N32  1  0.92520300  0.76795600  0.18120100  1
  N  N33  1  0.07479700  0.23204400  0.18120100  1
  N  N34  1  0.34581200  0.84581200  0.69884900  1
  N  N35  1  0.65418800  0.15418800  0.69884900  1
  N  N36  1  0.84581200  0.65418800  0.69884900  1
  N  N37  1  0.15418800  0.34581200  0.69884900  1
  N  N38  1  0.00000000  0.50000000  0.06910300  1
  N  N39  1  0.50000000  0.00000000  0.06910300  1
