# generated using pymatgen
data_Ag3Sn2(GeP2)3
_symmetry_space_group_name_H-M   'P 1'
_cell_length_a   9.20276526
_cell_length_b   9.20276526
_cell_length_c   9.20276526
_cell_angle_alpha   109.47122063
_cell_angle_beta   109.47122063
_cell_angle_gamma   109.47122063
_symmetry_Int_Tables_number   1
_chemical_formula_structural   Ag3Sn2(GeP2)3
_chemical_formula_sum   'Ag6 Sn4 Ge6 P12'
_cell_volume   599.97498335
_cell_formula_units_Z   2
loop_
 _symmetry_equiv_pos_site_id
 _symmetry_equiv_pos_as_xyz
  1  'x, y, z'
loop_
 _atom_site_type_symbol
 _atom_site_label
 _atom_site_symmetry_multiplicity
 _atom_site_fract_x
 _atom_site_fract_y
 _atom_site_fract_z
 _atom_site_occupancy
  Ag  Ag0  1  0.19612700  0.19612700  0.00000000  1
  Ag  Ag1  1  0.80387300  0.80387300  0.00000000  1
  Ag  Ag2  1  0.00000000  0.19612700  0.19612700  1
  Ag  Ag3  1  0.00000000  0.80387300  0.80387300  1
  Ag  Ag4  1  0.80387300  0.00000000  0.80387300  1
  Ag  Ag5  1  0.19612700  0.00000000  0.19612700  1
  Sn  Sn6  1  0.41154900  0.41154900  0.41154900  1
  Sn  Sn7  1  0.58845100  0.00000000  0.00000000  1
  Sn  Sn8  1  0.00000000  0.00000000  0.58845100  1
  Sn  Sn9  1  0.00000000  0.58845100  0.00000000  1
  Ge  Ge10  1  0.25000000  0.75000000  0.50000000  1
  Ge  Ge11  1  0.75000000  0.25000000  0.50000000  1
  Ge  Ge12  1  0.75000000  0.50000000  0.25000000  1
  Ge  Ge13  1  0.50000000  0.75000000  0.25000000  1
  Ge  Ge14  1  0.25000000  0.50000000  0.75000000  1
  Ge  Ge15  1  0.50000000  0.25000000  0.75000000  1
  P  P16  1  0.50945400  0.50945400  0.74927100  1
  P  P17  1  0.00000000  0.49054600  0.23981700  1
  P  P18  1  0.49054600  0.00000000  0.23981700  1
  P  P19  1  0.50945400  0.74927100  0.50945400  1
  P  P20  1  0.23981700  0.49054600  0.00000000  1
  P  P21  1  0.49054600  0.23981700  0.00000000  1
  P  P22  1  0.76018300  0.76018300  0.25072900  1
  P  P23  1  0.76018300  0.25072900  0.76018300  1
  P  P24  1  0.74927100  0.50945400  0.50945400  1
  P  P25  1  0.23981700  0.00000000  0.49054600  1
  P  P26  1  0.00000000  0.23981700  0.49054600  1
  P  P27  1  0.25072900  0.76018300  0.76018300  1
