# generated using pymatgen
data_Tm2O3
_symmetry_space_group_name_H-M   'P 1'
_cell_length_a   9.07189670
_cell_length_b   9.07189670
_cell_length_c   9.07189670
_cell_angle_alpha   109.47122063
_cell_angle_beta   109.47122063
_cell_angle_gamma   109.47122063
_symmetry_Int_Tables_number   1
_chemical_formula_structural   Tm2O3
_chemical_formula_sum   'Tm16 O24'
_cell_volume   574.74128924
_cell_formula_units_Z   8
loop_
 _symmetry_equiv_pos_site_id
 _symmetry_equiv_pos_as_xyz
  1  'x, y, z'
loop_
 _atom_site_type_symbol
 _atom_site_label
 _atom_site_symmetry_multiplicity
 _atom_site_fract_x
 _atom_site_fract_y
 _atom_site_fract_z
 _atom_site_occupancy
  Tm  Tm0  1  0.50000000  0.00000000  0.50000000  1
  Tm  Tm1  1  0.00000000  0.50000000  0.50000000  1
  Tm  Tm2  1  0.00000000  0.00000000  0.00000000  1
  Tm  Tm3  1  0.50000000  0.50000000  0.00000000  1
  Tm  Tm4  1  0.21677800  0.75000000  0.96677800  1
  Tm  Tm5  1  0.96677800  0.21677800  0.75000000  1
  Tm  Tm6  1  0.25000000  0.53322200  0.28322200  1
  Tm  Tm7  1  0.53322200  0.28322200  0.25000000  1
  Tm  Tm8  1  0.75000000  0.96677800  0.21677800  1
  Tm  Tm9  1  0.28322200  0.25000000  0.53322200  1
  Tm  Tm10  1  0.78322200  0.25000000  0.03322200  1
  Tm  Tm11  1  0.03322200  0.78322200  0.25000000  1
  Tm  Tm12  1  0.75000000  0.46677800  0.71677800  1
  Tm  Tm13  1  0.46677800  0.71677800  0.75000000  1
  Tm  Tm14  1  0.25000000  0.03322200  0.78322200  1
  Tm  Tm15  1  0.71677800  0.75000000  0.46677800  1
  O  O16  1  0.51117800  0.77213300  0.54322100  1
  O  O17  1  0.23904500  0.77108800  0.72786700  1
  O  O18  1  0.96795700  0.95677900  0.72891200  1
  O  O19  1  0.95677900  0.72891200  0.96795700  1
  O  O20  1  0.53204300  0.26095500  0.98882200  1
  O  O21  1  0.54322100  0.51117800  0.77213300  1
  O  O22  1  0.77213300  0.54322100  0.51117800  1
  O  O23  1  0.72786700  0.23904500  0.77108800  1
  O  O24  1  0.26095500  0.98882200  0.53204300  1
  O  O25  1  0.72891200  0.96795700  0.95677900  1
  O  O26  1  0.98882200  0.53204300  0.26095500  1
  O  O27  1  0.77108800  0.72786700  0.23904500  1
  O  O28  1  0.48882200  0.22786700  0.45677900  1
  O  O29  1  0.76095500  0.22891200  0.27213300  1
  O  O30  1  0.03204300  0.04322100  0.27108800  1
  O  O31  1  0.04322100  0.27108800  0.03204300  1
  O  O32  1  0.46795700  0.73904500  0.01117800  1
  O  O33  1  0.45677900  0.48882200  0.22786700  1
  O  O34  1  0.22786700  0.45677900  0.48882200  1
  O  O35  1  0.27213300  0.76095500  0.22891200  1
  O  O36  1  0.73904500  0.01117800  0.46795700  1
  O  O37  1  0.27108800  0.03204300  0.04322100  1
  O  O38  1  0.01117800  0.46795700  0.73904500  1
  O  O39  1  0.22891200  0.27213300  0.76095500  1
