# generated using pymatgen
data_CsLa6FeI10
_symmetry_space_group_name_H-M   'P 1'
_cell_length_a   14.07332898
_cell_length_b   15.72275538
_cell_length_c   14.44738351
_cell_angle_alpha   89.99174751
_cell_angle_beta   89.99930427
_cell_angle_gamma   89.99989077
_symmetry_Int_Tables_number   1
_chemical_formula_structural   CsLa6FeI10
_chemical_formula_sum   'Cs4 La24 Fe4 I40'
_cell_volume   3196.79431574
_cell_formula_units_Z   4
loop_
 _symmetry_equiv_pos_site_id
 _symmetry_equiv_pos_as_xyz
  1  'x, y, z'
loop_
 _atom_site_type_symbol
 _atom_site_label
 _atom_site_symmetry_multiplicity
 _atom_site_fract_x
 _atom_site_fract_y
 _atom_site_fract_z
 _atom_site_occupancy
  Cs  Cs0  1  0.75002895  0.58215914  0.51321633  1
  Cs  Cs1  1  0.24999895  0.41795552  0.48669642  1
  Cs  Cs2  1  0.24999094  0.91780603  0.01313387  1
  Cs  Cs3  1  0.74998829  0.08208524  0.98679245  1
  La  La4  1  0.75004453  0.99353352  0.60515643  1
  La  La5  1  0.25003854  0.00622473  0.39493002  1
  La  La6  1  0.24997124  0.50650602  0.10482636  1
  La  La7  1  0.74993943  0.49348079  0.89510659  1
  La  La8  1  0.74997791  0.76818905  0.10326343  1
  La  La9  1  0.24996345  0.23194121  0.89681069  1
  La  La10  1  0.25002129  0.73151467  0.60321427  1
  La  La11  1  0.75006047  0.26859292  0.39670308  1
  La  La12  1  0.39297334  0.94283276  0.61853511  1
  La  La13  1  0.60697850  0.05699897  0.38135586  1
  La  La14  1  0.60690797  0.55689353  0.11856793  1
  La  La15  1  0.89308438  0.05702744  0.38134729  1
  La  La16  1  0.39292954  0.44318831  0.88153886  1
  La  La17  1  0.10703729  0.94281008  0.61857044  1
  La  La18  1  0.10707235  0.44316320  0.88155157  1
  La  La19  1  0.89299418  0.55694867  0.11856120  1
  La  La20  1  0.89274622  0.70438463  0.88310686  1
  La  La21  1  0.10729389  0.29583214  0.11681972  1
  La  La22  1  0.10736922  0.79536717  0.38293870  1
  La  La23  1  0.39264143  0.29577818  0.11685697  1
  La  La24  1  0.89282708  0.20462229  0.61717314  1
  La  La25  1  0.60718599  0.70432063  0.88308391  1
  La  La26  1  0.60723212  0.20458593  0.61715385  1
  La  La27  1  0.39269626  0.79534424  0.38293402  1
  Fe  Fe28  1  0.74985394  0.62896906  0.99913995  1
  Fe  Fe29  1  0.24990922  0.37134674  0.00097679  1
  Fe  Fe30  1  0.25006336  0.87087266  0.49904231  1
  Fe  Fe31  1  0.75010158  0.12900616  0.50114021  1
  I  I32  1  0.92486412  0.53700258  0.75181738  1
  I  I33  1  0.07509341  0.46308085  0.24818585  1
  I  I34  1  0.07514811  0.96269577  0.25142758  1
  I  I35  1  0.42490367  0.46306705  0.24820744  1
  I  I36  1  0.92490037  0.03716498  0.74854389  1
  I  I37  1  0.57511445  0.53697924  0.75175477  1
  I  I38  1  0.57510594  0.03714993  0.74853301  1
  I  I39  1  0.42488970  0.96270725  0.25141470  1
  I  I40  1  0.91664506  0.87443605  0.49892203  1
  I  I41  1  0.08340921  0.12538262  0.50104855  1
  I  I42  1  0.08325261  0.62536021  0.99909496  1
  I  I43  1  0.41663208  0.12539404  0.50103367  1
  I  I44  1  0.91667654  0.37474977  0.00097197  1
  I  I45  1  0.58335580  0.87444537  0.49892136  1
  I  I46  1  0.58330114  0.37472615  0.00099199  1
  I  I47  1  0.41667846  0.62536686  0.99908760  1
  I  I48  1  0.74999977  0.96299931  0.23565626  1
  I  I49  1  0.24999727  0.03688655  0.76431486  1
  I  I50  1  0.25000533  0.53703536  0.73582492  1
  I  I51  1  0.74997789  0.46305865  0.26411771  1
  I  I52  1  0.75000480  0.78247645  0.72480899  1
  I  I53  1  0.24997296  0.21750646  0.27511439  1
  I  I54  1  0.25000546  0.71707354  0.22449675  1
  I  I55  1  0.75000534  0.28289272  0.77547517  1
  I  I56  1  0.40908781  0.78721010  0.76368465  1
  I  I57  1  0.59093394  0.21272309  0.23623546  1
  I  I58  1  0.59082765  0.71242681  0.26353717  1
  I  I59  1  0.90911957  0.21278414  0.23623200  1
  I  I60  1  0.40920218  0.28760243  0.73651912  1
  I  I61  1  0.09090479  0.78719738  0.76370788  1
  I  I62  1  0.09082367  0.28761965  0.73650024  1
  I  I63  1  0.90918317  0.71241863  0.26352052  1
  I  I64  1  0.91784980  0.87724790  0.99952943  1
  I  I65  1  0.08218260  0.12277666  0.00049282  1
  I  I66  1  0.08206976  0.62240454  0.49948737  1
  I  I67  1  0.41784563  0.12277100  0.00050521  1
  I  I68  1  0.91789691  0.37763193  0.50050706  1
  I  I69  1  0.58214652  0.87727481  0.99954359  1
  I  I70  1  0.58215476  0.37759943  0.50051181  1
  I  I71  1  0.41790987  0.62239211  0.49947519  1
