# generated using pymatgen
data_Li3Mn2(SeO3)4
_symmetry_space_group_name_H-M   'P 1'
_cell_length_a   7.60261700
_cell_length_b   8.37040806
_cell_length_c   10.56099301
_cell_angle_alpha   106.12772948
_cell_angle_beta   88.74504476
_cell_angle_gamma   114.70902710
_symmetry_Int_Tables_number   1
_chemical_formula_structural   Li3Mn2(SeO3)4
_chemical_formula_sum   'Li6 Mn4 Se8 O24'
_cell_volume   583.08120182
_cell_formula_units_Z   2
loop_
 _symmetry_equiv_pos_site_id
 _symmetry_equiv_pos_as_xyz
  1  'x, y, z'
loop_
 _atom_site_type_symbol
 _atom_site_label
 _atom_site_symmetry_multiplicity
 _atom_site_fract_x
 _atom_site_fract_y
 _atom_site_fract_z
 _atom_site_occupancy
  Li  Li0  1  0.65091700  0.54267900  0.91790200  1
  Li  Li1  1  0.34908300  0.45732100  0.08209800  1
  Li  Li2  1  0.05562900  0.38013000  0.82977300  1
  Li  Li3  1  0.94437100  0.61987000  0.17022700  1
  Li  Li4  1  0.75519300  0.54609400  0.42202300  1
  Li  Li5  1  0.24480700  0.45390600  0.57797700  1
  Mn  Mn6  1  0.93968600  0.28824600  0.27937300  1
  Mn  Mn7  1  0.06031400  0.71175400  0.72062700  1
  Mn  Mn8  1  0.00000000  0.00000000  0.00000000  1
  Mn  Mn9  1  0.00000000  0.00000000  0.50000000  1
  Se  Se10  1  0.71549000  0.20902100  0.97940000  1
  Se  Se11  1  0.28451000  0.79097900  0.02060000  1
  Se  Se12  1  0.67473500  0.74494200  0.70435400  1
  Se  Se13  1  0.32526500  0.25505800  0.29564600  1
  Se  Se14  1  0.31232000  0.17593000  0.76737500  1
  Se  Se15  1  0.68768000  0.82407000  0.23262500  1
  Se  Se16  1  0.73566800  0.24803000  0.56944000  1
  Se  Se17  1  0.26433200  0.75197000  0.43056000  1
  O  O18  1  0.72981500  0.28996300  0.41949000  1
  O  O19  1  0.27018500  0.71003700  0.58051000  1
  O  O20  1  0.96189600  0.41207100  0.64696200  1
  O  O21  1  0.03810400  0.58792900  0.35303800  1
  O  O22  1  0.19074100  0.00510300  0.84638200  1
  O  O23  1  0.80925900  0.99489700  0.15361800  1
  O  O24  1  0.77697400  0.37020900  0.89765900  1
  O  O25  1  0.22302600  0.62979100  0.10234100  1
  O  O26  1  0.85863200  0.75265800  0.59640200  1
  O  O27  1  0.14136800  0.24734200  0.40359800  1
  O  O28  1  0.35995800  0.37176800  0.89122800  1
  O  O29  1  0.64004200  0.62823200  0.10877200  1
  O  O30  1  0.12281200  0.17946600  0.67652200  1
  O  O31  1  0.87718800  0.82053400  0.32347800  1
  O  O32  1  0.80821700  0.74660900  0.84269800  1
  O  O33  1  0.19178300  0.25339100  0.15730200  1
  O  O34  1  0.76625400  0.04328000  0.52344600  1
  O  O35  1  0.23374600  0.95672000  0.47655400  1
  O  O36  1  0.91339800  0.15122300  0.93357300  1
  O  O37  1  0.08660200  0.84877700  0.06642700  1
  O  O38  1  0.51777800  0.52059800  0.65282300  1
  O  O39  1  0.48222200  0.47940200  0.34717700  1
  O  O40  1  0.78479500  0.34064600  0.14182600  1
  O  O41  1  0.21520500  0.65935400  0.85817400  1
