# generated using pymatgen
data_KP15
_symmetry_space_group_name_H-M   'P 1'
_cell_length_a   7.47380900
_cell_length_b   9.41077968
_cell_length_c   12.50117621
_cell_angle_alpha   89.35945130
_cell_angle_beta   100.93522046
_cell_angle_gamma   110.63525528
_symmetry_Int_Tables_number   1
_chemical_formula_structural   KP15
_chemical_formula_sum   'K2 P30'
_cell_volume   806.42591779
_cell_formula_units_Z   2
loop_
 _symmetry_equiv_pos_site_id
 _symmetry_equiv_pos_as_xyz
  1  'x, y, z'
loop_
 _atom_site_type_symbol
 _atom_site_label
 _atom_site_symmetry_multiplicity
 _atom_site_fract_x
 _atom_site_fract_y
 _atom_site_fract_z
 _atom_site_occupancy
  K  K0  1  0.21341700  0.20926400  0.00141800  1
  K  K1  1  0.78658300  0.79073600  0.99858200  1
  P  P2  1  0.01390800  0.43184000  0.81585800  1
  P  P3  1  0.98609200  0.56816000  0.18414200  1
  P  P4  1  0.29360500  0.87804200  0.18510500  1
  P  P5  1  0.70639500  0.12195800  0.81489500  1
  P  P6  1  0.11710200  0.76366700  0.30513100  1
  P  P7  1  0.88289800  0.23633300  0.69486900  1
  P  P8  1  0.33367400  0.69131600  0.43101000  1
  P  P9  1  0.66632600  0.30868400  0.56899000  1
  P  P10  1  0.20314500  0.58905000  0.71799100  1
  P  P11  1  0.79685500  0.41095000  0.28200900  1
  P  P12  1  0.00756900  0.33992900  0.40553400  1
  P  P13  1  0.99243100  0.66007100  0.59446600  1
  P  P14  1  0.52033200  0.26497800  0.81133600  1
  P  P15  1  0.47966800  0.73502200  0.18866400  1
  P  P16  1  0.31229100  0.98335100  0.59322800  1
  P  P17  1  0.68770900  0.01664900  0.40677200  1
  P  P18  1  0.29643200  0.46263700  0.36774900  1
  P  P19  1  0.70356800  0.53736300  0.63225100  1
  P  P20  1  0.03669200  0.89354000  0.65741100  1
  P  P21  1  0.96330800  0.10646000  0.34258900  1
  P  P22  1  0.75660000  0.50311100  0.81107600  1
  P  P23  1  0.24340000  0.49688900  0.18892400  1
  P  P24  1  0.60601500  0.77196200  0.36725200  1
  P  P25  1  0.39398500  0.22803800  0.63274800  1
  P  P26  1  0.52343300  0.91145300  0.71578200  1
  P  P27  1  0.47656700  0.08854700  0.28421800  1
  P  P28  1  0.12493600  0.89679100  0.83243600  1
  P  P29  1  0.87506400  0.10320900  0.16756400  1
  P  P30  1  0.34095200  0.79312100  0.83530700  1
  P  P31  1  0.65904800  0.20687900  0.16469300  1
