# generated using pymatgen
data_Tm(AlGe)2
_symmetry_space_group_name_H-M   'P 1'
_cell_length_a   4.28561932
_cell_length_b   4.28561932
_cell_length_c   6.52420600
_cell_angle_alpha   90.00000000
_cell_angle_beta   90.00000000
_cell_angle_gamma   119.99998943
_symmetry_Int_Tables_number   1
_chemical_formula_structural   Tm(AlGe)2
_chemical_formula_sum   'Tm1 Al2 Ge2'
_cell_volume   103.77327542
_cell_formula_units_Z   1
loop_
 _symmetry_equiv_pos_site_id
 _symmetry_equiv_pos_as_xyz
  1  'x, y, z'
loop_
 _atom_site_type_symbol
 _atom_site_label
 _atom_site_symmetry_multiplicity
 _atom_site_fract_x
 _atom_site_fract_y
 _atom_site_fract_z
 _atom_site_occupancy
  Tm  Tm0  1  0.00000000  0.00000000  0.00000000  1
  Al  Al1  1  0.66666700  0.33333300  0.35345500  1
  Al  Al2  1  0.33333300  0.66666700  0.64654500  1
  Ge  Ge3  1  0.66666700  0.33333300  0.74718700  1
  Ge  Ge4  1  0.33333300  0.66666700  0.25281300  1
