# generated using pymatgen
data_HoAlAu
_symmetry_space_group_name_H-M   'P 1'
_cell_length_a   4.44024800
_cell_length_b   7.16152800
_cell_length_c   7.83364600
_cell_angle_alpha   90.00000000
_cell_angle_beta   90.00000000
_cell_angle_gamma   90.00000000
_symmetry_Int_Tables_number   1
_chemical_formula_structural   HoAlAu
_chemical_formula_sum   'Ho4 Al4 Au4'
_cell_volume   249.10179878
_cell_formula_units_Z   4
loop_
 _symmetry_equiv_pos_site_id
 _symmetry_equiv_pos_as_xyz
  1  'x, y, z'
loop_
 _atom_site_type_symbol
 _atom_site_label
 _atom_site_symmetry_multiplicity
 _atom_site_fract_x
 _atom_site_fract_y
 _atom_site_fract_z
 _atom_site_occupancy
  Ho  Ho0  1  0.25000000  0.00951300  0.30655300  1
  Ho  Ho1  1  0.25000000  0.50951300  0.19344700  1
  Ho  Ho2  1  0.75000000  0.99048700  0.69344700  1
  Ho  Ho3  1  0.75000000  0.49048700  0.80655300  1
  Al  Al4  1  0.25000000  0.16761600  0.92505700  1
  Al  Al5  1  0.25000000  0.66761600  0.57494300  1
  Al  Al6  1  0.75000000  0.83238400  0.07494300  1
  Al  Al7  1  0.75000000  0.33238400  0.42505700  1
  Au  Au8  1  0.25000000  0.28502000  0.60024200  1
  Au  Au9  1  0.25000000  0.78502000  0.89975800  1
  Au  Au10  1  0.75000000  0.71498000  0.39975800  1
  Au  Au11  1  0.75000000  0.21498000  0.10024200  1
