# generated using pymatgen
data_Yb11Bi10
_symmetry_space_group_name_H-M   'P 1'
_cell_length_a   12.44081689
_cell_length_b   12.44081689
_cell_length_c   12.44081689
_cell_angle_alpha   120.67007540
_cell_angle_beta   120.67007540
_cell_angle_gamma   88.84326147
_symmetry_Int_Tables_number   1
_chemical_formula_structural   Yb11Bi10
_chemical_formula_sum   'Yb22 Bi20'
_cell_volume   1347.45622404
_cell_formula_units_Z   2
loop_
 _symmetry_equiv_pos_site_id
 _symmetry_equiv_pos_as_xyz
  1  'x, y, z'
loop_
 _atom_site_type_symbol
 _atom_site_label
 _atom_site_symmetry_multiplicity
 _atom_site_fract_x
 _atom_site_fract_y
 _atom_site_fract_z
 _atom_site_occupancy
  Yb  Yb0  1  0.94431700  0.60346500  0.34085100  1
  Yb  Yb1  1  0.26261400  0.60346500  0.65914900  1
  Yb  Yb2  1  0.60346500  0.26261400  0.65914900  1
  Yb  Yb3  1  0.60346500  0.94431700  0.34085100  1
  Yb  Yb4  1  0.05568300  0.39653500  0.65914900  1
  Yb  Yb5  1  0.73738600  0.39653500  0.34085100  1
  Yb  Yb6  1  0.39653500  0.73738600  0.34085100  1
  Yb  Yb7  1  0.39653500  0.05568300  0.65914900  1
  Yb  Yb8  1  0.06018800  0.80955200  0.25063600  1
  Yb  Yb9  1  0.55891700  0.80955200  0.74936400  1
  Yb  Yb10  1  0.80955200  0.55891700  0.74936400  1
  Yb  Yb11  1  0.80955200  0.06018800  0.25063600  1
  Yb  Yb12  1  0.93981200  0.19044800  0.74936400  1
  Yb  Yb13  1  0.44108300  0.19044800  0.25063600  1
  Yb  Yb14  1  0.19044800  0.44108300  0.25063600  1
  Yb  Yb15  1  0.19044800  0.93981200  0.74936400  1
  Yb  Yb16  1  0.66309500  0.66309500  0.00000000  1
  Yb  Yb17  1  0.33690500  0.33690500  0.00000000  1
  Yb  Yb18  1  0.16183300  0.16183300  0.32366600  1
  Yb  Yb19  1  0.83816700  0.83816700  0.67633400  1
  Yb  Yb20  1  0.16183300  0.83816700  0.00000000  1
  Yb  Yb21  1  0.83816700  0.16183300  0.00000000  1
  Bi  Bi22  1  0.25000000  0.75000000  0.50000000  1
  Bi  Bi23  1  0.75000000  0.25000000  0.50000000  1
  Bi  Bi24  1  0.87196500  0.87196500  0.00000000  1
  Bi  Bi25  1  0.12803500  0.12803500  0.00000000  1
  Bi  Bi26  1  0.00000000  0.34889900  0.34889900  1
  Bi  Bi27  1  0.00000000  0.65110100  0.65110100  1
  Bi  Bi28  1  0.34889900  0.00000000  0.34889900  1
  Bi  Bi29  1  0.65110100  0.00000000  0.65110100  1
  Bi  Bi30  1  0.87691900  0.87691900  0.40846100  1
  Bi  Bi31  1  0.46845800  0.46845800  0.59153900  1
  Bi  Bi32  1  0.87691900  0.46845800  0.00000000  1
  Bi  Bi33  1  0.46845800  0.87691900  0.00000000  1
  Bi  Bi34  1  0.12308100  0.12308100  0.59153900  1
  Bi  Bi35  1  0.53154200  0.53154200  0.40846100  1
  Bi  Bi36  1  0.12308100  0.53154200  0.00000000  1
  Bi  Bi37  1  0.53154200  0.12308100  0.00000000  1
  Bi  Bi38  1  0.36718700  0.36718700  0.73437300  1
  Bi  Bi39  1  0.63281300  0.63281300  0.26562700  1
  Bi  Bi40  1  0.36718700  0.63281300  0.00000000  1
  Bi  Bi41  1  0.63281300  0.36718700  0.00000000  1
