# generated using pymatgen
data_Na2CeH2C5O11
_symmetry_space_group_name_H-M   'P 1'
_cell_length_a   11.72302200
_cell_length_b   7.89970200
_cell_length_c   13.05544738
_cell_angle_alpha   64.61922783
_cell_angle_beta   90.00000000
_cell_angle_gamma   90.00000000
_symmetry_Int_Tables_number   1
_chemical_formula_structural   Na2CeH2C5O11
_chemical_formula_sum   'Na8 Ce4 H8 C20 O44'
_cell_volume   1092.34594383
_cell_formula_units_Z   4
loop_
 _symmetry_equiv_pos_site_id
 _symmetry_equiv_pos_as_xyz
  1  'x, y, z'
loop_
 _atom_site_type_symbol
 _atom_site_label
 _atom_site_symmetry_multiplicity
 _atom_site_fract_x
 _atom_site_fract_y
 _atom_site_fract_z
 _atom_site_occupancy
  Na  Na0  1  0.79489200  0.78474000  0.57446200  1
  Na  Na1  1  0.70510800  0.78474000  0.07446200  1
  Na  Na2  1  0.20510800  0.21526000  0.42553800  1
  Na  Na3  1  0.29489200  0.21526000  0.92553800  1
  Na  Na4  1  0.18828000  0.21960600  0.16603500  1
  Na  Na5  1  0.31172000  0.21960600  0.66603500  1
  Na  Na6  1  0.81172000  0.78039400  0.83396500  1
  Na  Na7  1  0.68828000  0.78039400  0.33396500  1
  Ce  Ce8  1  0.81464000  0.29804500  0.82627300  1
  Ce  Ce9  1  0.68536000  0.29804500  0.32627300  1
  Ce  Ce10  1  0.18536000  0.70195500  0.17372700  1
  Ce  Ce11  1  0.31464000  0.70195500  0.67372700  1
  H  H12  1  0.93047700  0.79809100  0.36649600  1
  H  H13  1  0.56952300  0.79809100  0.86649600  1
  H  H14  1  0.06952300  0.20190900  0.63350400  1
  H  H15  1  0.43047700  0.20190900  0.13350400  1
  H  H16  1  0.90954700  0.99384900  0.36524000  1
  H  H17  1  0.59045300  0.99384900  0.86524000  1
  H  H18  1  0.09045300  0.00615100  0.63476000  1
  H  H19  1  0.40954700  0.00615100  0.13476000  1
  C  C20  1  0.02673400  0.08193200  0.00990700  1
  C  C21  1  0.47326600  0.08193200  0.50990700  1
  C  C22  1  0.97326600  0.91806800  0.99009300  1
  C  C23  1  0.52673400  0.91806800  0.49009300  1
  C  C24  1  0.07859600  0.41360600  0.73884400  1
  C  C25  1  0.42140400  0.41360600  0.23884400  1
  C  C26  1  0.92140400  0.58639400  0.26115600  1
  C  C27  1  0.57859600  0.58639400  0.76115600  1
  C  C28  1  0.03204900  0.60441200  0.72711100  1
  C  C29  1  0.46795100  0.60441200  0.22711100  1
  C  C30  1  0.96795100  0.39558800  0.27288900  1
  C  C31  1  0.53204900  0.39558800  0.77288900  1
  C  C32  1  0.75678300  0.38872800  0.55235800  1
  C  C33  1  0.74321700  0.38872800  0.05235800  1
  C  C34  1  0.24321700  0.61127200  0.44764200  1
  C  C35  1  0.25678300  0.61127200  0.94764200  1
  C  C36  1  0.77840300  0.17631300  0.60258800  1
  C  C37  1  0.72159700  0.17631300  0.10258800  1
  C  C38  1  0.22159700  0.82368700  0.39741200  1
  C  C39  1  0.27840300  0.82368700  0.89741200  1
  O  O40  1  0.97777700  0.23842600  0.96633800  1
  O  O41  1  0.52222300  0.23842600  0.46633800  1
  O  O42  1  0.02222300  0.76157400  0.03366200  1
  O  O43  1  0.47777700  0.76157400  0.53366200  1
  O  O44  1  0.11792300  0.04451900  0.06923700  1
  O  O45  1  0.38207700  0.04451900  0.56923700  1
  O  O46  1  0.88207700  0.95548100  0.93076300  1
  O  O47  1  0.61792300  0.95548100  0.43076300  1
  O  O48  1  0.00569200  0.29616600  0.73587700  1
  O  O49  1  0.49430800  0.29616600  0.23587700  1
  O  O50  1  0.99430800  0.70383400  0.26412300  1
  O  O51  1  0.50569200  0.70383400  0.76412300  1
  O  O52  1  0.18544300  0.38919800  0.74785600  1
  O  O53  1  0.31455700  0.38919800  0.24785600  1
  O  O54  1  0.81455700  0.61080200  0.25214400  1
  O  O55  1  0.68544300  0.61080200  0.75214400  1
  O  O56  1  0.92601600  0.61294200  0.74580200  1
  O  O57  1  0.57398400  0.61294200  0.24580200  1
  O  O58  1  0.07398400  0.38705800  0.25419800  1
  O  O59  1  0.42601600  0.38705800  0.75419800  1
  O  O60  1  0.10222700  0.73965000  0.69736800  1
  O  O61  1  0.39777300  0.73965000  0.19736800  1
  O  O62  1  0.89777300  0.26035000  0.30263200  1
  O  O63  1  0.60222700  0.26035000  0.80263200  1
  O  O64  1  0.78153000  0.47083000  0.61400700  1
  O  O65  1  0.71847000  0.47083000  0.11400700  1
  O  O66  1  0.21847000  0.52917000  0.38599300  1
  O  O67  1  0.28153000  0.52917000  0.88599300  1
  O  O68  1  0.71723000  0.46653700  0.45270100  1
  O  O69  1  0.78277000  0.46653700  0.95270100  1
  O  O70  1  0.28277000  0.53346300  0.54729900  1
  O  O71  1  0.21723000  0.53346300  0.04729900  1
  O  O72  1  0.79753800  0.09478000  0.70840400  1
  O  O73  1  0.70246200  0.09478000  0.20840400  1
  O  O74  1  0.20246200  0.90522000  0.29159600  1
  O  O75  1  0.29753800  0.90522000  0.79159600  1
  O  O76  1  0.77613300  0.10162400  0.53396000  1
  O  O77  1  0.72386700  0.10162400  0.03396000  1
  O  O78  1  0.22386700  0.89837600  0.46604000  1
  O  O79  1  0.27613300  0.89837600  0.96604000  1
  O  O80  1  0.88691200  0.86116600  0.40450800  1
  O  O81  1  0.61308800  0.86116600  0.90450800  1
  O  O82  1  0.11308800  0.13883400  0.59549200  1
  O  O83  1  0.38691200  0.13883400  0.09549200  1
