# generated using pymatgen
data_Yb(TmS2)2
_symmetry_space_group_name_H-M   'P 1'
_cell_length_a   3.83858000
_cell_length_b   12.81630400
_cell_length_c   13.01214300
_cell_angle_alpha   90.00000000
_cell_angle_beta   90.00000000
_cell_angle_gamma   90.00000000
_symmetry_Int_Tables_number   1
_chemical_formula_structural   Yb(TmS2)2
_chemical_formula_sum   'Yb4 Tm8 S16'
_cell_volume   640.15069869
_cell_formula_units_Z   4
loop_
 _symmetry_equiv_pos_site_id
 _symmetry_equiv_pos_as_xyz
  1  'x, y, z'
loop_
 _atom_site_type_symbol
 _atom_site_label
 _atom_site_symmetry_multiplicity
 _atom_site_fract_x
 _atom_site_fract_y
 _atom_site_fract_z
 _atom_site_occupancy
  Yb  Yb0  1  0.25000000  0.36860900  0.58368700  1
  Yb  Yb1  1  0.25000000  0.86860900  0.91631300  1
  Yb  Yb2  1  0.75000000  0.63139100  0.41631300  1
  Yb  Yb3  1  0.75000000  0.13139100  0.08368700  1
  Tm  Tm4  1  0.25000000  0.10735300  0.41669900  1
  Tm  Tm5  1  0.25000000  0.60735300  0.08330100  1
  Tm  Tm6  1  0.75000000  0.89264700  0.58330100  1
  Tm  Tm7  1  0.75000000  0.39264700  0.91669900  1
  Tm  Tm8  1  0.25000000  0.14684200  0.79749500  1
  Tm  Tm9  1  0.25000000  0.64684200  0.70250500  1
  Tm  Tm10  1  0.75000000  0.85315800  0.20250500  1
  Tm  Tm11  1  0.75000000  0.35315800  0.29749500  1
  S  S12  1  0.25000000  0.21666800  0.23705100  1
  S  S13  1  0.25000000  0.71666800  0.26294900  1
  S  S14  1  0.75000000  0.78333200  0.76294900  1
  S  S15  1  0.75000000  0.28333200  0.73705100  1
  S  S16  1  0.25000000  0.25755900  0.97412800  1
  S  S17  1  0.25000000  0.75755900  0.52587200  1
  S  S18  1  0.75000000  0.74244100  0.02587200  1
  S  S19  1  0.75000000  0.24244100  0.47412800  1
  S  S20  1  0.25000000  0.46978700  0.38275600  1
  S  S21  1  0.25000000  0.96978700  0.11724400  1
  S  S22  1  0.75000000  0.53021300  0.61724400  1
  S  S23  1  0.75000000  0.03021300  0.88275600  1
  S  S24  1  0.25000000  0.03372400  0.61806100  1
  S  S25  1  0.25000000  0.53372400  0.88193900  1
  S  S26  1  0.75000000  0.96627600  0.38193900  1
  S  S27  1  0.75000000  0.46627600  0.11806100  1
