# generated using pymatgen
data_Er(Al5Re)2
_symmetry_space_group_name_H-M   'P 1'
_cell_length_a   6.96708747
_cell_length_b   6.96708747
_cell_length_c   27.01854400
_cell_angle_alpha   90.00000000
_cell_angle_beta   90.00000000
_cell_angle_gamma   95.76275129
_symmetry_Int_Tables_number   1
_chemical_formula_structural   Er(Al5Re)2
_chemical_formula_sum   'Er6 Al60 Re12'
_cell_volume   1304.86043804
_cell_formula_units_Z   6
loop_
 _symmetry_equiv_pos_site_id
 _symmetry_equiv_pos_as_xyz
  1  'x, y, z'
loop_
 _atom_site_type_symbol
 _atom_site_label
 _atom_site_symmetry_multiplicity
 _atom_site_fract_x
 _atom_site_fract_y
 _atom_site_fract_z
 _atom_site_occupancy
  Er  Er0  1  0.87584800  0.12415200  0.58471900  1
  Er  Er1  1  0.12415200  0.87584800  0.41528100  1
  Er  Er2  1  0.12415200  0.87584800  0.08471900  1
  Er  Er3  1  0.87584800  0.12415200  0.91528100  1
  Er  Er4  1  0.61653100  0.38346900  0.75000000  1
  Er  Er5  1  0.38346900  0.61653100  0.25000000  1
  Al  Al6  1  0.59761600  0.40238400  0.63432000  1
  Al  Al7  1  0.40238400  0.59761600  0.36568000  1
  Al  Al8  1  0.40238400  0.59761600  0.13432000  1
  Al  Al9  1  0.59761600  0.40238400  0.86568000  1
  Al  Al10  1  0.18210800  0.40296100  0.75000000  1
  Al  Al11  1  0.81789200  0.59703900  0.25000000  1
  Al  Al12  1  0.59703900  0.81789200  0.75000000  1
  Al  Al13  1  0.40296100  0.18210800  0.25000000  1
  Al  Al14  1  0.87569500  0.12430500  0.14604700  1
  Al  Al15  1  0.12430500  0.87569500  0.85395300  1
  Al  Al16  1  0.12430500  0.87569500  0.64604700  1
  Al  Al17  1  0.87569500  0.12430500  0.35395300  1
  Al  Al18  1  0.37048800  0.62951200  0.67735400  1
  Al  Al19  1  0.62951200  0.37048800  0.32264600  1
  Al  Al20  1  0.62951200  0.37048800  0.17735400  1
  Al  Al21  1  0.37048800  0.62951200  0.82264600  1
  Al  Al22  1  0.22694000  0.47107400  0.58067800  1
  Al  Al23  1  0.77306000  0.52892600  0.41932200  1
  Al  Al24  1  0.77306000  0.52892600  0.08067800  1
  Al  Al25  1  0.52892600  0.77306000  0.91932200  1
  Al  Al26  1  0.22694000  0.47107400  0.91932200  1
  Al  Al27  1  0.47107400  0.22694000  0.08067800  1
  Al  Al28  1  0.47107400  0.22694000  0.41932200  1
  Al  Al29  1  0.52892600  0.77306000  0.58067800  1
  Al  Al30  1  0.96106700  0.73902900  0.75000000  1
  Al  Al31  1  0.03893300  0.26097100  0.25000000  1
  Al  Al32  1  0.26097100  0.03893300  0.75000000  1
  Al  Al33  1  0.73902900  0.96106700  0.25000000  1
  Al  Al34  1  0.62300900  0.37699100  0.52193800  1
  Al  Al35  1  0.37699100  0.62300900  0.47806200  1
  Al  Al36  1  0.37699100  0.62300900  0.02193800  1
  Al  Al37  1  0.62300900  0.37699100  0.97806200  1
  Al  Al38  1  0.96793000  0.47410200  0.67147700  1
  Al  Al39  1  0.03207000  0.52589800  0.32852300  1
  Al  Al40  1  0.03207000  0.52589800  0.17147700  1
  Al  Al41  1  0.52589800  0.03207000  0.82852300  1
  Al  Al42  1  0.96793000  0.47410200  0.82852300  1
  Al  Al43  1  0.47410200  0.96793000  0.17147700  1
  Al  Al44  1  0.47410200  0.96793000  0.32852300  1
  Al  Al45  1  0.52589800  0.03207000  0.67147700  1
  Al  Al46  1  0.90628700  0.09371300  0.69947200  1
  Al  Al47  1  0.09371300  0.90628700  0.30052800  1
  Al  Al48  1  0.09371300  0.90628700  0.19947200  1
  Al  Al49  1  0.90628700  0.09371300  0.80052800  1
  Al  Al50  1  0.87593000  0.61955500  0.58306500  1
  Al  Al51  1  0.12407000  0.38044500  0.41693500  1
  Al  Al52  1  0.12407000  0.38044500  0.08306500  1
  Al  Al53  1  0.38044500  0.12407000  0.91693500  1
  Al  Al54  1  0.87593000  0.61955500  0.91693500  1
  Al  Al55  1  0.61955500  0.87593000  0.08306500  1
  Al  Al56  1  0.61955500  0.87593000  0.41693500  1
  Al  Al57  1  0.38044500  0.12407000  0.58306500  1
  Al  Al58  1  0.20601300  0.20601300  0.50000000  1
  Al  Al59  1  0.79398700  0.79398700  0.50000000  1
  Al  Al60  1  0.79398700  0.79398700  0.00000000  1
  Al  Al61  1  0.20601300  0.20601300  0.00000000  1
  Al  Al62  1  0.83518700  0.16481300  0.03390900  1
  Al  Al63  1  0.16481300  0.83518700  0.96609100  1
  Al  Al64  1  0.16481300  0.83518700  0.53390900  1
  Al  Al65  1  0.83518700  0.16481300  0.46609100  1
  Re  Re66  1  0.24904000  0.25541400  0.66300900  1
  Re  Re67  1  0.75096000  0.74458600  0.33699100  1
  Re  Re68  1  0.75096000  0.74458600  0.16300900  1
  Re  Re69  1  0.74458600  0.75096000  0.83699100  1
  Re  Re70  1  0.24904000  0.25541400  0.83699100  1
  Re  Re71  1  0.25541400  0.24904000  0.16300900  1
  Re  Re72  1  0.25541400  0.24904000  0.33699100  1
  Re  Re73  1  0.74458600  0.75096000  0.66300900  1
  Re  Re74  1  0.00000000  0.50000000  0.50000000  1
  Re  Re75  1  0.00000000  0.50000000  0.00000000  1
  Re  Re76  1  0.50000000  0.00000000  0.00000000  1
  Re  Re77  1  0.50000000  0.00000000  0.50000000  1
