# generated using pymatgen
data_Sc19(RuBr7)4
_symmetry_space_group_name_H-M   'P 1'
_cell_length_a   11.23520325
_cell_length_b   11.23520325
_cell_length_c   11.23520287
_cell_angle_alpha   89.28671748
_cell_angle_beta   89.28671748
_cell_angle_gamma   89.28671977
_symmetry_Int_Tables_number   1
_chemical_formula_structural   Sc19(RuBr7)4
_chemical_formula_sum   'Sc19 Ru4 Br28'
_cell_volume   1417.89034324
_cell_formula_units_Z   1
loop_
 _symmetry_equiv_pos_site_id
 _symmetry_equiv_pos_as_xyz
  1  'x, y, z'
loop_
 _atom_site_type_symbol
 _atom_site_label
 _atom_site_symmetry_multiplicity
 _atom_site_fract_x
 _atom_site_fract_y
 _atom_site_fract_z
 _atom_site_occupancy
  Sc  Sc0  1  0.32584400  0.11823400  0.11823400  1
  Sc  Sc1  1  0.11823400  0.32584400  0.11823400  1
  Sc  Sc2  1  0.11823400  0.11823400  0.32584400  1
  Sc  Sc3  1  0.32321000  0.88597800  0.88597800  1
  Sc  Sc4  1  0.11558800  0.67574000  0.88645000  1
  Sc  Sc5  1  0.11558800  0.88645000  0.67574000  1
  Sc  Sc6  1  0.67574000  0.88645000  0.11558800  1
  Sc  Sc7  1  0.88645000  0.67574000  0.11558800  1
  Sc  Sc8  1  0.88597800  0.88597800  0.32321000  1
  Sc  Sc9  1  0.67574000  0.11558800  0.88645000  1
  Sc  Sc10  1  0.88597800  0.32321000  0.88597800  1
  Sc  Sc11  1  0.88645000  0.11558800  0.67574000  1
  Sc  Sc12  1  0.86511800  0.86511800  0.86511800  1
  Sc  Sc13  1  0.86639200  0.13417700  0.13417700  1
  Sc  Sc14  1  0.13417700  0.13417700  0.86639200  1
  Sc  Sc15  1  0.13417700  0.86639200  0.13417700  1
  Sc  Sc16  1  0.37902400  0.62124300  0.62124300  1
  Sc  Sc17  1  0.62124300  0.62124300  0.37902400  1
  Sc  Sc18  1  0.62124300  0.37902400  0.62124300  1
  Ru  Ru19  1  0.09852100  0.09852100  0.09852100  1
  Ru  Ru20  1  0.09796900  0.90010300  0.90010300  1
  Ru  Ru21  1  0.90010300  0.90010300  0.09796900  1
  Ru  Ru22  1  0.90010300  0.09796900  0.90010300  1
  Br  Br23  1  0.60564800  0.12610200  0.12610200  1
  Br  Br24  1  0.12610200  0.60564800  0.12610200  1
  Br  Br25  1  0.12610200  0.12610200  0.60564800  1
  Br  Br26  1  0.60693500  0.87458100  0.87458100  1
  Br  Br27  1  0.12266900  0.39352700  0.87359500  1
  Br  Br28  1  0.12266900  0.87359500  0.39352700  1
  Br  Br29  1  0.39352700  0.87359500  0.12266900  1
  Br  Br30  1  0.87359500  0.39352700  0.12266900  1
  Br  Br31  1  0.87458100  0.87458100  0.60693500  1
  Br  Br32  1  0.39352700  0.12266900  0.87359500  1
  Br  Br33  1  0.87458100  0.60693500  0.87458100  1
  Br  Br34  1  0.87359500  0.12266900  0.39352700  1
  Br  Br35  1  0.62518600  0.62518600  0.62518600  1
  Br  Br36  1  0.63211000  0.38454500  0.38454500  1
  Br  Br37  1  0.38454500  0.38454500  0.63211000  1
  Br  Br38  1  0.38454500  0.63211000  0.38454500  1
  Br  Br39  1  0.11100200  0.35455800  0.35455800  1
  Br  Br40  1  0.35455800  0.11100200  0.35455800  1
  Br  Br41  1  0.35455800  0.35455800  0.11100200  1
  Br  Br42  1  0.13274000  0.63779300  0.63779300  1
  Br  Br43  1  0.36375200  0.86832000  0.63714500  1
  Br  Br44  1  0.36375200  0.63714500  0.86832000  1
  Br  Br45  1  0.86832000  0.63714500  0.36375200  1
  Br  Br46  1  0.63714500  0.86832000  0.36375200  1
  Br  Br47  1  0.63779300  0.63779300  0.13274000  1
  Br  Br48  1  0.86832000  0.36375200  0.63714500  1
  Br  Br49  1  0.63779300  0.13274000  0.63779300  1
  Br  Br50  1  0.63714500  0.36375200  0.86832000  1
