# generated using pymatgen
data_RbSnAsO5
_symmetry_space_group_name_H-M   'P 1'
_cell_length_a   6.92512000
_cell_length_b   11.12054100
_cell_length_c   13.87581500
_cell_angle_alpha   90.00000000
_cell_angle_beta   90.00000000
_cell_angle_gamma   90.00000000
_symmetry_Int_Tables_number   1
_chemical_formula_structural   RbSnAsO5
_chemical_formula_sum   'Rb8 Sn8 As8 O40'
_cell_volume   1068.59151138
_cell_formula_units_Z   8
loop_
 _symmetry_equiv_pos_site_id
 _symmetry_equiv_pos_as_xyz
  1  'x, y, z'
loop_
 _atom_site_type_symbol
 _atom_site_label
 _atom_site_symmetry_multiplicity
 _atom_site_fract_x
 _atom_site_fract_y
 _atom_site_fract_z
 _atom_site_occupancy
  Rb  Rb0  1  0.77904500  0.79626600  0.37822000  1
  Rb  Rb1  1  0.27904500  0.29626600  0.12178000  1
  Rb  Rb2  1  0.72095500  0.79626600  0.87822000  1
  Rb  Rb3  1  0.31038400  0.05253300  0.88862100  1
  Rb  Rb4  1  0.81038400  0.55253300  0.61137900  1
  Rb  Rb5  1  0.68961600  0.55253300  0.11137900  1
  Rb  Rb6  1  0.18961600  0.05253300  0.38862100  1
  Rb  Rb7  1  0.22095500  0.29626600  0.62178000  1
  Sn  Sn8  1  0.74640000  0.23663400  0.75010800  1
  Sn  Sn9  1  0.25360000  0.73663400  0.24989200  1
  Sn  Sn10  1  0.75360000  0.23663400  0.25010800  1
  Sn  Sn11  1  0.50117500  0.98518900  0.62692700  1
  Sn  Sn12  1  0.49882500  0.48518900  0.37307300  1
  Sn  Sn13  1  0.99882500  0.98518900  0.12692700  1
  Sn  Sn14  1  0.00117500  0.48518900  0.87307300  1
  Sn  Sn15  1  0.24640000  0.73663400  0.74989200  1
  As  As16  1  0.99779200  0.98746800  0.67602700  1
  As  As17  1  0.00220800  0.48746800  0.32397300  1
  As  As18  1  0.50220800  0.98746800  0.17602700  1
  As  As19  1  0.49779200  0.48746800  0.82397300  1
  As  As20  1  0.16688100  0.73384800  0.00239900  1
  As  As21  1  0.83311900  0.23384800  0.99760100  1
  As  As22  1  0.33311900  0.73384800  0.50239900  1
  As  As23  1  0.66688100  0.23384800  0.49760100  1
  O  O24  1  0.46781100  0.87157800  0.25648100  1
  O  O25  1  0.53218900  0.37157800  0.74351900  1
  O  O26  1  0.03218900  0.87157800  0.75648100  1
  O  O27  1  0.96781100  0.37157800  0.24351900  1
  O  O28  1  0.97170900  0.10996600  0.75150300  1
  O  O29  1  0.02829100  0.60996600  0.24849700  1
  O  O30  1  0.52829100  0.10996600  0.25150300  1
  O  O31  1  0.47170900  0.60996600  0.74849700  1
  O  O32  1  0.04748800  0.86322700  0.23158300  1
  O  O33  1  0.95251200  0.36322700  0.76841700  1
  O  O34  1  0.45251200  0.86322700  0.73158300  1
  O  O35  1  0.54748800  0.36322700  0.26841700  1
  O  O36  1  0.53107200  0.12023000  0.72289100  1
  O  O37  1  0.46892800  0.62023000  0.27710900  1
  O  O38  1  0.96892800  0.12023000  0.22289100  1
  O  O39  1  0.81680700  0.21016500  0.40062200  1
  O  O40  1  0.03107200  0.62023000  0.77710900  1
  O  O41  1  0.30382900  0.45790600  0.89751200  1
  O  O42  1  0.80382900  0.95790600  0.60248800  1
  O  O43  1  0.19617100  0.45790600  0.39751200  1
  O  O44  1  0.19283500  0.01577900  0.60227500  1
  O  O45  1  0.80716500  0.51577900  0.39772500  1
  O  O46  1  0.30716500  0.01577900  0.10227500  1
  O  O47  1  0.69283500  0.51577900  0.89772500  1
  O  O48  1  0.50974900  0.11454600  0.51196100  1
  O  O49  1  0.49025100  0.61454600  0.48803900  1
  O  O50  1  0.99025100  0.11454600  0.01196100  1
  O  O51  1  0.00974900  0.61454600  0.98803900  1
  O  O52  1  0.01966100  0.85887900  0.01412500  1
  O  O53  1  0.98033900  0.35887900  0.98587500  1
  O  O54  1  0.48033900  0.85887900  0.51412500  1
  O  O55  1  0.51966100  0.35887900  0.48587500  1
  O  O56  1  0.81102100  0.25948600  0.59653500  1
  O  O57  1  0.18897900  0.75948600  0.40346500  1
  O  O58  1  0.68897900  0.25948600  0.09653500  1
  O  O59  1  0.31102100  0.75948600  0.90346500  1
  O  O60  1  0.31680700  0.71016500  0.09937800  1
  O  O61  1  0.68319300  0.21016500  0.90062200  1
  O  O62  1  0.18319300  0.71016500  0.59937800  1
  O  O63  1  0.69617100  0.95790600  0.10248800  1
