# generated using pymatgen
data_Ca2FeWO6
_symmetry_space_group_name_H-M   'P 1'
_cell_length_a   5.50653635
_cell_length_b   5.65190103
_cell_length_c   7.92046041
_cell_angle_alpha   90.00542876
_cell_angle_beta   89.86111227
_cell_angle_gamma   89.99005863
_symmetry_Int_Tables_number   1
_chemical_formula_structural   Ca2FeWO6
_chemical_formula_sum   'Ca4 Fe2 W2 O12'
_cell_volume   246.50299575
_cell_formula_units_Z   2
loop_
 _symmetry_equiv_pos_site_id
 _symmetry_equiv_pos_as_xyz
  1  'x, y, z'
loop_
 _atom_site_type_symbol
 _atom_site_label
 _atom_site_symmetry_multiplicity
 _atom_site_fract_x
 _atom_site_fract_y
 _atom_site_fract_z
 _atom_site_occupancy
  Ca  Ca0  1  0.98756900  0.05624600  0.25330500  1
  Ca  Ca1  1  0.51236300  0.55620100  0.24675300  1
  Ca  Ca2  1  0.01244800  0.94375500  0.74669600  1
  Ca  Ca3  1  0.48764700  0.44380400  0.75325000  1
  Fe  Fe4  1  0.49996700  0.99995800  0.99997600  1
  Fe  Fe5  1  0.99991800  0.49999900  0.50000100  1
  W  W6  1  0.49999900  0.00000000  0.50000100  1
  W  W7  1  0.00000800  0.50000200  0.00000300  1
  O  O8  1  0.68309900  0.28469000  0.44312400  1
  O  O9  1  0.81684800  0.78475900  0.05681700  1
  O  O10  1  0.31691300  0.71531600  0.55687800  1
  O  O11  1  0.18316800  0.21524900  0.94318300  1
  O  O12  1  0.21091900  0.19256100  0.54947100  1
  O  O13  1  0.28901900  0.69256200  0.95057400  1
  O  O14  1  0.78909500  0.80743900  0.45053300  1
  O  O15  1  0.71099700  0.30744600  0.04942900  1
  O  O16  1  0.09960400  0.46558300  0.23507100  1
  O  O17  1  0.40031600  0.96549200  0.26497700  1
  O  O18  1  0.59970300  0.03451500  0.73502500  1
  O  O19  1  0.90040500  0.53442100  0.76493300  1
