# generated using pymatgen
data_K2WO4
_symmetry_space_group_name_H-M   'P 1'
_cell_length_a   7.04594933
_cell_length_b   7.04594933
_cell_length_c   7.69784408
_cell_angle_alpha   66.75273779
_cell_angle_beta   66.75273779
_cell_angle_gamma   53.02471305
_symmetry_Int_Tables_number   1
_chemical_formula_structural   K2WO4
_chemical_formula_sum   'K4 W2 O8'
_cell_volume   274.00308829
_cell_formula_units_Z   2
loop_
 _symmetry_equiv_pos_site_id
 _symmetry_equiv_pos_as_xyz
  1  'x, y, z'
loop_
 _atom_site_type_symbol
 _atom_site_label
 _atom_site_symmetry_multiplicity
 _atom_site_fract_x
 _atom_site_fract_y
 _atom_site_fract_z
 _atom_site_occupancy
  K  K0  1  0.50711700  0.50711700  0.76709200  1
  K  K1  1  0.49288300  0.49288300  0.23290800  1
  K  K2  1  0.15617200  0.15617200  0.25174200  1
  K  K3  1  0.84382800  0.84382800  0.74825800  1
  W  W4  1  0.17612200  0.17612200  0.77105800  1
  W  W5  1  0.82387800  0.82387800  0.22894200  1
  O  O6  1  0.37923400  0.90644500  0.92228300  1
  O  O7  1  0.09355500  0.62076600  0.07771700  1
  O  O8  1  0.62076600  0.09355500  0.07771700  1
  O  O9  1  0.90644500  0.37923400  0.92228300  1
  O  O10  1  0.91174800  0.91174800  0.36370600  1
  O  O11  1  0.08825200  0.08825200  0.63629400  1
  O  O12  1  0.33421400  0.33421400  0.61216700  1
  O  O13  1  0.66578600  0.66578600  0.38783300  1
