# generated using pymatgen
data_CsGa5(HgSe3)4
_symmetry_space_group_name_H-M   'P 1'
_cell_length_a   9.14027100
_cell_length_b   9.15512258
_cell_length_c   9.20717103
_cell_angle_alpha   107.14281883
_cell_angle_beta   108.07471746
_cell_angle_gamma   107.41427101
_symmetry_Int_Tables_number   1
_chemical_formula_structural   CsGa5(HgSe3)4
_chemical_formula_sum   'Cs1 Ga5 Hg4 Se12'
_cell_volume   631.84904846
_cell_formula_units_Z   1
loop_
 _symmetry_equiv_pos_site_id
 _symmetry_equiv_pos_as_xyz
  1  'x, y, z'
loop_
 _atom_site_type_symbol
 _atom_site_label
 _atom_site_symmetry_multiplicity
 _atom_site_fract_x
 _atom_site_fract_y
 _atom_site_fract_z
 _atom_site_occupancy
  Cs  Cs0  1  0.99747700  0.99658700  0.99603100  1
  Ga  Ga1  1  0.48363900  0.33417700  0.94151500  1
  Ga  Ga2  1  0.93803000  0.48755700  0.34001100  1
  Ga  Ga3  1  0.32942500  0.93420200  0.48088400  1
  Ga  Ga4  1  0.01733800  0.18645100  0.55586000  1
  Ga  Ga5  1  0.56139600  0.02660500  0.18811500  1
  Hg  Hg6  1  0.63047300  0.70820700  0.39663000  1
  Hg  Hg7  1  0.39997900  0.63538400  0.71395200  1
  Hg  Hg8  1  0.70941300  0.39511400  0.63033800  1
  Hg  Hg9  1  0.19026100  0.56421500  0.02018000  1
  Se  Se10  1  0.78631000  0.93967400  0.29320000  1
  Se  Se11  1  0.30810800  0.81161500  0.93495300  1
  Se  Se12  1  0.92436400  0.27187000  0.76891200  1
  Se  Se13  1  0.06658800  0.69796300  0.24457700  1
  Se  Se14  1  0.23309000  0.08284800  0.68599700  1
  Se  Se15  1  0.69615100  0.23435400  0.08271800  1
  Se  Se16  1  0.37717300  0.41622300  0.14669000  1
  Se  Se17  1  0.13849100  0.36732800  0.43336100  1
  Se  Se18  1  0.42712000  0.13370900  0.36231700  1
  Se  Se19  1  0.88362600  0.63864600  0.56386500  1
  Se  Se20  1  0.55735600  0.87929200  0.63494000  1
  Se  Se21  1  0.63883200  0.55262000  0.87959400  1
