# generated using pymatgen
data_GdSnGe
_symmetry_space_group_name_H-M   'P 1'
_cell_length_a   8.52723626
_cell_length_b   8.52723626
_cell_length_c   4.12950300
_cell_angle_alpha   90.00000000
_cell_angle_beta   90.00000000
_cell_angle_gamma   150.53637833
_symmetry_Int_Tables_number   1
_chemical_formula_structural   GdSnGe
_chemical_formula_sum   'Gd2 Sn2 Ge2'
_cell_volume   147.69488870
_cell_formula_units_Z   2
loop_
 _symmetry_equiv_pos_site_id
 _symmetry_equiv_pos_as_xyz
  1  'x, y, z'
loop_
 _atom_site_type_symbol
 _atom_site_label
 _atom_site_symmetry_multiplicity
 _atom_site_fract_x
 _atom_site_fract_y
 _atom_site_fract_z
 _atom_site_occupancy
  Gd  Gd0  1  0.40500400  0.59499600  0.25000000  1
  Gd  Gd1  1  0.59499600  0.40500400  0.75000000  1
  Sn  Sn2  1  0.75609000  0.24391000  0.25000000  1
  Sn  Sn3  1  0.24391000  0.75609000  0.75000000  1
  Ge  Ge4  1  0.05213200  0.94786800  0.25000000  1
  Ge  Ge5  1  0.94786800  0.05213200  0.75000000  1
