# generated using pymatgen
data_NiH12(ClO6)2
_symmetry_space_group_name_H-M   'P 1'
_cell_length_a   10.45658500
_cell_length_b   10.45658500
_cell_length_c   10.45658500
_cell_angle_alpha   90.00000000
_cell_angle_beta   90.00000000
_cell_angle_gamma   90.00000000
_symmetry_Int_Tables_number   1
_chemical_formula_structural   NiH12(ClO6)2
_chemical_formula_sum   'Ni4 H48 Cl8 O48'
_cell_volume   1143.32478008
_cell_formula_units_Z   4
loop_
 _symmetry_equiv_pos_site_id
 _symmetry_equiv_pos_as_xyz
  1  'x, y, z'
loop_
 _atom_site_type_symbol
 _atom_site_label
 _atom_site_symmetry_multiplicity
 _atom_site_fract_x
 _atom_site_fract_y
 _atom_site_fract_z
 _atom_site_occupancy
  Ni  Ni0  1  0.50000000  0.50000000  0.00000000  1
  Ni  Ni1  1  0.50000000  0.00000000  0.50000000  1
  Ni  Ni2  1  0.00000000  0.50000000  0.50000000  1
  Ni  Ni3  1  0.00000000  0.00000000  0.00000000  1
  H  H4  1  0.25822900  0.56427200  0.04470500  1
  H  H5  1  0.74177100  0.06427200  0.45529600  1
  H  H6  1  0.24177100  0.43572800  0.54470500  1
  H  H7  1  0.75822900  0.93572800  0.95529500  1
  H  H8  1  0.04470500  0.25822900  0.56427200  1
  H  H9  1  0.45529600  0.74177100  0.06427200  1
  H  H10  1  0.54470500  0.24177100  0.43572800  1
  H  H11  1  0.95529500  0.75822900  0.93572800  1
  H  H12  1  0.56427200  0.04470500  0.25822900  1
  H  H13  1  0.06427200  0.45529600  0.74177100  1
  H  H14  1  0.43572800  0.54470500  0.24177100  1
  H  H15  1  0.93572800  0.95529500  0.75822900  1
  H  H16  1  0.74177100  0.43572800  0.95529500  1
  H  H17  1  0.25822900  0.93572800  0.54470500  1
  H  H18  1  0.75822900  0.56427200  0.45529600  1
  H  H19  1  0.24177100  0.06427200  0.04470500  1
  H  H20  1  0.95529500  0.74177100  0.43572800  1
  H  H21  1  0.54470500  0.25822900  0.93572800  1
  H  H22  1  0.45529600  0.75822900  0.56427200  1
  H  H23  1  0.04470500  0.24177100  0.06427200  1
  H  H24  1  0.43572800  0.95529500  0.74177100  1
  H  H25  1  0.93572800  0.54470500  0.25822900  1
  H  H26  1  0.56427200  0.45529600  0.75822900  1
  H  H27  1  0.06427200  0.04470500  0.24177100  1
  H  H28  1  0.26291600  0.45307900  0.93983600  1
  H  H29  1  0.73708400  0.95307900  0.56016400  1
  H  H30  1  0.23708400  0.54692100  0.43983600  1
  H  H31  1  0.76291600  0.04692100  0.06016400  1
  H  H32  1  0.93983600  0.26291600  0.45307900  1
  H  H33  1  0.56016400  0.73708400  0.95307900  1
  H  H34  1  0.43983600  0.23708400  0.54692100  1
  H  H35  1  0.06016400  0.76291600  0.04692100  1
  H  H36  1  0.45307900  0.93983600  0.26291600  1
  H  H37  1  0.95307900  0.56016400  0.73708400  1
  H  H38  1  0.54692100  0.43983600  0.23708400  1
  H  H39  1  0.04692100  0.06016400  0.76291600  1
  H  H40  1  0.73708400  0.54692100  0.06016400  1
  H  H41  1  0.26291600  0.04692100  0.43983600  1
  H  H42  1  0.76291600  0.45307900  0.56016400  1
  H  H43  1  0.23708400  0.95307900  0.93983600  1
  H  H44  1  0.06016400  0.73708400  0.54692100  1
  H  H45  1  0.43983600  0.26291600  0.04692100  1
  H  H46  1  0.56016400  0.76291600  0.45307900  1
  H  H47  1  0.93983600  0.23708400  0.95307900  1
  H  H48  1  0.54692100  0.06016400  0.73708400  1
  H  H49  1  0.04692100  0.43983600  0.26291600  1
  H  H50  1  0.45307900  0.56016400  0.76291600  1
  H  H51  1  0.95307900  0.93983600  0.23708400  1
  Cl  Cl52  1  0.24750800  0.75249200  0.25249200  1
  Cl  Cl53  1  0.75249200  0.25249200  0.24750800  1
  Cl  Cl54  1  0.25249200  0.24750800  0.75249200  1
  Cl  Cl55  1  0.74750800  0.74750800  0.74750800  1
  Cl  Cl56  1  0.75249200  0.24750800  0.74750800  1
  Cl  Cl57  1  0.24750800  0.74750800  0.75249200  1
  Cl  Cl58  1  0.74750800  0.75249200  0.24750800  1
  Cl  Cl59  1  0.25249200  0.25249200  0.25249200  1
  O  O60  1  0.33811500  0.66974100  0.67017700  1
  O  O61  1  0.66188500  0.16974100  0.82982300  1
  O  O62  1  0.16188500  0.33025900  0.17017700  1
  O  O63  1  0.83811500  0.83025900  0.32982300  1
  O  O64  1  0.67017700  0.33811500  0.66974100  1
  O  O65  1  0.82982300  0.66188500  0.16974100  1
  O  O66  1  0.17017700  0.16188500  0.33025900  1
  O  O67  1  0.32982300  0.83811500  0.83025900  1
  O  O68  1  0.66974100  0.67017700  0.33811500  1
  O  O69  1  0.16974100  0.82982300  0.66188500  1
  O  O70  1  0.33025900  0.17017700  0.16188500  1
  O  O71  1  0.83025900  0.32982300  0.83811500  1
  O  O72  1  0.66188500  0.33025900  0.32982300  1
  O  O73  1  0.33811500  0.83025900  0.17017700  1
  O  O74  1  0.83811500  0.66974100  0.82982300  1
  O  O75  1  0.16188500  0.16974100  0.67017700  1
  O  O76  1  0.32982300  0.66188500  0.33025900  1
  O  O77  1  0.17017700  0.33811500  0.83025900  1
  O  O78  1  0.82982300  0.83811500  0.66974100  1
  O  O79  1  0.67017700  0.16188500  0.16974100  1
  O  O80  1  0.33025900  0.32982300  0.66188500  1
  O  O81  1  0.83025900  0.17017700  0.33811500  1
  O  O82  1  0.66974100  0.82982300  0.83811500  1
  O  O83  1  0.16974100  0.67017700  0.16188500  1
  O  O84  1  0.30695400  0.53069300  0.97097800  1
  O  O85  1  0.69304600  0.03069300  0.52902200  1
  O  O86  1  0.19304600  0.46930700  0.47097800  1
  O  O87  1  0.80695400  0.96930700  0.02902200  1
  O  O88  1  0.97097800  0.30695400  0.53069300  1
  O  O89  1  0.52902200  0.69304600  0.03069300  1
  O  O90  1  0.47097800  0.19304600  0.46930700  1
  O  O91  1  0.02902200  0.80695400  0.96930700  1
  O  O92  1  0.53069300  0.97097800  0.30695400  1
  O  O93  1  0.03069300  0.52902200  0.69304600  1
  O  O94  1  0.46930700  0.47097800  0.19304600  1
  O  O95  1  0.96930700  0.02902200  0.80695400  1
  O  O96  1  0.69304600  0.46930700  0.02902200  1
  O  O97  1  0.30695400  0.96930700  0.47097800  1
  O  O98  1  0.80695400  0.53069300  0.52902200  1
  O  O99  1  0.19304600  0.03069300  0.97097800  1
  O  O100  1  0.02902200  0.69304600  0.46930700  1
  O  O101  1  0.47097800  0.30695400  0.96930700  1
  O  O102  1  0.52902200  0.80695400  0.53069300  1
  O  O103  1  0.97097800  0.19304600  0.03069300  1
  O  O104  1  0.46930700  0.02902200  0.69304600  1
  O  O105  1  0.96930700  0.47097800  0.30695400  1
  O  O106  1  0.53069300  0.52902200  0.80695400  1
  O  O107  1  0.03069300  0.97097800  0.19304600  1
