# generated using pymatgen
data_TiSiPd
_symmetry_space_group_name_H-M   'P 1'
_cell_length_a   3.78285000
_cell_length_b   6.36849200
_cell_length_c   7.46317700
_cell_angle_alpha   90.00000000
_cell_angle_beta   90.00000000
_cell_angle_gamma   90.00000000
_symmetry_Int_Tables_number   1
_chemical_formula_structural   TiSiPd
_chemical_formula_sum   'Ti4 Si4 Pd4'
_cell_volume   179.79576998
_cell_formula_units_Z   4
loop_
 _symmetry_equiv_pos_site_id
 _symmetry_equiv_pos_as_xyz
  1  'x, y, z'
loop_
 _atom_site_type_symbol
 _atom_site_label
 _atom_site_symmetry_multiplicity
 _atom_site_fract_x
 _atom_site_fract_y
 _atom_site_fract_z
 _atom_site_occupancy
  Ti  Ti0  1  0.25000000  0.02993300  0.32368000  1
  Ti  Ti1  1  0.25000000  0.52993300  0.17632000  1
  Ti  Ti2  1  0.75000000  0.97006700  0.67632000  1
  Ti  Ti3  1  0.75000000  0.47006700  0.82368000  1
  Si  Si4  1  0.25000000  0.25488600  0.62593300  1
  Si  Si5  1  0.25000000  0.75488600  0.87406700  1
  Si  Si6  1  0.75000000  0.74511400  0.37406700  1
  Si  Si7  1  0.75000000  0.24511400  0.12593300  1
  Pd  Pd8  1  0.25000000  0.14625200  0.93739300  1
  Pd  Pd9  1  0.25000000  0.64625200  0.56260700  1
  Pd  Pd10  1  0.75000000  0.85374800  0.06260700  1
  Pd  Pd11  1  0.75000000  0.35374800  0.43739300  1
