# generated using pymatgen
data_Sr3WN3
_symmetry_space_group_name_H-M   'P 1'
_cell_length_a   7.98225559
_cell_length_b   7.98225559
_cell_length_c   5.38429400
_cell_angle_alpha   90.00000000
_cell_angle_beta   90.00000000
_cell_angle_gamma   119.99999659
_symmetry_Int_Tables_number   1
_chemical_formula_structural   Sr3WN3
_chemical_formula_sum   'Sr6 W2 N6'
_cell_volume   297.10548635
_cell_formula_units_Z   2
loop_
 _symmetry_equiv_pos_site_id
 _symmetry_equiv_pos_as_xyz
  1  'x, y, z'
loop_
 _atom_site_type_symbol
 _atom_site_label
 _atom_site_symmetry_multiplicity
 _atom_site_fract_x
 _atom_site_fract_y
 _atom_site_fract_z
 _atom_site_occupancy
  Sr  Sr0  1  0.90235400  0.64811500  0.25000000  1
  Sr  Sr1  1  0.74576100  0.09764600  0.25000000  1
  Sr  Sr2  1  0.35188500  0.25423900  0.25000000  1
  Sr  Sr3  1  0.09764600  0.35188500  0.75000000  1
  Sr  Sr4  1  0.25423900  0.90235400  0.75000000  1
  Sr  Sr5  1  0.64811500  0.74576100  0.75000000  1
  W  W6  1  0.66666700  0.33333300  0.75000000  1
  W  W7  1  0.33333300  0.66666700  0.25000000  1
  N  N8  1  0.88329800  0.58197200  0.75000000  1
  N  N9  1  0.69867400  0.11670200  0.75000000  1
  N  N10  1  0.41802800  0.30132600  0.75000000  1
  N  N11  1  0.11670200  0.41802800  0.25000000  1
  N  N12  1  0.30132600  0.88329800  0.25000000  1
  N  N13  1  0.58197200  0.69867400  0.25000000  1
