# generated using pymatgen
data_ThMnSe3
_symmetry_space_group_name_H-M   'P 1'
_cell_length_a   6.68220509
_cell_length_b   6.68220509
_cell_length_c   9.37008700
_cell_angle_alpha   90.00000000
_cell_angle_beta   90.00000000
_cell_angle_gamma   144.69797034
_symmetry_Int_Tables_number   1
_chemical_formula_structural   ThMnSe3
_chemical_formula_sum   'Th2 Mn2 Se6'
_cell_volume   241.78302117
_cell_formula_units_Z   2
loop_
 _symmetry_equiv_pos_site_id
 _symmetry_equiv_pos_as_xyz
  1  'x, y, z'
loop_
 _atom_site_type_symbol
 _atom_site_label
 _atom_site_symmetry_multiplicity
 _atom_site_fract_x
 _atom_site_fract_y
 _atom_site_fract_z
 _atom_site_occupancy
  Th  Th0  1  0.75067700  0.24932300  0.25000000  1
  Th  Th1  1  0.24932300  0.75067700  0.75000000  1
  Mn  Mn2  1  0.00000000  0.00000000  0.50000000  1
  Mn  Mn3  1  0.00000000  0.00000000  0.00000000  1
  Se  Se4  1  0.91784000  0.08216000  0.75000000  1
  Se  Se5  1  0.08216000  0.91784000  0.25000000  1
  Se  Se6  1  0.64307400  0.35692600  0.94223800  1
  Se  Se7  1  0.35692600  0.64307400  0.05776200  1
  Se  Se8  1  0.35692600  0.64307400  0.44223800  1
  Se  Se9  1  0.64307400  0.35692600  0.55776200  1
