# generated using pymatgen
data_ZnSe2O5
_symmetry_space_group_name_H-M   'P 1'
_cell_length_a   6.18395000
_cell_length_b   6.91977200
_cell_length_c   10.61152600
_cell_angle_alpha   90.00000000
_cell_angle_beta   90.00000000
_cell_angle_gamma   90.00000000
_symmetry_Int_Tables_number   1
_chemical_formula_structural   ZnSe2O5
_chemical_formula_sum   'Zn4 Se8 O20'
_cell_volume   454.08337014
_cell_formula_units_Z   4
loop_
 _symmetry_equiv_pos_site_id
 _symmetry_equiv_pos_as_xyz
  1  'x, y, z'
loop_
 _atom_site_type_symbol
 _atom_site_label
 _atom_site_symmetry_multiplicity
 _atom_site_fract_x
 _atom_site_fract_y
 _atom_site_fract_z
 _atom_site_occupancy
  Zn  Zn0  1  0.75000000  0.00000000  0.93876700  1
  Zn  Zn1  1  0.25000000  0.50000000  0.56123300  1
  Zn  Zn2  1  0.25000000  0.00000000  0.06123300  1
  Zn  Zn3  1  0.75000000  0.50000000  0.43876700  1
  Se  Se4  1  0.03461000  0.36445100  0.84511600  1
  Se  Se5  1  0.53461000  0.13554900  0.65488400  1
  Se  Se6  1  0.96539000  0.86445100  0.65488400  1
  Se  Se7  1  0.46539000  0.63554900  0.84511600  1
  Se  Se8  1  0.96539000  0.63554900  0.15488400  1
  Se  Se9  1  0.46539000  0.86445100  0.34511600  1
  Se  Se10  1  0.03461000  0.13554900  0.34511600  1
  Se  Se11  1  0.53461000  0.36445100  0.15488400  1
  O  O12  1  0.75000000  0.00000000  0.56741000  1
  O  O13  1  0.25000000  0.50000000  0.93259000  1
  O  O14  1  0.25000000  0.00000000  0.43259000  1
  O  O15  1  0.75000000  0.50000000  0.06741000  1
  O  O16  1  0.16522200  0.30086100  0.71059100  1
  O  O17  1  0.66522200  0.19913900  0.78940900  1
  O  O18  1  0.83477800  0.80086100  0.78940900  1
  O  O19  1  0.33477800  0.69913900  0.71059100  1
  O  O20  1  0.83477800  0.69913900  0.28940900  1
  O  O21  1  0.33477800  0.80086100  0.21059100  1
  O  O22  1  0.16522200  0.19913900  0.21059100  1
  O  O23  1  0.66522200  0.30086100  0.28940900  1
  O  O24  1  0.04657100  0.34497300  0.43361100  1
  O  O25  1  0.54657100  0.15502700  0.06638900  1
  O  O26  1  0.95342900  0.84497300  0.06638900  1
  O  O27  1  0.45342900  0.65502700  0.43361100  1
  O  O28  1  0.95342900  0.65502700  0.56638900  1
  O  O29  1  0.45342900  0.84497300  0.93361100  1
  O  O30  1  0.04657100  0.15502700  0.93361100  1
  O  O31  1  0.54657100  0.34497300  0.56638900  1
