# generated using pymatgen
data_Ba2PrNbO6
_symmetry_space_group_name_H-M   'P 1'
_cell_length_a   6.15465400
_cell_length_b   6.18161700
_cell_length_c   10.63137520
_cell_angle_alpha   54.84412525
_cell_angle_beta   90.00000000
_cell_angle_gamma   90.00000000
_symmetry_Int_Tables_number   1
_chemical_formula_structural   Ba2PrNbO6
_chemical_formula_sum   'Ba4 Pr2 Nb2 O12'
_cell_volume   330.69680647
_cell_formula_units_Z   2
loop_
 _symmetry_equiv_pos_site_id
 _symmetry_equiv_pos_as_xyz
  1  'x, y, z'
loop_
 _atom_site_type_symbol
 _atom_site_label
 _atom_site_symmetry_multiplicity
 _atom_site_fract_x
 _atom_site_fract_y
 _atom_site_fract_z
 _atom_site_occupancy
  Ba  Ba0  1  0.51512800  0.75667200  0.74887400  1
  Ba  Ba1  1  0.98487200  0.75667200  0.24887400  1
  Ba  Ba2  1  0.01512800  0.24332800  0.75112600  1
  Ba  Ba3  1  0.48487200  0.24332800  0.25112600  1
  Pr  Pr4  1  0.50000000  0.50000000  0.50000000  1
  Pr  Pr5  1  0.00000000  0.50000000  0.00000000  1
  Nb  Nb6  1  0.50000000  0.00000000  0.00000000  1
  Nb  Nb7  1  0.00000000  0.00000000  0.50000000  1
  O  O8  1  0.99044000  0.70559900  0.72933000  1
  O  O9  1  0.49044000  0.29440100  0.77067000  1
  O  O10  1  0.00956000  0.29440100  0.27067000  1
  O  O11  1  0.50956000  0.70559900  0.22933000  1
  O  O12  1  0.78727800  0.21318000  0.53441600  1
  O  O13  1  0.28727800  0.78682000  0.96558400  1
  O  O14  1  0.21272200  0.78682000  0.46558400  1
  O  O15  1  0.71272200  0.21318000  0.03441600  1
  O  O16  1  0.24857500  0.17371100  0.03562400  1
  O  O17  1  0.74857500  0.82628900  0.46437600  1
  O  O18  1  0.75142500  0.82628900  0.96437600  1
  O  O19  1  0.25142500  0.17371100  0.53562400  1
