# generated using pymatgen
data_Mn5B2P
_symmetry_space_group_name_H-M   'P 1'
_cell_length_a   6.46269936
_cell_length_b   6.46269936
_cell_length_c   6.46269936
_cell_angle_alpha   129.46044553
_cell_angle_beta   129.46044553
_cell_angle_gamma   74.27081706
_symmetry_Int_Tables_number   1
_chemical_formula_structural   Mn5B2P
_chemical_formula_sum   'Mn10 B4 P2'
_cell_volume   156.85147414
_cell_formula_units_Z   2
loop_
 _symmetry_equiv_pos_site_id
 _symmetry_equiv_pos_as_xyz
  1  'x, y, z'
loop_
 _atom_site_type_symbol
 _atom_site_label
 _atom_site_symmetry_multiplicity
 _atom_site_fract_x
 _atom_site_fract_y
 _atom_site_fract_z
 _atom_site_occupancy
  Mn  Mn0  1  0.19153800  0.69153800  0.16162800  1
  Mn  Mn1  1  0.47009000  0.97009000  0.16162800  1
  Mn  Mn2  1  0.00000000  0.00000000  0.00000000  1
  Mn  Mn3  1  0.50000000  0.50000000  0.00000000  1
  Mn  Mn4  1  0.52991000  0.02991000  0.83837200  1
  Mn  Mn5  1  0.02991000  0.19153800  0.50000000  1
  Mn  Mn6  1  0.69153800  0.52991000  0.50000000  1
  Mn  Mn7  1  0.97009000  0.80846200  0.50000000  1
  Mn  Mn8  1  0.30846200  0.47009000  0.50000000  1
  Mn  Mn9  1  0.80846200  0.30846200  0.83837200  1
  B  B10  1  0.88113700  0.38113700  0.26227300  1
  B  B11  1  0.38113700  0.11886300  0.50000000  1
  B  B12  1  0.61886300  0.88113700  0.50000000  1
  B  B13  1  0.11886300  0.61886300  0.73772700  1
  P  P14  1  0.75000000  0.75000000  0.00000000  1
  P  P15  1  0.25000000  0.25000000  0.00000000  1
