# generated using pymatgen
data_PrTe3
_symmetry_space_group_name_H-M   'P 1'
_cell_length_a   14.00476842
_cell_length_b   14.00476842
_cell_length_c   4.40740500
_cell_angle_alpha   90.00000000
_cell_angle_beta   90.00000000
_cell_angle_gamma   161.90424728
_symmetry_Int_Tables_number   1
_chemical_formula_structural   PrTe3
_chemical_formula_sum   'Pr2 Te6'
_cell_volume   268.50020387
_cell_formula_units_Z   2
loop_
 _symmetry_equiv_pos_site_id
 _symmetry_equiv_pos_as_xyz
  1  'x, y, z'
loop_
 _atom_site_type_symbol
 _atom_site_label
 _atom_site_symmetry_multiplicity
 _atom_site_fract_x
 _atom_site_fract_y
 _atom_site_fract_z
 _atom_site_occupancy
  Pr  Pr0  1  0.32819300  0.67180700  0.25000000  1
  Pr  Pr1  1  0.67180700  0.32819300  0.75000000  1
  Te  Te2  1  0.07805200  0.92194800  0.75000000  1
  Te  Te3  1  0.92194800  0.07805200  0.25000000  1
  Te  Te4  1  0.79281000  0.20719000  0.75000000  1
  Te  Te5  1  0.20719000  0.79281000  0.25000000  1
  Te  Te6  1  0.57804400  0.42195600  0.25000000  1
  Te  Te7  1  0.42195600  0.57804400  0.75000000  1
