# generated using pymatgen
data_Na3Mn5(Ge3O10)2
_symmetry_space_group_name_H-M   'P 1'
_cell_length_a   9.33694200
_cell_length_b   10.34647001
_cell_length_c   10.73783036
_cell_angle_alpha   114.51027911
_cell_angle_beta   84.17982478
_cell_angle_gamma   114.85170841
_symmetry_Int_Tables_number   1
_chemical_formula_structural   Na3Mn5(Ge3O10)2
_chemical_formula_sum   'Na6 Mn10 Ge12 O40'
_cell_volume   853.09458382
_cell_formula_units_Z   2
loop_
 _symmetry_equiv_pos_site_id
 _symmetry_equiv_pos_as_xyz
  1  'x, y, z'
loop_
 _atom_site_type_symbol
 _atom_site_label
 _atom_site_symmetry_multiplicity
 _atom_site_fract_x
 _atom_site_fract_y
 _atom_site_fract_z
 _atom_site_occupancy
  Na  Na0  1  0.61673900  0.37014700  0.57872300  1
  Na  Na1  1  0.38326100  0.62985300  0.42127700  1
  Na  Na2  1  0.37328100  0.61179800  0.94870900  1
  Na  Na3  1  0.62671900  0.38820200  0.05129100  1
  Na  Na4  1  0.94073800  0.06224100  0.15415000  1
  Na  Na5  1  0.05926200  0.93775900  0.84585000  1
  Mn  Mn6  1  0.84046900  0.17673000  0.95219900  1
  Mn  Mn7  1  0.15953100  0.82327000  0.04780100  1
  Mn  Mn8  1  0.93826000  0.05252400  0.65360200  1
  Mn  Mn9  1  0.06174000  0.94747600  0.34639800  1
  Mn  Mn10  1  0.82293700  0.15253900  0.46145900  1
  Mn  Mn11  1  0.17706300  0.84746100  0.53854100  1
  Mn  Mn12  1  0.00000000  0.50000000  0.50000000  1
  Mn  Mn13  1  0.73203100  0.27102200  0.26098700  1
  Mn  Mn14  1  0.26796900  0.72897800  0.73901300  1
  Mn  Mn15  1  0.50000000  0.00000000  0.00000000  1
  Ge  Ge16  1  0.55973000  0.05268100  0.69725600  1
  Ge  Ge17  1  0.44027000  0.94731900  0.30274400  1
  Ge  Ge18  1  0.65191400  0.76787100  0.74441300  1
  Ge  Ge19  1  0.34808600  0.23212900  0.25558700  1
  Ge  Ge20  1  0.95157400  0.43766400  0.79946500  1
  Ge  Ge21  1  0.04842600  0.56233600  0.20053500  1
  Ge  Ge22  1  0.33454400  0.23207900  0.76116000  1
  Ge  Ge23  1  0.66545600  0.76792100  0.23884000  1
  Ge  Ge24  1  0.75880900  0.65611000  0.44285800  1
  Ge  Ge25  1  0.24119100  0.34389000  0.55714200  1
  Ge  Ge26  1  0.78051700  0.65958800  0.93336400  1
  Ge  Ge27  1  0.21948300  0.34041200  0.06663600  1
  O  O28  1  0.71614200  0.04730800  0.59300100  1
  O  O29  1  0.28385800  0.95269200  0.40699900  1
  O  O30  1  0.71732300  0.07935600  0.07097100  1
  O  O31  1  0.28267700  0.92064400  0.92902900  1
  O  O32  1  0.61346900  0.11670000  0.87734500  1
  O  O33  1  0.38653100  0.88330000  0.12265500  1
  O  O34  1  0.61172000  0.68073600  0.56185200  1
  O  O35  1  0.38828000  0.31926400  0.43814800  1
  O  O36  1  0.95271200  0.27769900  0.82526400  1
  O  O37  1  0.04728800  0.72230100  0.17473600  1
  O  O38  1  0.89047900  0.38723900  0.62686100  1
  O  O39  1  0.10952100  0.61276100  0.37313900  1
  O  O40  1  0.91450700  0.29011500  0.35081300  1
  O  O41  1  0.08549300  0.70988500  0.64918700  1
  O  O42  1  0.86689400  0.39281400  0.13691200  1
  O  O43  1  0.13310600  0.60718600  0.86308800  1
  O  O44  1  0.33916400  0.38021000  0.71290700  1
  O  O45  1  0.66083600  0.61979000  0.28709300  1
  O  O46  1  0.36831400  0.33328700  0.94566000  1
  O  O47  1  0.63168600  0.66671300  0.05434000  1
  O  O48  1  0.77396900  0.48831200  0.42991200  1
  O  O49  1  0.22603100  0.51168800  0.57008800  1
  O  O50  1  0.47856800  0.77447200  0.82492200  1
  O  O51  1  0.52143200  0.22552800  0.17507800  1
  O  O52  1  0.68909900  0.62717500  0.77874400  1
  O  O53  1  0.31090100  0.37282500  0.22125600  1
  O  O54  1  0.81969000  0.94535800  0.79177600  1
  O  O55  1  0.18031000  0.05464200  0.20822400  1
  O  O56  1  0.95702400  0.82499000  0.99232300  1
  O  O57  1  0.04297600  0.17501000  0.00767700  1
  O  O58  1  0.16475700  0.05837600  0.70126200  1
  O  O59  1  0.83524300  0.94162400  0.29873800  1
  O  O60  1  0.61066300  0.12692700  0.36643700  1
  O  O61  1  0.38933700  0.87307300  0.63356300  1
  O  O62  1  0.50895100  0.20585300  0.70057300  1
  O  O63  1  0.49104900  0.79414700  0.29942700  1
  O  O64  1  0.93637500  0.82940100  0.48661200  1
  O  O65  1  0.06362500  0.17059900  0.51338800  1
  O  O66  1  0.79744000  0.48408200  0.90066400  1
  O  O67  1  0.20256000  0.51591800  0.09933600  1
