# generated using pymatgen
data_Mg149Tl
_symmetry_space_group_name_H-M   'P 1'
_cell_length_a   15.91453119
_cell_length_b   15.91453457
_cell_length_c   15.56078085
_cell_angle_alpha   90.00000000
_cell_angle_beta   90.00000000
_cell_angle_gamma   120.00071538
_symmetry_Int_Tables_number   1
_chemical_formula_structural   Mg149Tl
_chemical_formula_sum   'Mg149 Tl1'
_cell_volume   3413.08165954
_cell_formula_units_Z   1
loop_
 _symmetry_equiv_pos_site_id
 _symmetry_equiv_pos_as_xyz
  1  'x, y, z'
loop_
 _atom_site_type_symbol
 _atom_site_label
 _atom_site_symmetry_multiplicity
 _atom_site_fract_x
 _atom_site_fract_y
 _atom_site_fract_z
 _atom_site_occupancy
  Mg  Mg0  1  0.79899477  0.00068813  -0.00000000  1
  Mg  Mg1  1  0.20169259  0.00068661  -0.00000000  1
  Mg  Mg2  1  0.40012954  0.20006470  -0.00000000  1
  Mg  Mg3  1  0.79993534  0.20006527  -0.00000000  1
  Mg  Mg4  1  0.60002763  0.20005756  -0.00000000  1
  Mg  Mg5  1  0.20169190  0.20100451  -0.00000000  1
  Mg  Mg6  1  0.99931122  0.20100598  -0.00000000  1
  Mg  Mg7  1  0.19975101  0.39950150  -0.00000000  1
  Mg  Mg8  1  0.79994237  0.39997242  -0.00000000  1
  Mg  Mg9  1  0.60002817  0.39997136  -0.00000000  1
  Mg  Mg10  1  0.40035282  0.40039839  -0.00000000  1
  Mg  Mg11  1  0.00004687  0.40039982  -0.00000000  1
  Mg  Mg12  1  0.59960131  0.59964798  -0.00000000  1
  Mg  Mg13  1  0.00004558  0.59964699  -0.00000000  1
  Mg  Mg14  1  0.79993429  0.59986926  -0.00000000  1
  Mg  Mg15  1  0.19998017  0.59998836  -0.00000000  1
  Mg  Mg16  1  0.40000886  0.59999133  -0.00000000  1
  Mg  Mg17  1  0.99931288  0.79830823  -0.00000000  1
  Mg  Mg18  1  0.79899570  0.79830820  -0.00000000  1
  Mg  Mg19  1  0.40001036  0.80001863  -0.00000000  1
  Mg  Mg20  1  0.60050074  0.80024980  -0.00000000  1
  Mg  Mg21  1  0.19975018  0.80024966  -0.00000000  1
  Mg  Mg22  1  0.40035402  0.99995520  -0.00000000  1
  Mg  Mg23  1  0.59960181  0.99995345  -0.00000000  1
  Mg  Mg24  1  0.06646890  0.33323998  0.16655853  1
  Mg  Mg25  1  0.26677161  0.33323994  0.16655877  1
  Mg  Mg26  1  0.06646881  0.73322787  0.16655941  1
  Mg  Mg27  1  0.66676011  0.73322987  0.16655880  1
  Mg  Mg28  1  0.66675962  0.93353071  0.16655887  1
  Mg  Mg29  1  0.26677068  0.93353096  0.16655992  1
  Mg  Mg30  1  0.46677890  0.13331193  0.16661112  1
  Mg  Mg31  1  0.66653338  0.13331282  0.16661130  1
  Mg  Mg32  1  0.86668852  0.33346584  0.16661052  1
  Mg  Mg33  1  0.46677893  0.33346766  0.16661080  1
  Mg  Mg34  1  0.66653311  0.53322187  0.16661029  1
  Mg  Mg35  1  0.86668845  0.53322200  0.16661132  1
  Mg  Mg36  1  0.66666736  0.33333264  0.16676100  1
  Mg  Mg37  1  0.26665073  0.53330135  0.16673377  1
  Mg  Mg38  1  0.46669929  0.73334901  0.16673382  1
  Mg  Mg39  1  0.26664955  0.73334844  0.16673431  1
  Mg  Mg40  1  0.06676553  0.53338328  0.16667588  1
  Mg  Mg41  1  0.46661645  0.53338360  0.16667637  1
  Mg  Mg42  1  0.46661664  0.93323392  0.16667595  1
  Mg  Mg43  1  0.86640837  0.13359016  0.16713228  1
  Mg  Mg44  1  0.26718077  0.13359074  0.16713240  1
  Mg  Mg45  1  0.86640940  0.73281719  0.16713234  1
  Mg  Mg46  1  0.06701200  0.13402351  0.16805107  1
  Mg  Mg47  1  0.86597648  0.93298771  0.16805143  1
  Mg  Mg48  1  0.06701138  0.93298731  0.16805165  1
  Mg  Mg49  1  0.19993552  0.39987204  0.33318143  1
  Mg  Mg50  1  0.60012665  0.80006387  0.33318206  1
  Mg  Mg51  1  0.19993640  0.80006435  0.33318199  1
  Mg  Mg52  1  0.60005666  0.20011331  0.33327205  1
  Mg  Mg53  1  0.79988691  0.39994241  0.33327174  1
  Mg  Mg54  1  0.60005611  0.39994445  0.33327233  1
  Mg  Mg55  1  0.60007969  0.00004217  0.33330947  1
  Mg  Mg56  1  0.39996110  0.00004158  0.33331042  1
  Mg  Mg57  1  0.39996183  0.39992009  0.33330982  1
  Mg  Mg58  1  0.99995832  0.39991969  0.33331087  1
  Mg  Mg59  1  0.60008019  0.60003764  0.33331014  1
  Mg  Mg60  1  0.99995778  0.60003843  0.33331045  1
  Mg  Mg61  1  0.40014661  0.20007409  0.33333662  1
  Mg  Mg62  1  0.79992617  0.20007338  0.33333656  1
  Mg  Mg63  1  0.79992719  0.59985390  0.33333584  1
  Mg  Mg64  1  -0.00000039  0.00000016  0.33344116  1
  Mg  Mg65  1  0.20006111  0.60003034  0.33339114  1
  Mg  Mg66  1  0.39996833  0.60003037  0.33339179  1
  Mg  Mg67  1  0.39996873  0.79993830  0.33339177  1
  Mg  Mg68  1  0.20005025  0.00009000  0.33381636  1
  Mg  Mg69  1  0.80004075  0.00009151  0.33381666  1
  Mg  Mg70  1  0.99991097  0.19996028  0.33381636  1
  Mg  Mg71  1  0.20005109  0.19995969  0.33381576  1
  Mg  Mg72  1  0.80004131  0.79994974  0.33381658  1
  Mg  Mg73  1  0.99990970  0.79994984  0.33381641  1
  Mg  Mg74  1  0.06661706  0.13323377  0.50000000  1
  Mg  Mg75  1  0.46673393  0.13327114  0.50000000  1
  Mg  Mg76  1  0.66653842  0.13327070  0.50000000  1
  Mg  Mg77  1  0.86666432  0.13333546  0.50000000  1
  Mg  Mg78  1  0.26667323  0.13333626  0.50000000  1
  Mg  Mg79  1  0.66666783  0.33333329  0.50000000  1
  Mg  Mg80  1  0.26675349  0.33333611  0.50000000  1
  Mg  Mg81  1  0.06658377  0.33333780  0.50000000  1
  Mg  Mg82  1  0.86672840  0.33346136  0.50000000  1
  Mg  Mg83  1  0.46673331  0.33346194  0.50000000  1
  Mg  Mg84  1  0.66653925  0.53326645  0.50000000  1
  Mg  Mg85  1  0.86672879  0.53326639  0.50000000  1
  Mg  Mg86  1  0.06659551  0.53329721  0.50000000  1
  Mg  Mg87  1  0.46670213  0.53329776  0.50000000  1
  Mg  Mg88  1  0.26659625  0.53319260  0.50000000  1
  Mg  Mg89  1  0.86666373  0.73332737  0.50000000  1
  Mg  Mg90  1  0.66666293  0.73324743  0.50000000  1
  Mg  Mg91  1  0.06658301  0.73324737  0.50000000  1
  Mg  Mg92  1  0.46680922  0.73340454  0.50000000  1
  Mg  Mg93  1  0.26659493  0.73340275  0.50000000  1
  Mg  Mg94  1  0.26675333  0.93341683  0.50000000  1
  Mg  Mg95  1  0.66666340  0.93341683  0.50000000  1
  Mg  Mg96  1  0.86676632  0.93338200  0.50000000  1
  Mg  Mg97  1  0.06661548  0.93338337  0.50000000  1
  Mg  Mg98  1  0.46670280  0.93340396  0.50000000  1
  Mg  Mg99  1  0.20005025  0.00009000  0.66618364  1
  Mg  Mg100  1  0.80004075  0.00009151  0.66618334  1
  Mg  Mg101  1  0.99991097  0.19996028  0.66618364  1
  Mg  Mg102  1  0.20005109  0.19995969  0.66618424  1
  Mg  Mg103  1  0.80004131  0.79994974  0.66618342  1
  Mg  Mg104  1  0.99990970  0.79994984  0.66618359  1
  Mg  Mg105  1  0.20006111  0.60003034  0.66660886  1
  Mg  Mg106  1  0.39996833  0.60003037  0.66660821  1
  Mg  Mg107  1  0.39996873  0.79993830  0.66660823  1
  Mg  Mg108  1  -0.00000039  0.00000016  0.66655884  1
  Mg  Mg109  1  0.40014661  0.20007409  0.66666338  1
  Mg  Mg110  1  0.79992617  0.20007338  0.66666344  1
  Mg  Mg111  1  0.79992719  0.59985390  0.66666416  1
  Mg  Mg112  1  0.60007969  0.00004217  0.66669053  1
  Mg  Mg113  1  0.39996110  0.00004158  0.66668958  1
  Mg  Mg114  1  0.39996183  0.39992009  0.66669018  1
  Mg  Mg115  1  0.99995832  0.39991969  0.66668913  1
  Mg  Mg116  1  0.60008019  0.60003764  0.66668986  1
  Mg  Mg117  1  0.99995778  0.60003843  0.66668955  1
  Mg  Mg118  1  0.60005666  0.20011331  0.66672795  1
  Mg  Mg119  1  0.79988691  0.39994241  0.66672826  1
  Mg  Mg120  1  0.60005611  0.39994445  0.66672767  1
  Mg  Mg121  1  0.19993552  0.39987204  0.66681857  1
  Mg  Mg122  1  0.60012665  0.80006387  0.66681794  1
  Mg  Mg123  1  0.19993640  0.80006435  0.66681801  1
  Mg  Mg124  1  0.06701200  0.13402351  0.83194893  1
  Mg  Mg125  1  0.86597648  0.93298771  0.83194857  1
  Mg  Mg126  1  0.06701138  0.93298731  0.83194835  1
  Mg  Mg127  1  0.86640837  0.13359016  0.83286772  1
  Mg  Mg128  1  0.26718077  0.13359074  0.83286760  1
  Mg  Mg129  1  0.86640940  0.73281719  0.83286766  1
  Mg  Mg130  1  0.06676553  0.53338328  0.83332412  1
  Mg  Mg131  1  0.46661645  0.53338360  0.83332363  1
  Mg  Mg132  1  0.46661664  0.93323392  0.83332405  1
  Mg  Mg133  1  0.26665073  0.53330135  0.83326623  1
  Mg  Mg134  1  0.46669929  0.73334901  0.83326618  1
  Mg  Mg135  1  0.26664955  0.73334844  0.83326569  1
  Mg  Mg136  1  0.66666736  0.33333264  0.83323900  1
  Mg  Mg137  1  0.46677890  0.13331193  0.83338888  1
  Mg  Mg138  1  0.66653338  0.13331282  0.83338870  1
  Mg  Mg139  1  0.86668852  0.33346584  0.83338948  1
  Mg  Mg140  1  0.46677893  0.33346766  0.83338920  1
  Mg  Mg141  1  0.66653311  0.53322187  0.83338971  1
  Mg  Mg142  1  0.86668845  0.53322200  0.83338868  1
  Mg  Mg143  1  0.06646890  0.33323998  0.83344147  1
  Mg  Mg144  1  0.26677161  0.33323994  0.83344123  1
  Mg  Mg145  1  0.06646881  0.73322787  0.83344059  1
  Mg  Mg146  1  0.66676011  0.73322987  0.83344120  1
  Mg  Mg147  1  0.66675962  0.93353071  0.83344113  1
  Mg  Mg148  1  0.26677068  0.93353096  0.83344008  1
  Tl  Tl149  1  0.00000007  0.00000006  -0.00000000  1
