# generated using pymatgen
data_Tb2Co3Si5
_symmetry_space_group_name_H-M   'P 1'
_cell_length_a   7.88719500
_cell_length_b   7.88719500
_cell_length_c   5.52670442
_cell_angle_alpha   70.77772472
_cell_angle_beta   70.77772472
_cell_angle_gamma   93.40267668
_symmetry_Int_Tables_number   1
_chemical_formula_structural   Tb2Co3Si5
_chemical_formula_sum   'Tb4 Co6 Si10'
_cell_volume   301.06356940
_cell_formula_units_Z   2
loop_
 _symmetry_equiv_pos_site_id
 _symmetry_equiv_pos_as_xyz
  1  'x, y, z'
loop_
 _atom_site_type_symbol
 _atom_site_label
 _atom_site_symmetry_multiplicity
 _atom_site_fract_x
 _atom_site_fract_y
 _atom_site_fract_z
 _atom_site_occupancy
  Tb  Tb0  1  0.86947000  0.59840100  0.76307900  1
  Tb  Tb1  1  0.40159900  0.13053000  0.73692100  1
  Tb  Tb2  1  0.13053000  0.40159900  0.23692100  1
  Tb  Tb3  1  0.59840100  0.86947000  0.26307900  1
  Co  Co4  1  0.53900000  0.26321100  0.12632100  1
  Co  Co5  1  0.99611000  0.00389000  0.25000000  1
  Co  Co6  1  0.26321100  0.53900000  0.62632100  1
  Co  Co7  1  0.46100000  0.73678900  0.87367900  1
  Co  Co8  1  0.73678900  0.46100000  0.37367900  1
  Co  Co9  1  0.00389000  0.99611000  0.75000000  1
  Si  Si10  1  0.77000200  0.22999800  0.75000000  1
  Si  Si11  1  0.22999800  0.77000200  0.25000000  1
  Si  Si12  1  0.51144900  0.48855100  0.75000000  1
  Si  Si13  1  0.48855100  0.51144900  0.25000000  1
  Si  Si14  1  0.21469800  0.78530200  0.75000000  1
  Si  Si15  1  0.78530200  0.21469800  0.25000000  1
  Si  Si16  1  0.06256900  0.26169300  0.83581300  1
  Si  Si17  1  0.26169300  0.06256900  0.33581300  1
  Si  Si18  1  0.93743100  0.73830700  0.16418700  1
  Si  Si19  1  0.73830700  0.93743100  0.66418700  1
