# generated using pymatgen
data_KAg(NO3)2
_symmetry_space_group_name_H-M   'P 1'
_cell_length_a   5.03485400
_cell_length_b   8.44685600
_cell_length_c   14.45032536
_cell_angle_alpha   80.27600621
_cell_angle_beta   90.00000000
_cell_angle_gamma   90.00000000
_symmetry_Int_Tables_number   1
_chemical_formula_structural   KAg(NO3)2
_chemical_formula_sum   'K4 Ag4 N8 O24'
_cell_volume   605.72396426
_cell_formula_units_Z   4
loop_
 _symmetry_equiv_pos_site_id
 _symmetry_equiv_pos_as_xyz
  1  'x, y, z'
loop_
 _atom_site_type_symbol
 _atom_site_label
 _atom_site_symmetry_multiplicity
 _atom_site_fract_x
 _atom_site_fract_y
 _atom_site_fract_z
 _atom_site_occupancy
  K  K0  1  0.54795600  0.73601600  0.56790500  1
  K  K1  1  0.04795600  0.26398400  0.93209500  1
  K  K2  1  0.45204400  0.26398400  0.43209500  1
  K  K3  1  0.95204400  0.73601600  0.06790500  1
  Ag  Ag4  1  0.08580200  0.80749600  0.78548300  1
  Ag  Ag5  1  0.58580200  0.19250400  0.71451700  1
  Ag  Ag6  1  0.91419800  0.19250400  0.21451700  1
  Ag  Ag7  1  0.41419800  0.80749600  0.28548300  1
  N  N8  1  0.14202000  0.43781200  0.66451500  1
  N  N9  1  0.64202000  0.56218800  0.83548500  1
  N  N10  1  0.85798000  0.56218800  0.33548500  1
  N  N11  1  0.35798000  0.43781200  0.16451500  1
  N  N12  1  0.05383500  0.06196900  0.59997100  1
  N  N13  1  0.55383500  0.93803100  0.90002900  1
  N  N14  1  0.94616500  0.93803100  0.40002900  1
  N  N15  1  0.44616500  0.06196900  0.09997100  1
  O  O16  1  0.45826000  0.32371600  0.22220500  1
  O  O17  1  0.95826000  0.67628400  0.27779500  1
  O  O18  1  0.54174000  0.67628400  0.77779500  1
  O  O19  1  0.04174000  0.32371600  0.72220500  1
  O  O20  1  0.47363200  0.57015900  0.14151700  1
  O  O21  1  0.97363200  0.42984100  0.35848300  1
  O  O22  1  0.52636800  0.42984100  0.85848300  1
  O  O23  1  0.02636800  0.57015900  0.64151700  1
  O  O24  1  0.61173800  0.99033700  0.16140700  1
  O  O25  1  0.11173800  0.00966300  0.33859300  1
  O  O26  1  0.38826200  0.00966300  0.83859300  1
  O  O27  1  0.88826200  0.99033700  0.66140700  1
  O  O28  1  0.20451400  0.02026700  0.10483200  1
  O  O29  1  0.70451400  0.97973300  0.39516800  1
  O  O30  1  0.79548600  0.97973300  0.89516800  1
  O  O31  1  0.29548600  0.02026700  0.60483200  1
  O  O32  1  0.52707600  0.17275300  0.03721400  1
  O  O33  1  0.02707600  0.82724700  0.46278600  1
  O  O34  1  0.47292400  0.82724700  0.96278600  1
  O  O35  1  0.97292400  0.17275300  0.53721400  1
  O  O36  1  0.12778000  0.41790700  0.12884300  1
  O  O37  1  0.62778000  0.58209300  0.37115700  1
  O  O38  1  0.87222000  0.58209300  0.87115700  1
  O  O39  1  0.37222000  0.41790700  0.62884300  1
