# generated using pymatgen
data_Mn2P
_symmetry_space_group_name_H-M   'P 1'
_cell_length_a   6.08547753
_cell_length_b   6.08547753
_cell_length_c   3.26202400
_cell_angle_alpha   90.00000000
_cell_angle_beta   90.00000000
_cell_angle_gamma   119.99999490
_symmetry_Int_Tables_number   1
_chemical_formula_structural   Mn2P
_chemical_formula_sum   'Mn6 P3'
_cell_volume   104.61817324
_cell_formula_units_Z   3
loop_
 _symmetry_equiv_pos_site_id
 _symmetry_equiv_pos_as_xyz
  1  'x, y, z'
loop_
 _atom_site_type_symbol
 _atom_site_label
 _atom_site_symmetry_multiplicity
 _atom_site_fract_x
 _atom_site_fract_y
 _atom_site_fract_z
 _atom_site_occupancy
  Mn  Mn0  1  0.25621300  0.25621300  0.00000000  1
  Mn  Mn1  1  0.74378700  0.00000000  0.00000000  1
  Mn  Mn2  1  0.59953000  0.59953000  0.50000000  1
  Mn  Mn3  1  0.00000000  0.74378700  0.00000000  1
  Mn  Mn4  1  0.40047000  0.00000000  0.50000000  1
  Mn  Mn5  1  0.00000000  0.40047000  0.50000000  1
  P  P6  1  0.33333300  0.66666700  0.00000000  1
  P  P7  1  0.00000000  0.00000000  0.50000000  1
  P  P8  1  0.66666700  0.33333300  0.00000000  1
