# generated using pymatgen
data_Rb2PaF7
_symmetry_space_group_name_H-M   'P 1'
_cell_length_a   8.00447855
_cell_length_b   8.00447855
_cell_length_c   8.31528107
_cell_angle_alpha   59.36769301
_cell_angle_beta   59.36769301
_cell_angle_gamma   52.45549675
_symmetry_Int_Tables_number   1
_chemical_formula_structural   Rb2PaF7
_chemical_formula_sum   'Rb4 Pa2 F14'
_cell_volume   347.66688454
_cell_formula_units_Z   2
loop_
 _symmetry_equiv_pos_site_id
 _symmetry_equiv_pos_as_xyz
  1  'x, y, z'
loop_
 _atom_site_type_symbol
 _atom_site_label
 _atom_site_symmetry_multiplicity
 _atom_site_fract_x
 _atom_site_fract_y
 _atom_site_fract_z
 _atom_site_occupancy
  Rb  Rb0  1  0.31885600  0.33794500  0.11218500  1
  Rb  Rb1  1  0.66205500  0.68114400  0.38781500  1
  Rb  Rb2  1  0.68114400  0.66205500  0.88781500  1
  Rb  Rb3  1  0.33794500  0.31885600  0.61218500  1
  Pa  Pa4  1  0.02475300  0.97524700  0.25000000  1
  Pa  Pa5  1  0.97524700  0.02475300  0.75000000  1
  F  F6  1  0.94621400  0.71385500  0.48378000  1
  F  F7  1  0.28614500  0.05378600  0.01622000  1
  F  F8  1  0.05378600  0.28614500  0.51622000  1
  F  F9  1  0.71385500  0.94621400  0.98378000  1
  F  F10  1  0.33950500  0.66049500  0.25000000  1
  F  F11  1  0.66049500  0.33950500  0.75000000  1
  F  F12  1  0.89526400  0.32305600  0.21007200  1
  F  F13  1  0.67694400  0.10473600  0.28992800  1
  F  F14  1  0.10473600  0.67694400  0.78992800  1
  F  F15  1  0.32305600  0.89526400  0.71007200  1
  F  F16  1  0.05523300  0.80038000  0.07888200  1
  F  F17  1  0.19962000  0.94476700  0.42111800  1
  F  F18  1  0.94476700  0.19962000  0.92111800  1
  F  F19  1  0.80038000  0.05523300  0.57888200  1
