# generated using pymatgen
data_Sr6Al7ClO16
_symmetry_space_group_name_H-M   'P 1'
_cell_length_a   10.80023819
_cell_length_b   10.80023819
_cell_length_c   10.80023819
_cell_angle_alpha   109.50511267
_cell_angle_beta   109.50511267
_cell_angle_gamma   109.40345781
_symmetry_Int_Tables_number   1
_chemical_formula_structural   Sr6Al7ClO16
_chemical_formula_sum   'Sr12 Al14 Cl2 O32'
_cell_volume   969.78989354
_cell_formula_units_Z   2
loop_
 _symmetry_equiv_pos_site_id
 _symmetry_equiv_pos_as_xyz
  1  'x, y, z'
loop_
 _atom_site_type_symbol
 _atom_site_label
 _atom_site_symmetry_multiplicity
 _atom_site_fract_x
 _atom_site_fract_y
 _atom_site_fract_z
 _atom_site_occupancy
  Sr  Sr0  1  0.97958400  0.47958400  0.50000000  1
  Sr  Sr1  1  0.77041600  0.77041600  0.00000000  1
  Sr  Sr2  1  0.22958400  0.22958400  0.00000000  1
  Sr  Sr3  1  0.52041600  0.02041600  0.50000000  1
  Sr  Sr4  1  0.37500000  0.73469200  0.85969200  1
  Sr  Sr5  1  0.87500000  0.51530800  0.14030800  1
  Sr  Sr6  1  0.87500000  0.98822800  0.61322800  1
  Sr  Sr7  1  0.37500000  0.26177200  0.38677200  1
  Sr  Sr8  1  0.73822800  0.12500000  0.11322800  1
  Sr  Sr9  1  0.01177200  0.62500000  0.88677200  1
  Sr  Sr10  1  0.48469200  0.62500000  0.35969200  1
  Sr  Sr11  1  0.26530800  0.12500000  0.64030800  1
  Al  Al12  1  0.25000000  0.75000000  0.50000000  1
  Al  Al13  1  0.50000000  0.50000000  0.00000000  1
  Al  Al14  1  0.37500000  0.99872500  0.12372500  1
  Al  Al15  1  0.87500000  0.25127500  0.87627500  1
  Al  Al16  1  0.00127500  0.12500000  0.37627500  1
  Al  Al17  1  0.74872500  0.62500000  0.62372500  1
  Al  Al18  1  0.09324100  0.37500500  0.25031100  1
  Al  Al19  1  0.12469400  0.84293000  0.74968900  1
  Al  Al20  1  0.62530600  0.87499500  0.21823600  1
  Al  Al21  1  0.65675900  0.40707000  0.78176400  1
  Al  Al22  1  0.12500500  0.34324100  0.75031100  1
  Al  Al23  1  0.59293000  0.37469400  0.24968900  1
  Al  Al24  1  0.62499500  0.87530600  0.71823600  1
  Al  Al25  1  0.15707000  0.90675900  0.28176400  1
  Cl  Cl26  1  0.75000000  0.25000000  0.50000000  1
  Cl  Cl27  1  0.00000000  0.00000000  0.00000000  1
  O  O28  1  0.63261500  0.48503700  0.94192000  1
  O  O29  1  0.54311700  0.69069500  0.05808000  1
  O  O30  1  0.20688300  0.76496300  0.64757800  1
  O  O31  1  0.11738500  0.55930500  0.35242200  1
  O  O32  1  0.23503700  0.88261500  0.44192000  1
  O  O33  1  0.44069500  0.79311700  0.55808000  1
  O  O34  1  0.51496300  0.45688300  0.14757800  1
  O  O35  1  0.30930500  0.36738500  0.85242200  1
  O  O36  1  0.81697400  0.38541000  0.86565000  1
  O  O37  1  0.93302600  0.29867700  0.06843600  1
  O  O38  1  0.51975900  0.95132300  0.13435000  1
  O  O39  1  0.23024100  0.86459000  0.93156400  1
  O  O40  1  0.31631100  0.98264000  0.25599000  1
  O  O41  1  0.43368900  0.18967900  0.16632900  1
  O  O42  1  0.02335000  0.26736000  0.83367000  1
  O  O43  1  0.72665000  0.06032100  0.74401000  1
  O  O44  1  0.73264000  0.56631100  0.75599000  1
  O  O45  1  0.93967900  0.68368900  0.66633000  1
  O  O46  1  0.01736000  0.27335000  0.33367000  1
  O  O47  1  0.81032100  0.97665000  0.24401000  1
  O  O48  1  0.13541000  0.06697400  0.36565000  1
  O  O49  1  0.04867700  0.18302600  0.56843600  1
  O  O50  1  0.70132300  0.76975900  0.63435000  1
  O  O51  1  0.61459000  0.48024100  0.43156400  1
  O  O52  1  0.75273300  0.37650300  0.24411900  1
  O  O53  1  0.13238400  0.50861400  0.75588100  1
  O  O54  1  0.61761600  0.87349700  0.87623000  1
  O  O55  1  0.99726700  0.74138600  0.12377000  1
  O  O56  1  0.12650300  0.00273300  0.74411900  1
  O  O57  1  0.25861400  0.38238400  0.25588100  1
  O  O58  1  0.62349700  0.86761600  0.37623000  1
  O  O59  1  0.49138600  0.24726700  0.62377000  1
