# generated using pymatgen
data_CsVNiF6
_symmetry_space_group_name_H-M   'P 1'
_cell_length_a   7.43357711
_cell_length_b   7.43357711
_cell_length_c   7.43357711
_cell_angle_alpha   120.79358115
_cell_angle_beta   118.60995246
_cell_angle_gamma   90.52764478
_symmetry_Int_Tables_number   1
_chemical_formula_structural   CsVNiF6
_chemical_formula_sum   'Cs2 V2 Ni2 F12'
_cell_volume   291.61976382
_cell_formula_units_Z   2
loop_
 _symmetry_equiv_pos_site_id
 _symmetry_equiv_pos_as_xyz
  1  'x, y, z'
loop_
 _atom_site_type_symbol
 _atom_site_label
 _atom_site_symmetry_multiplicity
 _atom_site_fract_x
 _atom_site_fract_y
 _atom_site_fract_z
 _atom_site_occupancy
  Cs  Cs0  1  0.37237400  0.12237400  0.25000000  1
  Cs  Cs1  1  0.62762600  0.87762600  0.75000000  1
  V  V2  1  0.00000000  0.50000000  0.50000000  1
  V  V3  1  0.50000000  0.50000000  0.00000000  1
  Ni  Ni4  1  0.00000000  0.50000000  0.00000000  1
  Ni  Ni5  1  0.00000000  0.00000000  0.50000000  1
  F  F6  1  0.31624700  0.56624700  0.75000000  1
  F  F7  1  0.92982400  0.17982400  0.75000000  1
  F  F8  1  0.32588600  0.18646300  0.76003500  1
  F  F9  1  0.92642800  0.56585100  0.73996500  1
  F  F10  1  0.32588600  0.56585100  0.13942300  1
  F  F11  1  0.92642800  0.18646300  0.36057700  1
  F  F12  1  0.68375300  0.43375300  0.25000000  1
  F  F13  1  0.07017600  0.82017600  0.25000000  1
  F  F14  1  0.67411400  0.81353700  0.23996500  1
  F  F15  1  0.07357200  0.43414900  0.26003500  1
  F  F16  1  0.67411400  0.43414900  0.86057700  1
  F  F17  1  0.07357200  0.81353700  0.63942300  1
