# generated using pymatgen
data_Gd2Te3
_symmetry_space_group_name_H-M   'P 1'
_cell_length_a   4.34558100
_cell_length_b   11.87601500
_cell_length_c   12.10825400
_cell_angle_alpha   90.00000000
_cell_angle_beta   90.00000000
_cell_angle_gamma   90.00000000
_symmetry_Int_Tables_number   1
_chemical_formula_structural   Gd2Te3
_chemical_formula_sum   'Gd8 Te12'
_cell_volume   624.88501415
_cell_formula_units_Z   4
loop_
 _symmetry_equiv_pos_site_id
 _symmetry_equiv_pos_as_xyz
  1  'x, y, z'
loop_
 _atom_site_type_symbol
 _atom_site_label
 _atom_site_symmetry_multiplicity
 _atom_site_fract_x
 _atom_site_fract_y
 _atom_site_fract_z
 _atom_site_occupancy
  Gd  Gd0  1  0.25000000  0.18815000  0.48297300  1
  Gd  Gd1  1  0.25000000  0.31185000  0.98297300  1
  Gd  Gd2  1  0.75000000  0.81185000  0.51702700  1
  Gd  Gd3  1  0.75000000  0.68815000  0.01702700  1
  Gd  Gd4  1  0.25000000  0.00195100  0.80416400  1
  Gd  Gd5  1  0.25000000  0.49804900  0.30416400  1
  Gd  Gd6  1  0.75000000  0.99804900  0.19583600  1
  Gd  Gd7  1  0.75000000  0.50195100  0.69583600  1
  Te  Te8  1  0.25000000  0.62344000  0.54312100  1
  Te  Te9  1  0.25000000  0.87656000  0.04312100  1
  Te  Te10  1  0.75000000  0.37656000  0.45687900  1
  Te  Te11  1  0.75000000  0.12344000  0.95687900  1
  Te  Te12  1  0.25000000  0.94324800  0.38149400  1
  Te  Te13  1  0.25000000  0.55675200  0.88149400  1
  Te  Te14  1  0.75000000  0.05675200  0.61850600  1
  Te  Te15  1  0.75000000  0.44324800  0.11850600  1
  Te  Te16  1  0.25000000  0.30304400  0.72404300  1
  Te  Te17  1  0.25000000  0.19695600  0.22404300  1
  Te  Te18  1  0.75000000  0.69695600  0.27595700  1
  Te  Te19  1  0.75000000  0.80304400  0.77595700  1
