# generated using pymatgen
data_PrSiPt
_symmetry_space_group_name_H-M   'P 1'
_cell_length_a   7.85316762
_cell_length_b   7.85316762
_cell_length_c   7.85316762
_cell_angle_alpha   148.61644013
_cell_angle_beta   148.61644013
_cell_angle_gamma   44.97619422
_symmetry_Int_Tables_number   1
_chemical_formula_structural   PrSiPt
_chemical_formula_sum   'Pr2 Si2 Pt2'
_cell_volume   130.93654114
_cell_formula_units_Z   2
loop_
 _symmetry_equiv_pos_site_id
 _symmetry_equiv_pos_as_xyz
  1  'x, y, z'
loop_
 _atom_site_type_symbol
 _atom_site_label
 _atom_site_symmetry_multiplicity
 _atom_site_fract_x
 _atom_site_fract_y
 _atom_site_fract_z
 _atom_site_occupancy
  Pr  Pr0  1  0.74882000  0.24882000  0.50000000  1
  Pr  Pr1  1  0.99882000  0.99882000  0.00000000  1
  Si  Si2  1  0.16852200  0.66852200  0.50000000  1
  Si  Si3  1  0.41852200  0.41852200  0.00000000  1
  Pt  Pt4  1  0.33665800  0.83665800  0.50000000  1
  Pt  Pt5  1  0.58665800  0.58665800  0.00000000  1
