# generated using pymatgen
data_TmFeB4
_symmetry_space_group_name_H-M   'P 1'
_cell_length_a   3.33955500
_cell_length_b   5.84642000
_cell_length_c   11.30758600
_cell_angle_alpha   90.00000000
_cell_angle_beta   90.00000000
_cell_angle_gamma   90.00000000
_symmetry_Int_Tables_number   1
_chemical_formula_structural   TmFeB4
_chemical_formula_sum   'Tm4 Fe4 B16'
_cell_volume   220.77429733
_cell_formula_units_Z   4
loop_
 _symmetry_equiv_pos_site_id
 _symmetry_equiv_pos_as_xyz
  1  'x, y, z'
loop_
 _atom_site_type_symbol
 _atom_site_label
 _atom_site_symmetry_multiplicity
 _atom_site_fract_x
 _atom_site_fract_y
 _atom_site_fract_z
 _atom_site_occupancy
  Tm  Tm0  1  0.50000000  0.37368100  0.15018300  1
  Tm  Tm1  1  0.50000000  0.62631900  0.84981700  1
  Tm  Tm2  1  0.50000000  0.12631900  0.65018300  1
  Tm  Tm3  1  0.50000000  0.87368100  0.34981700  1
  Fe  Fe4  1  0.50000000  0.36617600  0.41093300  1
  Fe  Fe5  1  0.50000000  0.63382400  0.58906700  1
  Fe  Fe6  1  0.50000000  0.13382400  0.91093300  1
  Fe  Fe7  1  0.50000000  0.86617600  0.08906700  1
  B  B8  1  0.00000000  0.11198300  0.04625100  1
  B  B9  1  0.00000000  0.88801700  0.95374900  1
  B  B10  1  0.00000000  0.38801700  0.54625100  1
  B  B11  1  0.00000000  0.61198300  0.45374900  1
  B  B12  1  0.00000000  0.13799300  0.46830200  1
  B  B13  1  0.00000000  0.86200700  0.53169800  1
  B  B14  1  0.00000000  0.36200700  0.96830200  1
  B  B15  1  0.00000000  0.63799300  0.03169800  1
  B  B16  1  0.00000000  0.02484200  0.19102100  1
  B  B17  1  0.00000000  0.97515800  0.80897900  1
  B  B18  1  0.00000000  0.47515800  0.69102100  1
  B  B19  1  0.00000000  0.52484200  0.30897900  1
  B  B20  1  0.00000000  0.21687400  0.31566100  1
  B  B21  1  0.00000000  0.78312600  0.68433900  1
  B  B22  1  0.00000000  0.28312600  0.81566100  1
  B  B23  1  0.00000000  0.71687400  0.18433900  1
