# generated using pymatgen
data_RbEr2Cu3Se5
_symmetry_space_group_name_H-M   'P 1'
_cell_length_a   7.55391108
_cell_length_b   7.55391108
_cell_length_c   17.05048100
_cell_angle_alpha   90.00000000
_cell_angle_beta   90.00000000
_cell_angle_gamma   148.44046444
_symmetry_Int_Tables_number   1
_chemical_formula_structural   RbEr2Cu3Se5
_chemical_formula_sum   'Rb2 Er4 Cu6 Se10'
_cell_volume   509.21480797
_cell_formula_units_Z   2
loop_
 _symmetry_equiv_pos_site_id
 _symmetry_equiv_pos_as_xyz
  1  'x, y, z'
loop_
 _atom_site_type_symbol
 _atom_site_label
 _atom_site_symmetry_multiplicity
 _atom_site_fract_x
 _atom_site_fract_y
 _atom_site_fract_z
 _atom_site_occupancy
  Rb  Rb0  1  0.43909300  0.56090700  0.25000000  1
  Rb  Rb1  1  0.56090700  0.43909300  0.75000000  1
  Er  Er2  1  0.69201000  0.30799000  0.09220700  1
  Er  Er3  1  0.30799000  0.69201000  0.90779300  1
  Er  Er4  1  0.30799000  0.69201000  0.59220700  1
  Er  Er5  1  0.69201000  0.30799000  0.40779300  1
  Cu  Cu6  1  0.91562100  0.08437900  0.02984800  1
  Cu  Cu7  1  0.08437900  0.91562100  0.97015200  1
  Cu  Cu8  1  0.08437900  0.91562100  0.52984800  1
  Cu  Cu9  1  0.91562100  0.08437900  0.47015200  1
  Cu  Cu10  1  0.15852000  0.84148000  0.25000000  1
  Cu  Cu11  1  0.84148000  0.15852000  0.75000000  1
  Se  Se12  1  0.93954000  0.06046000  0.88378600  1
  Se  Se13  1  0.06046000  0.93954000  0.11621400  1
  Se  Se14  1  0.06046000  0.93954000  0.38378600  1
  Se  Se15  1  0.93954000  0.06046000  0.61621400  1
  Se  Se16  1  0.25489400  0.74510600  0.75000000  1
  Se  Se17  1  0.74510600  0.25489400  0.25000000  1
  Se  Se18  1  0.66713600  0.33286400  0.92857100  1
  Se  Se19  1  0.33286400  0.66713600  0.07142900  1
  Se  Se20  1  0.33286400  0.66713600  0.42857100  1
  Se  Se21  1  0.66713600  0.33286400  0.57142900  1
