# generated using pymatgen
data_Mg3V2O8
_symmetry_space_group_name_H-M   'P 1'
_cell_length_a   6.56680520
_cell_length_b   6.56680520
_cell_length_c   8.42351400
_cell_angle_alpha   90.00000000
_cell_angle_beta   90.00000000
_cell_angle_gamma   124.39019974
_symmetry_Int_Tables_number   1
_chemical_formula_structural   Mg3V2O8
_chemical_formula_sum   'Mg6 V4 O16'
_cell_volume   299.75477895
_cell_formula_units_Z   2
loop_
 _symmetry_equiv_pos_site_id
 _symmetry_equiv_pos_as_xyz
  1  'x, y, z'
loop_
 _atom_site_type_symbol
 _atom_site_label
 _atom_site_symmetry_multiplicity
 _atom_site_fract_x
 _atom_site_fract_y
 _atom_site_fract_z
 _atom_site_occupancy
  Mg  Mg0  1  0.50000000  0.50000000  0.00000000  1
  Mg  Mg1  1  0.00000000  0.00000000  0.50000000  1
  Mg  Mg2  1  0.11423100  0.38576900  0.75000000  1
  Mg  Mg3  1  0.38576900  0.11423100  0.25000000  1
  Mg  Mg4  1  0.61423100  0.88576900  0.75000000  1
  Mg  Mg5  1  0.88576900  0.61423100  0.25000000  1
  V  V6  1  0.11999100  0.88000900  0.88035300  1
  V  V7  1  0.88000900  0.11999100  0.11964700  1
  V  V8  1  0.38000900  0.61999100  0.38035300  1
  V  V9  1  0.61999100  0.38000900  0.61964700  1
  O  O10  1  0.84621800  0.61214600  0.49997700  1
  O  O11  1  0.61214600  0.84621800  0.50002300  1
  O  O12  1  0.65378200  0.88785400  0.99997700  1
  O  O13  1  0.88785400  0.65378200  0.00002300  1
  O  O14  1  0.15378200  0.38785400  0.50002300  1
  O  O15  1  0.38785400  0.15378200  0.49997700  1
  O  O16  1  0.34621800  0.11214600  0.00002300  1
  O  O17  1  0.11214600  0.34621800  0.99997700  1
  O  O18  1  0.99731100  0.00268900  0.74492600  1
  O  O19  1  0.00268900  0.99731100  0.25507400  1
  O  O20  1  0.24909800  0.75090200  0.77467900  1
  O  O21  1  0.75090200  0.24909800  0.22532100  1
  O  O22  1  0.25090200  0.74909800  0.27467900  1
  O  O23  1  0.74909800  0.25090200  0.72532100  1
  O  O24  1  0.49731100  0.50268900  0.75507400  1
  O  O25  1  0.50268900  0.49731100  0.24492600  1
