# generated using pymatgen
data_DyCo5P3
_symmetry_space_group_name_H-M   'P 1'
_cell_length_a   3.64387800
_cell_length_b   10.25677200
_cell_length_c   11.71873300
_cell_angle_alpha   90.00000000
_cell_angle_beta   90.00000000
_cell_angle_gamma   90.00000000
_symmetry_Int_Tables_number   1
_chemical_formula_structural   DyCo5P3
_chemical_formula_sum   'Dy4 Co20 P12'
_cell_volume   437.98091747
_cell_formula_units_Z   4
loop_
 _symmetry_equiv_pos_site_id
 _symmetry_equiv_pos_as_xyz
  1  'x, y, z'
loop_
 _atom_site_type_symbol
 _atom_site_label
 _atom_site_symmetry_multiplicity
 _atom_site_fract_x
 _atom_site_fract_y
 _atom_site_fract_z
 _atom_site_occupancy
  Dy  Dy0  1  0.25000000  0.58307800  0.70350600  1
  Dy  Dy1  1  0.25000000  0.91692200  0.20350600  1
  Dy  Dy2  1  0.75000000  0.41692200  0.29649400  1
  Dy  Dy3  1  0.75000000  0.08307800  0.79649400  1
  Co  Co4  1  0.25000000  0.71519700  0.98929800  1
  Co  Co5  1  0.25000000  0.78480300  0.48929800  1
  Co  Co6  1  0.75000000  0.28480300  0.01070200  1
  Co  Co7  1  0.75000000  0.21519700  0.51070200  1
  Co  Co8  1  0.25000000  0.40653400  0.48783400  1
  Co  Co9  1  0.25000000  0.09346600  0.98783400  1
  Co  Co10  1  0.75000000  0.59346600  0.51216600  1
  Co  Co11  1  0.75000000  0.90653400  0.01216600  1
  Co  Co12  1  0.25000000  0.22046100  0.17605800  1
  Co  Co13  1  0.25000000  0.27953900  0.67605800  1
  Co  Co14  1  0.75000000  0.77953900  0.82394200  1
  Co  Co15  1  0.75000000  0.72046100  0.32394200  1
  Co  Co16  1  0.25000000  0.88238300  0.69784900  1
  Co  Co17  1  0.25000000  0.61761700  0.19784900  1
  Co  Co18  1  0.75000000  0.11761700  0.30215100  1
  Co  Co19  1  0.75000000  0.38238300  0.80215100  1
  Co  Co20  1  0.25000000  0.46686100  0.93233100  1
  Co  Co21  1  0.25000000  0.03313900  0.43233100  1
  Co  Co22  1  0.75000000  0.53313900  0.06766900  1
  Co  Co23  1  0.75000000  0.96686100  0.56766900  1
  P  P24  1  0.25000000  0.41844200  0.11226200  1
  P  P25  1  0.25000000  0.08155800  0.61226200  1
  P  P26  1  0.75000000  0.58155800  0.88773800  1
  P  P27  1  0.75000000  0.91844200  0.38773800  1
  P  P28  1  0.25000000  0.27071600  0.86947100  1
  P  P29  1  0.25000000  0.22928400  0.36947100  1
  P  P30  1  0.75000000  0.72928400  0.13052900  1
  P  P31  1  0.75000000  0.77071600  0.63052900  1
  P  P32  1  0.25000000  0.60138500  0.39120900  1
  P  P33  1  0.25000000  0.89861500  0.89120900  1
  P  P34  1  0.75000000  0.39861500  0.60879100  1
  P  P35  1  0.75000000  0.10138500  0.10879100  1
