# generated using pymatgen
data_Nd6Mn(SiS7)2
_symmetry_space_group_name_H-M   'P 1'
_cell_length_a   10.23182219
_cell_length_b   10.23182219
_cell_length_c   5.70660300
_cell_angle_alpha   90.00000000
_cell_angle_beta   90.00000000
_cell_angle_gamma   120.00000124
_symmetry_Int_Tables_number   1
_chemical_formula_structural   Nd6Mn(SiS7)2
_chemical_formula_sum   'Nd6 Mn1 Si2 S14'
_cell_volume   517.38550258
_cell_formula_units_Z   1
loop_
 _symmetry_equiv_pos_site_id
 _symmetry_equiv_pos_as_xyz
  1  'x, y, z'
loop_
 _atom_site_type_symbol
 _atom_site_label
 _atom_site_symmetry_multiplicity
 _atom_site_fract_x
 _atom_site_fract_y
 _atom_site_fract_z
 _atom_site_occupancy
  Nd  Nd0  1  0.64323700  0.76597600  0.74989600  1
  Nd  Nd1  1  0.12273900  0.35676300  0.74989600  1
  Nd  Nd2  1  0.23402400  0.87726100  0.74989600  1
  Nd  Nd3  1  0.35605700  0.23379700  0.24839400  1
  Nd  Nd4  1  0.87774000  0.64394300  0.24839400  1
  Nd  Nd5  1  0.76620300  0.12226000  0.24839400  1
  Mn  Mn6  1  0.00000000  0.00000000  0.51138500  1
  Si  Si7  1  0.33333300  0.66666700  0.16489900  1
  Si  Si8  1  0.66666700  0.33333300  0.66325700  1
  S  S9  1  0.33333300  0.66666700  0.53352500  1
  S  S10  1  0.66666700  0.33333300  0.03221900  1
  S  S11  1  0.75520300  0.83938200  0.27172200  1
  S  S12  1  0.08418000  0.24479700  0.27172200  1
  S  S13  1  0.16061800  0.91582000  0.27172200  1
  S  S14  1  0.24438400  0.16239600  0.75025800  1
  S  S15  1  0.91801300  0.75561600  0.75025800  1
  S  S16  1  0.83760400  0.08198700  0.75025800  1
  S  S17  1  0.47777900  0.88677400  0.02042500  1
  S  S18  1  0.40899600  0.52222100  0.02042500  1
  S  S19  1  0.11322600  0.59100400  0.02042500  1
  S  S20  1  0.52271700  0.11322100  0.51891700  1
  S  S21  1  0.59050400  0.47728300  0.51891700  1
  S  S22  1  0.88677900  0.40949600  0.51891700  1
