# generated using pymatgen
data_Ce2C2Cl
_symmetry_space_group_name_H-M   'P 1'
_cell_length_a   7.42023393
_cell_length_b   7.42023393
_cell_length_c   6.56050279
_cell_angle_alpha   79.61021752
_cell_angle_beta   79.61021752
_cell_angle_gamma   32.56839057
_symmetry_Int_Tables_number   1
_chemical_formula_structural   Ce2C2Cl
_chemical_formula_sum   'Ce4 C4 Cl2'
_cell_volume   190.98435184
_cell_formula_units_Z   2
loop_
 _symmetry_equiv_pos_site_id
 _symmetry_equiv_pos_as_xyz
  1  'x, y, z'
loop_
 _atom_site_type_symbol
 _atom_site_label
 _atom_site_symmetry_multiplicity
 _atom_site_fract_x
 _atom_site_fract_y
 _atom_site_fract_z
 _atom_site_occupancy
  Ce  Ce0  1  0.84105500  0.46132500  0.35244500  1
  Ce  Ce1  1  0.53867500  0.15894500  0.14755500  1
  Ce  Ce2  1  0.15894500  0.53867500  0.64755500  1
  Ce  Ce3  1  0.46132500  0.84105500  0.85244500  1
  C  C4  1  0.35061400  0.09053700  0.47282900  1
  C  C5  1  0.90946300  0.64938600  0.02717100  1
  C  C6  1  0.64938600  0.90946300  0.52717100  1
  C  C7  1  0.09053700  0.35061400  0.97282900  1
  Cl  Cl8  1  0.21059800  0.78940200  0.25000000  1
  Cl  Cl9  1  0.78940200  0.21059800  0.75000000  1
