# generated using pymatgen
data_Ta2GaC
_symmetry_space_group_name_H-M   'P 1'
_cell_length_a   3.12914023
_cell_length_b   3.12914023
_cell_length_c   13.62534100
_cell_angle_alpha   90.00000000
_cell_angle_beta   90.00000000
_cell_angle_gamma   120.00000491
_symmetry_Int_Tables_number   1
_chemical_formula_structural   Ta2GaC
_chemical_formula_sum   'Ta4 Ga2 C2'
_cell_volume   115.53885072
_cell_formula_units_Z   2
loop_
 _symmetry_equiv_pos_site_id
 _symmetry_equiv_pos_as_xyz
  1  'x, y, z'
loop_
 _atom_site_type_symbol
 _atom_site_label
 _atom_site_symmetry_multiplicity
 _atom_site_fract_x
 _atom_site_fract_y
 _atom_site_fract_z
 _atom_site_occupancy
  Ta  Ta0  1  0.33333300  0.66666700  0.59009300  1
  Ta  Ta1  1  0.66666700  0.33333300  0.40990700  1
  Ta  Ta2  1  0.66666700  0.33333300  0.09009300  1
  Ta  Ta3  1  0.33333300  0.66666700  0.90990700  1
  Ga  Ga4  1  0.33333300  0.66666700  0.25000000  1
  Ga  Ga5  1  0.66666700  0.33333300  0.75000000  1
  C  C6  1  0.00000000  0.00000000  0.00000000  1
  C  C7  1  0.00000000  0.00000000  0.50000000  1
