# generated using pymatgen
data_NaCaAsO4
_symmetry_space_group_name_H-M   'P 1'
_cell_length_a   5.31755900
_cell_length_b   6.74754900
_cell_length_c   11.63320300
_cell_angle_alpha   90.00000000
_cell_angle_beta   90.00000000
_cell_angle_gamma   90.00000000
_symmetry_Int_Tables_number   1
_chemical_formula_structural   NaCaAsO4
_chemical_formula_sum   'Na4 Ca4 As4 O16'
_cell_volume   417.40502290
_cell_formula_units_Z   4
loop_
 _symmetry_equiv_pos_site_id
 _symmetry_equiv_pos_as_xyz
  1  'x, y, z'
loop_
 _atom_site_type_symbol
 _atom_site_label
 _atom_site_symmetry_multiplicity
 _atom_site_fract_x
 _atom_site_fract_y
 _atom_site_fract_z
 _atom_site_occupancy
  Na  Na0  1  0.00000000  0.00000000  0.50000000  1
  Na  Na1  1  0.50000000  0.50000000  0.00000000  1
  Na  Na2  1  0.00000000  0.50000000  0.50000000  1
  Na  Na3  1  0.50000000  0.00000000  0.00000000  1
  Ca  Ca4  1  0.50567300  0.75000000  0.28059800  1
  Ca  Ca5  1  0.99432700  0.75000000  0.78059800  1
  Ca  Ca6  1  0.49432700  0.25000000  0.71940200  1
  Ca  Ca7  1  0.00567300  0.25000000  0.21940200  1
  As  As8  1  0.43222000  0.75000000  0.59804400  1
  As  As9  1  0.06778000  0.75000000  0.09804400  1
  As  As10  1  0.56778000  0.25000000  0.40195600  1
  As  As11  1  0.93222000  0.25000000  0.90195600  1
  O  O12  1  0.31482300  0.75000000  0.46011500  1
  O  O13  1  0.18517700  0.75000000  0.96011500  1
  O  O14  1  0.68517700  0.25000000  0.53988500  1
  O  O15  1  0.81482300  0.25000000  0.03988500  1
  O  O16  1  0.75412800  0.75000000  0.60439600  1
  O  O17  1  0.74587200  0.75000000  0.10439600  1
  O  O18  1  0.24587200  0.25000000  0.39560400  1
  O  O19  1  0.25412800  0.25000000  0.89560400  1
  O  O20  1  0.29493300  0.55019700  0.66846500  1
  O  O21  1  0.20506700  0.94980300  0.16846500  1
  O  O22  1  0.70506700  0.05019700  0.33153500  1
  O  O23  1  0.79493300  0.44980300  0.83153500  1
  O  O24  1  0.70506700  0.44980300  0.33153500  1
  O  O25  1  0.79493300  0.05019700  0.83153500  1
  O  O26  1  0.29493300  0.94980300  0.66846500  1
  O  O27  1  0.20506700  0.55019700  0.16846500  1
