# generated using pymatgen
data_Ca2Al2Si(HO4)2
_symmetry_space_group_name_H-M   'P 1'
_cell_length_a   7.73194436
_cell_length_b   7.73194436
_cell_length_c   7.73194436
_cell_angle_alpha   109.07141746
_cell_angle_beta   109.07141746
_cell_angle_gamma   110.27382051
_symmetry_Int_Tables_number   1
_chemical_formula_structural   Ca2Al2Si(HO4)2
_chemical_formula_sum   'Ca4 Al4 Si2 H4 O16'
_cell_volume   355.77894920
_cell_formula_units_Z   2
loop_
 _symmetry_equiv_pos_site_id
 _symmetry_equiv_pos_as_xyz
  1  'x, y, z'
loop_
 _atom_site_type_symbol
 _atom_site_label
 _atom_site_symmetry_multiplicity
 _atom_site_fract_x
 _atom_site_fract_y
 _atom_site_fract_z
 _atom_site_occupancy
  Ca  Ca0  1  0.71281300  0.71281300  0.71635600  1
  Ca  Ca1  1  0.99645700  0.99645700  0.28364400  1
  Ca  Ca2  1  0.28718700  0.00354300  0.00000000  1
  Ca  Ca3  1  0.00354300  0.28718700  0.00000000  1
  Al  Al4  1  0.75142300  0.50000000  0.25142300  1
  Al  Al5  1  0.50000000  0.24857700  0.74857700  1
  Al  Al6  1  0.50000000  0.75142300  0.25142300  1
  Al  Al7  1  0.24857700  0.50000000  0.74857700  1
  Si  Si8  1  0.25000000  0.75000000  0.50000000  1
  Si  Si9  1  0.75000000  0.25000000  0.50000000  1
  H  H10  1  0.34997900  0.34997900  0.35399700  1
  H  H11  1  0.99598200  0.99598200  0.64600300  1
  H  H12  1  0.65002100  0.00401800  0.00000000  1
  H  H13  1  0.00401800  0.65002100  0.00000000  1
  O  O14  1  0.43189700  0.43189700  0.70666200  1
  O  O15  1  0.43034000  0.72207100  0.44403300  1
  O  O16  1  0.72207100  0.43034000  0.44403300  1
  O  O17  1  0.72523500  0.72523500  0.29333800  1
  O  O18  1  0.27803800  0.98630700  0.55596700  1
  O  O19  1  0.98630700  0.27803800  0.55596700  1
  O  O20  1  0.56810300  0.27476500  0.00000000  1
  O  O21  1  0.56966000  0.01369300  0.29173100  1
  O  O22  1  0.27792900  0.72196200  0.70826900  1
  O  O23  1  0.27476500  0.56810300  0.00000000  1
  O  O24  1  0.72196200  0.27792900  0.70826900  1
  O  O25  1  0.01369300  0.56966000  0.29173100  1
  O  O26  1  0.22768900  0.22768900  0.22453800  1
  O  O27  1  0.00315100  0.00315100  0.77546200  1
  O  O28  1  0.77231100  0.99684900  0.00000000  1
  O  O29  1  0.99684900  0.77231100  0.00000000  1
