# generated using pymatgen
data_Tm5(In2Pd)2
_symmetry_space_group_name_H-M   'P 1'
_cell_length_a   3.58600400
_cell_length_b   8.06366400
_cell_length_c   18.08444100
_cell_angle_alpha   90.00000000
_cell_angle_beta   90.00000000
_cell_angle_gamma   90.00000000
_symmetry_Int_Tables_number   1
_chemical_formula_structural   Tm5(In2Pd)2
_chemical_formula_sum   'Tm10 In8 Pd4'
_cell_volume   522.93568839
_cell_formula_units_Z   2
loop_
 _symmetry_equiv_pos_site_id
 _symmetry_equiv_pos_as_xyz
  1  'x, y, z'
loop_
 _atom_site_type_symbol
 _atom_site_label
 _atom_site_symmetry_multiplicity
 _atom_site_fract_x
 _atom_site_fract_y
 _atom_site_fract_z
 _atom_site_occupancy
  Tm  Tm0  1  0.00000000  0.50000000  0.50000000  1
  Tm  Tm1  1  0.00000000  0.00000000  0.00000000  1
  Tm  Tm2  1  0.00000000  0.73869400  0.28044400  1
  Tm  Tm3  1  0.00000000  0.26130600  0.71955700  1
  Tm  Tm4  1  0.00000000  0.76130600  0.78044300  1
  Tm  Tm5  1  0.00000000  0.23869400  0.21955600  1
  Tm  Tm6  1  0.00000000  0.61187100  0.08276400  1
  Tm  Tm7  1  0.00000000  0.38812900  0.91723600  1
  Tm  Tm8  1  0.00000000  0.88812900  0.58276400  1
  Tm  Tm9  1  0.00000000  0.11187100  0.41723600  1
  In  In10  1  0.50000000  0.71312500  0.93138200  1
  In  In11  1  0.50000000  0.28687500  0.06861800  1
  In  In12  1  0.50000000  0.78687500  0.43138200  1
  In  In13  1  0.50000000  0.21312500  0.56861800  1
  In  In14  1  0.50000000  0.58300900  0.64840200  1
  In  In15  1  0.50000000  0.41699100  0.35159800  1
  In  In16  1  0.50000000  0.91699100  0.14840200  1
  In  In17  1  0.50000000  0.08300900  0.85159800  1
  Pd  Pd18  1  0.50000000  0.52366200  0.19677200  1
  Pd  Pd19  1  0.50000000  0.47633800  0.80322800  1
  Pd  Pd20  1  0.50000000  0.97633800  0.69677200  1
  Pd  Pd21  1  0.50000000  0.02366200  0.30322800  1
