# generated using pymatgen
data_CsAg2BiS3
_symmetry_space_group_name_H-M   'P 1'
_cell_length_a   8.30951200
_cell_length_b   7.06051300
_cell_length_c   13.61255324
_cell_angle_alpha   80.38427519
_cell_angle_beta   90.00000000
_cell_angle_gamma   90.00000000
_symmetry_Int_Tables_number   1
_chemical_formula_structural   CsAg2BiS3
_chemical_formula_sum   'Cs4 Ag8 Bi4 S12'
_cell_volume   787.41985309
_cell_formula_units_Z   4
loop_
 _symmetry_equiv_pos_site_id
 _symmetry_equiv_pos_as_xyz
  1  'x, y, z'
loop_
 _atom_site_type_symbol
 _atom_site_label
 _atom_site_symmetry_multiplicity
 _atom_site_fract_x
 _atom_site_fract_y
 _atom_site_fract_z
 _atom_site_occupancy
  Cs  Cs0  1  0.61490100  0.68487800  0.17928900  1
  Cs  Cs1  1  0.11490100  0.81512200  0.82071100  1
  Cs  Cs2  1  0.38509900  0.31512200  0.82071100  1
  Cs  Cs3  1  0.88509900  0.18487800  0.17928900  1
  Ag  Ag4  1  0.25189900  0.97028200  0.08702300  1
  Ag  Ag5  1  0.75189900  0.52971800  0.91297700  1
  Ag  Ag6  1  0.74810100  0.02971800  0.91297700  1
  Ag  Ag7  1  0.24810100  0.47028200  0.08702300  1
  Ag  Ag8  1  0.14017000  0.65100800  0.26820800  1
  Ag  Ag9  1  0.64017000  0.84899200  0.73179200  1
  Ag  Ag10  1  0.85983000  0.34899200  0.73179200  1
  Ag  Ag11  1  0.35983000  0.15100800  0.26820800  1
  Bi  Bi12  1  0.36802200  0.75680900  0.50134500  1
  Bi  Bi13  1  0.86802200  0.74319100  0.49865500  1
  Bi  Bi14  1  0.63197800  0.24319100  0.49865500  1
  Bi  Bi15  1  0.13197800  0.25680900  0.50134500  1
  S  S16  1  0.05379200  0.72247500  0.08970100  1
  S  S17  1  0.55379200  0.77752500  0.91029900  1
  S  S18  1  0.94620800  0.27752500  0.91029900  1
  S  S19  1  0.44620800  0.22247500  0.08970100  1
  S  S20  1  0.14400000  0.95134400  0.37770500  1
  S  S21  1  0.64400000  0.54865600  0.62229500  1
  S  S22  1  0.85600000  0.04865600  0.62229500  1
  S  S23  1  0.35600000  0.45134400  0.37770500  1
  S  S24  1  0.62808800  0.95579000  0.38255100  1
  S  S25  1  0.12808800  0.54421000  0.61744900  1
  S  S26  1  0.37191200  0.04421000  0.61744900  1
  S  S27  1  0.87191200  0.45579000  0.38255100  1
