# generated using pymatgen
data_Al2Sb5(Se2Br3)3
_symmetry_space_group_name_H-M   'P 1'
_cell_length_a   9.77984935
_cell_length_b   23.98276264
_cell_length_c   27.73227876
_cell_angle_alpha   102.41539643
_cell_angle_beta   90.00000000
_cell_angle_gamma   90.00000000
_symmetry_Int_Tables_number   1
_chemical_formula_structural   Al2Sb5(Se2Br3)3
_chemical_formula_sum   'Al16 Sb40 Se48 Br72'
_cell_volume   6352.43334525
_cell_formula_units_Z   8
loop_
 _symmetry_equiv_pos_site_id
 _symmetry_equiv_pos_as_xyz
  1  'x, y, z'
loop_
 _atom_site_type_symbol
 _atom_site_label
 _atom_site_symmetry_multiplicity
 _atom_site_fract_x
 _atom_site_fract_y
 _atom_site_fract_z
 _atom_site_occupancy
  Al  Al0  1  0.77369002  0.85526094  0.31316241  1
  Al  Al1  1  0.77369002  0.64473906  0.68683759  1
  Al  Al2  1  0.22630998  0.14473906  0.68683759  1
  Al  Al3  1  0.22630998  0.35526094  0.31316241  1
  Al  Al4  1  0.74058240  0.58616937  0.43587256  1
  Al  Al5  1  0.74058240  0.91383063  0.56412744  1
  Al  Al6  1  0.25941760  0.41383063  0.56412744  1
  Al  Al7  1  0.25941760  0.08616937  0.43587256  1
  Al  Al8  1  0.73784055  0.46237104  0.19363042  1
  Al  Al9  1  0.73784055  0.03762896  0.80636958  1
  Al  Al10  1  0.26215945  0.53762896  0.80636958  1
  Al  Al11  1  0.26215945  0.96237104  0.19363042  1
  Al  Al12  1  0.23052605  0.59637112  0.04267129  1
  Al  Al13  1  0.23052605  0.90362888  0.95732871  1
  Al  Al14  1  0.76947395  0.40362888  0.95732871  1
  Al  Al15  1  0.76947395  0.09637112  0.04267129  1
  Sb  Sb16  1  0.29160828  0.75000000  0.50000000  1
  Sb  Sb17  1  0.70839172  0.25000000  0.50000000  1
  Sb  Sb18  1  0.04775245  0.84293816  0.43562828  1
  Sb  Sb19  1  0.04775245  0.65706184  0.56437172  1
  Sb  Sb20  1  0.95224755  0.15706184  0.56437172  1
  Sb  Sb21  1  0.95224755  0.34293816  0.43562828  1
  Sb  Sb22  1  0.42596335  0.85283093  0.41256053  1
  Sb  Sb23  1  0.42596335  0.64716907  0.58743947  1
  Sb  Sb24  1  0.57403665  0.14716907  0.58743947  1
  Sb  Sb25  1  0.57403665  0.35283093  0.41256053  1
  Sb  Sb26  1  0.23483583  0.71268672  0.34609829  1
  Sb  Sb27  1  0.23483583  0.78731328  0.65390171  1
  Sb  Sb28  1  0.76516417  0.28731328  0.65390171  1
  Sb  Sb29  1  0.76516417  0.21268672  0.34609829  1
  Sb  Sb30  1  0.08401673  0.54935447  0.30046216  1
  Sb  Sb31  1  0.08401673  0.95064553  0.69953784  1
  Sb  Sb32  1  0.91598327  0.45064553  0.69953784  1
  Sb  Sb33  1  0.91598327  0.04935447  0.30046216  1
  Sb  Sb34  1  0.46985292  0.57453209  0.30088913  1
  Sb  Sb35  1  0.46985292  0.92546791  0.69911087  1
  Sb  Sb36  1  0.53014708  0.42546791  0.69911087  1
  Sb  Sb37  1  0.53014708  0.07453209  0.30088913  1
  Sb  Sb38  1  0.24133411  0.62727095  0.20128523  1
  Sb  Sb39  1  0.24133411  0.87272905  0.79871477  1
  Sb  Sb40  1  0.75866589  0.37272905  0.79871477  1
  Sb  Sb41  1  0.75866589  0.12727095  0.20128523  1
  Sb  Sb42  1  0.79669831  0.75000000  0.00000000  1
  Sb  Sb43  1  0.20330169  0.25000000  0.00000000  1
  Sb  Sb44  1  0.54820734  0.87843765  0.04065077  1
  Sb  Sb45  1  0.54820734  0.62156235  0.95934923  1
  Sb  Sb46  1  0.45179266  0.12156235  0.95934923  1
  Sb  Sb47  1  0.45179266  0.37843765  0.04065077  1
  Sb  Sb48  1  0.92246624  0.90543745  0.06600438  1
  Sb  Sb49  1  0.92246624  0.59456255  0.93399562  1
  Sb  Sb50  1  0.07753376  0.09456255  0.93399562  1
  Sb  Sb51  1  0.07753376  0.40543745  0.06600438  1
  Sb  Sb52  1  0.72294681  0.81426012  0.14825995  1
  Sb  Sb53  1  0.72294681  0.68573988  0.85174005  1
  Sb  Sb54  1  0.27705319  0.18573988  0.85174005  1
  Sb  Sb55  1  0.27705319  0.31426012  0.14825995  1
  Se  Se56  1  0.26979208  0.86998908  0.49433389  1
  Se  Se57  1  0.26979208  0.63001092  0.50566611  1
  Se  Se58  1  0.73020792  0.13001092  0.50566611  1
  Se  Se59  1  0.73020792  0.36998908  0.49433389  1
  Se  Se60  1  0.07597692  0.73048087  0.43490495  1
  Se  Se61  1  0.07597692  0.76951913  0.56509505  1
  Se  Se62  1  0.92402308  0.26951913  0.56509505  1
  Se  Se63  1  0.92402308  0.23048087  0.43490495  1
  Se  Se64  1  0.45861083  0.74109943  0.40111010  1
  Se  Se65  1  0.45861083  0.75890057  0.59888990  1
  Se  Se66  1  0.54138917  0.25890057  0.59888990  1
  Se  Se67  1  0.54138917  0.24109943  0.40111010  1
  Se  Se68  1  0.20182075  0.84648183  0.35859439  1
  Se  Se69  1  0.20182075  0.65351817  0.64140561  1
  Se  Se70  1  0.79817925  0.15351817  0.64140561  1
  Se  Se71  1  0.79817925  0.34648183  0.35859439  1
  Se  Se72  1  0.26508199  0.60730504  0.36930697  1
  Se  Se73  1  0.26508199  0.89269496  0.63069303  1
  Se  Se74  1  0.73491801  0.39269496  0.63069303  1
  Se  Se75  1  0.73491801  0.10730504  0.36930697  1
  Se  Se76  1  0.43703849  0.66938351  0.26767122  1
  Se  Se77  1  0.43703849  0.83061649  0.73232878  1
  Se  Se78  1  0.56296151  0.33061649  0.73232878  1
  Se  Se79  1  0.56296151  0.16938351  0.26767122  1
  Se  Se80  1  0.03139201  0.63784377  0.26269130  1
  Se  Se81  1  0.03139201  0.86215623  0.73730870  1
  Se  Se82  1  0.96860799  0.36215623  0.73730870  1
  Se  Se83  1  0.96860799  0.13784377  0.26269130  1
  Se  Se84  1  0.29218205  0.51063089  0.24317532  1
  Se  Se85  1  0.29218205  0.98936911  0.75682468  1
  Se  Se86  1  0.70781795  0.48936911  0.75682468  1
  Se  Se87  1  0.70781795  0.01063089  0.24317532  1
  Se  Se88  1  0.77030316  0.86396191  0.98381230  1
  Se  Se89  1  0.77030316  0.63603809  0.01618770  1
  Se  Se90  1  0.22969684  0.13603809  0.01618770  1
  Se  Se91  1  0.22969684  0.36396191  0.98381230  1
  Se  Se92  1  0.57528024  0.77376619  0.06330375  1
  Se  Se93  1  0.57528024  0.72623381  0.93669625  1
  Se  Se94  1  0.42471976  0.22623381  0.93669625  1
  Se  Se95  1  0.42471976  0.27376619  0.06330375  1
  Se  Se96  1  0.95028972  0.80860684  0.09701332  1
  Se  Se97  1  0.95028972  0.69139316  0.90298668  1
  Se  Se98  1  0.04971028  0.19139316  0.90298668  1
  Se  Se99  1  0.04971028  0.30860684  0.09701332  1
  Se  Se100  1  0.69126144  0.93644283  0.11383098  1
  Se  Se101  1  0.69126144  0.56355717  0.88616902  1
  Se  Se102  1  0.30873856  0.06355717  0.88616902  1
  Se  Se103  1  0.30873856  0.43644283  0.11383098  1
  Br  Br104  1  0.19970514  0.72971561  0.19025868  1
  Br  Br105  1  0.19970514  0.77028439  0.80974132  1
  Br  Br106  1  0.80029486  0.27028439  0.80974132  1
  Br  Br107  1  0.80029486  0.22971561  0.19025868  1
  Br  Br108  1  0.75262048  0.71226182  0.16157362  1
  Br  Br109  1  0.75262048  0.78773818  0.83842638  1
  Br  Br110  1  0.24737952  0.28773818  0.83842638  1
  Br  Br111  1  0.24737952  0.21226182  0.16157362  1
  Br  Br112  1  0.84378536  0.78055875  0.35048942  1
  Br  Br113  1  0.84378536  0.71944125  0.64951058  1
  Br  Br114  1  0.15621464  0.21944125  0.64951058  1
  Br  Br115  1  0.15621464  0.28055875  0.35048942  1
  Br  Br116  1  0.54839306  0.83789529  0.28779351  1
  Br  Br117  1  0.54839306  0.66210471  0.71220649  1
  Br  Br118  1  0.45160694  0.16210471  0.71220649  1
  Br  Br119  1  0.45160694  0.33789529  0.28779351  1
  Br  Br120  1  0.91426126  0.85627424  0.24570215  1
  Br  Br121  1  0.91426126  0.64372576  0.75429785  1
  Br  Br122  1  0.08573874  0.14372576  0.75429785  1
  Br  Br123  1  0.08573874  0.35627424  0.24570215  1
  Br  Br124  1  0.79595255  0.93906983  0.37156211  1
  Br  Br125  1  0.79595255  0.56093017  0.62843789  1
  Br  Br126  1  0.20404745  0.06093017  0.62843789  1
  Br  Br127  1  0.20404745  0.43906983  0.37156211  1
  Br  Br128  1  0.68377554  0.66155272  0.50162375  1
  Br  Br129  1  0.68377554  0.83844728  0.49837625  1
  Br  Br130  1  0.31622446  0.33844728  0.49837625  1
  Br  Br131  1  0.31622446  0.16155272  0.50162375  1
  Br  Br132  1  0.77865923  0.62406864  0.36593409  1
  Br  Br133  1  0.77865923  0.87593136  0.63406591  1
  Br  Br134  1  0.22134077  0.37593136  0.63406591  1
  Br  Br135  1  0.22134077  0.12406864  0.36593409  1
  Br  Br136  1  0.56272118  0.52091578  0.42064326  1
  Br  Br137  1  0.56272118  0.97908422  0.57935674  1
  Br  Br138  1  0.43727882  0.47908422  0.57935674  1
  Br  Br139  1  0.43727882  0.02091578  0.42064326  1
  Br  Br140  1  0.94298395  0.54503631  0.45423905  1
  Br  Br141  1  0.94298395  0.95496369  0.54576095  1
  Br  Br142  1  0.05701605  0.45496369  0.54576095  1
  Br  Br143  1  0.05701605  0.04503631  0.45423905  1
  Br  Br144  1  0.72127925  0.45897351  0.27544561  1
  Br  Br145  1  0.72127925  0.04102649  0.72455439  1
  Br  Br146  1  0.27872075  0.54102649  0.72455439  1
  Br  Br147  1  0.27872075  0.95897351  0.27544561  1
  Br  Br148  1  0.61772380  0.54204513  0.18139162  1
  Br  Br149  1  0.61772380  0.95795487  0.81860838  1
  Br  Br150  1  0.38227620  0.45795487  0.81860838  1
  Br  Br151  1  0.38227620  0.04204513  0.18139162  1
  Br  Br152  1  0.66452992  0.37825167  0.14109576  1
  Br  Br153  1  0.66452992  0.12174833  0.85890424  1
  Br  Br154  1  0.33547008  0.62174833  0.85890424  1
  Br  Br155  1  0.33547008  0.87825167  0.14109576  1
  Br  Br156  1  0.97052360  0.47503090  0.17726775  1
  Br  Br157  1  0.97052360  0.02496910  0.82273225  1
  Br  Br158  1  0.02947640  0.52496910  0.82273225  1
  Br  Br159  1  0.02947640  0.97503090  0.17726775  1
  Br  Br160  1  0.16488873  0.67348376  0.00758612  1
  Br  Br161  1  0.16488873  0.82651624  0.99241388  1
  Br  Br162  1  0.83511127  0.32651624  0.99241388  1
  Br  Br163  1  0.83511127  0.17348376  0.00758612  1
  Br  Br164  1  0.43122613  0.62062772  0.08702862  1
  Br  Br165  1  0.43122613  0.87937228  0.91297138  1
  Br  Br166  1  0.56877387  0.37937228  0.91297138  1
  Br  Br167  1  0.56877387  0.12062772  0.08702862  1
  Br  Br168  1  0.05582025  0.57802169  0.09361255  1
  Br  Br169  1  0.05582025  0.92197831  0.90638745  1
  Br  Br170  1  0.94417975  0.42197831  0.90638745  1
  Br  Br171  1  0.94417975  0.07802169  0.09361255  1
  Br  Br172  1  0.26989376  0.51919613  0.97870942  1
  Br  Br173  1  0.26989376  0.98080387  0.02129058  1
  Br  Br174  1  0.73010624  0.48080387  0.02129058  1
  Br  Br175  1  0.73010624  0.01919613  0.97870942  1
