# generated using pymatgen
data_HoNi5Ge3
_symmetry_space_group_name_H-M   'P 1'
_cell_length_a   19.01397500
_cell_length_b   3.82960400
_cell_length_c   6.84416800
_cell_angle_alpha   90.00000000
_cell_angle_beta   90.00000000
_cell_angle_gamma   90.00000000
_symmetry_Int_Tables_number   1
_chemical_formula_structural   HoNi5Ge3
_chemical_formula_sum   'Ho4 Ni20 Ge12'
_cell_volume   498.36490092
_cell_formula_units_Z   4
loop_
 _symmetry_equiv_pos_site_id
 _symmetry_equiv_pos_as_xyz
  1  'x, y, z'
loop_
 _atom_site_type_symbol
 _atom_site_label
 _atom_site_symmetry_multiplicity
 _atom_site_fract_x
 _atom_site_fract_y
 _atom_site_fract_z
 _atom_site_occupancy
  Ho  Ho0  1  0.64470500  0.25000000  0.61977100  1
  Ho  Ho1  1  0.14470500  0.25000000  0.88022900  1
  Ho  Ho2  1  0.35529500  0.75000000  0.38022900  1
  Ho  Ho3  1  0.85529500  0.75000000  0.11977100  1
  Ni  Ni4  1  0.79939600  0.25000000  0.81162500  1
  Ni  Ni5  1  0.29939600  0.25000000  0.68837500  1
  Ni  Ni6  1  0.20060400  0.75000000  0.18837500  1
  Ni  Ni7  1  0.70060400  0.75000000  0.31162500  1
  Ni  Ni8  1  0.99540200  0.25000000  0.13013400  1
  Ni  Ni9  1  0.49540200  0.25000000  0.36986600  1
  Ni  Ni10  1  0.00459800  0.75000000  0.86986600  1
  Ni  Ni11  1  0.50459800  0.75000000  0.63013400  1
  Ni  Ni12  1  0.51287700  0.25000000  0.88039400  1
  Ni  Ni13  1  0.01287700  0.25000000  0.61960600  1
  Ni  Ni14  1  0.48712300  0.75000000  0.11960600  1
  Ni  Ni15  1  0.98712300  0.75000000  0.38039400  1
  Ni  Ni16  1  0.61162800  0.25000000  0.14027900  1
  Ni  Ni17  1  0.11162800  0.25000000  0.35972100  1
  Ni  Ni18  1  0.38837200  0.75000000  0.85972100  1
  Ni  Ni19  1  0.88837200  0.75000000  0.64027900  1
  Ni  Ni20  1  0.79268600  0.25000000  0.42503000  1
  Ni  Ni21  1  0.29268600  0.25000000  0.07497000  1
  Ni  Ni22  1  0.20731400  0.75000000  0.57497000  1
  Ni  Ni23  1  0.70731400  0.75000000  0.92503000  1
  Ge  Ge24  1  0.91427700  0.25000000  0.40395000  1
  Ge  Ge25  1  0.41427700  0.25000000  0.09605000  1
  Ge  Ge26  1  0.08572300  0.75000000  0.59605000  1
  Ge  Ge27  1  0.58572300  0.75000000  0.90395000  1
  Ge  Ge28  1  0.73682300  0.25000000  0.11697700  1
  Ge  Ge29  1  0.23682300  0.25000000  0.38302300  1
  Ge  Ge30  1  0.26317700  0.75000000  0.88302300  1
  Ge  Ge31  1  0.76317700  0.75000000  0.61697700  1
  Ge  Ge32  1  0.92359000  0.25000000  0.85018900  1
  Ge  Ge33  1  0.42359000  0.25000000  0.64981100  1
  Ge  Ge34  1  0.07641000  0.75000000  0.14981100  1
  Ge  Ge35  1  0.57641000  0.75000000  0.35018900  1
