# generated using pymatgen
data_Ca3MnN3
_symmetry_space_group_name_H-M   'P 1'
_cell_length_a   6.63194824
_cell_length_b   6.63194824
_cell_length_c   5.03677500
_cell_angle_alpha   90.00000000
_cell_angle_beta   90.00000000
_cell_angle_gamma   101.46982992
_symmetry_Int_Tables_number   1
_chemical_formula_structural   Ca3MnN3
_chemical_formula_sum   'Ca6 Mn2 N6'
_cell_volume   217.10707563
_cell_formula_units_Z   2
loop_
 _symmetry_equiv_pos_site_id
 _symmetry_equiv_pos_as_xyz
  1  'x, y, z'
loop_
 _atom_site_type_symbol
 _atom_site_label
 _atom_site_symmetry_multiplicity
 _atom_site_fract_x
 _atom_site_fract_y
 _atom_site_fract_z
 _atom_site_occupancy
  Ca  Ca0  1  0.67146600  0.90432400  0.75000000  1
  Ca  Ca1  1  0.39247600  0.60752400  0.25000000  1
  Ca  Ca2  1  0.90432400  0.67146600  0.25000000  1
  Ca  Ca3  1  0.60752400  0.39247600  0.75000000  1
  Ca  Ca4  1  0.32853400  0.09567600  0.25000000  1
  Ca  Ca5  1  0.09567600  0.32853400  0.75000000  1
  Mn  Mn6  1  0.80064500  0.19935500  0.25000000  1
  Mn  Mn7  1  0.19935500  0.80064500  0.75000000  1
  N  N8  1  0.68192300  0.93338500  0.25000000  1
  N  N9  1  0.37425600  0.62574400  0.75000000  1
  N  N10  1  0.62574400  0.37425600  0.25000000  1
  N  N11  1  0.93338500  0.68192300  0.75000000  1
  N  N12  1  0.31807700  0.06661500  0.75000000  1
  N  N13  1  0.06661500  0.31807700  0.25000000  1
