# generated using pymatgen
data_La9Ce3Si8(S8I)4
_symmetry_space_group_name_H-M   'P 1'
_cell_length_a   9.08624400
_cell_length_b   13.40901643
_cell_length_c   13.61188107
_cell_angle_alpha   64.69193600
_cell_angle_beta   80.82518165
_cell_angle_gamma   71.48724527
_symmetry_Int_Tables_number   1
_chemical_formula_structural   La9Ce3Si8(S8I)4
_chemical_formula_sum   'La9 Ce3 Si8 S32 I4'
_cell_volume   1421.13926596
_cell_formula_units_Z   1
loop_
 _symmetry_equiv_pos_site_id
 _symmetry_equiv_pos_as_xyz
  1  'x, y, z'
loop_
 _atom_site_type_symbol
 _atom_site_label
 _atom_site_symmetry_multiplicity
 _atom_site_fract_x
 _atom_site_fract_y
 _atom_site_fract_z
 _atom_site_occupancy
  La  La0  1  0.60459800  0.99871300  0.32054100  1
  La  La1  1  0.73119500  0.87165900  0.94739800  1
  La  La2  1  0.23095700  0.37193500  0.44766800  1
  La  La3  1  0.89542500  0.50059900  0.17979600  1
  La  La4  1  0.39554400  0.00056400  0.67985600  1
  La  La5  1  0.67155000  0.32874100  0.92086500  1
  La  La6  1  0.17181800  0.82840700  0.42147700  1
  La  La7  1  0.32837900  0.67155400  0.07857600  1
  La  La8  1  0.82839600  0.17146200  0.57864700  1
  Ce  Ce9  1  0.27089500  0.12869400  0.05255400  1
  Ce  Ce10  1  0.77145100  0.62819600  0.55338100  1
  Ce  Ce11  1  0.10339800  0.49711400  0.82165500  1
  Si  Si12  1  0.70716400  0.61446100  0.91518300  1
  Si  Si13  1  0.20671700  0.11465500  0.41522500  1
  Si  Si14  1  0.00471400  0.67347900  0.29626000  1
  Si  Si15  1  0.50421500  0.17380600  0.79626300  1
  Si  Si16  1  0.29333800  0.38532400  0.08380300  1
  Si  Si17  1  0.79390300  0.88475800  0.58436900  1
  Si  Si18  1  0.99468200  0.32688800  0.70431200  1
  Si  Si19  1  0.49456300  0.82683400  0.20421000  1
  S  S20  1  0.75867700  0.54535100  0.79464800  1
  S  S21  1  0.25699200  0.04576500  0.29458100  1
  S  S22  1  0.39270800  0.30352200  0.85605400  1
  S  S23  1  0.89365200  0.80274400  0.35663400  1
  S  S24  1  0.24269500  0.45453300  0.20430600  1
  S  S25  1  0.74265400  0.95460600  0.70450500  1
  S  S26  1  0.60543000  0.69664800  0.14466300  1
  S  S27  1  0.10536000  0.19671700  0.64471300  1
  S  S28  1  0.91323600  0.64860200  0.93594200  1
  S  S29  1  0.41222800  0.14932400  0.43648900  1
  S  S30  1  0.90435800  0.53309200  0.38235900  1
  S  S31  1  0.40429500  0.03314100  0.88212200  1
  S  S32  1  0.08853500  0.34949000  0.06298500  1
  S  S33  1  0.58895600  0.84902500  0.56370500  1
  S  S34  1  0.09407200  0.46799700  0.61927500  1
  S  S35  1  0.59392700  0.96796500  0.11808600  1
  S  S36  1  0.65778500  0.48191100  0.06186900  1
  S  S37  1  0.15820800  0.98187300  0.56199800  1
  S  S38  1  0.24263500  0.61777200  0.33760300  1
  S  S39  1  0.74212800  0.11796700  0.83784700  1
  S  S40  1  0.34054900  0.51830100  0.93675500  1
  S  S41  1  0.84200200  0.01798900  0.43774600  1
  S  S42  1  0.75734200  0.38434000  0.66141700  1
  S  S43  1  0.25713800  0.88422200  0.16131500  1
  S  S44  1  0.52140900  0.76789400  0.87907200  1
  S  S45  1  0.02115100  0.26809800  0.37908400  1
  S  S46  1  0.98493800  0.72657900  0.12653700  1
  S  S47  1  0.48494700  0.22671700  0.62648000  1
  S  S48  1  0.47865900  0.23174300  0.12041200  1
  S  S49  1  0.97909600  0.73118700  0.62112700  1
  S  S50  1  0.01517500  0.27354900  0.87398400  1
  S  S51  1  0.51522600  0.77320300  0.37388000  1
  I  I52  1  0.61870300  0.38152500  0.36818500  1
  I  I53  1  0.11866700  0.88155800  0.86819800  1
  I  I54  1  0.38167300  0.61847500  0.63183300  1
  I  I55  1  0.88188900  0.11873300  0.13154900  1
