# generated using pymatgen
data_Ba2In2Si3SO10
_symmetry_space_group_name_H-M   'P 1'
_cell_length_a   5.38448400
_cell_length_b   8.91733500
_cell_length_c   23.37186600
_cell_angle_alpha   90.00000000
_cell_angle_beta   90.00000000
_cell_angle_gamma   90.00000000
_symmetry_Int_Tables_number   1
_chemical_formula_structural   Ba2In2Si3SO10
_chemical_formula_sum   'Ba8 In8 Si12 S4 O40'
_cell_volume   1122.20593357
_cell_formula_units_Z   4
loop_
 _symmetry_equiv_pos_site_id
 _symmetry_equiv_pos_as_xyz
  1  'x, y, z'
loop_
 _atom_site_type_symbol
 _atom_site_label
 _atom_site_symmetry_multiplicity
 _atom_site_fract_x
 _atom_site_fract_y
 _atom_site_fract_z
 _atom_site_occupancy
  Ba  Ba0  1  0.64193000  0.60400900  0.27543900  1
  Ba  Ba1  1  0.35807000  0.10400900  0.72456100  1
  Ba  Ba2  1  0.64193000  0.10400900  0.22456100  1
  Ba  Ba3  1  0.35807000  0.60400900  0.77543900  1
  Ba  Ba4  1  0.62724400  0.75525400  0.09322600  1
  Ba  Ba5  1  0.37275600  0.25525400  0.90677400  1
  Ba  Ba6  1  0.62724400  0.25525400  0.40677400  1
  Ba  Ba7  1  0.37275600  0.75525400  0.59322600  1
  In  In8  1  0.61715800  0.77497400  0.43513300  1
  In  In9  1  0.38284200  0.27497400  0.56486700  1
  In  In10  1  0.61715800  0.27497400  0.06486700  1
  In  In11  1  0.38284200  0.77497400  0.93513300  1
  In  In12  1  0.04812100  0.93479900  0.34822400  1
  In  In13  1  0.95187900  0.43479900  0.65177600  1
  In  In14  1  0.04812100  0.43479900  0.15177600  1
  In  In15  1  0.95187900  0.93479900  0.84822400  1
  Si  Si16  1  0.12932200  0.99990500  0.48784700  1
  Si  Si17  1  0.87067800  0.49990500  0.51215300  1
  Si  Si18  1  0.12932200  0.49990500  0.01215300  1
  Si  Si19  1  0.87067800  0.99990500  0.98784700  1
  Si  Si20  1  0.11986700  0.56039000  0.39298300  1
  Si  Si21  1  0.88013300  0.06039000  0.60701700  1
  Si  Si22  1  0.11986700  0.06039000  0.10701700  1
  Si  Si23  1  0.88013300  0.56039000  0.89298300  1
  Si  Si24  1  0.11989400  0.80993200  0.20354800  1
  Si  Si25  1  0.88010600  0.30993200  0.79645200  1
  Si  Si26  1  0.11989400  0.30993200  0.29645200  1
  Si  Si27  1  0.88010600  0.80993200  0.70354800  1
  S  S28  1  0.50579200  0.93036200  0.34698600  1
  S  S29  1  0.49420800  0.43036200  0.65301400  1
  S  S30  1  0.50579200  0.43036200  0.15301400  1
  S  S31  1  0.49420800  0.93036200  0.84698600  1
  O  O32  1  0.32575900  0.86109000  0.48579400  1
  O  O33  1  0.67424100  0.36109000  0.51420600  1
  O  O34  1  0.32575900  0.36109000  0.01420600  1
  O  O35  1  0.67424100  0.86109000  0.98579400  1
  O  O36  1  0.41974600  0.57979000  0.39285300  1
  O  O37  1  0.58025400  0.07979000  0.60714700  1
  O  O38  1  0.41974600  0.07979000  0.10714700  1
  O  O39  1  0.58025400  0.57979000  0.89285300  1
  O  O40  1  0.41971600  0.80615500  0.20314000  1
  O  O41  1  0.58028400  0.30615500  0.79686000  1
  O  O42  1  0.41971600  0.30615500  0.29686000  1
  O  O43  1  0.58028400  0.80615500  0.70314000  1
  O  O44  1  0.02546200  0.95093900  0.16047100  1
  O  O45  1  0.97453800  0.45093900  0.83952900  1
  O  O46  1  0.02546200  0.45093900  0.33952900  1
  O  O47  1  0.97453800  0.95093900  0.66047100  1
  O  O48  1  0.01606500  0.97255900  0.04998100  1
  O  O49  1  0.98393500  0.47255900  0.95001900  1
  O  O50  1  0.01606500  0.47255900  0.45001900  1
  O  O51  1  0.98393500  0.97255900  0.54998100  1
  O  O52  1  0.26715300  0.66345200  0.01117300  1
  O  O53  1  0.73284700  0.16345200  0.98882700  1
  O  O54  1  0.26715300  0.16345200  0.48882700  1
  O  O55  1  0.73284700  0.66345200  0.51117300  1
  O  O56  1  0.08153300  0.98981400  0.93641000  1
  O  O57  1  0.91846700  0.48981400  0.06359000  1
  O  O58  1  0.08153300  0.48981400  0.56359000  1
  O  O59  1  0.91846700  0.98981400  0.43641000  1
  O  O60  1  0.04702400  0.71267300  0.88344700  1
  O  O61  1  0.95297600  0.21267300  0.11655300  1
  O  O62  1  0.04702400  0.21267300  0.61655300  1
  O  O63  1  0.95297600  0.71267300  0.38344700  1
  O  O64  1  0.01879300  0.84660300  0.76448800  1
  O  O65  1  0.98120700  0.34660300  0.23551200  1
  O  O66  1  0.01879300  0.34660300  0.73551200  1
  O  O67  1  0.98120700  0.84660300  0.26448800  1
  O  O68  1  0.02108900  0.66034900  0.67794600  1
  O  O69  1  0.97891100  0.16034900  0.32205400  1
  O  O70  1  0.02108900  0.16034900  0.82205400  1
  O  O71  1  0.97891100  0.66034900  0.17794600  1
