# generated using pymatgen
data_KHfPdF7
_symmetry_space_group_name_H-M   'P 1'
_cell_length_a   6.48834000
_cell_length_b   8.10466300
_cell_length_c   11.55476900
_cell_angle_alpha   90.00000000
_cell_angle_beta   90.00000000
_cell_angle_gamma   90.00000000
_symmetry_Int_Tables_number   1
_chemical_formula_structural   KHfPdF7
_chemical_formula_sum   'K4 Hf4 Pd4 F28'
_cell_volume   607.61687717
_cell_formula_units_Z   4
loop_
 _symmetry_equiv_pos_site_id
 _symmetry_equiv_pos_as_xyz
  1  'x, y, z'
loop_
 _atom_site_type_symbol
 _atom_site_label
 _atom_site_symmetry_multiplicity
 _atom_site_fract_x
 _atom_site_fract_y
 _atom_site_fract_z
 _atom_site_occupancy
  K  K0  1  0.26796500  0.00000000  0.25000000  1
  K  K1  1  0.23203500  0.50000000  0.25000000  1
  K  K2  1  0.73203500  0.00000000  0.75000000  1
  K  K3  1  0.76796500  0.50000000  0.75000000  1
  Hf  Hf4  1  0.75000000  0.75000000  0.40744800  1
  Hf  Hf5  1  0.75000000  0.25000000  0.09255200  1
  Hf  Hf6  1  0.25000000  0.25000000  0.59255200  1
  Hf  Hf7  1  0.25000000  0.75000000  0.90744800  1
  Pd  Pd8  1  0.25000000  0.75000000  0.59869200  1
  Pd  Pd9  1  0.25000000  0.25000000  0.90130800  1
  Pd  Pd10  1  0.75000000  0.25000000  0.40130800  1
  Pd  Pd11  1  0.75000000  0.75000000  0.09869200  1
  F  F12  1  0.95085500  0.18147600  0.54696100  1
  F  F13  1  0.95085500  0.81852400  0.95303900  1
  F  F14  1  0.54914500  0.68147600  0.95303900  1
  F  F15  1  0.54914500  0.31852400  0.54696100  1
  F  F16  1  0.04914500  0.81852400  0.45303900  1
  F  F17  1  0.04914500  0.18147600  0.04696100  1
  F  F18  1  0.45085500  0.31852400  0.04696100  1
  F  F19  1  0.45085500  0.68147600  0.45303900  1
  F  F20  1  0.25000000  0.75000000  0.08035600  1
  F  F21  1  0.25000000  0.25000000  0.41964400  1
  F  F22  1  0.75000000  0.25000000  0.91964400  1
  F  F23  1  0.75000000  0.75000000  0.58035600  1
  F  F24  1  0.93278200  0.79191100  0.25582600  1
  F  F25  1  0.93278200  0.20808900  0.24417400  1
  F  F26  1  0.56721800  0.29191100  0.24417400  1
  F  F27  1  0.56721800  0.70808900  0.25582600  1
  F  F28  1  0.06721800  0.20808900  0.74417400  1
  F  F29  1  0.06721800  0.79191100  0.75582600  1
  F  F30  1  0.43278200  0.70808900  0.75582600  1
  F  F31  1  0.43278200  0.29191100  0.74417400  1
  F  F32  1  0.65127400  0.01355300  0.10477700  1
  F  F33  1  0.65127400  0.98644700  0.39522300  1
  F  F34  1  0.84872600  0.51355300  0.39522300  1
  F  F35  1  0.84872600  0.48644700  0.10477700  1
  F  F36  1  0.34872600  0.98644700  0.89522300  1
  F  F37  1  0.34872600  0.01355300  0.60477700  1
  F  F38  1  0.15127400  0.48644700  0.60477700  1
  F  F39  1  0.15127400  0.51355300  0.89522300  1
