# generated using pymatgen
data_Tm4CdNi
_symmetry_space_group_name_H-M   'P 1'
_cell_length_a   9.41205229
_cell_length_b   9.41205229
_cell_length_c   9.41205229
_cell_angle_alpha   60.00000000
_cell_angle_beta   60.00000000
_cell_angle_gamma   60.00000000
_symmetry_Int_Tables_number   1
_chemical_formula_structural   Tm4CdNi
_chemical_formula_sum   'Tm16 Cd4 Ni4'
_cell_volume   589.57355633
_cell_formula_units_Z   4
loop_
 _symmetry_equiv_pos_site_id
 _symmetry_equiv_pos_as_xyz
  1  'x, y, z'
loop_
 _atom_site_type_symbol
 _atom_site_label
 _atom_site_symmetry_multiplicity
 _atom_site_fract_x
 _atom_site_fract_y
 _atom_site_fract_z
 _atom_site_occupancy
  Tm  Tm0  1  0.34838300  0.34838300  0.34838300  1
  Tm  Tm1  1  0.34838300  0.34838300  0.95485100  1
  Tm  Tm2  1  0.34838300  0.95485100  0.34838300  1
  Tm  Tm3  1  0.95485100  0.34838300  0.34838300  1
  Tm  Tm4  1  0.81307600  0.18692400  0.18692400  1
  Tm  Tm5  1  0.18692400  0.81307600  0.81307600  1
  Tm  Tm6  1  0.18692400  0.81307600  0.18692400  1
  Tm  Tm7  1  0.81307600  0.18692400  0.81307600  1
  Tm  Tm8  1  0.18692400  0.18692400  0.81307600  1
  Tm  Tm9  1  0.81307600  0.81307600  0.18692400  1
  Tm  Tm10  1  0.93539500  0.56460500  0.56460500  1
  Tm  Tm11  1  0.56460500  0.93539500  0.93539500  1
  Tm  Tm12  1  0.56460500  0.93539500  0.56460500  1
  Tm  Tm13  1  0.93539500  0.56460500  0.93539500  1
  Tm  Tm14  1  0.56460500  0.56460500  0.93539500  1
  Tm  Tm15  1  0.93539500  0.93539500  0.56460500  1
  Cd  Cd16  1  0.58147700  0.58147700  0.58147700  1
  Cd  Cd17  1  0.58147700  0.58147700  0.25557000  1
  Cd  Cd18  1  0.58147700  0.25557000  0.58147700  1
  Cd  Cd19  1  0.25557000  0.58147700  0.58147700  1
  Ni  Ni20  1  0.14244500  0.14244500  0.14244500  1
  Ni  Ni21  1  0.14244500  0.14244500  0.57266600  1
  Ni  Ni22  1  0.14244500  0.57266600  0.14244500  1
  Ni  Ni23  1  0.57266600  0.14244500  0.14244500  1
