# generated using pymatgen
data_Hf3Rh5
_symmetry_space_group_name_H-M   'P 1'
_cell_length_a   4.30274000
_cell_length_b   5.61773500
_cell_length_c   10.92235200
_cell_angle_alpha   90.00000000
_cell_angle_beta   90.00000000
_cell_angle_gamma   90.00000000
_symmetry_Int_Tables_number   1
_chemical_formula_structural   Hf3Rh5
_chemical_formula_sum   'Hf6 Rh10'
_cell_volume   264.01130351
_cell_formula_units_Z   2
loop_
 _symmetry_equiv_pos_site_id
 _symmetry_equiv_pos_as_xyz
  1  'x, y, z'
loop_
 _atom_site_type_symbol
 _atom_site_label
 _atom_site_symmetry_multiplicity
 _atom_site_fract_x
 _atom_site_fract_y
 _atom_site_fract_z
 _atom_site_occupancy
  Hf  Hf0  1  0.50000000  0.15630700  0.64551800  1
  Hf  Hf1  1  0.50000000  0.84369300  0.35448200  1
  Hf  Hf2  1  0.50000000  0.65630700  0.85448200  1
  Hf  Hf3  1  0.50000000  0.34369300  0.14551800  1
  Hf  Hf4  1  0.00000000  0.50000000  0.50000000  1
  Hf  Hf5  1  0.00000000  0.00000000  0.00000000  1
  Rh  Rh6  1  0.50000000  0.18272500  0.89271700  1
  Rh  Rh7  1  0.50000000  0.81727500  0.10728300  1
  Rh  Rh8  1  0.50000000  0.68272500  0.60728300  1
  Rh  Rh9  1  0.50000000  0.31727500  0.39271700  1
  Rh  Rh10  1  0.00000000  0.39887500  0.74210600  1
  Rh  Rh11  1  0.00000000  0.60112500  0.25789400  1
  Rh  Rh12  1  0.00000000  0.00000000  0.50000000  1
  Rh  Rh13  1  0.00000000  0.50000000  0.00000000  1
  Rh  Rh14  1  0.00000000  0.10112500  0.24210600  1
  Rh  Rh15  1  0.00000000  0.89887500  0.75789400  1
