# generated using pymatgen
data_CuP4S3Br
_symmetry_space_group_name_H-M   'P 1'
_cell_length_a   11.85357654
_cell_length_b   11.85357654
_cell_length_c   10.53698200
_cell_angle_alpha   90.00000000
_cell_angle_beta   90.00000000
_cell_angle_gamma   141.13146064
_symmetry_Int_Tables_number   1
_chemical_formula_structural   CuP4S3Br
_chemical_formula_sum   'Cu4 P16 S12 Br4'
_cell_volume   929.08072089
_cell_formula_units_Z   4
loop_
 _symmetry_equiv_pos_site_id
 _symmetry_equiv_pos_as_xyz
  1  'x, y, z'
loop_
 _atom_site_type_symbol
 _atom_site_label
 _atom_site_symmetry_multiplicity
 _atom_site_fract_x
 _atom_site_fract_y
 _atom_site_fract_z
 _atom_site_occupancy
  Cu  Cu0  1  0.80496800  0.80496800  0.50000000  1
  Cu  Cu1  1  0.30496800  0.30496800  0.00000000  1
  Cu  Cu2  1  0.19503200  0.19503200  0.50000000  1
  Cu  Cu3  1  0.69503200  0.69503200  0.00000000  1
  P  P4  1  0.71490400  0.28509600  0.47200400  1
  P  P5  1  0.28509600  0.71490400  0.52799600  1
  P  P6  1  0.78509600  0.21490400  0.97200400  1
  P  P7  1  0.21490400  0.78509600  0.02799600  1
  P  P8  1  0.61814800  0.38185200  0.71245500  1
  P  P9  1  0.38185200  0.61814800  0.28754500  1
  P  P10  1  0.88185200  0.11814800  0.21245500  1
  P  P11  1  0.11814800  0.88185200  0.78754500  1
  P  P12  1  0.72335200  0.56099900  0.54115300  1
  P  P13  1  0.56099900  0.72335200  0.45884700  1
  P  P14  1  0.06099900  0.22335200  0.04115300  1
  P  P15  1  0.22335200  0.06099900  0.95884700  1
  P  P16  1  0.27664800  0.43900100  0.45884700  1
  P  P17  1  0.43900100  0.27664800  0.54115300  1
  P  P18  1  0.93900100  0.77664800  0.95884700  1
  P  P19  1  0.77664800  0.93900100  0.04115300  1
  S  S20  1  0.86211800  0.54895800  0.43339400  1
  S  S21  1  0.54895800  0.86211800  0.56660600  1
  S  S22  1  0.04895800  0.36211800  0.93339400  1
  S  S23  1  0.36211800  0.04895800  0.06660600  1
  S  S24  1  0.13788200  0.45104200  0.56660600  1
  S  S25  1  0.45104200  0.13788200  0.43339400  1
  S  S26  1  0.95104200  0.63788200  0.06660600  1
  S  S27  1  0.63788200  0.95104200  0.93339400  1
  S  S28  1  0.71032400  0.28967600  0.67396000  1
  S  S29  1  0.28967600  0.71032400  0.32604000  1
  S  S30  1  0.78967600  0.21032400  0.17396000  1
  S  S31  1  0.21032400  0.78967600  0.82604000  1
  Br  Br32  1  0.97252100  0.02747900  0.67513900  1
  Br  Br33  1  0.02747900  0.97252100  0.32486100  1
  Br  Br34  1  0.52747900  0.47252100  0.17513900  1
  Br  Br35  1  0.47252100  0.52747900  0.82486100  1
