# generated using pymatgen
data_TmGe2
_symmetry_space_group_name_H-M   'P 1'
_cell_length_a   8.14246142
_cell_length_b   8.14246142
_cell_length_c   3.90018500
_cell_angle_alpha   90.00000000
_cell_angle_beta   90.00000000
_cell_angle_gamma   151.23533235
_symmetry_Int_Tables_number   1
_chemical_formula_structural   TmGe2
_chemical_formula_sum   'Tm2 Ge4'
_cell_volume   124.43259339
_cell_formula_units_Z   2
loop_
 _symmetry_equiv_pos_site_id
 _symmetry_equiv_pos_as_xyz
  1  'x, y, z'
loop_
 _atom_site_type_symbol
 _atom_site_label
 _atom_site_symmetry_multiplicity
 _atom_site_fract_x
 _atom_site_fract_y
 _atom_site_fract_z
 _atom_site_occupancy
  Tm  Tm0  1  0.10288600  0.89711400  0.25000000  1
  Tm  Tm1  1  0.89711400  0.10288600  0.75000000  1
  Ge  Ge2  1  0.44586700  0.55413300  0.25000000  1
  Ge  Ge3  1  0.55413300  0.44586700  0.75000000  1
  Ge  Ge4  1  0.25355300  0.74644700  0.75000000  1
  Ge  Ge5  1  0.74644700  0.25355300  0.25000000  1
