# generated using pymatgen
data_P7Pb
_symmetry_space_group_name_H-M   'P 1'
_cell_length_a   6.91340000
_cell_length_b   9.81824800
_cell_length_c   12.64510961
_cell_angle_alpha   57.32657938
_cell_angle_beta   90.00000000
_cell_angle_gamma   90.00000000
_symmetry_Int_Tables_number   1
_chemical_formula_structural   P7Pb
_chemical_formula_sum   'P28 Pb4'
_cell_volume   722.49898350
_cell_formula_units_Z   4
loop_
 _symmetry_equiv_pos_site_id
 _symmetry_equiv_pos_as_xyz
  1  'x, y, z'
loop_
 _atom_site_type_symbol
 _atom_site_label
 _atom_site_symmetry_multiplicity
 _atom_site_fract_x
 _atom_site_fract_y
 _atom_site_fract_z
 _atom_site_occupancy
  P  P0  1  0.62068600  0.91370400  0.63612600  1
  P  P1  1  0.12068600  0.08629600  0.86387400  1
  P  P2  1  0.37931400  0.08629600  0.36387400  1
  P  P3  1  0.87931400  0.91370400  0.13612600  1
  P  P4  1  0.58063000  0.89904200  0.91186000  1
  P  P5  1  0.08063000  0.10095800  0.58814000  1
  P  P6  1  0.41937000  0.10095800  0.08814000  1
  P  P7  1  0.91937000  0.89904200  0.41186000  1
  P  P8  1  0.92758800  0.86187900  0.70213000  1
  P  P9  1  0.42758800  0.13812100  0.79787000  1
  P  P10  1  0.07241200  0.13812100  0.29787000  1
  P  P11  1  0.57241200  0.86187900  0.20213000  1
  P  P12  1  0.07417700  0.76529700  0.59867600  1
  P  P13  1  0.57417700  0.23470300  0.90132400  1
  P  P14  1  0.92582300  0.23470300  0.40132400  1
  P  P15  1  0.42582300  0.76529700  0.09867600  1
  P  P16  1  0.58599400  0.55100700  0.91221500  1
  P  P17  1  0.08599400  0.44899300  0.58778500  1
  P  P18  1  0.41400600  0.44899300  0.08778500  1
  P  P19  1  0.91400600  0.55100700  0.41221500  1
  P  P20  1  0.90235400  0.54125800  0.68030200  1
  P  P21  1  0.40235400  0.45874200  0.81969800  1
  P  P22  1  0.09764600  0.45874200  0.31969800  1
  P  P23  1  0.59764600  0.54125800  0.18030200  1
  P  P24  1  0.94509700  0.20609700  0.68988000  1
  P  P25  1  0.44509700  0.79390300  0.81012000  1
  P  P26  1  0.05490300  0.79390300  0.31012000  1
  P  P27  1  0.55490300  0.20609700  0.18988000  1
  Pb  Pb28  1  0.52143300  0.70009500  0.55557700  1
  Pb  Pb29  1  0.02143300  0.29990500  0.94442300  1
  Pb  Pb30  1  0.47856700  0.29990500  0.44442300  1
  Pb  Pb31  1  0.97856700  0.70009500  0.05557700  1
