# generated using pymatgen
data_VFeSbO6
_symmetry_space_group_name_H-M   'P 1'
_cell_length_a   4.63762107
_cell_length_b   4.63751107
_cell_length_c   9.26441700
_cell_angle_alpha   90.00004327
_cell_angle_beta   89.99988256
_cell_angle_gamma   90.01985402
_symmetry_Int_Tables_number   1
_chemical_formula_structural   VFeSbO6
_chemical_formula_sum   'V2 Fe2 Sb2 O12'
_cell_volume   199.24998092
_cell_formula_units_Z   2
loop_
 _symmetry_equiv_pos_site_id
 _symmetry_equiv_pos_as_xyz
  1  'x, y, z'
loop_
 _atom_site_type_symbol
 _atom_site_label
 _atom_site_symmetry_multiplicity
 _atom_site_fract_x
 _atom_site_fract_y
 _atom_site_fract_z
 _atom_site_occupancy
  V  V0  1  0.00000000  0.00000000  0.00084900  1
  V  V1  1  0.50000000  0.49999900  0.50103500  1
  Fe  Fe2  1  0.50000500  0.50000100  0.16878600  1
  Fe  Fe3  1  0.00000100  0.00000100  0.66880200  1
  Sb  Sb4  1  0.50000000  0.50000000  0.83376700  1
  Sb  Sb5  1  0.00000000  0.00000000  0.33357000  1
  O  O6  1  0.19152600  0.80847100  0.16346600  1
  O  O7  1  0.80847200  0.19152800  0.16346700  1
  O  O8  1  0.30775500  0.30775400  0.66384600  1
  O  O9  1  0.69224300  0.69224700  0.66384600  1
  O  O10  1  0.20216400  0.79785100  0.49805900  1
  O  O11  1  0.79783500  0.20215000  0.49805800  1
  O  O12  1  0.29773000  0.29773000  0.99790700  1
  O  O13  1  0.70226900  0.70226900  0.99790700  1
  O  O14  1  0.19406800  0.80593000  0.83687400  1
  O  O15  1  0.80593200  0.19406900  0.83687400  1
  O  O16  1  0.30610400  0.30609700  0.33644300  1
  O  O17  1  0.69389600  0.69390300  0.33644300  1
