# generated using pymatgen
data_BaF3
_symmetry_space_group_name_H-M   'P 1'
_cell_length_a   4.44277500
_cell_length_b   4.67487900
_cell_length_c   6.99355379
_cell_angle_alpha   81.47290379
_cell_angle_beta   90.00000000
_cell_angle_gamma   90.00000000
_symmetry_Int_Tables_number   1
_chemical_formula_structural   BaF3
_chemical_formula_sum   'Ba2 F6'
_cell_volume   143.64652554
_cell_formula_units_Z   2
loop_
 _symmetry_equiv_pos_site_id
 _symmetry_equiv_pos_as_xyz
  1  'x, y, z'
loop_
 _atom_site_type_symbol
 _atom_site_label
 _atom_site_symmetry_multiplicity
 _atom_site_fract_x
 _atom_site_fract_y
 _atom_site_fract_z
 _atom_site_occupancy
  Ba  Ba0  1  0.75000000  0.20885400  0.71117600  1
  Ba  Ba1  1  0.25000000  0.79114600  0.28882400  1
  F  F2  1  0.75000000  0.75188600  0.52362000  1
  F  F3  1  0.25000000  0.24811400  0.47638000  1
  F  F4  1  0.75000000  0.10436300  0.11199200  1
  F  F5  1  0.25000000  0.89563700  0.88800800  1
  F  F6  1  0.75000000  0.50929100  0.16525000  1
  F  F7  1  0.25000000  0.49070900  0.83475000  1
