# generated using pymatgen
data_Sr10Mg5Mo3(WO15)2
_symmetry_space_group_name_H-M   'P 1'
_cell_length_a   5.66025800
_cell_length_b   5.68195208
_cell_length_c   20.37760573
_cell_angle_alpha   97.89971056
_cell_angle_beta   97.94020916
_cell_angle_gamma   89.58774973
_symmetry_Int_Tables_number   1
_chemical_formula_structural   Sr10Mg5Mo3(WO15)2
_chemical_formula_sum   'Sr10 Mg5 Mo3 W2 O30'
_cell_volume   642.88122127
_cell_formula_units_Z   1
loop_
 _symmetry_equiv_pos_site_id
 _symmetry_equiv_pos_as_xyz
  1  'x, y, z'
loop_
 _atom_site_type_symbol
 _atom_site_label
 _atom_site_symmetry_multiplicity
 _atom_site_fract_x
 _atom_site_fract_y
 _atom_site_fract_z
 _atom_site_occupancy
  Sr  Sr0  1  0.05076000  0.55045600  0.10036100  1
  Sr  Sr1  1  0.65073500  0.15014400  0.29963000  1
  Sr  Sr2  1  0.25086100  0.75039000  0.50048100  1
  Sr  Sr3  1  0.85097400  0.35075200  0.70130300  1
  Sr  Sr4  1  0.45081100  0.95056100  0.90055900  1
  Sr  Sr5  1  0.54918900  0.04943900  0.09944100  1
  Sr  Sr6  1  0.14902600  0.64924800  0.29869700  1
  Sr  Sr7  1  0.74913900  0.24961000  0.49951900  1
  Sr  Sr8  1  0.34926500  0.84985600  0.70037000  1
  Sr  Sr9  1  0.94924000  0.44954400  0.89963900  1
  Mg  Mg10  1  0.50000000  0.50000000  0.00000000  1
  Mg  Mg11  1  0.10002400  0.10005300  0.19996600  1
  Mg  Mg12  1  0.70001600  0.70004500  0.40000600  1
  Mg  Mg13  1  0.29998400  0.29995500  0.59999400  1
  Mg  Mg14  1  0.89997600  0.89994700  0.80003400  1
  Mo  Mo15  1  0.39991600  0.40007000  0.80001100  1
  Mo  Mo16  1  0.00000000  0.00000000  0.00000000  1
  Mo  Mo17  1  0.60008400  0.59993000  0.19998900  1
  W  W18  1  0.20006400  0.19996000  0.40001300  1
  W  W19  1  0.79993600  0.80004000  0.59998700  1
  O  O20  1  0.25871100  0.22588800  0.00113200  1
  O  O21  1  0.85866100  0.82589100  0.20100600  1
  O  O22  1  0.45919900  0.42589000  0.40100900  1
  O  O23  1  0.05925400  0.02600600  0.60127900  1
  O  O24  1  0.65871100  0.62601200  0.80127900  1
  O  O25  1  0.34128900  0.37398800  0.19872100  1
  O  O26  1  0.94074600  0.97399400  0.39872100  1
  O  O27  1  0.54080100  0.57411000  0.59899100  1
  O  O28  1  0.14133900  0.17410900  0.79899400  1
  O  O29  1  0.74128900  0.77411200  0.99886800  1
  O  O30  1  0.37925800  0.86147400  0.21250600  1
  O  O31  1  0.97932700  0.46213200  0.41274500  1
  O  O32  1  0.57950400  0.06248500  0.61307400  1
  O  O33  1  0.17946300  0.66182900  0.81283400  1
  O  O34  1  0.77942400  0.26168800  0.01271700  1
  O  O35  1  0.22057600  0.73831200  0.98728300  1
  O  O36  1  0.82053700  0.33817100  0.18716600  1
  O  O37  1  0.42049600  0.93751500  0.38692600  1
  O  O38  1  0.02067300  0.53786800  0.58725500  1
  O  O39  1  0.62074200  0.13852600  0.78749400  1
  O  O40  1  0.12259600  0.18818300  0.30294600  1
  O  O41  1  0.72270000  0.78833300  0.50338000  1
  O  O42  1  0.32318200  0.38811300  0.70371200  1
  O  O43  1  0.92307100  0.98801700  0.90343200  1
  O  O44  1  0.52306000  0.58795000  0.10326200  1
  O  O45  1  0.47694000  0.41205000  0.89673800  1
  O  O46  1  0.07692900  0.01198300  0.09656800  1
  O  O47  1  0.67681800  0.61188700  0.29628800  1
  O  O48  1  0.27730000  0.21166700  0.49662000  1
  O  O49  1  0.87740400  0.81181700  0.69705400  1
