# generated using pymatgen
data_Lu(Al5Re)2
_symmetry_space_group_name_H-M   'P 1'
_cell_length_a   6.94965027
_cell_length_b   6.94965027
_cell_length_c   26.93739800
_cell_angle_alpha   90.00000000
_cell_angle_beta   90.00000000
_cell_angle_gamma   95.88332027
_symmetry_Int_Tables_number   1
_chemical_formula_structural   Lu(Al5Re)2
_chemical_formula_sum   'Lu6 Al60 Re12'
_cell_volume   1294.15989742
_cell_formula_units_Z   6
loop_
 _symmetry_equiv_pos_site_id
 _symmetry_equiv_pos_as_xyz
  1  'x, y, z'
loop_
 _atom_site_type_symbol
 _atom_site_label
 _atom_site_symmetry_multiplicity
 _atom_site_fract_x
 _atom_site_fract_y
 _atom_site_fract_z
 _atom_site_occupancy
  Lu  Lu0  1  0.87612100  0.12387900  0.58479600  1
  Lu  Lu1  1  0.12387900  0.87612100  0.41520400  1
  Lu  Lu2  1  0.12387900  0.87612100  0.08479600  1
  Lu  Lu3  1  0.87612100  0.12387900  0.91520400  1
  Lu  Lu4  1  0.61698900  0.38301100  0.75000000  1
  Lu  Lu5  1  0.38301100  0.61698900  0.25000000  1
  Al  Al6  1  0.59793600  0.40206400  0.63390300  1
  Al  Al7  1  0.40206400  0.59793600  0.36609700  1
  Al  Al8  1  0.40206400  0.59793600  0.13390300  1
  Al  Al9  1  0.59793600  0.40206400  0.86609700  1
  Al  Al10  1  0.18248300  0.40433900  0.75000000  1
  Al  Al11  1  0.81751700  0.59566100  0.25000000  1
  Al  Al12  1  0.59566100  0.81751700  0.75000000  1
  Al  Al13  1  0.40433900  0.18248300  0.25000000  1
  Al  Al14  1  0.87560300  0.12439700  0.14573300  1
  Al  Al15  1  0.12439700  0.87560300  0.85426700  1
  Al  Al16  1  0.12439700  0.87560300  0.64573300  1
  Al  Al17  1  0.87560300  0.12439700  0.35426700  1
  Al  Al18  1  0.37009300  0.62990700  0.67760000  1
  Al  Al19  1  0.62990700  0.37009300  0.32240000  1
  Al  Al20  1  0.62990700  0.37009300  0.17760000  1
  Al  Al21  1  0.37009300  0.62990700  0.82240000  1
  Al  Al22  1  0.22718300  0.47091800  0.58068400  1
  Al  Al23  1  0.77281700  0.52908200  0.41931600  1
  Al  Al24  1  0.77281700  0.52908200  0.08068400  1
  Al  Al25  1  0.52908200  0.77281700  0.91931600  1
  Al  Al26  1  0.22718300  0.47091800  0.91931600  1
  Al  Al27  1  0.47091800  0.22718300  0.08068400  1
  Al  Al28  1  0.47091800  0.22718300  0.41931600  1
  Al  Al29  1  0.52908200  0.77281700  0.58068400  1
  Al  Al30  1  0.96189800  0.73926000  0.75000000  1
  Al  Al31  1  0.03810200  0.26074000  0.25000000  1
  Al  Al32  1  0.26074000  0.03810200  0.75000000  1
  Al  Al33  1  0.73926000  0.96189800  0.25000000  1
  Al  Al34  1  0.62297200  0.37702800  0.52214900  1
  Al  Al35  1  0.37702800  0.62297200  0.47785100  1
  Al  Al36  1  0.37702800  0.62297200  0.02214900  1
  Al  Al37  1  0.62297200  0.37702800  0.97785100  1
  Al  Al38  1  0.96798000  0.47402300  0.67151100  1
  Al  Al39  1  0.03202000  0.52597700  0.32848900  1
  Al  Al40  1  0.03202000  0.52597700  0.17151100  1
  Al  Al41  1  0.52597700  0.03202000  0.82848900  1
  Al  Al42  1  0.96798000  0.47402300  0.82848900  1
  Al  Al43  1  0.47402300  0.96798000  0.17151100  1
  Al  Al44  1  0.47402300  0.96798000  0.32848900  1
  Al  Al45  1  0.52597700  0.03202000  0.67151100  1
  Al  Al46  1  0.90600900  0.09399100  0.69961000  1
  Al  Al47  1  0.09399100  0.90600900  0.30039000  1
  Al  Al48  1  0.09399100  0.90600900  0.19961000  1
  Al  Al49  1  0.90600900  0.09399100  0.80039000  1
  Al  Al50  1  0.87605300  0.61985000  0.58303600  1
  Al  Al51  1  0.12394700  0.38015000  0.41696400  1
  Al  Al52  1  0.12394700  0.38015000  0.08303600  1
  Al  Al53  1  0.38015000  0.12394700  0.91696400  1
  Al  Al54  1  0.87605300  0.61985000  0.91696400  1
  Al  Al55  1  0.61985000  0.87605300  0.08303600  1
  Al  Al56  1  0.61985000  0.87605300  0.41696400  1
  Al  Al57  1  0.38015000  0.12394700  0.58303600  1
  Al  Al58  1  0.20550100  0.20550100  0.50000000  1
  Al  Al59  1  0.79449900  0.79449900  0.50000000  1
  Al  Al60  1  0.79449900  0.79449900  0.00000000  1
  Al  Al61  1  0.20550100  0.20550100  0.00000000  1
  Al  Al62  1  0.83566600  0.16433400  0.03402100  1
  Al  Al63  1  0.16433400  0.83566600  0.96597900  1
  Al  Al64  1  0.16433400  0.83566600  0.53402100  1
  Al  Al65  1  0.83566600  0.16433400  0.46597900  1
  Re  Re66  1  0.24849400  0.25500100  0.66306100  1
  Re  Re67  1  0.75150600  0.74499900  0.33693900  1
  Re  Re68  1  0.75150600  0.74499900  0.16306100  1
  Re  Re69  1  0.74499900  0.75150600  0.83693900  1
  Re  Re70  1  0.24849400  0.25500100  0.83693900  1
  Re  Re71  1  0.25500100  0.24849400  0.16306100  1
  Re  Re72  1  0.25500100  0.24849400  0.33693900  1
  Re  Re73  1  0.74499900  0.75150600  0.66306100  1
  Re  Re74  1  0.00000000  0.50000000  0.50000000  1
  Re  Re75  1  0.00000000  0.50000000  0.00000000  1
  Re  Re76  1  0.50000000  0.00000000  0.00000000  1
  Re  Re77  1  0.50000000  0.00000000  0.50000000  1
