# generated using pymatgen
data_Ho(Ni2B)6
_symmetry_space_group_name_H-M   'P 1'
_cell_length_a   6.02451381
_cell_length_b   6.02451381
_cell_length_c   10.92876100
_cell_angle_alpha   90.00000000
_cell_angle_beta   90.00000000
_cell_angle_gamma   104.85491822
_symmetry_Int_Tables_number   1
_chemical_formula_structural   Ho(Ni2B)6
_chemical_formula_sum   'Ho2 Ni24 B12'
_cell_volume   383.39980527
_cell_formula_units_Z   2
loop_
 _symmetry_equiv_pos_site_id
 _symmetry_equiv_pos_as_xyz
  1  'x, y, z'
loop_
 _atom_site_type_symbol
 _atom_site_label
 _atom_site_symmetry_multiplicity
 _atom_site_fract_x
 _atom_site_fract_y
 _atom_site_fract_z
 _atom_site_occupancy
  Ho  Ho0  1  0.66477100  0.66477100  0.35787400  1
  Ho  Ho1  1  0.33522900  0.33522900  0.85787400  1
  Ni  Ni2  1  0.04452100  0.30494400  0.09532100  1
  Ni  Ni3  1  0.95547900  0.69505600  0.59532100  1
  Ni  Ni4  1  0.69505600  0.95547900  0.59532100  1
  Ni  Ni5  1  0.30494400  0.04452100  0.09532100  1
  Ni  Ni6  1  0.06365300  0.06365300  0.28170700  1
  Ni  Ni7  1  0.93634700  0.93634700  0.78170700  1
  Ni  Ni8  1  0.13056000  0.49640100  0.29900200  1
  Ni  Ni9  1  0.86944000  0.50359900  0.79900200  1
  Ni  Ni10  1  0.50359900  0.86944000  0.79900200  1
  Ni  Ni11  1  0.49640100  0.13056000  0.29900200  1
  Ni  Ni12  1  0.28392500  0.28392500  0.46093300  1
  Ni  Ni13  1  0.71607500  0.71607500  0.96093300  1
  Ni  Ni14  1  0.97303000  0.71296100  0.13858200  1
  Ni  Ni15  1  0.02697000  0.28703900  0.63858200  1
  Ni  Ni16  1  0.28703900  0.02697000  0.63858200  1
  Ni  Ni17  1  0.71296100  0.97303000  0.13858200  1
  Ni  Ni18  1  0.64508800  0.38234400  0.11765700  1
  Ni  Ni19  1  0.35491200  0.61765600  0.61765700  1
  Ni  Ni20  1  0.61765600  0.35491200  0.61765700  1
  Ni  Ni21  1  0.38234400  0.64508800  0.11765700  1
  Ni  Ni22  1  0.84036000  0.23040900  0.43017000  1
  Ni  Ni23  1  0.15964000  0.76959100  0.93017000  1
  Ni  Ni24  1  0.76959100  0.15964000  0.93017000  1
  Ni  Ni25  1  0.23040900  0.84036000  0.43017000  1
  B  B26  1  0.82672200  0.25776200  0.24685600  1
  B  B27  1  0.17327800  0.74223800  0.74685600  1
  B  B28  1  0.74223800  0.17327800  0.74685600  1
  B  B29  1  0.25776200  0.82672200  0.24685600  1
  B  B30  1  0.33609900  0.33609900  0.20144300  1
  B  B31  1  0.66390100  0.66390100  0.70144300  1
  B  B32  1  0.09802300  0.51098500  0.48500700  1
  B  B33  1  0.90197700  0.48901500  0.98500700  1
  B  B34  1  0.48901500  0.90197700  0.98500700  1
  B  B35  1  0.51098500  0.09802300  0.48500700  1
  B  B36  1  0.98876400  0.98876400  0.01385300  1
  B  B37  1  0.01123600  0.01123600  0.51385300  1
