# generated using pymatgen
data_CsMo3Cl7
_symmetry_space_group_name_H-M   'P 1'
_cell_length_a   10.17182848
_cell_length_b   10.17182848
_cell_length_c   15.09422000
_cell_angle_alpha   90.00000000
_cell_angle_beta   90.00000000
_cell_angle_gamma   120.00000309
_symmetry_Int_Tables_number   1
_chemical_formula_structural   CsMo3Cl7
_chemical_formula_sum   'Cs4 Mo12 Cl28'
_cell_volume   1352.50646629
_cell_formula_units_Z   4
loop_
 _symmetry_equiv_pos_site_id
 _symmetry_equiv_pos_as_xyz
  1  'x, y, z'
loop_
 _atom_site_type_symbol
 _atom_site_label
 _atom_site_symmetry_multiplicity
 _atom_site_fract_x
 _atom_site_fract_y
 _atom_site_fract_z
 _atom_site_occupancy
  Cs  Cs0  1  0.00000000  0.00000000  0.99557600  1
  Cs  Cs1  1  0.00000000  0.00000000  0.49557600  1
  Cs  Cs2  1  0.66666700  0.33333300  0.71047600  1
  Cs  Cs3  1  0.33333300  0.66666700  0.21047600  1
  Mo  Mo4  1  0.48698200  0.67544900  0.78321300  1
  Mo  Mo5  1  0.18846800  0.51301800  0.78321300  1
  Mo  Mo6  1  0.81153200  0.32455100  0.28321300  1
  Mo  Mo7  1  0.32455100  0.81153200  0.78321300  1
  Mo  Mo8  1  0.67544900  0.48698200  0.28321300  1
  Mo  Mo9  1  0.51301800  0.18846800  0.28321300  1
  Mo  Mo10  1  0.47673800  0.82095800  0.64151800  1
  Mo  Mo11  1  0.34422000  0.52326200  0.64151800  1
  Mo  Mo12  1  0.65578000  0.17904200  0.14151800  1
  Mo  Mo13  1  0.17904200  0.65578000  0.64151800  1
  Mo  Mo14  1  0.82095800  0.47673800  0.14151800  1
  Mo  Mo15  1  0.52326200  0.34422000  0.14151800  1
  Cl  Cl16  1  0.62659800  0.68852000  0.64332400  1
  Cl  Cl17  1  0.06192200  0.37340200  0.64332400  1
  Cl  Cl18  1  0.93807800  0.31148000  0.14332400  1
  Cl  Cl19  1  0.31148000  0.93807800  0.64332400  1
  Cl  Cl20  1  0.68852000  0.62659800  0.14332400  1
  Cl  Cl21  1  0.37340200  0.06192200  0.14332400  1
  Cl  Cl22  1  0.98552500  0.30882900  0.86980800  1
  Cl  Cl23  1  0.32330300  0.01447500  0.86980800  1
  Cl  Cl24  1  0.67669700  0.69117100  0.36980800  1
  Cl  Cl25  1  0.69117100  0.67669700  0.86980800  1
  Cl  Cl26  1  0.30882900  0.98552500  0.36980800  1
  Cl  Cl27  1  0.01447500  0.32330300  0.36980800  1
  Cl  Cl28  1  0.66666700  0.33333300  0.01095500  1
  Cl  Cl29  1  0.33333300  0.66666700  0.51095500  1
  Cl  Cl30  1  0.66666700  0.33333300  0.41364100  1
  Cl  Cl31  1  0.33333300  0.66666700  0.91364100  1
  Cl  Cl32  1  0.60794100  0.95688800  0.78142000  1
  Cl  Cl33  1  0.34894700  0.39205900  0.78142000  1
  Cl  Cl34  1  0.65105300  0.04311200  0.28142000  1
  Cl  Cl35  1  0.04311200  0.65105300  0.78142000  1
  Cl  Cl36  1  0.95688800  0.60794100  0.28142000  1
  Cl  Cl37  1  0.39205900  0.34894700  0.28142000  1
  Cl  Cl38  1  0.66893200  0.03411300  0.55490100  1
  Cl  Cl39  1  0.36518100  0.33106800  0.55490100  1
  Cl  Cl40  1  0.63481900  0.96588700  0.05490100  1
  Cl  Cl41  1  0.96588700  0.63481900  0.55490100  1
  Cl  Cl42  1  0.03411300  0.66893200  0.05490100  1
  Cl  Cl43  1  0.33106800  0.36518100  0.05490100  1
