# generated using pymatgen
data_Cs2Pr10Os2I17
_symmetry_space_group_name_H-M   'P 1'
_cell_length_a   11.86199470
_cell_length_b   11.86199470
_cell_length_c   10.13862530
_cell_angle_alpha   86.50546154
_cell_angle_beta   86.50546154
_cell_angle_gamma   108.08568318
_symmetry_Int_Tables_number   1
_chemical_formula_structural   Cs2Pr10Os2I17
_chemical_formula_sum   'Cs2 Pr10 Os2 I17'
_cell_volume   1348.76607973
_cell_formula_units_Z   1
loop_
 _symmetry_equiv_pos_site_id
 _symmetry_equiv_pos_as_xyz
  1  'x, y, z'
loop_
 _atom_site_type_symbol
 _atom_site_label
 _atom_site_symmetry_multiplicity
 _atom_site_fract_x
 _atom_site_fract_y
 _atom_site_fract_z
 _atom_site_occupancy
  Cs  Cs0  1  0.67430700  0.32569300  0.00000000  1
  Cs  Cs1  1  0.32569300  0.67430700  0.00000000  1
  Pr  Pr2  1  0.70757600  0.00635100  0.42723000  1
  Pr  Pr3  1  0.29242400  0.99364900  0.57277000  1
  Pr  Pr4  1  0.99364900  0.29242400  0.57277000  1
  Pr  Pr5  1  0.00635100  0.70757600  0.42723000  1
  Pr  Pr6  1  0.67122900  0.67122900  0.55546300  1
  Pr  Pr7  1  0.32877100  0.32877100  0.44453700  1
  Pr  Pr8  1  0.93642200  0.93642200  0.68170500  1
  Pr  Pr9  1  0.06357800  0.06357800  0.31829500  1
  Pr  Pr10  1  0.79283900  0.79283900  0.18262300  1
  Pr  Pr11  1  0.20716100  0.20716100  0.81737700  1
  Os  Os12  1  0.85942700  0.85942700  0.43021200  1
  Os  Os13  1  0.14057300  0.14057300  0.56978800  1
  I  I14  1  0.61647200  0.94979100  0.14028600  1
  I  I15  1  0.38352800  0.05020900  0.85971400  1
  I  I16  1  0.05020900  0.38352800  0.85971400  1
  I  I17  1  0.94979100  0.61647200  0.14028600  1
  I  I18  1  0.52651700  0.18943100  0.42130600  1
  I  I19  1  0.47348300  0.81056900  0.57869400  1
  I  I20  1  0.81056900  0.47348300  0.57869400  1
  I  I21  1  0.18943100  0.52651700  0.42130600  1
  I  I22  1  0.56386800  0.56386800  0.28273200  1
  I  I23  1  0.43613200  0.43613200  0.71726800  1
  I  I24  1  0.24663500  0.89975700  0.27635600  1
  I  I25  1  0.75336500  0.10024300  0.72364400  1
  I  I26  1  0.10024300  0.75336500  0.72364400  1
  I  I27  1  0.89975700  0.24663500  0.27635600  1
  I  I28  1  0.28916700  0.28916700  0.13261500  1
  I  I29  1  0.71083300  0.71083300  0.86738500  1
  I  I30  1  0.00000000  0.00000000  0.00000000  1
