# generated using pymatgen
data_Tm(Al5Re)2
_symmetry_space_group_name_H-M   'P 1'
_cell_length_a   6.95013918
_cell_length_b   6.95013918
_cell_length_c   26.93738200
_cell_angle_alpha   90.00000000
_cell_angle_beta   90.00000000
_cell_angle_gamma   95.95523883
_symmetry_Int_Tables_number   1
_chemical_formula_structural   Tm(Al5Re)2
_chemical_formula_sum   'Tm6 Al60 Re12'
_cell_volume   1294.17278727
_cell_formula_units_Z   6
loop_
 _symmetry_equiv_pos_site_id
 _symmetry_equiv_pos_as_xyz
  1  'x, y, z'
loop_
 _atom_site_type_symbol
 _atom_site_label
 _atom_site_symmetry_multiplicity
 _atom_site_fract_x
 _atom_site_fract_y
 _atom_site_fract_z
 _atom_site_occupancy
  Tm  Tm0  1  0.87600600  0.12399400  0.58474700  1
  Tm  Tm1  1  0.12399400  0.87600600  0.41525300  1
  Tm  Tm2  1  0.12399400  0.87600600  0.08474700  1
  Tm  Tm3  1  0.87600600  0.12399400  0.91525300  1
  Tm  Tm4  1  0.61700900  0.38299100  0.75000000  1
  Tm  Tm5  1  0.38299100  0.61700900  0.25000000  1
  Al  Al6  1  0.59764200  0.40235800  0.63394800  1
  Al  Al7  1  0.40235800  0.59764200  0.36605200  1
  Al  Al8  1  0.40235800  0.59764200  0.13394800  1
  Al  Al9  1  0.59764200  0.40235800  0.86605200  1
  Al  Al10  1  0.18198500  0.40384700  0.75000000  1
  Al  Al11  1  0.81801500  0.59615300  0.25000000  1
  Al  Al12  1  0.59615300  0.81801500  0.75000000  1
  Al  Al13  1  0.40384700  0.18198500  0.25000000  1
  Al  Al14  1  0.87549200  0.12450800  0.14588300  1
  Al  Al15  1  0.12450800  0.87549200  0.85411700  1
  Al  Al16  1  0.12450800  0.87549200  0.64588300  1
  Al  Al17  1  0.87549200  0.12450800  0.35411700  1
  Al  Al18  1  0.37009300  0.62990700  0.67750900  1
  Al  Al19  1  0.62990700  0.37009300  0.32249100  1
  Al  Al20  1  0.62990700  0.37009300  0.17750900  1
  Al  Al21  1  0.37009300  0.62990700  0.82249100  1
  Al  Al22  1  0.22717500  0.47102500  0.58067800  1
  Al  Al23  1  0.77282500  0.52897500  0.41932200  1
  Al  Al24  1  0.77282500  0.52897500  0.08067800  1
  Al  Al25  1  0.52897500  0.77282500  0.91932200  1
  Al  Al26  1  0.22717500  0.47102500  0.91932200  1
  Al  Al27  1  0.47102500  0.22717500  0.08067800  1
  Al  Al28  1  0.47102500  0.22717500  0.41932200  1
  Al  Al29  1  0.52897500  0.77282500  0.58067800  1
  Al  Al30  1  0.96159500  0.73929900  0.75000000  1
  Al  Al31  1  0.03840500  0.26070100  0.25000000  1
  Al  Al32  1  0.26070100  0.03840500  0.75000000  1
  Al  Al33  1  0.73929900  0.96159500  0.25000000  1
  Al  Al34  1  0.62284400  0.37715600  0.52204900  1
  Al  Al35  1  0.37715600  0.62284400  0.47795100  1
  Al  Al36  1  0.37715600  0.62284400  0.02204900  1
  Al  Al37  1  0.62284400  0.37715600  0.97795100  1
  Al  Al38  1  0.96825700  0.47411600  0.67147500  1
  Al  Al39  1  0.03174300  0.52588400  0.32852500  1
  Al  Al40  1  0.03174300  0.52588400  0.17147500  1
  Al  Al41  1  0.52588400  0.03174300  0.82852500  1
  Al  Al42  1  0.96825700  0.47411600  0.82852500  1
  Al  Al43  1  0.47411600  0.96825700  0.17147500  1
  Al  Al44  1  0.47411600  0.96825700  0.32852500  1
  Al  Al45  1  0.52588400  0.03174300  0.67147500  1
  Al  Al46  1  0.90624000  0.09376000  0.69964300  1
  Al  Al47  1  0.09376000  0.90624000  0.30035700  1
  Al  Al48  1  0.09376000  0.90624000  0.19964300  1
  Al  Al49  1  0.90624000  0.09376000  0.80035700  1
  Al  Al50  1  0.87597900  0.61978200  0.58302500  1
  Al  Al51  1  0.12402100  0.38021800  0.41697600  1
  Al  Al52  1  0.12402100  0.38021800  0.08302500  1
  Al  Al53  1  0.38021800  0.12402100  0.91697600  1
  Al  Al54  1  0.87597900  0.61978200  0.91697600  1
  Al  Al55  1  0.61978200  0.87597900  0.08302500  1
  Al  Al56  1  0.61978200  0.87597900  0.41697600  1
  Al  Al57  1  0.38021800  0.12402100  0.58302400  1
  Al  Al58  1  0.20584700  0.20584700  0.50000000  1
  Al  Al59  1  0.79415300  0.79415300  0.50000000  1
  Al  Al60  1  0.79415300  0.79415300  0.00000000  1
  Al  Al61  1  0.20584700  0.20584700  0.00000000  1
  Al  Al62  1  0.83542900  0.16457100  0.03401600  1
  Al  Al63  1  0.16457100  0.83542900  0.96598400  1
  Al  Al64  1  0.16457100  0.83542900  0.53401600  1
  Al  Al65  1  0.83542900  0.16457100  0.46598400  1
  Re  Re66  1  0.24863100  0.25510700  0.66310900  1
  Re  Re67  1  0.75136900  0.74489300  0.33689100  1
  Re  Re68  1  0.75136900  0.74489300  0.16310900  1
  Re  Re69  1  0.74489300  0.75136900  0.83689100  1
  Re  Re70  1  0.24863100  0.25510700  0.83689100  1
  Re  Re71  1  0.25510700  0.24863100  0.16310900  1
  Re  Re72  1  0.25510700  0.24863100  0.33689100  1
  Re  Re73  1  0.74489300  0.75136900  0.66310900  1
  Re  Re74  1  0.00000000  0.50000000  0.50000000  1
  Re  Re75  1  0.00000000  0.50000000  0.00000000  1
  Re  Re76  1  0.50000000  0.00000000  0.00000000  1
  Re  Re77  1  0.50000000  0.00000000  0.50000000  1
