# generated using pymatgen
data_Ba2SiTe4
_symmetry_space_group_name_H-M   'P 1'
_cell_length_a   7.68621000
_cell_length_b   7.65290600
_cell_length_c   9.73722568
_cell_angle_alpha   71.46258721
_cell_angle_beta   90.00000000
_cell_angle_gamma   90.00000000
_symmetry_Int_Tables_number   1
_chemical_formula_structural   Ba2SiTe4
_chemical_formula_sum   'Ba4 Si2 Te8'
_cell_volume   543.04454521
_cell_formula_units_Z   2
loop_
 _symmetry_equiv_pos_site_id
 _symmetry_equiv_pos_as_xyz
  1  'x, y, z'
loop_
 _atom_site_type_symbol
 _atom_site_label
 _atom_site_symmetry_multiplicity
 _atom_site_fract_x
 _atom_site_fract_y
 _atom_site_fract_z
 _atom_site_occupancy
  Ba  Ba0  1  0.75000000  0.72930400  0.07113900  1
  Ba  Ba1  1  0.25000000  0.27069600  0.92886100  1
  Ba  Ba2  1  0.75000000  0.77632200  0.55177500  1
  Ba  Ba3  1  0.25000000  0.22367800  0.44822500  1
  Si  Si4  1  0.75000000  0.21093800  0.70556200  1
  Si  Si5  1  0.25000000  0.78906200  0.29443800  1
  Te  Te6  1  0.00662000  0.99449600  0.76685300  1
  Te  Te7  1  0.50662000  0.00550400  0.23314700  1
  Te  Te8  1  0.25000000  0.62445200  0.56469800  1
  Te  Te9  1  0.75000000  0.37554800  0.43530200  1
  Te  Te10  1  0.25000000  0.59514800  0.12576200  1
  Te  Te11  1  0.75000000  0.40485200  0.87423800  1
  Te  Te12  1  0.49338000  0.99449600  0.76685300  1
  Te  Te13  1  0.99338000  0.00550400  0.23314700  1
