# generated using pymatgen
data_Ba3MgTaNbO9
_symmetry_space_group_name_H-M   'P 1'
_cell_length_a   5.85185244
_cell_length_b   5.85185244
_cell_length_c   7.19077300
_cell_angle_alpha   90.00000000
_cell_angle_beta   90.00000000
_cell_angle_gamma   120.00000498
_symmetry_Int_Tables_number   1
_chemical_formula_structural   Ba3MgTaNbO9
_chemical_formula_sum   'Ba3 Mg1 Ta1 Nb1 O9'
_cell_volume   213.25190622
_cell_formula_units_Z   1
loop_
 _symmetry_equiv_pos_site_id
 _symmetry_equiv_pos_as_xyz
  1  'x, y, z'
loop_
 _atom_site_type_symbol
 _atom_site_label
 _atom_site_symmetry_multiplicity
 _atom_site_fract_x
 _atom_site_fract_y
 _atom_site_fract_z
 _atom_site_occupancy
  Ba  Ba0  1  0.33333300  0.66666700  0.00044700  1
  Ba  Ba1  1  0.66666700  0.33333300  0.66477000  1
  Ba  Ba2  1  0.00000000  0.00000000  0.33472200  1
  Mg  Mg3  1  0.33333300  0.66666700  0.49853700  1
  Ta  Ta4  1  0.66666700  0.33333300  0.17653700  1
  Nb  Nb5  1  0.00000000  0.00000000  0.82223000  1
  O  O6  1  0.99017300  0.49508600  0.32442800  1
  O  O7  1  0.50491400  0.49508600  0.32442800  1
  O  O8  1  0.50491400  0.00982700  0.32442800  1
  O  O9  1  0.67527300  0.83763600  0.67542500  1
  O  O10  1  0.16236400  0.83763600  0.67542500  1
  O  O11  1  0.16236400  0.32472700  0.67542500  1
  O  O12  1  0.83219600  0.16780400  0.00106500  1
  O  O13  1  0.83219600  0.66439100  0.00106500  1
  O  O14  1  0.33560900  0.16780400  0.00106500  1
