# generated using pymatgen
data_Y2Co14B
_symmetry_space_group_name_H-M   'P 1'
_cell_length_a   8.58090500
_cell_length_b   8.58090500
_cell_length_c   11.66419000
_cell_angle_alpha   90.00000000
_cell_angle_beta   90.00000000
_cell_angle_gamma   90.00000000
_symmetry_Int_Tables_number   1
_chemical_formula_structural   Y2Co14B
_chemical_formula_sum   'Y8 Co56 B4'
_cell_volume   858.85682881
_cell_formula_units_Z   4
loop_
 _symmetry_equiv_pos_site_id
 _symmetry_equiv_pos_as_xyz
  1  'x, y, z'
loop_
 _atom_site_type_symbol
 _atom_site_label
 _atom_site_symmetry_multiplicity
 _atom_site_fract_x
 _atom_site_fract_y
 _atom_site_fract_z
 _atom_site_occupancy
  Y  Y0  1  0.22490800  0.77509200  0.50000000  1
  Y  Y1  1  0.77509200  0.22490800  0.50000000  1
  Y  Y2  1  0.27509200  0.27509200  0.00000000  1
  Y  Y3  1  0.72490800  0.72490800  0.00000000  1
  Y  Y4  1  0.64478300  0.64478300  0.50000000  1
  Y  Y5  1  0.35521700  0.35521700  0.50000000  1
  Y  Y6  1  0.85521700  0.14478300  0.00000000  1
  Y  Y7  1  0.14478300  0.85521700  0.00000000  1
  Co  Co8  1  0.00000000  0.50000000  0.50000000  1
  Co  Co9  1  0.50000000  0.00000000  0.00000000  1
  Co  Co10  1  0.50000000  0.00000000  0.50000000  1
  Co  Co11  1  0.00000000  0.50000000  0.00000000  1
  Co  Co12  1  0.50000000  0.50000000  0.11633000  1
  Co  Co13  1  0.00000000  0.00000000  0.61633000  1
  Co  Co14  1  0.50000000  0.50000000  0.88367000  1
  Co  Co15  1  0.00000000  0.00000000  0.38367000  1
  Co  Co16  1  0.18196500  0.81803500  0.25387200  1
  Co  Co17  1  0.81803500  0.18196500  0.25387200  1
  Co  Co18  1  0.31803500  0.31803500  0.75387200  1
  Co  Co19  1  0.68196500  0.68196500  0.75387200  1
  Co  Co20  1  0.81803500  0.18196500  0.74612800  1
  Co  Co21  1  0.18196500  0.81803500  0.74612800  1
  Co  Co22  1  0.68196500  0.68196500  0.24612800  1
  Co  Co23  1  0.31803500  0.31803500  0.24612800  1
  Co  Co24  1  0.40167500  0.59832500  0.29761700  1
  Co  Co25  1  0.59832500  0.40167500  0.29761700  1
  Co  Co26  1  0.09832500  0.09832500  0.79761700  1
  Co  Co27  1  0.90167500  0.90167500  0.79761700  1
  Co  Co28  1  0.59832500  0.40167500  0.70238300  1
  Co  Co29  1  0.40167500  0.59832500  0.70238300  1
  Co  Co30  1  0.90167500  0.90167500  0.20238300  1
  Co  Co31  1  0.09832500  0.09832500  0.20238300  1
  Co  Co32  1  0.14077000  0.53701100  0.32252900  1
  Co  Co33  1  0.85923000  0.46298900  0.32252900  1
  Co  Co34  1  0.35923000  0.03701100  0.82252900  1
  Co  Co35  1  0.64077000  0.96298900  0.82252900  1
  Co  Co36  1  0.85923000  0.46298900  0.67747100  1
  Co  Co37  1  0.14077000  0.53701100  0.67747100  1
  Co  Co38  1  0.64077000  0.96298900  0.17747100  1
  Co  Co39  1  0.35923000  0.03701100  0.17747100  1
  Co  Co40  1  0.53701100  0.14077000  0.32252900  1
  Co  Co41  1  0.46298900  0.85923000  0.32252900  1
  Co  Co42  1  0.03701100  0.35923000  0.82252900  1
  Co  Co43  1  0.96298900  0.64077000  0.82252900  1
  Co  Co44  1  0.46298900  0.85923000  0.67747100  1
  Co  Co45  1  0.53701100  0.14077000  0.67747100  1
  Co  Co46  1  0.96298900  0.64077000  0.17747100  1
  Co  Co47  1  0.03701100  0.35923000  0.17747100  1
  Co  Co48  1  0.93114100  0.72390900  0.37403800  1
  Co  Co49  1  0.06885900  0.27609100  0.37403800  1
  Co  Co50  1  0.56885900  0.22390900  0.87403800  1
  Co  Co51  1  0.43114100  0.77609100  0.87403800  1
  Co  Co52  1  0.06885900  0.27609100  0.62596200  1
  Co  Co53  1  0.93114100  0.72390900  0.62596200  1
  Co  Co54  1  0.43114100  0.77609100  0.12596200  1
  Co  Co55  1  0.56885900  0.22390900  0.12596200  1
  Co  Co56  1  0.72390900  0.93114100  0.37403800  1
  Co  Co57  1  0.27609100  0.06885900  0.37403800  1
  Co  Co58  1  0.22390900  0.56885900  0.87403800  1
  Co  Co59  1  0.77609100  0.43114100  0.87403800  1
  Co  Co60  1  0.27609100  0.06885900  0.62596200  1
  Co  Co61  1  0.72390900  0.93114100  0.62596200  1
  Co  Co62  1  0.77609100  0.43114100  0.12596200  1
  Co  Co63  1  0.22390900  0.56885900  0.12596200  1
  B  B64  1  0.87680500  0.87680500  0.50000000  1
  B  B65  1  0.12319500  0.12319500  0.50000000  1
  B  B66  1  0.62319500  0.37680500  0.00000000  1
  B  B67  1  0.37680500  0.62319500  0.00000000  1
