# generated using pymatgen
data_Ta2Al
_symmetry_space_group_name_H-M   'P 1'
_cell_length_a   9.93823300
_cell_length_b   9.93823300
_cell_length_c   5.22514900
_cell_angle_alpha   90.00000000
_cell_angle_beta   90.00000000
_cell_angle_gamma   90.00000000
_symmetry_Int_Tables_number   1
_chemical_formula_structural   Ta2Al
_chemical_formula_sum   'Ta20 Al10'
_cell_volume   516.07999923
_cell_formula_units_Z   10
loop_
 _symmetry_equiv_pos_site_id
 _symmetry_equiv_pos_as_xyz
  1  'x, y, z'
loop_
 _atom_site_type_symbol
 _atom_site_label
 _atom_site_symmetry_multiplicity
 _atom_site_fract_x
 _atom_site_fract_y
 _atom_site_fract_z
 _atom_site_occupancy
  Ta  Ta0  1  0.89814300  0.10185700  0.50000000  1
  Ta  Ta1  1  0.10185700  0.89814300  0.50000000  1
  Ta  Ta2  1  0.39814300  0.39814300  0.00000000  1
  Ta  Ta3  1  0.60185700  0.60185700  0.00000000  1
  Ta  Ta4  1  0.96547500  0.37027000  0.50000000  1
  Ta  Ta5  1  0.03452500  0.62973000  0.50000000  1
  Ta  Ta6  1  0.46547500  0.12973000  0.00000000  1
  Ta  Ta7  1  0.53452500  0.87027000  0.00000000  1
  Ta  Ta8  1  0.37027000  0.96547500  0.50000000  1
  Ta  Ta9  1  0.62973000  0.03452500  0.50000000  1
  Ta  Ta10  1  0.12973000  0.46547500  0.00000000  1
  Ta  Ta11  1  0.87027000  0.53452500  0.00000000  1
  Ta  Ta12  1  0.68249400  0.31750600  0.24811800  1
  Ta  Ta13  1  0.31750600  0.68249400  0.24811800  1
  Ta  Ta14  1  0.18249400  0.18249400  0.74811800  1
  Ta  Ta15  1  0.81750600  0.81750600  0.74811800  1
  Ta  Ta16  1  0.31750600  0.68249400  0.75188200  1
  Ta  Ta17  1  0.68249400  0.31750600  0.75188200  1
  Ta  Ta18  1  0.81750600  0.81750600  0.25188200  1
  Ta  Ta19  1  0.18249400  0.18249400  0.25188200  1
  Al  Al20  1  0.50000000  0.50000000  0.50000000  1
  Al  Al21  1  0.00000000  0.00000000  0.00000000  1
  Al  Al22  1  0.23754100  0.43460400  0.50000000  1
  Al  Al23  1  0.76245900  0.56539600  0.50000000  1
  Al  Al24  1  0.73754100  0.06539600  0.00000000  1
  Al  Al25  1  0.26245900  0.93460400  0.00000000  1
  Al  Al26  1  0.43460400  0.23754100  0.50000000  1
  Al  Al27  1  0.56539600  0.76245900  0.50000000  1
  Al  Al28  1  0.06539600  0.73754100  0.00000000  1
  Al  Al29  1  0.93460400  0.26245900  0.00000000  1
