# generated using pymatgen
data_Tb3B7Mo
_symmetry_space_group_name_H-M   'P 1'
_cell_length_a   8.22607627
_cell_length_b   8.22607627
_cell_length_c   9.50704600
_cell_angle_alpha   90.00000000
_cell_angle_beta   90.00000000
_cell_angle_gamma   155.47292526
_symmetry_Int_Tables_number   1
_chemical_formula_structural   Tb3B7Mo
_chemical_formula_sum   'Tb6 B14 Mo2'
_cell_volume   267.05951513
_cell_formula_units_Z   2
loop_
 _symmetry_equiv_pos_site_id
 _symmetry_equiv_pos_as_xyz
  1  'x, y, z'
loop_
 _atom_site_type_symbol
 _atom_site_label
 _atom_site_symmetry_multiplicity
 _atom_site_fract_x
 _atom_site_fract_y
 _atom_site_fract_z
 _atom_site_occupancy
  Tb  Tb0  1  0.25707400  0.74292600  0.25000000  1
  Tb  Tb1  1  0.74292600  0.25707400  0.75000000  1
  Tb  Tb2  1  0.60641200  0.39358800  0.06023400  1
  Tb  Tb3  1  0.39358800  0.60641200  0.93976600  1
  Tb  Tb4  1  0.39358800  0.60641200  0.56023400  1
  Tb  Tb5  1  0.60641200  0.39358800  0.43976600  1
  B  B6  1  0.98005500  0.01994500  0.09253400  1
  B  B7  1  0.01994500  0.98005500  0.90746600  1
  B  B8  1  0.01994500  0.98005500  0.59253400  1
  B  B9  1  0.98005500  0.01994500  0.40746600  1
  B  B10  1  0.77290400  0.22709600  0.03248100  1
  B  B11  1  0.22709600  0.77290400  0.96751900  1
  B  B12  1  0.22709600  0.77290400  0.53248100  1
  B  B13  1  0.77290400  0.22709600  0.46751900  1
  B  B14  1  0.86569900  0.13430100  0.14749900  1
  B  B15  1  0.13430100  0.86569900  0.85250100  1
  B  B16  1  0.13430100  0.86569900  0.64749900  1
  B  B17  1  0.86569900  0.13430100  0.35250100  1
  B  B18  1  0.04267700  0.95732300  0.25000000  1
  B  B19  1  0.95732300  0.04267700  0.75000000  1
  Mo  Mo20  1  0.44657700  0.55342300  0.25000000  1
  Mo  Mo21  1  0.55342300  0.44657700  0.75000000  1
