# generated using pymatgen
data_Li6CoO4
_symmetry_space_group_name_H-M   'P 1'
_cell_length_a   8.09632763
_cell_length_b   8.09632763
_cell_length_c   8.09632763
_cell_angle_alpha   109.06020019
_cell_angle_beta   109.67712095
_cell_angle_gamma   109.67712095
_symmetry_Int_Tables_number   1
_chemical_formula_structural   Li6CoO4
_chemical_formula_sum   'Li24 Co4 O16'
_cell_volume   408.53153297
_cell_formula_units_Z   4
loop_
 _symmetry_equiv_pos_site_id
 _symmetry_equiv_pos_as_xyz
  1  'x, y, z'
loop_
 _atom_site_type_symbol
 _atom_site_label
 _atom_site_symmetry_multiplicity
 _atom_site_fract_x
 _atom_site_fract_y
 _atom_site_fract_z
 _atom_site_occupancy
  Li  Li0  1  0.75000000  0.10062800  0.35062800  1
  Li  Li1  1  0.75000000  0.60062800  0.85062800  1
  Li  Li2  1  0.75000000  0.85062800  0.10062800  1
  Li  Li3  1  0.75000000  0.35062800  0.60062800  1
  Li  Li4  1  0.25000000  0.39937200  0.14937200  1
  Li  Li5  1  0.25000000  0.89937200  0.64937200  1
  Li  Li6  1  0.25000000  0.64937200  0.39937200  1
  Li  Li7  1  0.25000000  0.14937200  0.89937200  1
  Li  Li8  1  0.53223700  0.40723700  0.37500000  1
  Li  Li9  1  0.53223700  0.90723700  0.87500000  1
  Li  Li10  1  0.03223700  0.87500000  0.90723700  1
  Li  Li11  1  0.03223700  0.37500000  0.40723700  1
  Li  Li12  1  0.46776300  0.09276300  0.12500000  1
  Li  Li13  1  0.46776300  0.59276300  0.62500000  1
  Li  Li14  1  0.53223700  0.62500000  0.15723700  1
  Li  Li15  1  0.53223700  0.12500000  0.65723700  1
  Li  Li16  1  0.46776300  0.87500000  0.34276300  1
  Li  Li17  1  0.46776300  0.37500000  0.84276300  1
  Li  Li18  1  0.96776300  0.84276300  0.37500000  1
  Li  Li19  1  0.96776300  0.34276300  0.87500000  1
  Li  Li20  1  0.03223700  0.65723700  0.12500000  1
  Li  Li21  1  0.03223700  0.15723700  0.62500000  1
  Li  Li22  1  0.96776300  0.62500000  0.59276300  1
  Li  Li23  1  0.96776300  0.12500000  0.09276300  1
  Co  Co24  1  0.25000000  0.62500000  0.87500000  1
  Co  Co25  1  0.75000000  0.87500000  0.62500000  1
  Co  Co26  1  0.25000000  0.12500000  0.37500000  1
  Co  Co27  1  0.75000000  0.37500000  0.12500000  1
  O  O28  1  0.75000000  0.35007700  0.36339300  1
  O  O29  1  0.75000000  0.85007700  0.86339300  1
  O  O30  1  0.48668500  0.63660700  0.38660700  1
  O  O31  1  0.48668500  0.13660700  0.88660700  1
  O  O32  1  0.25000000  0.38660700  0.89992300  1
  O  O33  1  0.25000000  0.88660700  0.39992300  1
  O  O34  1  0.01331500  0.39992300  0.14992300  1
  O  O35  1  0.01331500  0.89992300  0.64992300  1
  O  O36  1  0.98668500  0.10007700  0.35007700  1
  O  O37  1  0.98668500  0.60007700  0.85007700  1
  O  O38  1  0.75000000  0.11339300  0.60007700  1
  O  O39  1  0.75000000  0.61339300  0.10007700  1
  O  O40  1  0.25000000  0.14992300  0.13660700  1
  O  O41  1  0.25000000  0.64992300  0.63660700  1
  O  O42  1  0.51331500  0.86339300  0.11339300  1
  O  O43  1  0.51331500  0.36339300  0.61339300  1
