# generated using pymatgen
data_LiHfS2
_symmetry_space_group_name_H-M   'P 1'
_cell_length_a   6.85543619
_cell_length_b   6.85543619
_cell_length_c   6.85543697
_cell_angle_alpha   29.98034945
_cell_angle_beta   29.98034945
_cell_angle_gamma   29.98035144
_symmetry_Int_Tables_number   1
_chemical_formula_structural   LiHfS2
_chemical_formula_sum   'Li1 Hf1 S2'
_cell_volume   71.25959723
_cell_formula_units_Z   1
loop_
 _symmetry_equiv_pos_site_id
 _symmetry_equiv_pos_as_xyz
  1  'x, y, z'
loop_
 _atom_site_type_symbol
 _atom_site_label
 _atom_site_symmetry_multiplicity
 _atom_site_fract_x
 _atom_site_fract_y
 _atom_site_fract_z
 _atom_site_occupancy
  Li  Li0  1  0.83258900  0.83258900  0.83258900  1
  Hf  Hf1  1  0.00219300  0.00219300  0.00219300  1
  S  S2  1  0.58962200  0.58962200  0.58962200  1
  S  S3  1  0.41559600  0.41559600  0.41559600  1
