# generated using pymatgen
data_CoPW
_symmetry_space_group_name_H-M   'P 1'
_cell_length_a   3.75231400
_cell_length_b   5.78797500
_cell_length_c   6.72936800
_cell_angle_alpha   90.00000000
_cell_angle_beta   90.00000000
_cell_angle_gamma   90.00000000
_symmetry_Int_Tables_number   1
_chemical_formula_structural   CoPW
_chemical_formula_sum   'Co4 P4 W4'
_cell_volume   146.15043051
_cell_formula_units_Z   4
loop_
 _symmetry_equiv_pos_site_id
 _symmetry_equiv_pos_as_xyz
  1  'x, y, z'
loop_
 _atom_site_type_symbol
 _atom_site_label
 _atom_site_symmetry_multiplicity
 _atom_site_fract_x
 _atom_site_fract_y
 _atom_site_fract_z
 _atom_site_occupancy
  Co  Co0  1  0.25000000  0.85980400  0.93083000  1
  Co  Co1  1  0.25000000  0.35980400  0.56917000  1
  Co  Co2  1  0.75000000  0.14019600  0.06917000  1
  Co  Co3  1  0.75000000  0.64019600  0.43083000  1
  P  P4  1  0.25000000  0.23273700  0.87884800  1
  P  P5  1  0.25000000  0.73273700  0.62115200  1
  P  P6  1  0.75000000  0.76726300  0.12115200  1
  P  P7  1  0.75000000  0.26726300  0.37884800  1
  W  W8  1  0.25000000  0.96743300  0.33145200  1
  W  W9  1  0.25000000  0.46743300  0.16854800  1
  W  W10  1  0.75000000  0.03256700  0.66854800  1
  W  W11  1  0.75000000  0.53256700  0.83145200  1
