# generated using pymatgen
data_Nd11Cd45
_symmetry_space_group_name_H-M   'P 1'
_cell_length_a   15.61385535
_cell_length_b   15.61385535
_cell_length_c   15.61385535
_cell_angle_alpha   60.00000000
_cell_angle_beta   60.00000000
_cell_angle_gamma   60.00000000
_symmetry_Int_Tables_number   1
_chemical_formula_structural   Nd11Cd45
_chemical_formula_sum   'Nd22 Cd90'
_cell_volume   2691.63060212
_cell_formula_units_Z   2
loop_
 _symmetry_equiv_pos_site_id
 _symmetry_equiv_pos_as_xyz
  1  'x, y, z'
loop_
 _atom_site_type_symbol
 _atom_site_label
 _atom_site_symmetry_multiplicity
 _atom_site_fract_x
 _atom_site_fract_y
 _atom_site_fract_z
 _atom_site_occupancy
  Nd  Nd0  1  0.00000000  0.00000000  0.00000000  1
  Nd  Nd1  1  0.01308000  0.33229400  0.64154500  1
  Nd  Nd2  1  0.01308000  0.01308000  0.64154500  1
  Nd  Nd3  1  0.33229400  0.01308000  0.64154500  1
  Nd  Nd4  1  0.01308000  0.64154500  0.33229400  1
  Nd  Nd5  1  0.33229400  0.64154500  0.01308000  1
  Nd  Nd6  1  0.01308000  0.64154500  0.01308000  1
  Nd  Nd7  1  0.64154500  0.01308000  0.01308000  1
  Nd  Nd8  1  0.64154500  0.33229400  0.01308000  1
  Nd  Nd9  1  0.64154500  0.01308000  0.33229400  1
  Nd  Nd10  1  0.33229400  0.01308000  0.01308000  1
  Nd  Nd11  1  0.01308000  0.01308000  0.33229400  1
  Nd  Nd12  1  0.01308000  0.33229400  0.01308000  1
  Nd  Nd13  1  0.25000000  0.25000000  0.25000000  1
  Nd  Nd14  1  0.40661400  0.40661400  0.78015900  1
  Nd  Nd15  1  0.40661400  0.78015900  0.40661400  1
  Nd  Nd16  1  0.78015900  0.40661400  0.40661400  1
  Nd  Nd17  1  0.40661400  0.40661400  0.40661400  1
  Nd  Nd18  1  0.66350200  0.66350200  0.00949300  1
  Nd  Nd19  1  0.66350200  0.00949300  0.66350200  1
  Nd  Nd20  1  0.00949300  0.66350200  0.66350200  1
  Nd  Nd21  1  0.66350200  0.66350200  0.66350200  1
  Cd  Cd22  1  0.08323900  0.08323900  0.75028200  1
  Cd  Cd23  1  0.08323900  0.75028200  0.08323900  1
  Cd  Cd24  1  0.75028200  0.08323900  0.08323900  1
  Cd  Cd25  1  0.08323900  0.08323900  0.08323900  1
  Cd  Cd26  1  0.91325400  0.91325400  0.26023700  1
  Cd  Cd27  1  0.91325400  0.26023700  0.91325400  1
  Cd  Cd28  1  0.26023700  0.91325400  0.91325400  1
  Cd  Cd29  1  0.91325400  0.91325400  0.91325400  1
  Cd  Cd30  1  0.15682900  0.15682900  0.84317100  1
  Cd  Cd31  1  0.84317100  0.15682900  0.84317100  1
  Cd  Cd32  1  0.15682900  0.84317100  0.84317100  1
  Cd  Cd33  1  0.84317100  0.84317100  0.15682900  1
  Cd  Cd34  1  0.15682900  0.84317100  0.15682900  1
  Cd  Cd35  1  0.84317100  0.15682900  0.15682900  1
  Cd  Cd36  1  0.39088100  0.20065900  0.01757800  1
  Cd  Cd37  1  0.39088100  0.39088100  0.01757800  1
  Cd  Cd38  1  0.20065900  0.39088100  0.01757800  1
  Cd  Cd39  1  0.39088100  0.01757800  0.20065900  1
  Cd  Cd40  1  0.20065900  0.01757800  0.39088100  1
  Cd  Cd41  1  0.39088100  0.01757800  0.39088100  1
  Cd  Cd42  1  0.01757800  0.39088100  0.39088100  1
  Cd  Cd43  1  0.01757800  0.20065900  0.39088100  1
  Cd  Cd44  1  0.01757800  0.39088100  0.20065900  1
  Cd  Cd45  1  0.20065900  0.39088100  0.39088100  1
  Cd  Cd46  1  0.39088100  0.39088100  0.20065900  1
  Cd  Cd47  1  0.39088100  0.20065900  0.39088100  1
  Cd  Cd48  1  0.16311400  0.16311400  0.51065800  1
  Cd  Cd49  1  0.16311400  0.51065800  0.16311400  1
  Cd  Cd50  1  0.51065800  0.16311400  0.16311400  1
  Cd  Cd51  1  0.16311400  0.16311400  0.16311400  1
  Cd  Cd52  1  0.26338900  0.61229800  0.86092300  1
  Cd  Cd53  1  0.26338900  0.26338900  0.86092300  1
  Cd  Cd54  1  0.61229800  0.26338900  0.86092300  1
  Cd  Cd55  1  0.26338900  0.86092300  0.61229800  1
  Cd  Cd56  1  0.61229800  0.86092300  0.26338900  1
  Cd  Cd57  1  0.26338900  0.86092300  0.26338900  1
  Cd  Cd58  1  0.86092300  0.26338900  0.26338900  1
  Cd  Cd59  1  0.86092300  0.61229800  0.26338900  1
  Cd  Cd60  1  0.86092300  0.26338900  0.61229800  1
  Cd  Cd61  1  0.61229800  0.26338900  0.26338900  1
  Cd  Cd62  1  0.26338900  0.26338900  0.61229800  1
  Cd  Cd63  1  0.26338900  0.61229800  0.26338900  1
  Cd  Cd64  1  0.50000000  0.50000000  0.50000000  1
  Cd  Cd65  1  0.64098400  0.45027800  0.26775400  1
  Cd  Cd66  1  0.64098400  0.64098400  0.26775400  1
  Cd  Cd67  1  0.45027800  0.64098400  0.26775400  1
  Cd  Cd68  1  0.64098400  0.26775400  0.45027800  1
  Cd  Cd69  1  0.45027800  0.26775400  0.64098400  1
  Cd  Cd70  1  0.64098400  0.26775400  0.64098400  1
  Cd  Cd71  1  0.26775400  0.64098400  0.64098400  1
  Cd  Cd72  1  0.26775400  0.45027800  0.64098400  1
  Cd  Cd73  1  0.26775400  0.64098400  0.45027800  1
  Cd  Cd74  1  0.45027800  0.64098400  0.64098400  1
  Cd  Cd75  1  0.64098400  0.64098400  0.45027800  1
  Cd  Cd76  1  0.64098400  0.45027800  0.64098400  1
  Cd  Cd77  1  0.51265900  0.83307000  0.14161100  1
  Cd  Cd78  1  0.51265900  0.51265900  0.14161100  1
  Cd  Cd79  1  0.83307000  0.51265900  0.14161100  1
  Cd  Cd80  1  0.51265900  0.14161100  0.83307000  1
  Cd  Cd81  1  0.83307000  0.14161100  0.51265900  1
  Cd  Cd82  1  0.51265900  0.14161100  0.51265900  1
  Cd  Cd83  1  0.14161100  0.51265900  0.51265900  1
  Cd  Cd84  1  0.14161100  0.83307000  0.51265900  1
  Cd  Cd85  1  0.14161100  0.51265900  0.83307000  1
  Cd  Cd86  1  0.83307000  0.51265900  0.51265900  1
  Cd  Cd87  1  0.51265900  0.51265900  0.83307000  1
  Cd  Cd88  1  0.51265900  0.83307000  0.51265900  1
  Cd  Cd89  1  0.75000000  0.75000000  0.75000000  1
  Cd  Cd90  1  0.83009400  0.83009400  0.50971800  1
  Cd  Cd91  1  0.83009400  0.50971800  0.83009400  1
  Cd  Cd92  1  0.50971800  0.83009400  0.83009400  1
  Cd  Cd93  1  0.83009400  0.83009400  0.83009400  1
  Cd  Cd94  1  0.91307800  0.91307800  0.58692200  1
  Cd  Cd95  1  0.58692200  0.91307800  0.58692200  1
  Cd  Cd96  1  0.91307800  0.58692200  0.58692200  1
  Cd  Cd97  1  0.58692200  0.58692200  0.91307800  1
  Cd  Cd98  1  0.91307800  0.58692200  0.91307800  1
  Cd  Cd99  1  0.58692200  0.91307800  0.91307800  1
  Cd  Cd100  1  0.76345000  0.06915600  0.40394500  1
  Cd  Cd101  1  0.76345000  0.76345000  0.40394500  1
  Cd  Cd102  1  0.06915600  0.76345000  0.40394500  1
  Cd  Cd103  1  0.76345000  0.40394500  0.06915600  1
  Cd  Cd104  1  0.06915600  0.40394500  0.76345000  1
  Cd  Cd105  1  0.76345000  0.40394500  0.76345000  1
  Cd  Cd106  1  0.40394500  0.76345000  0.76345000  1
  Cd  Cd107  1  0.40394500  0.06915600  0.76345000  1
  Cd  Cd108  1  0.40394500  0.76345000  0.06915600  1
  Cd  Cd109  1  0.06915600  0.76345000  0.76345000  1
  Cd  Cd110  1  0.76345000  0.76345000  0.06915600  1
  Cd  Cd111  1  0.76345000  0.06915600  0.76345000  1
