# generated using pymatgen
data_Ho2Si3Rh
_symmetry_space_group_name_H-M   'P 1'
_cell_length_a   8.16057453
_cell_length_b   8.16057453
_cell_length_c   7.85895100
_cell_angle_alpha   90.00000000
_cell_angle_beta   90.00000000
_cell_angle_gamma   120.00000426
_symmetry_Int_Tables_number   1
_chemical_formula_structural   Ho2Si3Rh
_chemical_formula_sum   'Ho8 Si12 Rh4'
_cell_volume   453.24880171
_cell_formula_units_Z   4
loop_
 _symmetry_equiv_pos_site_id
 _symmetry_equiv_pos_as_xyz
  1  'x, y, z'
loop_
 _atom_site_type_symbol
 _atom_site_label
 _atom_site_symmetry_multiplicity
 _atom_site_fract_x
 _atom_site_fract_y
 _atom_site_fract_z
 _atom_site_occupancy
  Ho  Ho0  1  0.00000000  0.00000000  0.25000000  1
  Ho  Ho1  1  0.00000000  0.00000000  0.75000000  1
  Ho  Ho2  1  0.50896000  0.49104000  0.25000000  1
  Ho  Ho3  1  0.50896000  0.01792000  0.25000000  1
  Ho  Ho4  1  0.98208000  0.49104000  0.25000000  1
  Ho  Ho5  1  0.49104000  0.50896000  0.75000000  1
  Ho  Ho6  1  0.49104000  0.98208000  0.75000000  1
  Ho  Ho7  1  0.01792000  0.50896000  0.75000000  1
  Si  Si8  1  0.16683800  0.83316200  0.49932100  1
  Si  Si9  1  0.16683800  0.33367500  0.49932100  1
  Si  Si10  1  0.66632500  0.83316200  0.49932100  1
  Si  Si11  1  0.83316200  0.16683800  0.50067900  1
  Si  Si12  1  0.83316200  0.66632500  0.50067900  1
  Si  Si13  1  0.33367500  0.16683800  0.50067900  1
  Si  Si14  1  0.83316200  0.16683800  0.99932100  1
  Si  Si15  1  0.83316200  0.66632500  0.99932100  1
  Si  Si16  1  0.33367500  0.16683800  0.99932100  1
  Si  Si17  1  0.16683800  0.83316200  0.00067900  1
  Si  Si18  1  0.16683800  0.33367500  0.00067900  1
  Si  Si19  1  0.66632500  0.83316200  0.00067900  1
  Rh  Rh20  1  0.33333300  0.66666700  0.46668000  1
  Rh  Rh21  1  0.66666700  0.33333300  0.53332000  1
  Rh  Rh22  1  0.66666700  0.33333300  0.96668000  1
  Rh  Rh23  1  0.33333300  0.66666700  0.03332000  1
