# generated using pymatgen
data_K3AlSe3
_symmetry_space_group_name_H-M   'P 1'
_cell_length_a   13.31312800
_cell_length_b   8.19607200
_cell_length_c   10.57082373
_cell_angle_alpha   52.17791156
_cell_angle_beta   90.00000000
_cell_angle_gamma   90.00000000
_symmetry_Int_Tables_number   1
_chemical_formula_structural   K3AlSe3
_chemical_formula_sum   'K12 Al4 Se12'
_cell_volume   911.12314903
_cell_formula_units_Z   4
loop_
 _symmetry_equiv_pos_site_id
 _symmetry_equiv_pos_as_xyz
  1  'x, y, z'
loop_
 _atom_site_type_symbol
 _atom_site_label
 _atom_site_symmetry_multiplicity
 _atom_site_fract_x
 _atom_site_fract_y
 _atom_site_fract_z
 _atom_site_occupancy
  K  K0  1  0.31180400  0.15107000  0.07463100  1
  K  K1  1  0.68819600  0.84893000  0.92536900  1
  K  K2  1  0.81180400  0.84893000  0.42536900  1
  K  K3  1  0.89785400  0.32169700  0.39856900  1
  K  K4  1  0.61930200  0.37739500  0.47045500  1
  K  K5  1  0.11930200  0.62260500  0.02954500  1
  K  K6  1  0.38069800  0.62260500  0.52954500  1
  K  K7  1  0.88069800  0.37739500  0.97045500  1
  K  K8  1  0.60214600  0.32169700  0.89856900  1
  K  K9  1  0.10214600  0.67830300  0.60143100  1
  K  K10  1  0.39785400  0.67830300  0.10143100  1
  K  K11  1  0.18819600  0.15107000  0.57463100  1
  Al  Al12  1  0.06227600  0.94287800  0.15804100  1
  Al  Al13  1  0.56227600  0.05712200  0.34195900  1
  Al  Al14  1  0.43772400  0.94287800  0.65804100  1
  Al  Al15  1  0.93772400  0.05712200  0.84195900  1
  Se  Se16  1  0.39867800  0.17245000  0.36811100  1
  Se  Se17  1  0.89867800  0.82755000  0.13188900  1
  Se  Se18  1  0.60132200  0.82755000  0.63188900  1
  Se  Se19  1  0.10132200  0.17245000  0.86811100  1
  Se  Se20  1  0.68598900  0.32533700  0.19876500  1
  Se  Se21  1  0.18598900  0.67466300  0.30123500  1
  Se  Se22  1  0.31401100  0.67466300  0.80123500  1
  Se  Se23  1  0.81401100  0.32533700  0.69876500  1
  Se  Se24  1  0.54661900  0.87064900  0.23763900  1
  Se  Se25  1  0.04661900  0.12935100  0.26236100  1
  Se  Se26  1  0.45338100  0.12935100  0.76236100  1
  Se  Se27  1  0.95338100  0.87064900  0.73763900  1
