# generated using pymatgen
data_SrC6
_symmetry_space_group_name_H-M   'P 1'
_cell_length_a   4.33364864
_cell_length_b   4.33364864
_cell_length_c   9.97073700
_cell_angle_alpha   90.00000000
_cell_angle_beta   90.00000000
_cell_angle_gamma   120.00000980
_symmetry_Int_Tables_number   1
_chemical_formula_structural   SrC6
_chemical_formula_sum   'Sr2 C12'
_cell_volume   162.16803120
_cell_formula_units_Z   2
loop_
 _symmetry_equiv_pos_site_id
 _symmetry_equiv_pos_as_xyz
  1  'x, y, z'
loop_
 _atom_site_type_symbol
 _atom_site_label
 _atom_site_symmetry_multiplicity
 _atom_site_fract_x
 _atom_site_fract_y
 _atom_site_fract_z
 _atom_site_occupancy
  Sr  Sr0  1  0.33333300  0.66666700  0.25000000  1
  Sr  Sr1  1  0.66666700  0.33333300  0.75000000  1
  C  C2  1  0.33369100  0.00000000  0.00000000  1
  C  C3  1  0.66630900  0.00000000  0.00000000  1
  C  C4  1  0.00000000  0.33369100  0.00000000  1
  C  C5  1  0.66630900  0.00000000  0.50000000  1
  C  C6  1  0.00000000  0.66630900  0.00000000  1
  C  C7  1  0.33369100  0.00000000  0.50000000  1
  C  C8  1  0.66630900  0.66630900  0.00000000  1
  C  C9  1  0.00000000  0.66630900  0.50000000  1
  C  C10  1  0.33369100  0.33369100  0.00000000  1
  C  C11  1  0.00000000  0.33369100  0.50000000  1
  C  C12  1  0.33369100  0.33369100  0.50000000  1
  C  C13  1  0.66630900  0.66630900  0.50000000  1
