# generated using pymatgen
data_VPb2Se3O10
_symmetry_space_group_name_H-M   'P 1'
_cell_length_a   16.33586300
_cell_length_b   5.29279600
_cell_length_c   12.60395598
_cell_angle_alpha   65.63949336
_cell_angle_beta   90.00000000
_cell_angle_gamma   90.00000000
_symmetry_Int_Tables_number   1
_chemical_formula_structural   VPb2Se3O10
_chemical_formula_sum   'V4 Pb8 Se12 O40'
_cell_volume   992.74413283
_cell_formula_units_Z   4
loop_
 _symmetry_equiv_pos_site_id
 _symmetry_equiv_pos_as_xyz
  1  'x, y, z'
loop_
 _atom_site_type_symbol
 _atom_site_label
 _atom_site_symmetry_multiplicity
 _atom_site_fract_x
 _atom_site_fract_y
 _atom_site_fract_z
 _atom_site_occupancy
  V  V0  1  0.80735800  0.18174500  0.05964600  1
  V  V1  1  0.69264200  0.18174500  0.55964600  1
  V  V2  1  0.19264200  0.81825500  0.94035400  1
  V  V3  1  0.30735800  0.81825500  0.44035400  1
  Pb  Pb4  1  0.58614200  0.20294900  0.06638800  1
  Pb  Pb5  1  0.91385800  0.20294900  0.56638800  1
  Pb  Pb6  1  0.41385800  0.79705100  0.93361200  1
  Pb  Pb7  1  0.08614200  0.79705100  0.43361200  1
  Pb  Pb8  1  0.50953100  0.56373900  0.68331100  1
  Pb  Pb9  1  0.99046900  0.56373900  0.18331100  1
  Pb  Pb10  1  0.49046900  0.43626100  0.31668900  1
  Pb  Pb11  1  0.00953100  0.43626100  0.81668900  1
  Se  Se12  1  0.37384400  0.09906100  0.15697700  1
  Se  Se13  1  0.12615600  0.09906100  0.65697700  1
  Se  Se14  1  0.62615600  0.90093900  0.84302300  1
  Se  Se15  1  0.87384400  0.90093900  0.34302300  1
  Se  Se16  1  0.64612500  0.81600600  0.41337400  1
  Se  Se17  1  0.85387500  0.81600600  0.91337400  1
  Se  Se18  1  0.35387500  0.18399400  0.58662600  1
  Se  Se19  1  0.14612500  0.18399400  0.08662600  1
  Se  Se20  1  0.79106000  0.53722400  0.70499900  1
  Se  Se21  1  0.70894000  0.53722400  0.20499900  1
  Se  Se22  1  0.20894000  0.46277600  0.29500100  1
  Se  Se23  1  0.29106000  0.46277600  0.79500100  1
  O  O24  1  0.57089000  0.85884400  0.31287400  1
  O  O25  1  0.92911000  0.85884400  0.81287400  1
  O  O26  1  0.42911000  0.14115600  0.68712600  1
  O  O27  1  0.07089000  0.14115600  0.18712600  1
  O  O28  1  0.44822900  0.35778500  0.09655300  1
  O  O29  1  0.05177100  0.35778500  0.59655300  1
  O  O30  1  0.55177100  0.64221500  0.90344700  1
  O  O31  1  0.94822900  0.64221500  0.40344700  1
  O  O32  1  0.75150000  0.24805100  0.19380600  1
  O  O33  1  0.74850000  0.24805100  0.69380600  1
  O  O34  1  0.24850000  0.75194900  0.80619400  1
  O  O35  1  0.25150000  0.75194900  0.30619400  1
  O  O36  1  0.61394600  0.06572500  0.46346700  1
  O  O37  1  0.88605400  0.06572500  0.96346700  1
  O  O38  1  0.38605400  0.93427500  0.53653300  1
  O  O39  1  0.11394600  0.93427500  0.03653300  1
  O  O40  1  0.38224100  0.06761800  0.29969700  1
  O  O41  1  0.11775900  0.06761800  0.79969700  1
  O  O42  1  0.61775900  0.93238200  0.70030300  1
  O  O43  1  0.88224100  0.93238200  0.20030300  1
  O  O44  1  0.57080300  0.17721100  0.84423800  1
  O  O45  1  0.92919700  0.17721100  0.34423800  1
  O  O46  1  0.42919700  0.82278900  0.15576200  1
  O  O47  1  0.07080300  0.82278900  0.65576200  1
  O  O48  1  0.73628100  0.36714900  0.96231900  1
  O  O49  1  0.76371900  0.36714900  0.46231900  1
  O  O50  1  0.26371900  0.63285100  0.03768100  1
  O  O51  1  0.23628100  0.63285100  0.53768100  1
  O  O52  1  0.61318400  0.50536100  0.52878500  1
  O  O53  1  0.88681600  0.50536100  0.02878500  1
  O  O54  1  0.38681600  0.49463900  0.47121500  1
  O  O55  1  0.11318400  0.49463900  0.97121500  1
  O  O56  1  0.60893600  0.51634100  0.16094600  1
  O  O57  1  0.89106400  0.51634100  0.66094600  1
  O  O58  1  0.39106400  0.48365900  0.83905400  1
  O  O59  1  0.10893600  0.48365900  0.33905400  1
  O  O60  1  0.75857200  0.82339600  0.58479200  1
  O  O61  1  0.74142800  0.82339600  0.08479200  1
  O  O62  1  0.24142800  0.17660400  0.41520800  1
  O  O63  1  0.25857200  0.17660400  0.91520800  1
