# generated using pymatgen
data_Rh3Se8
_symmetry_space_group_name_H-M   'P 1'
_cell_length_a   6.06034644
_cell_length_b   6.06034644
_cell_length_c   6.06034630
_cell_angle_alpha   90.88936845
_cell_angle_beta   90.88936845
_cell_angle_gamma   90.88937255
_symmetry_Int_Tables_number   1
_chemical_formula_structural   Rh3Se8
_chemical_formula_sum   'Rh3 Se8'
_cell_volume   222.50189417
_cell_formula_units_Z   1
loop_
 _symmetry_equiv_pos_site_id
 _symmetry_equiv_pos_as_xyz
  1  'x, y, z'
loop_
 _atom_site_type_symbol
 _atom_site_label
 _atom_site_symmetry_multiplicity
 _atom_site_fract_x
 _atom_site_fract_y
 _atom_site_fract_z
 _atom_site_occupancy
  Rh  Rh0  1  0.00000000  0.50000000  0.50000000  1
  Rh  Rh1  1  0.50000000  0.00000000  0.50000000  1
  Rh  Rh2  1  0.50000000  0.50000000  0.00000000  1
  Se  Se3  1  0.38347400  0.88163700  0.11245700  1
  Se  Se4  1  0.11245700  0.38347400  0.88163700  1
  Se  Se5  1  0.88163700  0.11245700  0.38347400  1
  Se  Se6  1  0.61652600  0.11836300  0.88754300  1
  Se  Se7  1  0.88754300  0.61652600  0.11836300  1
  Se  Se8  1  0.11836300  0.88754300  0.61652600  1
  Se  Se9  1  0.62123500  0.62123500  0.62123500  1
  Se  Se10  1  0.37876500  0.37876500  0.37876500  1
