# generated using pymatgen
data_K3Na2SnP3
_symmetry_space_group_name_H-M   'P 1'
_cell_length_a   10.60505973
_cell_length_b   10.60505973
_cell_length_c   15.15119100
_cell_angle_alpha   90.00000000
_cell_angle_beta   90.00000000
_cell_angle_gamma   143.09635649
_symmetry_Int_Tables_number   1
_chemical_formula_structural   K3Na2SnP3
_chemical_formula_sum   'K12 Na8 Sn4 P12'
_cell_volume   1023.21077309
_cell_formula_units_Z   4
loop_
 _symmetry_equiv_pos_site_id
 _symmetry_equiv_pos_as_xyz
  1  'x, y, z'
loop_
 _atom_site_type_symbol
 _atom_site_label
 _atom_site_symmetry_multiplicity
 _atom_site_fract_x
 _atom_site_fract_y
 _atom_site_fract_z
 _atom_site_occupancy
  K  K0  1  0.10274800  0.43670600  0.67680900  1
  K  K1  1  0.74086600  0.74086600  0.68003200  1
  K  K2  1  0.24086600  0.24086600  0.81996800  1
  K  K3  1  0.75913400  0.75913400  0.18003200  1
  K  K4  1  0.93670600  0.60274800  0.82319100  1
  K  K5  1  0.56329400  0.89725200  0.32319100  1
  K  K6  1  0.39725200  0.06329400  0.17680900  1
  K  K7  1  0.06329400  0.39725200  0.17680900  1
  K  K8  1  0.89725200  0.56329400  0.32319100  1
  K  K9  1  0.43670600  0.10274800  0.67680900  1
  K  K10  1  0.60274800  0.93670700  0.82319100  1
  K  K11  1  0.25913400  0.25913400  0.31996800  1
  Na  Na12  1  0.91917500  0.08082500  0.00000000  1
  Na  Na13  1  0.58082500  0.41917500  0.50000000  1
  Na  Na14  1  0.08082500  0.91917500  0.00000000  1
  Na  Na15  1  0.41917500  0.58082500  0.50000000  1
  Na  Na16  1  0.75519300  0.24480700  0.00000000  1
  Na  Na17  1  0.74480700  0.25519300  0.50000000  1
  Na  Na18  1  0.24480700  0.75519300  0.00000000  1
  Na  Na19  1  0.25519300  0.74480700  0.50000000  1
  Sn  Sn20  1  0.08815000  0.91185000  0.50000000  1
  Sn  Sn21  1  0.41185000  0.58815000  0.00000000  1
  Sn  Sn22  1  0.91185000  0.08815000  0.50000000  1
  Sn  Sn23  1  0.58815000  0.41185000  0.00000000  1
  P  P24  1  0.87696600  0.56148800  0.10357600  1
  P  P25  1  0.43851200  0.12303400  0.89642400  1
  P  P26  1  0.62303400  0.93851200  0.60357600  1
  P  P27  1  0.93851200  0.62303400  0.60357600  1
  P  P28  1  0.12303400  0.43851200  0.89642400  1
  P  P29  1  0.56148800  0.87696600  0.10357600  1
  P  P30  1  0.37696600  0.06148800  0.39642400  1
  P  P31  1  0.20337600  0.20337600  0.59243900  1
  P  P32  1  0.70337600  0.70337600  0.90756100  1
  P  P33  1  0.29662400  0.29662400  0.09243900  1
  P  P34  1  0.06148800  0.37696600  0.39642400  1
  P  P35  1  0.79662400  0.79662400  0.40756100  1
