# generated using pymatgen
data_RbBaMnO4
_symmetry_space_group_name_H-M   'P 1'
_cell_length_a   5.98627100
_cell_length_b   8.01923300
_cell_length_c   10.50710700
_cell_angle_alpha   90.00000000
_cell_angle_beta   90.00000000
_cell_angle_gamma   90.00000000
_symmetry_Int_Tables_number   1
_chemical_formula_structural   RbBaMnO4
_chemical_formula_sum   'Rb4 Ba4 Mn4 O16'
_cell_volume   504.39684416
_cell_formula_units_Z   4
loop_
 _symmetry_equiv_pos_site_id
 _symmetry_equiv_pos_as_xyz
  1  'x, y, z'
loop_
 _atom_site_type_symbol
 _atom_site_label
 _atom_site_symmetry_multiplicity
 _atom_site_fract_x
 _atom_site_fract_y
 _atom_site_fract_z
 _atom_site_occupancy
  Rb  Rb0  1  0.25000000  0.65542000  0.58209100  1
  Rb  Rb1  1  0.74999900  0.34458000  0.41790900  1
  Rb  Rb2  1  0.74999900  0.84458100  0.08209200  1
  Rb  Rb3  1  0.25000000  0.15542000  0.91790900  1
  Ba  Ba4  1  0.74999900  0.00218200  0.69182200  1
  Ba  Ba5  1  0.25000000  0.99781800  0.30817700  1
  Ba  Ba6  1  0.74999900  0.50218100  0.80817800  1
  Ba  Ba7  1  0.25000000  0.49781800  0.19182200  1
  Mn  Mn8  1  0.74999900  0.77149300  0.41515100  1
  Mn  Mn9  1  0.25000000  0.22850600  0.58484900  1
  Mn  Mn10  1  0.74999900  0.27149400  0.08484900  1
  Mn  Mn11  1  0.25000000  0.72850700  0.91515200  1
  O  O12  1  0.51204200  0.70866800  0.33668600  1
  O  O13  1  0.01204300  0.29133100  0.66331300  1
  O  O14  1  0.98795800  0.20866900  0.16331300  1
  O  O15  1  0.48795800  0.79133100  0.83668600  1
  O  O16  1  0.48795800  0.29133100  0.66331300  1
  O  O17  1  0.98795800  0.70866800  0.33668600  1
  O  O18  1  0.01204300  0.79133100  0.83668600  1
  O  O19  1  0.51204200  0.20866900  0.16331300  1
  O  O20  1  0.25000000  0.51492200  0.92341000  1
  O  O21  1  0.74999900  0.48507800  0.07659000  1
  O  O22  1  0.25000000  0.01492200  0.57659000  1
  O  O23  1  0.74999900  0.98507900  0.42341100  1
  O  O24  1  0.74999900  0.19493900  0.93107700  1
  O  O25  1  0.25000000  0.80506100  0.06892300  1
  O  O26  1  0.25000000  0.30506100  0.43107800  1
  O  O27  1  0.74999900  0.69493800  0.56892300  1
