# generated using pymatgen
data_PrInCu
_symmetry_space_group_name_H-M   'P 1'
_cell_length_a   7.54350701
_cell_length_b   7.54350701
_cell_length_c   4.23541700
_cell_angle_alpha   90.00000000
_cell_angle_beta   90.00000000
_cell_angle_gamma   120.00000889
_symmetry_Int_Tables_number   1
_chemical_formula_structural   PrInCu
_chemical_formula_sum   'Pr3 In3 Cu3'
_cell_volume   208.72446914
_cell_formula_units_Z   3
loop_
 _symmetry_equiv_pos_site_id
 _symmetry_equiv_pos_as_xyz
  1  'x, y, z'
loop_
 _atom_site_type_symbol
 _atom_site_label
 _atom_site_symmetry_multiplicity
 _atom_site_fract_x
 _atom_site_fract_y
 _atom_site_fract_z
 _atom_site_occupancy
  Pr  Pr0  1  0.41501300  0.41501300  0.50000000  1
  Pr  Pr1  1  0.58498700  0.00000000  0.50000000  1
  Pr  Pr2  1  0.00000000  0.58498700  0.50000000  1
  In  In3  1  0.75454400  0.75454400  0.00000000  1
  In  In4  1  0.24545600  0.00000000  0.00000000  1
  In  In5  1  0.00000000  0.24545600  0.00000000  1
  Cu  Cu6  1  0.66666700  0.33333300  0.00000000  1
  Cu  Cu7  1  0.33333300  0.66666700  0.00000000  1
  Cu  Cu8  1  0.00000000  0.00000000  0.50000000  1
