# generated using pymatgen
data_NaCu2H3(SO5)2
_symmetry_space_group_name_H-M   'P 1'
_cell_length_a   5.47611615
_cell_length_b   5.47611615
_cell_length_c   7.68369541
_cell_angle_alpha   66.05184756
_cell_angle_beta   66.05184756
_cell_angle_gamma   70.47693747
_symmetry_Int_Tables_number   1
_chemical_formula_structural   NaCu2H3(SO5)2
_chemical_formula_sum   'Na1 Cu2 H3 S2 O10'
_cell_volume   188.45233932
_cell_formula_units_Z   1
loop_
 _symmetry_equiv_pos_site_id
 _symmetry_equiv_pos_as_xyz
  1  'x, y, z'
loop_
 _atom_site_type_symbol
 _atom_site_label
 _atom_site_symmetry_multiplicity
 _atom_site_fract_x
 _atom_site_fract_y
 _atom_site_fract_z
 _atom_site_occupancy
  Na  Na0  1  0.50012500  0.50012500  0.49986800  1
  Cu  Cu1  1  0.50289100  0.99583400  0.99814200  1
  Cu  Cu2  1  0.99583400  0.50289100  0.99814200  1
  H  H3  1  0.29274000  0.29274000  0.22326200  1
  H  H4  1  0.70814100  0.70814100  0.77912400  1
  H  H5  1  0.48266600  0.48266600  0.00830600  1
  S  S6  1  0.90997300  0.90997300  0.29930800  1
  S  S7  1  0.09043300  0.09043300  0.70026300  1
  O  O8  1  0.79210800  0.79210800  0.51557900  1
  O  O9  1  0.20811800  0.20811800  0.48381600  1
  O  O10  1  0.34209700  0.34209700  0.07454400  1
  O  O11  1  0.65672800  0.65672800  0.92753600  1
  O  O12  1  0.82636300  0.21731400  0.24269800  1
  O  O13  1  0.21731400  0.82636300  0.24269800  1
  O  O14  1  0.17412000  0.78316300  0.75699600  1
  O  O15  1  0.78316300  0.17412000  0.75699600  1
  O  O16  1  0.80819400  0.80819400  0.19343200  1
  O  O17  1  0.19209200  0.19209200  0.80619100  1
