# generated using pymatgen
data_Hf5CoSn3
_symmetry_space_group_name_H-M   'P 1'
_cell_length_a   5.79175800
_cell_length_b   8.63158398
_cell_length_c   8.63158398
_cell_angle_alpha   119.99999987
_cell_angle_beta   90.00000000
_cell_angle_gamma   90.00000000
_symmetry_Int_Tables_number   1
_chemical_formula_structural   Hf5CoSn3
_chemical_formula_sum   'Hf10 Co2 Sn6'
_cell_volume   373.69909013
_cell_formula_units_Z   2
loop_
 _symmetry_equiv_pos_site_id
 _symmetry_equiv_pos_as_xyz
  1  'x, y, z'
loop_
 _atom_site_type_symbol
 _atom_site_label
 _atom_site_symmetry_multiplicity
 _atom_site_fract_x
 _atom_site_fract_y
 _atom_site_fract_z
 _atom_site_occupancy
  Hf  Hf0  1  0.75000000  0.75441800  0.75441800  1
  Hf  Hf1  1  0.25000000  0.24558200  0.24558200  1
  Hf  Hf2  1  0.75000000  0.00000000  0.24558200  1
  Hf  Hf3  1  0.25000000  0.00000000  0.75441800  1
  Hf  Hf4  1  0.75000000  0.24558200  0.00000000  1
  Hf  Hf5  1  0.25000000  0.75441800  0.00000000  1
  Hf  Hf6  1  0.00000000  0.66666700  0.33333300  1
  Hf  Hf7  1  0.00000000  0.33333300  0.66666700  1
  Hf  Hf8  1  0.50000000  0.33333300  0.66666700  1
  Hf  Hf9  1  0.50000000  0.66666700  0.33333300  1
  Co  Co10  1  0.00000000  0.00000000  0.00000000  1
  Co  Co11  1  0.50000000  0.00000000  0.00000000  1
  Sn  Sn12  1  0.75000000  0.39799600  0.39799600  1
  Sn  Sn13  1  0.25000000  0.60200400  0.60200400  1
  Sn  Sn14  1  0.75000000  0.00000000  0.60200400  1
  Sn  Sn15  1  0.25000000  0.00000000  0.39799600  1
  Sn  Sn16  1  0.75000000  0.60200400  0.00000000  1
  Sn  Sn17  1  0.25000000  0.39799600  0.00000000  1
