# generated using pymatgen
data_SrMgPb
_symmetry_space_group_name_H-M   'P 1'
_cell_length_a   5.02490900
_cell_length_b   8.31701600
_cell_length_c   9.06608300
_cell_angle_alpha   90.00000000
_cell_angle_beta   90.00000000
_cell_angle_gamma   90.00000000
_symmetry_Int_Tables_number   1
_chemical_formula_structural   SrMgPb
_chemical_formula_sum   'Sr4 Mg4 Pb4'
_cell_volume   378.89199412
_cell_formula_units_Z   4
loop_
 _symmetry_equiv_pos_site_id
 _symmetry_equiv_pos_as_xyz
  1  'x, y, z'
loop_
 _atom_site_type_symbol
 _atom_site_label
 _atom_site_symmetry_multiplicity
 _atom_site_fract_x
 _atom_site_fract_y
 _atom_site_fract_z
 _atom_site_occupancy
  Sr  Sr0  1  0.75000000  0.98887100  0.18854900  1
  Sr  Sr1  1  0.75000000  0.48887100  0.31145100  1
  Sr  Sr2  1  0.25000000  0.01112900  0.81145100  1
  Sr  Sr3  1  0.25000000  0.51112900  0.68854900  1
  Mg  Mg4  1  0.75000000  0.85501300  0.56642400  1
  Mg  Mg5  1  0.75000000  0.35501300  0.93357600  1
  Mg  Mg6  1  0.25000000  0.14498700  0.43357600  1
  Mg  Mg7  1  0.25000000  0.64498700  0.06642400  1
  Pb  Pb8  1  0.75000000  0.22239200  0.60904600  1
  Pb  Pb9  1  0.75000000  0.72239200  0.89095400  1
  Pb  Pb10  1  0.25000000  0.77760800  0.39095400  1
  Pb  Pb11  1  0.25000000  0.27760800  0.10904600  1
