# generated using pymatgen
data_Li7Si3
_symmetry_space_group_name_H-M   'P 1'
_cell_length_a   7.57987225
_cell_length_b   7.57987225
_cell_length_c   18.00274400
_cell_angle_alpha   90.00000000
_cell_angle_beta   90.00000000
_cell_angle_gamma   120.00000220
_symmetry_Int_Tables_number   1
_chemical_formula_structural   Li7Si3
_chemical_formula_sum   'Li42 Si18'
_cell_volume   895.76296026
_cell_formula_units_Z   6
loop_
 _symmetry_equiv_pos_site_id
 _symmetry_equiv_pos_as_xyz
  1  'x, y, z'
loop_
 _atom_site_type_symbol
 _atom_site_label
 _atom_site_symmetry_multiplicity
 _atom_site_fract_x
 _atom_site_fract_y
 _atom_site_fract_z
 _atom_site_occupancy
  Li  Li0  1  0.55546900  0.44453100  0.66666700  1
  Li  Li1  1  0.55546900  0.11093700  0.33333300  1
  Li  Li2  1  0.88906300  0.44453100  0.00000000  1
  Li  Li3  1  0.22338200  0.77661800  0.66666700  1
  Li  Li4  1  0.22338200  0.44676400  0.33333300  1
  Li  Li5  1  0.55323600  0.77661800  0.00000000  1
  Li  Li6  1  0.89132600  0.78025200  0.19849000  1
  Li  Li7  1  0.21974800  0.11107400  0.86515700  1
  Li  Li8  1  0.88892600  0.10867400  0.53182400  1
  Li  Li9  1  0.89132600  0.11107400  0.80151000  1
  Li  Li10  1  0.21974800  0.10867400  0.13484300  1
  Li  Li11  1  0.88892600  0.78025200  0.46817600  1
  Li  Li12  1  0.91015300  0.80010400  0.04458600  1
  Li  Li13  1  0.19989600  0.11004900  0.71125300  1
  Li  Li14  1  0.88995100  0.08984700  0.37791900  1
  Li  Li15  1  0.91015300  0.11004900  0.95541400  1
  Li  Li16  1  0.19989600  0.08984700  0.28874700  1
  Li  Li17  1  0.88995100  0.80010400  0.62208100  1
  Li  Li18  1  0.55844000  0.44724800  0.51645100  1
  Li  Li19  1  0.55275200  0.11119200  0.18311700  1
  Li  Li20  1  0.88880800  0.44156000  0.84978400  1
  Li  Li21  1  0.55844000  0.11119200  0.48354900  1
  Li  Li22  1  0.55275200  0.44156000  0.81688300  1
  Li  Li23  1  0.88880800  0.44724800  0.15021600  1
  Li  Li24  1  0.57945600  0.46801500  0.37353400  1
  Li  Li25  1  0.53198500  0.11144000  0.04020100  1
  Li  Li26  1  0.88856000  0.42054400  0.70686700  1
  Li  Li27  1  0.57945600  0.11144000  0.62646600  1
  Li  Li28  1  0.53198500  0.42054400  0.95979900  1
  Li  Li29  1  0.88856000  0.46801500  0.29313300  1
  Li  Li30  1  0.55886000  0.78038900  0.84952900  1
  Li  Li31  1  0.21961100  0.77847100  0.51619600  1
  Li  Li32  1  0.22152900  0.44114000  0.18286200  1
  Li  Li33  1  0.55886000  0.77847100  0.15047100  1
  Li  Li34  1  0.21961100  0.44114000  0.48380400  1
  Li  Li35  1  0.22152900  0.78038900  0.81713800  1
  Li  Li36  1  0.58091900  0.80220900  0.70650400  1
  Li  Li37  1  0.19779100  0.77871000  0.37317100  1
  Li  Li38  1  0.22129000  0.41908100  0.03983700  1
  Li  Li39  1  0.58091900  0.77871000  0.29349600  1
  Li  Li40  1  0.19779100  0.41908100  0.62682900  1
  Li  Li41  1  0.22129000  0.80220900  0.96016300  1
  Si  Si42  1  0.87564800  0.75936500  0.89913700  1
  Si  Si43  1  0.24063500  0.11628200  0.56580400  1
  Si  Si44  1  0.88371800  0.12435200  0.23247000  1
  Si  Si45  1  0.87564800  0.11628200  0.10086300  1
  Si  Si46  1  0.24063500  0.12435200  0.43419600  1
  Si  Si47  1  0.88371800  0.75936500  0.76753000  1
  Si  Si48  1  0.54606500  0.43558200  0.23189800  1
  Si  Si49  1  0.56441800  0.11048300  0.89856500  1
  Si  Si50  1  0.88951700  0.45393500  0.56523200  1
  Si  Si51  1  0.54606500  0.11048300  0.76810200  1
  Si  Si52  1  0.56441800  0.45393500  0.10143500  1
  Si  Si53  1  0.88951700  0.43558200  0.43476800  1
  Si  Si54  1  0.53785300  0.76473700  0.56533900  1
  Si  Si55  1  0.23526300  0.77311600  0.23200600  1
  Si  Si56  1  0.22688400  0.46214700  0.89867300  1
  Si  Si57  1  0.53785300  0.77311600  0.43466100  1
  Si  Si58  1  0.23526300  0.46214700  0.76799400  1
  Si  Si59  1  0.22688400  0.76473700  0.10132700  1
