# generated using pymatgen
data_Na10B18H6O35
_symmetry_space_group_name_H-M   'P 1'
_cell_length_a   6.75243900
_cell_length_b   9.46692890
_cell_length_c   11.93288572
_cell_angle_alpha   83.41907885
_cell_angle_beta   75.52055098
_cell_angle_gamma   81.46539426
_symmetry_Int_Tables_number   1
_chemical_formula_structural   Na10B18H6O35
_chemical_formula_sum   'Na10 B18 H6 O35'
_cell_volume   728.00417457
_cell_formula_units_Z   1
loop_
 _symmetry_equiv_pos_site_id
 _symmetry_equiv_pos_as_xyz
  1  'x, y, z'
loop_
 _atom_site_type_symbol
 _atom_site_label
 _atom_site_symmetry_multiplicity
 _atom_site_fract_x
 _atom_site_fract_y
 _atom_site_fract_z
 _atom_site_occupancy
  Na  Na0  1  0.38883200  0.80967200  0.06354200  1
  Na  Na1  1  0.60552800  0.18676000  0.94210000  1
  Na  Na2  1  0.58922800  0.82281900  0.37789900  1
  Na  Na3  1  0.39874300  0.15508400  0.61330000  1
  Na  Na4  1  0.76126600  0.57859000  0.90575400  1
  Na  Na5  1  0.24391500  0.42416300  0.09214000  1
  Na  Na6  1  0.02014900  0.94163200  0.76912600  1
  Na  Na7  1  0.99588700  0.03601200  0.23041800  1
  Na  Na8  1  0.22401800  0.55871600  0.61148800  1
  Na  Na9  1  0.78168300  0.46028400  0.38231000  1
  B  B10  1  0.74852800  0.57608400  0.16105700  1
  B  B11  1  0.25182000  0.42195900  0.83667300  1
  B  B12  1  0.04918300  0.72937800  0.42734400  1
  B  B13  1  0.95066800  0.30568400  0.56801300  1
  B  B14  1  0.36762100  0.62714300  0.29320100  1
  B  B15  1  0.62978200  0.37141300  0.70931600  1
  B  B16  1  0.77263500  0.76041700  0.61671500  1
  B  B17  1  0.22240500  0.23090600  0.38277100  1
  B  B18  1  0.02793500  0.66081500  0.23194600  1
  B  B19  1  0.96924500  0.33242800  0.77380700  1
  B  B20  1  0.39819400  0.84403000  0.64942000  1
  B  B21  1  0.59722700  0.16441900  0.35170400  1
  B  B22  1  0.88672500  0.80057400  0.07037600  1
  B  B23  1  0.11550700  0.19593100  0.93371100  1
  B  B24  1  0.56774300  0.87269100  0.79687000  1
  B  B25  1  0.43476700  0.12478700  0.20477800  1
  B  B26  1  0.35089400  0.67142200  0.82771600  1
  B  B27  1  0.64863400  0.32952000  0.17288700  1
  H  H28  1  0.70740900  0.93231400  0.91655300  1
  H  H29  1  0.29583000  0.06674700  0.08458000  1
  H  H30  1  0.99363100  0.99052800  0.99906900  1
  H  H31  1  0.20786100  0.88966000  0.52527500  1
  H  H32  1  0.80091400  0.16252100  0.45181600  1
  H  H33  1  0.93799900  0.94423200  0.43124400  1
  O  O34  1  0.26051000  0.62271800  0.20914600  1
  O  O35  1  0.73875200  0.37400500  0.79162500  1
  O  O36  1  0.75341100  0.70174100  0.07170600  1
  O  O37  1  0.24977200  0.29807400  0.92503700  1
  O  O38  1  0.29489700  0.72076400  0.72510700  1
  O  O39  1  0.70248700  0.28368300  0.27691100  1
  O  O40  1  0.26185200  0.92961400  0.58302500  1
  O  O41  1  0.72172100  0.09410100  0.43257700  1
  O  O42  1  0.94464500  0.54524300  0.19395300  1
  O  O43  1  0.05782800  0.45070100  0.79990900  1
  O  O44  1  0.58014000  0.61174200  0.26827100  1
  O  O45  1  0.42144600  0.38766100  0.72802000  1
  O  O46  1  0.43322100  0.94310700  0.72556700  1
  O  O47  1  0.56671200  0.05830200  0.28076400  1
  O  O48  1  0.29486700  0.54436300  0.88865800  1
  O  O49  1  0.70438000  0.45416300  0.10837600  1
  O  O50  1  0.76942900  0.80462100  0.72409900  1
  O  O51  1  0.22618300  0.18957200  0.27642900  1
  O  O52  1  0.99687200  0.79650000  0.15415300  1
  O  O53  1  0.99966700  0.20147000  0.84995900  1
  O  O54  1  0.47036200  0.74623800  0.87326700  1
  O  O55  1  0.52812100  0.25241500  0.13031700  1
  O  O56  1  0.90966400  0.90706600  0.98083100  1
  O  O57  1  0.09672400  0.09216500  0.02209800  1
  O  O58  1  0.59518800  0.77789100  0.57529900  1
  O  O59  1  0.39395500  0.23224700  0.42274200  1
  O  O60  1  0.26756200  0.65559000  0.40600000  1
  O  O61  1  0.73677900  0.34343000  0.59451400  1
  O  O62  1  0.95580600  0.69632200  0.55236500  1
  O  O63  1  0.02580300  0.27752600  0.45270300  1
  O  O64  1  0.60816500  0.97345200  0.86878000  1
  O  O65  1  0.40135300  0.02570700  0.12992700  1
  O  O66  1  0.93435800  0.68092000  0.35378500  1
  O  O67  1  0.06287200  0.29796600  0.64822500  1
  O  O68  1  0.07119200  0.88528700  0.40484000  1
