# generated using pymatgen
data_NiS2
_symmetry_space_group_name_H-M   'P 1'
_cell_length_a   5.25011700
_cell_length_b   4.19060800
_cell_length_c   5.34301540
_cell_angle_alpha   65.35067601
_cell_angle_beta   90.00000000
_cell_angle_gamma   90.00000000
_symmetry_Int_Tables_number   1
_chemical_formula_structural   NiS2
_chemical_formula_sum   'Ni2 S4'
_cell_volume   106.84095343
_cell_formula_units_Z   2
loop_
 _symmetry_equiv_pos_site_id
 _symmetry_equiv_pos_as_xyz
  1  'x, y, z'
loop_
 _atom_site_type_symbol
 _atom_site_label
 _atom_site_symmetry_multiplicity
 _atom_site_fract_x
 _atom_site_fract_y
 _atom_site_fract_z
 _atom_site_occupancy
  Ni  Ni0  1  0.00000000  0.50000000  0.50000000  1
  Ni  Ni1  1  0.50000000  0.50000000  0.00000000  1
  S  S2  1  0.11671800  0.64977100  0.82767800  1
  S  S3  1  0.38328200  0.64977100  0.32767800  1
  S  S4  1  0.88328200  0.35022900  0.17232200  1
  S  S5  1  0.61671800  0.35022900  0.67232200  1
