# generated using pymatgen
data_KSr2Si4O10F
_symmetry_space_group_name_H-M   'P 1'
_cell_length_a   8.60988100
_cell_length_b   11.62004600
_cell_length_c   13.02413490
_cell_angle_alpha   56.55858490
_cell_angle_beta   90.00000000
_cell_angle_gamma   90.00000000
_symmetry_Int_Tables_number   1
_chemical_formula_structural   KSr2Si4O10F
_chemical_formula_sum   'K4 Sr8 Si16 O40 F4'
_cell_volume   1087.31171321
_cell_formula_units_Z   4
loop_
 _symmetry_equiv_pos_site_id
 _symmetry_equiv_pos_as_xyz
  1  'x, y, z'
loop_
 _atom_site_type_symbol
 _atom_site_label
 _atom_site_symmetry_multiplicity
 _atom_site_fract_x
 _atom_site_fract_y
 _atom_site_fract_z
 _atom_site_occupancy
  K  K0  1  0.21668900  0.89231200  0.07411000  1
  K  K1  1  0.78331100  0.10768800  0.92589000  1
  K  K2  1  0.71668900  0.10768800  0.42589000  1
  K  K3  1  0.28331100  0.89231200  0.57411000  1
  Sr  Sr4  1  0.78321900  0.41743800  0.04041300  1
  Sr  Sr5  1  0.21678100  0.58256200  0.95958700  1
  Sr  Sr6  1  0.28321900  0.58256200  0.45958700  1
  Sr  Sr7  1  0.71678100  0.41743800  0.54041300  1
  Sr  Sr8  1  0.98064000  0.43325700  0.27892600  1
  Sr  Sr9  1  0.01936000  0.56674300  0.72107400  1
  Sr  Sr10  1  0.48064000  0.56674300  0.22107400  1
  Sr  Sr11  1  0.51936000  0.43325700  0.77892600  1
  Si  Si12  1  0.53382200  0.87559500  0.24302100  1
  Si  Si13  1  0.46617800  0.12440500  0.75697900  1
  Si  Si14  1  0.03382200  0.12440500  0.25697900  1
  Si  Si15  1  0.96617800  0.87559500  0.74302100  1
  Si  Si16  1  0.97432000  0.80872500  0.41458300  1
  Si  Si17  1  0.02568000  0.19127500  0.58541700  1
  Si  Si18  1  0.47432000  0.19127500  0.08541700  1
  Si  Si19  1  0.52568000  0.80872500  0.91458300  1
  Si  Si20  1  0.84069600  0.75340500  0.23093300  1
  Si  Si21  1  0.15930400  0.24659500  0.76906700  1
  Si  Si22  1  0.34069600  0.24659500  0.26906700  1
  Si  Si23  1  0.65930400  0.75340500  0.73093300  1
  Si  Si24  1  0.87578200  0.74506000  0.00402300  1
  Si  Si25  1  0.12421800  0.25494000  0.99597700  1
  Si  Si26  1  0.37578200  0.25494000  0.49597700  1
  Si  Si27  1  0.62421800  0.74506000  0.50402300  1
  O  O28  1  0.95826200  0.97371800  0.36030900  1
  O  O29  1  0.04173800  0.02628200  0.63969100  1
  O  O30  1  0.45826200  0.02628200  0.13969100  1
  O  O31  1  0.54173800  0.97371800  0.86030900  1
  O  O32  1  0.37898400  0.73363300  0.00269000  1
  O  O33  1  0.62101600  0.26636700  0.99731000  1
  O  O34  1  0.87898400  0.26636700  0.49731000  1
  O  O35  1  0.12101600  0.73363300  0.50269000  1
  O  O36  1  0.81534100  0.73437800  0.49819000  1
  O  O37  1  0.18465900  0.26562200  0.50181000  1
  O  O38  1  0.31534100  0.26562200  0.00181000  1
  O  O39  1  0.68465900  0.73437800  0.99819000  1
  O  O40  1  0.91665300  0.79745700  0.09633200  1
  O  O41  1  0.08334700  0.20254300  0.90366800  1
  O  O42  1  0.41665300  0.20254300  0.40366800  1
  O  O43  1  0.58334700  0.79745700  0.59633200  1
  O  O44  1  0.78186800  0.59651700  0.31056500  1
  O  O45  1  0.21813200  0.40348300  0.68943500  1
  O  O46  1  0.28186800  0.40348300  0.18943500  1
  O  O47  1  0.71813200  0.59651700  0.81056500  1
  O  O48  1  0.95655200  0.60058600  0.04699700  1
  O  O49  1  0.04344800  0.39941400  0.95300300  1
  O  O50  1  0.45655200  0.39941400  0.45300300  1
  O  O51  1  0.54344800  0.60058600  0.54699700  1
  O  O52  1  0.70609500  0.87308800  0.18860900  1
  O  O53  1  0.29390500  0.12691200  0.81139100  1
  O  O54  1  0.20609500  0.12691200  0.31139100  1
  O  O55  1  0.79390500  0.87308800  0.68860900  1
  O  O56  1  0.97784300  0.78757000  0.29914600  1
  O  O57  1  0.02215700  0.21243000  0.70085400  1
  O  O58  1  0.47784300  0.21243000  0.20085400  1
  O  O59  1  0.52215700  0.78757000  0.79914600  1
  O  O60  1  0.56206400  0.87475900  0.36948100  1
  O  O61  1  0.43793600  0.12524100  0.63051900  1
  O  O62  1  0.06206400  0.12524100  0.13051900  1
  O  O63  1  0.93793600  0.87475900  0.86948100  1
  O  O64  1  0.42481800  0.75333600  0.26393400  1
  O  O65  1  0.57518200  0.24666400  0.73606600  1
  O  O66  1  0.92481800  0.24666400  0.23606600  1
  O  O67  1  0.07518200  0.75333600  0.76393400  1
  F  F68  1  0.68322600  0.42709600  0.21146500  1
  F  F69  1  0.31677400  0.57290400  0.78853500  1
  F  F70  1  0.18322600  0.57290400  0.28853500  1
  F  F71  1  0.81677400  0.42709600  0.71146500  1
