# generated using pymatgen
data_Pr(BO2)3
_symmetry_space_group_name_H-M   'P 1'
_cell_length_a   6.45087060
_cell_length_b   6.45087060
_cell_length_c   6.48565196
_cell_angle_alpha   62.29990110
_cell_angle_beta   62.29990110
_cell_angle_gamma   78.95062162
_symmetry_Int_Tables_number   1
_chemical_formula_structural   Pr(BO2)3
_chemical_formula_sum   'Pr2 B6 O12'
_cell_volume   211.47127984
_cell_formula_units_Z   2
loop_
 _symmetry_equiv_pos_site_id
 _symmetry_equiv_pos_as_xyz
  1  'x, y, z'
loop_
 _atom_site_type_symbol
 _atom_site_label
 _atom_site_symmetry_multiplicity
 _atom_site_fract_x
 _atom_site_fract_y
 _atom_site_fract_z
 _atom_site_occupancy
  Pr  Pr0  1  0.70096200  0.29903800  0.25000000  1
  Pr  Pr1  1  0.29903800  0.70096200  0.75000000  1
  B  B2  1  0.72254900  0.27745100  0.75000000  1
  B  B3  1  0.70525200  0.84120800  0.08380700  1
  B  B4  1  0.15879200  0.29474800  0.41619300  1
  B  B5  1  0.27745100  0.72254900  0.25000000  1
  B  B6  1  0.84120800  0.70525200  0.58380700  1
  B  B7  1  0.29474800  0.15879200  0.91619300  1
  O  O8  1  0.88367400  0.71044600  0.00292200  1
  O  O9  1  0.28955400  0.11632600  0.49707800  1
  O  O10  1  0.49067100  0.71915400  0.28726700  1
  O  O11  1  0.28084600  0.50932900  0.21273300  1
  O  O12  1  0.50932900  0.28084600  0.71273300  1
  O  O13  1  0.71915400  0.49067100  0.78726700  1
  O  O14  1  0.08399400  0.71151400  0.49161100  1
  O  O15  1  0.28848600  0.91600600  0.00838900  1
  O  O16  1  0.91600600  0.28848600  0.50838900  1
  O  O17  1  0.71151400  0.08399400  0.99161100  1
  O  O18  1  0.71044600  0.88367400  0.50292200  1
  O  O19  1  0.11632600  0.28955400  0.99707800  1
