# generated using pymatgen
data_NaMnFeF6
_symmetry_space_group_name_H-M   'P 1'
_cell_length_a   9.18800051
_cell_length_b   9.18800051
_cell_length_c   5.10298600
_cell_angle_alpha   90.00000000
_cell_angle_beta   90.00000000
_cell_angle_gamma   120.00000368
_symmetry_Int_Tables_number   1
_chemical_formula_structural   NaMnFeF6
_chemical_formula_sum   'Na3 Mn3 Fe3 F18'
_cell_volume   373.07574405
_cell_formula_units_Z   3
loop_
 _symmetry_equiv_pos_site_id
 _symmetry_equiv_pos_as_xyz
  1  'x, y, z'
loop_
 _atom_site_type_symbol
 _atom_site_label
 _atom_site_symmetry_multiplicity
 _atom_site_fract_x
 _atom_site_fract_y
 _atom_site_fract_z
 _atom_site_occupancy
  Na  Na0  1  0.62610900  0.00000000  0.00000000  1
  Na  Na1  1  0.00000000  0.62610900  0.00000000  1
  Na  Na2  1  0.37389100  0.37389100  0.00000000  1
  Mn  Mn3  1  0.29752400  0.00000000  0.50000000  1
  Mn  Mn4  1  0.00000000  0.29752400  0.50000000  1
  Mn  Mn5  1  0.70247600  0.70247600  0.50000000  1
  Fe  Fe6  1  0.33333300  0.66666700  0.49984400  1
  Fe  Fe7  1  0.66666700  0.33333300  0.50015600  1
  Fe  Fe8  1  0.00000000  0.00000000  0.00000000  1
  F  F9  1  0.13087200  0.53569100  0.28659300  1
  F  F10  1  0.46430900  0.59518100  0.28659300  1
  F  F11  1  0.53569100  0.13087200  0.71340700  1
  F  F12  1  0.40481900  0.86912800  0.28659300  1
  F  F13  1  0.59518100  0.46430900  0.71340700  1
  F  F14  1  0.86912800  0.40481900  0.71340700  1
  F  F15  1  0.10435000  0.20153100  0.22120200  1
  F  F16  1  0.79846900  0.90281900  0.22120200  1
  F  F17  1  0.20153100  0.10435000  0.77879800  1
  F  F18  1  0.09718100  0.89565000  0.22120200  1
  F  F19  1  0.90281900  0.79846900  0.77879800  1
  F  F20  1  0.89565000  0.09718100  0.77879800  1
  F  F21  1  0.45869100  0.23128600  0.28907300  1
  F  F22  1  0.76871400  0.22740500  0.28907300  1
  F  F23  1  0.23128600  0.45869100  0.71092700  1
  F  F24  1  0.77259500  0.54130900  0.28907300  1
  F  F25  1  0.22740500  0.76871400  0.71092700  1
  F  F26  1  0.54130900  0.77259500  0.71092700  1
