# generated using pymatgen
data_NaIrO3
_symmetry_space_group_name_H-M   'P 1'
_cell_length_a   5.43253601
_cell_length_b   5.43253601
_cell_length_c   7.23000600
_cell_angle_alpha   90.00000000
_cell_angle_beta   90.00000000
_cell_angle_gamma   146.65875949
_symmetry_Int_Tables_number   1
_chemical_formula_structural   NaIrO3
_chemical_formula_sum   'Na2 Ir2 O6'
_cell_volume   117.27617462
_cell_formula_units_Z   2
loop_
 _symmetry_equiv_pos_site_id
 _symmetry_equiv_pos_as_xyz
  1  'x, y, z'
loop_
 _atom_site_type_symbol
 _atom_site_label
 _atom_site_symmetry_multiplicity
 _atom_site_fract_x
 _atom_site_fract_y
 _atom_site_fract_z
 _atom_site_occupancy
  Na  Na0  1  0.74775900  0.25224100  0.25000000  1
  Na  Na1  1  0.25224100  0.74775900  0.75000000  1
  Ir  Ir2  1  0.00000000  0.00000000  0.50000000  1
  Ir  Ir3  1  0.00000000  0.00000000  0.00000000  1
  O  O4  1  0.07306800  0.92693200  0.25000000  1
  O  O5  1  0.92693200  0.07306800  0.75000000  1
  O  O6  1  0.38667400  0.61332600  0.44286300  1
  O  O7  1  0.61332600  0.38667400  0.55713700  1
  O  O8  1  0.38667400  0.61332600  0.05713700  1
  O  O9  1  0.61332600  0.38667400  0.94286300  1
