# generated using pymatgen
data_Eu2Ge3Au
_symmetry_space_group_name_H-M   'P 1'
_cell_length_a   8.75037297
_cell_length_b   8.71023476
_cell_length_c   6.22010994
_cell_angle_alpha   69.47661227
_cell_angle_beta   68.78566143
_cell_angle_gamma   41.73772630
_symmetry_Int_Tables_number   1
_chemical_formula_structural   Eu2Ge3Au
_chemical_formula_sum   'Eu4 Ge6 Au2'
_cell_volume   291.72973203
_cell_formula_units_Z   2
loop_
 _symmetry_equiv_pos_site_id
 _symmetry_equiv_pos_as_xyz
  1  'x, y, z'
loop_
 _atom_site_type_symbol
 _atom_site_label
 _atom_site_symmetry_multiplicity
 _atom_site_fract_x
 _atom_site_fract_y
 _atom_site_fract_z
 _atom_site_occupancy
  Eu  Eu0  1  0.24632700  0.75367300  0.24632700  1
  Eu  Eu1  1  0.75367300  0.24632700  0.75367300  1
  Eu  Eu2  1  0.25000000  0.25000000  0.25000000  1
  Eu  Eu3  1  0.75000000  0.75000000  0.75000000  1
  Ge  Ge4  1  0.16496900  0.16496900  0.83503100  1
  Ge  Ge5  1  0.83503100  0.83503100  0.16496900  1
  Ge  Ge6  1  0.83408500  0.33080000  0.16591500  1
  Ge  Ge7  1  0.66920000  0.16591500  0.33080000  1
  Ge  Ge8  1  0.33080000  0.83408500  0.66920000  1
  Ge  Ge9  1  0.16591500  0.66920000  0.83408500  1
  Au  Au10  1  0.66690100  0.66690100  0.33309900  1
  Au  Au11  1  0.33309900  0.33309900  0.66690100  1
