# generated using pymatgen
data_Sm12(OsC3)5
_symmetry_space_group_name_H-M   'P 1'
_cell_length_a   5.25154400
_cell_length_b   10.88149913
_cell_length_c   10.88149913
_cell_angle_alpha   120.00000685
_cell_angle_beta   90.00000000
_cell_angle_gamma   90.00000000
_symmetry_Int_Tables_number   1
_chemical_formula_structural   Sm12(OsC3)5
_chemical_formula_sum   'Sm12 Os5 C15'
_cell_volume   538.51161307
_cell_formula_units_Z   1
loop_
 _symmetry_equiv_pos_site_id
 _symmetry_equiv_pos_as_xyz
  1  'x, y, z'
loop_
 _atom_site_type_symbol
 _atom_site_label
 _atom_site_symmetry_multiplicity
 _atom_site_fract_x
 _atom_site_fract_y
 _atom_site_fract_z
 _atom_site_occupancy
  Sm  Sm0  1  0.50000000  0.20618000  0.20618000  1
  Sm  Sm1  1  0.50000000  0.00000000  0.79382000  1
  Sm  Sm2  1  0.50000000  0.79382000  0.00000000  1
  Sm  Sm3  1  0.00000000  0.72636300  0.18375300  1
  Sm  Sm4  1  0.00000000  0.45739000  0.27363700  1
  Sm  Sm5  1  0.00000000  0.54261000  0.81624700  1
  Sm  Sm6  1  0.00000000  0.81624700  0.54261000  1
  Sm  Sm7  1  0.00000000  0.18375300  0.72636300  1
  Sm  Sm8  1  0.00000000  0.27363700  0.45739000  1
  Sm  Sm9  1  0.50000000  0.56993600  0.56993600  1
  Sm  Sm10  1  0.50000000  0.00000000  0.43006400  1
  Sm  Sm11  1  0.50000000  0.43006400  0.00000000  1
  Os  Os12  1  0.00000000  0.83931100  0.83931100  1
  Os  Os13  1  0.00000000  0.00000000  0.16068900  1
  Os  Os14  1  0.00000000  0.16068900  0.00000000  1
  Os  Os15  1  0.50000000  0.66666700  0.33333300  1
  Os  Os16  1  0.50000000  0.33333300  0.66666700  1
  C  C17  1  0.00000000  0.66642400  0.66642400  1
  C  C18  1  0.00000000  0.00000000  0.33357600  1
  C  C19  1  0.00000000  0.33357600  0.00000000  1
  C  C20  1  0.00000000  0.20359200  0.20359200  1
  C  C21  1  0.00000000  0.00000000  0.79640800  1
  C  C22  1  0.00000000  0.79640800  0.00000000  1
  C  C23  1  0.00000000  0.54381200  0.54381200  1
  C  C24  1  0.00000000  0.00000000  0.45618800  1
  C  C25  1  0.00000000  0.45618800  0.00000000  1
  C  C26  1  0.50000000  0.71381100  0.18548100  1
  C  C27  1  0.50000000  0.47167000  0.28618900  1
  C  C28  1  0.50000000  0.52833000  0.81451900  1
  C  C29  1  0.50000000  0.81451900  0.52833000  1
  C  C30  1  0.50000000  0.18548100  0.71381100  1
  C  C31  1  0.50000000  0.28618900  0.47167000  1
