# generated using pymatgen
data_Nd2Si5Rh3
_symmetry_space_group_name_H-M   'P 1'
_cell_length_a   8.25631383
_cell_length_b   8.25631383
_cell_length_c   8.25631383
_cell_angle_alpha   138.29520013
_cell_angle_beta   105.50591290
_cell_angle_gamma   89.20240141
_symmetry_Int_Tables_number   1
_chemical_formula_structural   Nd2Si5Rh3
_chemical_formula_sum   'Nd4 Si10 Rh6'
_cell_volume   345.33906418
_cell_formula_units_Z   2
loop_
 _symmetry_equiv_pos_site_id
 _symmetry_equiv_pos_as_xyz
  1  'x, y, z'
loop_
 _atom_site_type_symbol
 _atom_site_label
 _atom_site_symmetry_multiplicity
 _atom_site_fract_x
 _atom_site_fract_y
 _atom_site_fract_z
 _atom_site_occupancy
  Nd  Nd0  1  0.63569900  0.86874000  0.76695900  1
  Nd  Nd1  1  0.36430100  0.13126000  0.23304100  1
  Nd  Nd2  1  0.10178100  0.36874000  0.73304100  1
  Nd  Nd3  1  0.89821900  0.63126000  0.26695900  1
  Si  Si4  1  0.27442700  0.02442700  0.75000000  1
  Si  Si5  1  0.72557300  0.97557300  0.25000000  1
  Si  Si6  1  0.72557300  0.47557300  0.75000000  1
  Si  Si7  1  0.27442700  0.52442700  0.25000000  1
  Si  Si8  1  0.45429600  0.60691200  0.84738300  1
  Si  Si9  1  0.54570400  0.39308800  0.15261700  1
  Si  Si10  1  0.75952900  0.10691200  0.65261700  1
  Si  Si11  1  0.24047100  0.89308800  0.34738300  1
  Si  Si12  1  0.00000000  0.75000000  0.75000000  1
  Si  Si13  1  0.00000000  0.25000000  0.25000000  1
  Rh  Rh14  1  0.24799200  0.63812200  0.60987100  1
  Rh  Rh15  1  0.75200800  0.36187800  0.39012900  1
  Rh  Rh16  1  0.02825100  0.13812200  0.89012900  1
  Rh  Rh17  1  0.97174900  0.86187800  0.10987100  1
  Rh  Rh18  1  0.50000000  0.75000000  0.25000000  1
  Rh  Rh19  1  0.50000000  0.25000000  0.75000000  1
