# generated using pymatgen
data_GdPt
_symmetry_space_group_name_H-M   'P 1'
_cell_length_a   4.51925000
_cell_length_b   5.65237900
_cell_length_c   7.20360000
_cell_angle_alpha   90.00000000
_cell_angle_beta   90.00000000
_cell_angle_gamma   90.00000000
_symmetry_Int_Tables_number   1
_chemical_formula_structural   GdPt
_chemical_formula_sum   'Gd4 Pt4'
_cell_volume   184.01245958
_cell_formula_units_Z   4
loop_
 _symmetry_equiv_pos_site_id
 _symmetry_equiv_pos_as_xyz
  1  'x, y, z'
loop_
 _atom_site_type_symbol
 _atom_site_label
 _atom_site_symmetry_multiplicity
 _atom_site_fract_x
 _atom_site_fract_y
 _atom_site_fract_z
 _atom_site_occupancy
  Gd  Gd0  1  0.25000000  0.14156400  0.18232900  1
  Gd  Gd1  1  0.75000000  0.85843600  0.81767100  1
  Gd  Gd2  1  0.75000000  0.64156400  0.31767100  1
  Gd  Gd3  1  0.25000000  0.35843600  0.68232900  1
  Pt  Pt4  1  0.25000000  0.65569200  0.04398300  1
  Pt  Pt5  1  0.75000000  0.34430800  0.95601700  1
  Pt  Pt6  1  0.75000000  0.15569200  0.45601700  1
  Pt  Pt7  1  0.25000000  0.84430800  0.54398300  1
