# generated using pymatgen
data_LiDyS2
_symmetry_space_group_name_H-M   'P 1'
_cell_length_a   6.57617145
_cell_length_b   6.57617145
_cell_length_c   6.57617160
_cell_angle_alpha   34.61023416
_cell_angle_beta   34.61023416
_cell_angle_gamma   34.61023605
_symmetry_Int_Tables_number   1
_chemical_formula_structural   LiDyS2
_chemical_formula_sum   'Li1 Dy1 S2'
_cell_volume   81.86676279
_cell_formula_units_Z   1
loop_
 _symmetry_equiv_pos_site_id
 _symmetry_equiv_pos_as_xyz
  1  'x, y, z'
loop_
 _atom_site_type_symbol
 _atom_site_label
 _atom_site_symmetry_multiplicity
 _atom_site_fract_x
 _atom_site_fract_y
 _atom_site_fract_z
 _atom_site_occupancy
  Li  Li0  1  0.50000000  0.50000000  0.50000000  1
  Dy  Dy1  1  0.00000000  0.00000000  0.00000000  1
  S  S2  1  0.24987100  0.24987100  0.24987100  1
  S  S3  1  0.75012900  0.75012900  0.75012900  1
