# generated using pymatgen
data_Li3Y(NO3)6
_symmetry_space_group_name_H-M   'P 1'
_cell_length_a   7.65662700
_cell_length_b   7.93274900
_cell_length_c   25.45012555
_cell_angle_alpha   73.23162616
_cell_angle_beta   90.00000000
_cell_angle_gamma   90.00000000
_symmetry_Int_Tables_number   1
_chemical_formula_structural   Li3Y(NO3)6
_chemical_formula_sum   'Li12 Y4 N24 O72'
_cell_volume   1480.06347413
_cell_formula_units_Z   4
loop_
 _symmetry_equiv_pos_site_id
 _symmetry_equiv_pos_as_xyz
  1  'x, y, z'
loop_
 _atom_site_type_symbol
 _atom_site_label
 _atom_site_symmetry_multiplicity
 _atom_site_fract_x
 _atom_site_fract_y
 _atom_site_fract_z
 _atom_site_occupancy
  Li  Li0  1  0.18369700  0.92654200  0.36543300  1
  Li  Li1  1  0.81630300  0.07345800  0.63456700  1
  Li  Li2  1  0.68369700  0.07345800  0.13456700  1
  Li  Li3  1  0.31630300  0.92654200  0.86543300  1
  Li  Li4  1  0.44195300  0.74625500  0.25489800  1
  Li  Li5  1  0.55804700  0.25374500  0.74510200  1
  Li  Li6  1  0.94195300  0.25374500  0.24510200  1
  Li  Li7  1  0.05804700  0.74625500  0.75489800  1
  Li  Li8  1  0.71031500  0.78356600  0.47444600  1
  Li  Li9  1  0.28968500  0.21643400  0.52555400  1
  Li  Li10  1  0.21031500  0.21643400  0.02555400  1
  Li  Li11  1  0.78968500  0.78356600  0.97444600  1
  Y  Y12  1  0.69440100  0.36657300  0.39038400  1
  Y  Y13  1  0.30559900  0.63342700  0.60961600  1
  Y  Y14  1  0.19440100  0.63342700  0.10961600  1
  Y  Y15  1  0.80559900  0.36657300  0.89038400  1
  N  N16  1  0.20149100  0.00007400  0.26471200  1
  N  N17  1  0.79850900  0.99992600  0.73528800  1
  N  N18  1  0.70149100  0.99992600  0.23528800  1
  N  N19  1  0.29850900  0.00007400  0.76471200  1
  N  N20  1  0.69776900  0.46912300  0.27007000  1
  N  N21  1  0.30223100  0.53087700  0.72993000  1
  N  N22  1  0.19776900  0.53087700  0.22993000  1
  N  N23  1  0.80223100  0.46912300  0.77007000  1
  N  N24  1  0.50697800  0.79990300  0.05415500  1
  N  N25  1  0.49302200  0.20009700  0.94584500  1
  N  N26  1  0.00697800  0.20009700  0.44584500  1
  N  N27  1  0.99302200  0.79990300  0.55415500  1
  N  N28  1  0.87227700  0.53653300  0.06393300  1
  N  N29  1  0.12772300  0.46346700  0.93606700  1
  N  N30  1  0.37227700  0.46346700  0.43606700  1
  N  N31  1  0.62772300  0.53653300  0.56393300  1
  N  N32  1  0.88510300  0.68161500  0.39365800  1
  N  N33  1  0.11489700  0.31838500  0.60634200  1
  N  N34  1  0.38510300  0.31838500  0.10634200  1
  N  N35  1  0.61489700  0.68161500  0.89365800  1
  N  N36  1  0.99322900  0.95714400  0.09723200  1
  N  N37  1  0.00677100  0.04285600  0.90276800  1
  N  N38  1  0.49322900  0.04285600  0.40276800  1
  N  N39  1  0.50677100  0.95714400  0.59723200  1
  O  O40  1  0.60278400  0.54713000  0.29795500  1
  O  O41  1  0.39721600  0.45287000  0.70204500  1
  O  O42  1  0.10278400  0.45287000  0.20204500  1
  O  O43  1  0.89721600  0.54713000  0.79795500  1
  O  O44  1  0.47557900  0.80573000  0.10278400  1
  O  O45  1  0.52442100  0.19427000  0.89721600  1
  O  O46  1  0.97557900  0.19427000  0.39721600  1
  O  O47  1  0.02442100  0.80573000  0.60278400  1
  O  O48  1  0.39390900  0.72177900  0.03220900  1
  O  O49  1  0.60609100  0.27822100  0.96779100  1
  O  O50  1  0.89390900  0.27822100  0.46779100  1
  O  O51  1  0.10609100  0.72177900  0.53220900  1
  O  O52  1  0.69970300  0.51155600  0.21989300  1
  O  O53  1  0.30029700  0.48844400  0.78010700  1
  O  O54  1  0.19970300  0.48844400  0.28010700  1
  O  O55  1  0.80029700  0.51155600  0.71989300  1
  O  O56  1  0.73725800  0.50154500  0.04286000  1
  O  O57  1  0.26274200  0.49845500  0.95714000  1
  O  O58  1  0.23725800  0.49845500  0.45714000  1
  O  O59  1  0.76274200  0.50154500  0.54286000  1
  O  O60  1  0.95279300  0.81194300  0.13203300  1
  O  O61  1  0.04720700  0.18805700  0.86796700  1
  O  O62  1  0.45279300  0.18805700  0.36796700  1
  O  O63  1  0.54720700  0.81194300  0.63203300  1
  O  O64  1  0.64162300  0.86718100  0.02924900  1
  O  O65  1  0.35837700  0.13281900  0.97075100  1
  O  O66  1  0.14162300  0.13281900  0.47075100  1
  O  O67  1  0.85837700  0.86718100  0.52924900  1
  O  O68  1  0.70397300  0.95947200  0.28610000  1
  O  O69  1  0.29602700  0.04052800  0.71390000  1
  O  O70  1  0.20397300  0.04052800  0.21390000  1
  O  O71  1  0.79602700  0.95947200  0.78610000  1
  O  O72  1  0.36343000  0.95970500  0.57034800  1
  O  O73  1  0.63657000  0.04029500  0.42965200  1
  O  O74  1  0.86343000  0.04029500  0.92965200  1
  O  O75  1  0.13657000  0.95970500  0.07034800  1
  O  O76  1  0.96696000  0.80884200  0.40033400  1
  O  O77  1  0.03304000  0.19115800  0.59966600  1
  O  O78  1  0.46696000  0.19115800  0.09966600  1
  O  O79  1  0.53304000  0.80884200  0.90033400  1
  O  O80  1  0.97673900  0.66126000  0.03548100  1
  O  O81  1  0.02326100  0.33874000  0.96451900  1
  O  O82  1  0.47673900  0.33874000  0.46451900  1
  O  O83  1  0.52326100  0.66126000  0.53548100  1
  O  O84  1  0.91915900  0.46049100  0.11261800  1
  O  O85  1  0.08084100  0.53950900  0.88738200  1
  O  O86  1  0.41915900  0.53950900  0.38738200  1
  O  O87  1  0.58084100  0.46049100  0.61261800  1
  O  O88  1  0.79156500  0.34095800  0.29976900  1
  O  O89  1  0.20843500  0.65904200  0.70023100  1
  O  O90  1  0.29156500  0.65904200  0.20023100  1
  O  O91  1  0.70843500  0.34095800  0.79976900  1
  O  O92  1  0.40115100  0.90893000  0.41146800  1
  O  O93  1  0.59884900  0.09107000  0.58853200  1
  O  O94  1  0.90115100  0.09107000  0.08853200  1
  O  O95  1  0.09884900  0.90893000  0.91146800  1
  O  O96  1  0.93492200  0.59119600  0.36276800  1
  O  O97  1  0.06507800  0.40880400  0.63723200  1
  O  O98  1  0.43492200  0.40880400  0.13723200  1
  O  O99  1  0.56507800  0.59119600  0.86276800  1
  O  O100  1  0.73999700  0.63510700  0.41976500  1
  O  O101  1  0.26000300  0.36489300  0.58023500  1
  O  O102  1  0.23999700  0.36489300  0.08023500  1
  O  O103  1  0.76000300  0.63510700  0.91976500  1
  O  O104  1  0.60816100  0.91564600  0.20926700  1
  O  O105  1  0.39183900  0.08435400  0.79073300  1
  O  O106  1  0.10816100  0.08435400  0.29073300  1
  O  O107  1  0.89183900  0.91564600  0.70926700  1
  O  O108  1  0.29100400  0.87180200  0.29489000  1
  O  O109  1  0.70899600  0.12819800  0.70511000  1
  O  O110  1  0.79100400  0.12819800  0.20511000  1
  O  O111  1  0.20899600  0.87180200  0.79489000  1
