# generated using pymatgen
data_K2B4O7
_symmetry_space_group_name_H-M   'P 1'
_cell_length_a   6.56694000
_cell_length_b   9.79715397
_cell_length_c   10.54912211
_cell_angle_alpha   89.18969462
_cell_angle_beta   102.62829202
_cell_angle_gamma   100.99382729
_symmetry_Int_Tables_number   1
_chemical_formula_structural   K2B4O7
_chemical_formula_sum   'K8 B16 O28'
_cell_volume   649.86037207
_cell_formula_units_Z   4
loop_
 _symmetry_equiv_pos_site_id
 _symmetry_equiv_pos_as_xyz
  1  'x, y, z'
loop_
 _atom_site_type_symbol
 _atom_site_label
 _atom_site_symmetry_multiplicity
 _atom_site_fract_x
 _atom_site_fract_y
 _atom_site_fract_z
 _atom_site_occupancy
  K  K0  1  0.75821000  0.00353100  0.59161200  1
  K  K1  1  0.24179000  0.99646900  0.40838800  1
  K  K2  1  0.21335000  0.62533600  0.50120600  1
  K  K3  1  0.78665000  0.37466400  0.49879400  1
  K  K4  1  0.66432400  0.48137800  0.87563000  1
  K  K5  1  0.33567600  0.51862200  0.12437000  1
  K  K6  1  0.64106300  0.87699600  0.96083200  1
  K  K7  1  0.35893700  0.12300400  0.03916800  1
  B  B8  1  0.67465200  0.70458900  0.45598400  1
  B  B9  1  0.32534800  0.29541100  0.54401600  1
  B  B10  1  0.13460700  0.80531600  0.15805300  1
  B  B11  1  0.86539300  0.19468400  0.84194700  1
  B  B12  1  0.12795500  0.55530200  0.80909900  1
  B  B13  1  0.87204500  0.44469800  0.19090100  1
  B  B14  1  0.19528200  0.90997700  0.73245100  1
  B  B15  1  0.80471800  0.09002300  0.26754900  1
  B  B16  1  0.54979900  0.84609700  0.26931500  1
  B  B17  1  0.45020100  0.15390300  0.73068500  1
  B  B18  1  0.89093900  0.70398100  0.68592800  1
  B  B19  1  0.10906100  0.29601900  0.31407200  1
  B  B20  1  0.06381000  0.77285800  0.90587000  1
  B  B21  1  0.93619000  0.22714200  0.09413000  1
  B  B22  1  0.81264500  0.68733300  0.25287700  1
  B  B23  1  0.18735500  0.31266700  0.74712300  1
  O  O24  1  0.85910800  0.74310900  0.81116300  1
  O  O25  1  0.05125500  0.81655500  0.64202500  1
  O  O26  1  0.31121000  0.31441400  0.41201100  1
  O  O27  1  0.68879000  0.68558600  0.58798900  1
  O  O28  1  0.02197000  0.42957000  0.30283800  1
  O  O29  1  0.94874500  0.18344500  0.35797500  1
  O  O30  1  0.32219400  0.01332200  0.68036800  1
  O  O31  1  0.67780600  0.98667800  0.31963200  1
  O  O32  1  0.65287400  0.13112500  0.81425100  1
  O  O33  1  0.34712600  0.86887500  0.18574900  1
  O  O34  1  0.34809600  0.23337500  0.80369900  1
  O  O35  1  0.65190400  0.76662500  0.19630100  1
  O  O36  1  0.23269700  0.44533200  0.82606000  1
  O  O37  1  0.76730300  0.55466800  0.17394000  1
  O  O38  1  0.48217100  0.22536100  0.60661400  1
  O  O39  1  0.51782900  0.77463900  0.39338600  1
  O  O40  1  0.19527700  0.34700500  0.60842500  1
  O  O41  1  0.80472300  0.65299500  0.39157500  1
  O  O42  1  0.96308700  0.23771500  0.74081500  1
  O  O43  1  0.03691300  0.76228500  0.25918500  1
  O  O44  1  0.17712300  0.65157700  0.91121100  1
  O  O45  1  0.82287700  0.34842300  0.08878900  1
  O  O46  1  0.20692800  0.89712300  0.86411000  1
  O  O47  1  0.79307200  0.10287700  0.13589000  1
  O  O48  1  0.01874200  0.79516600  0.03228800  1
  O  O49  1  0.98125800  0.20483400  0.96771200  1
  O  O50  1  0.97803000  0.57043000  0.69716200  1
  O  O51  1  0.14089200  0.25689100  0.18883700  1
