# generated using pymatgen
data_Pr4MgRh
_symmetry_space_group_name_H-M   'P 1'
_cell_length_a   10.08944786
_cell_length_b   10.08944786
_cell_length_c   10.08944786
_cell_angle_alpha   60.00000000
_cell_angle_beta   60.00000000
_cell_angle_gamma   60.00000000
_symmetry_Int_Tables_number   1
_chemical_formula_structural   Pr4MgRh
_chemical_formula_sum   'Pr16 Mg4 Rh4'
_cell_volume   726.25176881
_cell_formula_units_Z   4
loop_
 _symmetry_equiv_pos_site_id
 _symmetry_equiv_pos_as_xyz
  1  'x, y, z'
loop_
 _atom_site_type_symbol
 _atom_site_label
 _atom_site_symmetry_multiplicity
 _atom_site_fract_x
 _atom_site_fract_y
 _atom_site_fract_z
 _atom_site_occupancy
  Pr  Pr0  1  0.34684100  0.34684100  0.34684100  1
  Pr  Pr1  1  0.34684100  0.34684100  0.95947600  1
  Pr  Pr2  1  0.34684100  0.95947600  0.34684100  1
  Pr  Pr3  1  0.95947600  0.34684100  0.34684100  1
  Pr  Pr4  1  0.81199400  0.18800600  0.18800600  1
  Pr  Pr5  1  0.18800600  0.81199500  0.81199400  1
  Pr  Pr6  1  0.18800600  0.81199400  0.18800500  1
  Pr  Pr7  1  0.81199400  0.18800600  0.81199400  1
  Pr  Pr8  1  0.18800600  0.18800600  0.81199400  1
  Pr  Pr9  1  0.81199500  0.81199500  0.18800500  1
  Pr  Pr10  1  0.93685200  0.56314800  0.56314800  1
  Pr  Pr11  1  0.56314800  0.93685200  0.93685200  1
  Pr  Pr12  1  0.56314800  0.93685200  0.56314800  1
  Pr  Pr13  1  0.93685200  0.56314800  0.93685200  1
  Pr  Pr14  1  0.56314800  0.56314800  0.93685200  1
  Pr  Pr15  1  0.93685200  0.93685200  0.56314800  1
  Mg  Mg16  1  0.57950300  0.57950300  0.57950300  1
  Mg  Mg17  1  0.57950300  0.57950300  0.26149100  1
  Mg  Mg18  1  0.57950300  0.26149100  0.57950300  1
  Mg  Mg19  1  0.26149100  0.57950300  0.57950300  1
  Rh  Rh20  1  0.14201700  0.14201700  0.14201700  1
  Rh  Rh21  1  0.14201700  0.14201700  0.57395000  1
  Rh  Rh22  1  0.14201700  0.57395000  0.14201700  1
  Rh  Rh23  1  0.57395000  0.14201700  0.14201700  1
