# generated using pymatgen
data_Fe7Sb10(Cl4O9)2
_symmetry_space_group_name_H-M   'P 1'
_cell_length_a   9.84361000
_cell_length_b   10.07378036
_cell_length_c   10.07712731
_cell_angle_alpha   72.58304610
_cell_angle_beta   63.90950946
_cell_angle_gamma   65.42381363
_symmetry_Int_Tables_number   1
_chemical_formula_structural   Fe7Sb10(Cl4O9)2
_chemical_formula_sum   'Fe7 Sb10 Cl8 O18'
_cell_volume   807.81312001
_cell_formula_units_Z   1
loop_
 _symmetry_equiv_pos_site_id
 _symmetry_equiv_pos_as_xyz
  1  'x, y, z'
loop_
 _atom_site_type_symbol
 _atom_site_label
 _atom_site_symmetry_multiplicity
 _atom_site_fract_x
 _atom_site_fract_y
 _atom_site_fract_z
 _atom_site_occupancy
  Fe  Fe0  1  0.85472100  0.70504800  0.73131200  1
  Fe  Fe1  1  0.14527900  0.29495200  0.26868800  1
  Fe  Fe2  1  0.48404500  0.13634700  0.35901300  1
  Fe  Fe3  1  0.51595500  0.86365300  0.64098700  1
  Fe  Fe4  1  0.16177300  0.41180100  0.53114700  1
  Fe  Fe5  1  0.83822700  0.58819900  0.46885300  1
  Fe  Fe6  1  0.50000000  0.00000000  0.00000000  1
  Sb  Sb7  1  0.17312900  0.51858300  0.91191500  1
  Sb  Sb8  1  0.82687100  0.48141700  0.08808500  1
  Sb  Sb9  1  0.83940300  0.87010000  0.13177100  1
  Sb  Sb10  1  0.16059700  0.12990000  0.86822900  1
  Sb  Sb11  1  0.51855200  0.76601200  0.32706000  1
  Sb  Sb12  1  0.48144800  0.23398800  0.67294000  1
  Sb  Sb13  1  0.16915300  0.02781100  0.57388300  1
  Sb  Sb14  1  0.83084700  0.97218900  0.42611700  1
  Sb  Sb15  1  0.19883800  0.65442500  0.20557900  1
  Sb  Sb16  1  0.80116200  0.34557500  0.79442100  1
  Cl  Cl17  1  0.13977700  0.67653000  0.55857700  1
  Cl  Cl18  1  0.86022300  0.32347000  0.44142300  1
  Cl  Cl19  1  0.46813000  0.38977900  0.36690300  1
  Cl  Cl20  1  0.53187000  0.61022100  0.63309700  1
  Cl  Cl21  1  0.77486800  0.98144600  0.77990100  1
  Cl  Cl22  1  0.22513200  0.01855400  0.22009900  1
  Cl  Cl23  1  0.57328900  0.72219400  0.92311500  1
  Cl  Cl24  1  0.42671100  0.27780600  0.07688500  1
  O  O25  1  0.23560300  0.20345100  0.44296700  1
  O  O26  1  0.76439700  0.79654900  0.55703300  1
  O  O27  1  0.05765600  0.38975400  0.09041000  1
  O  O28  1  0.94234400  0.61024600  0.90959000  1
  O  O29  1  0.09766700  0.50428400  0.34312000  1
  O  O30  1  0.90233300  0.49571600  0.65688000  1
  O  O31  1  0.43175700  0.92307300  0.45418200  1
  O  O32  1  0.56824300  0.07692700  0.54581800  1
  O  O33  1  0.75896600  0.70501500  0.29560900  1
  O  O34  1  0.24103400  0.29498500  0.70439100  1
  O  O35  1  0.60203300  0.90553000  0.14657500  1
  O  O36  1  0.39796700  0.09447000  0.85342500  1
  O  O37  1  0.01008100  0.17920100  0.74036200  1
  O  O38  1  0.98991900  0.82079900  0.25963800  1
  O  O39  1  0.13957500  0.65568600  0.03637100  1
  O  O40  1  0.86042500  0.34431400  0.96362900  1
  O  O41  1  0.27401000  0.97386800  0.72867200  1
  O  O42  1  0.72599000  0.02613200  0.27132800  1
