# generated using pymatgen
data_La2Si2PbSe8
_symmetry_space_group_name_H-M   'P 1'
_cell_length_a   9.55111825
_cell_length_b   9.55111825
_cell_length_c   10.82437750
_cell_angle_alpha   65.30072898
_cell_angle_beta   65.30072898
_cell_angle_gamma   59.94065762
_symmetry_Int_Tables_number   1
_chemical_formula_structural   La2Si2PbSe8
_chemical_formula_sum   'La4 Si4 Pb2 Se16'
_cell_volume   748.64243290
_cell_formula_units_Z   2
loop_
 _symmetry_equiv_pos_site_id
 _symmetry_equiv_pos_as_xyz
  1  'x, y, z'
loop_
 _atom_site_type_symbol
 _atom_site_label
 _atom_site_symmetry_multiplicity
 _atom_site_fract_x
 _atom_site_fract_y
 _atom_site_fract_z
 _atom_site_occupancy
  La  La0  1  0.24831600  0.43987200  0.25239900  1
  La  La1  1  0.94396300  0.05918300  0.24598100  1
  La  La2  1  0.43987200  0.24831600  0.75239900  1
  La  La3  1  0.05918300  0.94396300  0.74598100  1
  Si  Si4  1  0.33082500  0.84896300  0.97847400  1
  Si  Si5  1  0.84896300  0.33082500  0.47847400  1
  Si  Si6  1  0.65318300  0.16603000  0.02234400  1
  Si  Si7  1  0.16603000  0.65318300  0.52234400  1
  Pb  Pb8  1  0.57022600  0.74848800  0.24998900  1
  Pb  Pb9  1  0.74848800  0.57022600  0.74998900  1
  Se  Se10  1  0.40703000  0.93105000  0.73687100  1
  Se  Se11  1  0.93105000  0.40703000  0.23687100  1
  Se  Se12  1  0.58696100  0.09519000  0.26337300  1
  Se  Se13  1  0.09519000  0.58696100  0.76337300  1
  Se  Se14  1  0.53045200  0.60986800  0.07435800  1
  Se  Se15  1  0.09701400  0.78936600  0.05585100  1
  Se  Se16  1  0.27273400  0.06953300  0.05193000  1
  Se  Se17  1  0.78936600  0.09701400  0.55585100  1
  Se  Se18  1  0.60986800  0.53045200  0.57435800  1
  Se  Se19  1  0.06953300  0.27273400  0.55193000  1
  Se  Se20  1  0.42723100  0.39594800  0.95337600  1
  Se  Se21  1  0.89007100  0.22051200  0.93159200  1
  Se  Se22  1  0.71093600  0.95705300  0.93346300  1
  Se  Se23  1  0.22051200  0.89007100  0.43159200  1
  Se  Se24  1  0.39594800  0.42723100  0.45337600  1
  Se  Se25  1  0.95705300  0.71093600  0.43346300  1
