# generated using pymatgen
data_KTm(MoO4)2
_symmetry_space_group_name_H-M   'P 1'
_cell_length_a   5.09832200
_cell_length_b   8.03732700
_cell_length_c   18.43287700
_cell_angle_alpha   90.00000000
_cell_angle_beta   90.00000000
_cell_angle_gamma   90.00000000
_symmetry_Int_Tables_number   1
_chemical_formula_structural   KTm(MoO4)2
_chemical_formula_sum   'K4 Tm4 Mo8 O32'
_cell_volume   755.32180852
_cell_formula_units_Z   4
loop_
 _symmetry_equiv_pos_site_id
 _symmetry_equiv_pos_as_xyz
  1  'x, y, z'
loop_
 _atom_site_type_symbol
 _atom_site_label
 _atom_site_symmetry_multiplicity
 _atom_site_fract_x
 _atom_site_fract_y
 _atom_site_fract_z
 _atom_site_occupancy
  K  K0  1  0.00000000  0.75000000  0.77009600  1
  K  K1  1  0.00000000  0.25000000  0.22990400  1
  K  K2  1  0.50000000  0.25000000  0.72990400  1
  K  K3  1  0.50000000  0.75000000  0.27009600  1
  Tm  Tm4  1  0.00000000  0.75000000  0.00590200  1
  Tm  Tm5  1  0.00000000  0.25000000  0.99409800  1
  Tm  Tm6  1  0.50000000  0.25000000  0.49409800  1
  Tm  Tm7  1  0.50000000  0.75000000  0.50590200  1
  Mo  Mo8  1  0.02246200  0.51600500  0.39949400  1
  Mo  Mo9  1  0.97753800  0.48399500  0.60050600  1
  Mo  Mo10  1  0.47753800  0.01600500  0.10050600  1
  Mo  Mo11  1  0.97753800  0.98399500  0.39949400  1
  Mo  Mo12  1  0.52246200  0.98399500  0.89949400  1
  Mo  Mo13  1  0.02246200  0.01600500  0.60050600  1
  Mo  Mo14  1  0.52246200  0.48399500  0.10050600  1
  Mo  Mo15  1  0.47753800  0.51600500  0.89949400  1
  O  O16  1  0.10189600  0.97480700  0.31071600  1
  O  O17  1  0.89810400  0.02519300  0.68928400  1
  O  O18  1  0.39810400  0.47480700  0.18928400  1
  O  O19  1  0.89810400  0.52519300  0.31071600  1
  O  O20  1  0.60189600  0.52519300  0.81071600  1
  O  O21  1  0.10189600  0.47480700  0.68928400  1
  O  O22  1  0.60189600  0.02519300  0.18928400  1
  O  O23  1  0.39810400  0.97480700  0.81071600  1
  O  O24  1  0.26621300  0.83677200  0.09818300  1
  O  O25  1  0.73378700  0.16322800  0.90181700  1
  O  O26  1  0.23378700  0.33677200  0.40181700  1
  O  O27  1  0.73378700  0.66322800  0.09818300  1
  O  O28  1  0.76621300  0.66322800  0.59818300  1
  O  O29  1  0.26621300  0.33677200  0.90181700  1
  O  O30  1  0.76621300  0.16322800  0.40181700  1
  O  O31  1  0.23378700  0.83677200  0.59818300  1
  O  O32  1  0.24552100  0.50522900  0.03452300  1
  O  O33  1  0.75447900  0.49477100  0.96547700  1
  O  O34  1  0.25447900  0.00522900  0.46547700  1
  O  O35  1  0.75447900  0.99477100  0.03452300  1
  O  O36  1  0.74552100  0.99477100  0.53452300  1
  O  O37  1  0.24552100  0.00522900  0.96547700  1
  O  O38  1  0.74552100  0.49477100  0.46547700  1
  O  O39  1  0.25447900  0.50522900  0.53452300  1
  O  O40  1  0.24698500  0.69104000  0.40830800  1
  O  O41  1  0.75301500  0.30896000  0.59169200  1
  O  O42  1  0.25301500  0.19104000  0.09169200  1
  O  O43  1  0.75301500  0.80896000  0.40830800  1
  O  O44  1  0.74698500  0.80896000  0.90830800  1
  O  O45  1  0.24698500  0.19104000  0.59169200  1
  O  O46  1  0.74698500  0.30896000  0.09169200  1
  O  O47  1  0.25301500  0.69104000  0.90830800  1
