# generated using pymatgen
data_Sr3InNiO6
_symmetry_space_group_name_H-M   'P 1'
_cell_length_a   6.69461528
_cell_length_b   9.45949828
_cell_length_c   9.75188167
_cell_angle_alpha   89.99641771
_cell_angle_beta   90.00058050
_cell_angle_gamma   93.35678806
_symmetry_Int_Tables_number   1
_chemical_formula_structural   Sr3InNiO6
_chemical_formula_sum   'Sr12 In4 Ni4 O24'
_cell_volume   616.50468030
_cell_formula_units_Z   4
loop_
 _symmetry_equiv_pos_site_id
 _symmetry_equiv_pos_as_xyz
  1  'x, y, z'
loop_
 _atom_site_type_symbol
 _atom_site_label
 _atom_site_symmetry_multiplicity
 _atom_site_fract_x
 _atom_site_fract_y
 _atom_site_fract_z
 _atom_site_occupancy
  Sr  Sr0  1  0.61399100  0.55806000  0.68486900  1
  Sr  Sr1  1  0.62323300  0.07371200  0.18583700  1
  Sr  Sr2  1  0.88605000  0.44194600  0.18492100  1
  Sr  Sr3  1  0.87673200  0.92635700  0.68572600  1
  Sr  Sr4  1  0.25876200  0.75520100  0.12987300  1
  Sr  Sr5  1  0.24129900  0.24482300  0.62994100  1
  Sr  Sr6  1  0.11397100  0.55801300  0.81510000  1
  Sr  Sr7  1  0.12323700  0.07369000  0.31424800  1
  Sr  Sr8  1  0.74121000  0.24481400  0.87013400  1
  Sr  Sr9  1  0.75868600  0.75519900  0.37003600  1
  Sr  Sr10  1  0.38604600  0.44190100  0.31512100  1
  Sr  Sr11  1  0.37670700  0.92632600  0.81417400  1
  In  In12  1  0.24628300  0.25109600  0.99790900  1
  In  In13  1  0.25373600  0.74885500  0.49783400  1
  In  In14  1  0.75362000  0.74888800  0.00213600  1
  In  In15  1  0.74630800  0.25121200  0.50213800  1
  Ni  Ni16  1  0.49996800  0.99985300  0.49989200  1
  Ni  Ni17  1  0.99994200  0.99981400  0.00013100  1
  Ni  Ni18  1  0.50018400  0.50010100  0.00002700  1
  Ni  Ni19  1  0.00005900  0.50008300  0.49992900  1
  O  O20  1  0.53797700  0.31956800  0.09745100  1
  O  O21  1  0.53988500  0.79936100  0.59858800  1
  O  O22  1  0.22387600  0.48261500  0.06307500  1
  O  O23  1  0.21355000  0.97284600  0.56293100  1
  O  O24  1  0.39771500  0.36627200  0.83003400  1
  O  O25  1  0.41896800  0.89153900  0.33929900  1
  O  O26  1  0.03971200  0.79928000  0.90117200  1
  O  O27  1  0.03821700  0.31983700  0.40266600  1
  O  O28  1  0.89766800  0.36620700  0.67005800  1
  O  O29  1  0.91886400  0.89141400  0.16062900  1
  O  O30  1  0.72383100  0.48258500  0.43682300  1
  O  O31  1  0.71370600  0.97309700  0.93708800  1
  O  O32  1  0.46203600  0.68049600  0.90256100  1
  O  O33  1  0.46012500  0.20064900  0.40138200  1
  O  O34  1  0.77620700  0.51743200  0.93695000  1
  O  O35  1  0.78637600  0.02712300  0.43704600  1
  O  O36  1  0.60228200  0.63373400  0.16995800  1
  O  O37  1  0.58095100  0.10839800  0.66066600  1
  O  O38  1  0.96023100  0.20070000  0.09884700  1
  O  O39  1  0.96190000  0.68027400  0.59734800  1
  O  O40  1  0.10239700  0.63381300  0.32994800  1
  O  O41  1  0.08100400  0.10846900  0.83942400  1
  O  O42  1  0.27635700  0.51749700  0.56315500  1
  O  O43  1  0.28614000  0.02684800  0.06292900  1
