# generated using pymatgen
data_ZrVFe
_symmetry_space_group_name_H-M   'P 1'
_cell_length_a   5.12190935
_cell_length_b   5.10809523
_cell_length_c   8.19396700
_cell_angle_alpha   90.00000000
_cell_angle_beta   90.00000000
_cell_angle_gamma   59.91049970
_symmetry_Int_Tables_number   1
_chemical_formula_structural   ZrVFe
_chemical_formula_sum   'Zr4 V4 Fe4'
_cell_volume   185.49120981
_cell_formula_units_Z   4
loop_
 _symmetry_equiv_pos_site_id
 _symmetry_equiv_pos_as_xyz
  1  'x, y, z'
loop_
 _atom_site_type_symbol
 _atom_site_label
 _atom_site_symmetry_multiplicity
 _atom_site_fract_x
 _atom_site_fract_y
 _atom_site_fract_z
 _atom_site_occupancy
  Zr  Zr0  1  0.33395600  0.33208800  0.56932900  1
  Zr  Zr1  1  0.66734500  0.66531000  0.44291800  1
  Zr  Zr2  1  0.66734500  0.66531000  0.05708200  1
  Zr  Zr3  1  0.33395600  0.33208800  0.93067100  1
  V  V4  1  0.66370800  0.17006300  0.25000000  1
  V  V5  1  0.16622900  0.17006300  0.25000000  1
  V  V6  1  0.00192500  0.99615000  0.51776900  1
  V  V7  1  0.00192500  0.99615000  0.98223100  1
  Fe  Fe8  1  0.82637000  0.34726000  0.75000000  1
  Fe  Fe9  1  0.34421500  0.82758100  0.75000000  1
  Fe  Fe10  1  0.82820400  0.82758100  0.75000000  1
  Fe  Fe11  1  0.16482200  0.67035500  0.25000000  1
