# generated using pymatgen
data_Na12Mn3S6(O3F)8
_symmetry_space_group_name_H-M   'P 1'
_cell_length_a   9.67550489
_cell_length_b   9.70788936
_cell_length_c   9.79659818
_cell_angle_alpha   113.80105428
_cell_angle_beta   105.20619351
_cell_angle_gamma   109.00670057
_symmetry_Int_Tables_number   1
_chemical_formula_structural   Na12Mn3S6(O3F)8
_chemical_formula_sum   'Na12 Mn3 S6 O24 F8'
_cell_volume   708.79453894
_cell_formula_units_Z   1
loop_
 _symmetry_equiv_pos_site_id
 _symmetry_equiv_pos_as_xyz
  1  'x, y, z'
loop_
 _atom_site_type_symbol
 _atom_site_label
 _atom_site_symmetry_multiplicity
 _atom_site_fract_x
 _atom_site_fract_y
 _atom_site_fract_z
 _atom_site_occupancy
  Na  Na0  1  0.69568500  0.05030700  0.20416300  1
  Na  Na1  1  0.30431500  0.94969300  0.79583700  1
  Na  Na2  1  0.15459900  0.14478000  0.44080000  1
  Na  Na3  1  0.84540100  0.85522000  0.55920000  1
  Na  Na4  1  0.11185500  0.67939500  0.98490100  1
  Na  Na5  1  0.88814500  0.32060500  0.01509900  1
  Na  Na6  1  0.66043100  0.42520500  0.21452000  1
  Na  Na7  1  0.33956900  0.57479500  0.78548000  1
  Na  Na8  1  0.67173700  0.50010700  0.63376000  1
  Na  Na9  1  0.32826300  0.49989300  0.36624000  1
  Na  Na10  1  0.78112000  0.71678000  0.08255600  1
  Na  Na11  1  0.21888000  0.28322000  0.91744400  1
  Mn  Mn12  1  0.00000000  0.50000000  0.50000000  1
  Mn  Mn13  1  0.00000000  0.00000000  0.00000000  1
  Mn  Mn14  1  0.50000000  0.00000000  0.50000000  1
  S  S15  1  0.09034500  0.76231000  0.35687300  1
  S  S16  1  0.90965500  0.23769000  0.64312700  1
  S  S17  1  0.53573600  0.33457700  0.81645000  1
  S  S18  1  0.46426400  0.66542300  0.18355000  1
  S  S19  1  0.39463500  0.12677600  0.22757700  1
  S  S20  1  0.60536500  0.87322400  0.77242300  1
  O  O21  1  0.67420900  0.38951600  0.97255600  1
  O  O22  1  0.32579100  0.61048400  0.02744400  1
  O  O23  1  0.56916900  0.25705200  0.67035400  1
  O  O24  1  0.43083100  0.74294800  0.32964600  1
  O  O25  1  0.94792900  0.79054400  0.35820000  1
  O  O26  1  0.05207100  0.20945600  0.64180000  1
  O  O27  1  0.41948200  0.29044400  0.36235000  1
  O  O28  1  0.58051800  0.70955600  0.63765000  1
  O  O29  1  0.53238700  0.49153200  0.82777300  1
  O  O30  1  0.46761300  0.50846800  0.17222700  1
  O  O31  1  0.37764300  0.21117900  0.78943200  1
  O  O32  1  0.62235700  0.78882100  0.21056700  1
  O  O33  1  0.23439800  0.93047600  0.42113800  1
  O  O34  1  0.76560200  0.06952400  0.57886200  1
  O  O35  1  0.45073000  0.15236400  0.10793200  1
  O  O36  1  0.54927000  0.84763600  0.89206800  1
  O  O37  1  0.04730400  0.63198900  0.18453800  1
  O  O38  1  0.95269600  0.36801100  0.81546200  1
  O  O39  1  0.13692900  0.70368600  0.47393700  1
  O  O40  1  0.86307100  0.29631400  0.52606300  1
  O  O41  1  0.48791500  0.05723900  0.30069000  1
  O  O42  1  0.51208500  0.94276100  0.69931000  1
  O  O43  1  0.21521400  0.99473400  0.13392200  1
  O  O44  1  0.78478600  0.00526600  0.86607800  1
  F  F45  1  0.83421000  0.57103600  0.50518400  1
  F  F46  1  0.16579000  0.42896400  0.49481600  1
  F  F47  1  0.93784600  0.01722100  0.17458900  1
  F  F48  1  0.06215400  0.98277900  0.82541100  1
  F  F49  1  0.86375900  0.34340600  0.26519800  1
  F  F50  1  0.13624100  0.65659400  0.73480200  1
  F  F51  1  0.89583600  0.75553600  0.90255900  1
  F  F52  1  0.10416400  0.24446400  0.09744100  1
