# generated using pymatgen
data_K4Ta2S11
_symmetry_space_group_name_H-M   'P 1'
_cell_length_a   7.61436800
_cell_length_b   11.65685422
_cell_length_c   12.00499046
_cell_angle_alpha   68.83838649
_cell_angle_beta   86.37820574
_cell_angle_gamma   85.47382523
_symmetry_Int_Tables_number   1
_chemical_formula_structural   K4Ta2S11
_chemical_formula_sum   'K8 Ta4 S22'
_cell_volume   989.91436100
_cell_formula_units_Z   2
loop_
 _symmetry_equiv_pos_site_id
 _symmetry_equiv_pos_as_xyz
  1  'x, y, z'
loop_
 _atom_site_type_symbol
 _atom_site_label
 _atom_site_symmetry_multiplicity
 _atom_site_fract_x
 _atom_site_fract_y
 _atom_site_fract_z
 _atom_site_occupancy
  K  K0  1  0.22920000  0.65286700  0.94708400  1
  K  K1  1  0.74351900  0.36924000  0.50620600  1
  K  K2  1  0.25648100  0.63076000  0.49379400  1
  K  K3  1  0.47277800  0.18701600  0.84634200  1
  K  K4  1  0.78357800  0.96291800  0.38836900  1
  K  K5  1  0.21642200  0.03708200  0.61163100  1
  K  K6  1  0.52722200  0.81298400  0.15365800  1
  K  K7  1  0.77080000  0.34713300  0.05291600  1
  Ta  Ta8  1  0.26605200  0.35275300  0.34050300  1
  Ta  Ta9  1  0.73394800  0.64724700  0.65949700  1
  Ta  Ta10  1  0.35458600  0.13287600  0.20422400  1
  Ta  Ta11  1  0.64541400  0.86712400  0.79577600  1
  S  S12  1  0.16626700  0.96909700  0.20313700  1
  S  S13  1  0.61118300  0.08271200  0.11966900  1
  S  S14  1  0.38881700  0.91728800  0.88033100  1
  S  S15  1  0.23390800  0.33863500  0.53400200  1
  S  S16  1  0.93323300  0.80603300  0.66470300  1
  S  S17  1  0.06676700  0.19396700  0.33529700  1
  S  S18  1  0.65357800  0.63740600  0.89805100  1
  S  S19  1  0.34642200  0.36259400  0.10194900  1
  S  S20  1  0.71194600  0.06394100  0.63511100  1
  S  S21  1  0.28805400  0.93605900  0.36488900  1
  S  S22  1  0.03618300  0.62369700  0.72961200  1
  S  S23  1  0.96381700  0.37630300  0.27038800  1
  S  S24  1  0.73149200  0.41577900  0.75899200  1
  S  S25  1  0.26850800  0.58422100  0.24100800  1
  S  S26  1  0.49060700  0.18090100  0.36646000  1
  S  S27  1  0.19055000  0.26795100  0.02994600  1
  S  S28  1  0.83373300  0.03090300  0.79686300  1
  S  S29  1  0.80945000  0.73204900  0.97005400  1
  S  S30  1  0.48676300  0.51580500  0.74455300  1
  S  S31  1  0.51323700  0.48419500  0.25544700  1
  S  S32  1  0.50939300  0.81909900  0.63354000  1
  S  S33  1  0.76609200  0.66136500  0.46599800  1
