# generated using pymatgen
data_Ba(DyS2)2
_symmetry_space_group_name_H-M   'P 1'
_cell_length_a   4.06368400
_cell_length_b   12.34609200
_cell_length_c   14.58909600
_cell_angle_alpha   90.00000000
_cell_angle_beta   90.00000000
_cell_angle_gamma   90.00000000
_symmetry_Int_Tables_number   1
_chemical_formula_structural   Ba(DyS2)2
_chemical_formula_sum   'Ba4 Dy8 S16'
_cell_volume   731.94394083
_cell_formula_units_Z   4
loop_
 _symmetry_equiv_pos_site_id
 _symmetry_equiv_pos_as_xyz
  1  'x, y, z'
loop_
 _atom_site_type_symbol
 _atom_site_label
 _atom_site_symmetry_multiplicity
 _atom_site_fract_x
 _atom_site_fract_y
 _atom_site_fract_z
 _atom_site_occupancy
  Ba  Ba0  1  0.25000000  0.75899900  0.33718200  1
  Ba  Ba1  1  0.25000000  0.25899900  0.16281800  1
  Ba  Ba2  1  0.75000000  0.24100100  0.66281800  1
  Ba  Ba3  1  0.75000000  0.74100100  0.83718200  1
  Dy  Dy4  1  0.25000000  0.43528500  0.39089600  1
  Dy  Dy5  1  0.25000000  0.93528500  0.10910400  1
  Dy  Dy6  1  0.75000000  0.56471500  0.60910400  1
  Dy  Dy7  1  0.75000000  0.06471500  0.89089600  1
  Dy  Dy8  1  0.25000000  0.41954700  0.89895900  1
  Dy  Dy9  1  0.25000000  0.91954700  0.60104100  1
  Dy  Dy10  1  0.75000000  0.58045300  0.10104100  1
  Dy  Dy11  1  0.75000000  0.08045300  0.39895900  1
  S  S12  1  0.25000000  0.20526700  0.83739400  1
  S  S13  1  0.25000000  0.70526700  0.66260600  1
  S  S14  1  0.75000000  0.79473300  0.16260600  1
  S  S15  1  0.75000000  0.29473300  0.33739400  1
  S  S16  1  0.25000000  0.12278100  0.52426900  1
  S  S17  1  0.25000000  0.62278100  0.97573100  1
  S  S18  1  0.75000000  0.87721900  0.47573100  1
  S  S19  1  0.75000000  0.37721900  0.02426900  1
  S  S20  1  0.25000000  0.52505400  0.21649700  1
  S  S21  1  0.25000000  0.02505400  0.28350300  1
  S  S22  1  0.75000000  0.47494600  0.78350300  1
  S  S23  1  0.75000000  0.97494600  0.71649700  1
  S  S24  1  0.25000000  0.41810000  0.57629500  1
  S  S25  1  0.25000000  0.91810000  0.92370500  1
  S  S26  1  0.75000000  0.58190000  0.42370500  1
  S  S27  1  0.75000000  0.08190000  0.07629500  1
