# generated using pymatgen
data_Ba2MnTe3
_symmetry_space_group_name_H-M   'P 1'
_cell_length_a   4.79474800
_cell_length_b   9.82046900
_cell_length_c   19.12179300
_cell_angle_alpha   90.00000000
_cell_angle_beta   90.00000000
_cell_angle_gamma   90.00000000
_symmetry_Int_Tables_number   1
_chemical_formula_structural   Ba2MnTe3
_chemical_formula_sum   'Ba8 Mn4 Te12'
_cell_volume   900.38163514
_cell_formula_units_Z   4
loop_
 _symmetry_equiv_pos_site_id
 _symmetry_equiv_pos_as_xyz
  1  'x, y, z'
loop_
 _atom_site_type_symbol
 _atom_site_label
 _atom_site_symmetry_multiplicity
 _atom_site_fract_x
 _atom_site_fract_y
 _atom_site_fract_z
 _atom_site_occupancy
  Ba  Ba0  1  0.75000000  0.41729400  0.78703700  1
  Ba  Ba1  1  0.25000000  0.58270600  0.21296300  1
  Ba  Ba2  1  0.75000000  0.91729400  0.71296300  1
  Ba  Ba3  1  0.25000000  0.08270600  0.28703700  1
  Ba  Ba4  1  0.25000000  0.25101300  0.54102100  1
  Ba  Ba5  1  0.75000000  0.74898700  0.45897900  1
  Ba  Ba6  1  0.25000000  0.75101300  0.95897900  1
  Ba  Ba7  1  0.75000000  0.24898700  0.04102100  1
  Mn  Mn8  1  0.25000000  0.13245800  0.86423900  1
  Mn  Mn9  1  0.75000000  0.86754200  0.13576100  1
  Mn  Mn10  1  0.75000000  0.36754200  0.36423900  1
  Mn  Mn11  1  0.25000000  0.63245800  0.63576100  1
  Te  Te12  1  0.25000000  0.99830900  0.10135100  1
  Te  Te13  1  0.25000000  0.68301800  0.77527800  1
  Te  Te14  1  0.75000000  0.81698200  0.27527800  1
  Te  Te15  1  0.75000000  0.31698200  0.22472200  1
  Te  Te16  1  0.75000000  0.12129800  0.42805200  1
  Te  Te17  1  0.25000000  0.87870200  0.57194800  1
  Te  Te18  1  0.75000000  0.62129800  0.07194800  1
  Te  Te19  1  0.25000000  0.37870200  0.92805200  1
  Te  Te20  1  0.75000000  0.50169100  0.60135100  1
  Te  Te21  1  0.25000000  0.49830900  0.39864900  1
  Te  Te22  1  0.25000000  0.18301800  0.72472200  1
  Te  Te23  1  0.75000000  0.00169100  0.89864900  1
