# generated using pymatgen
data_Cs3PrCl6
_symmetry_space_group_name_H-M   'P 1'
_cell_length_a   14.37776482
_cell_length_b   14.37776482
_cell_length_c   13.64740784
_cell_angle_alpha   80.91989421
_cell_angle_beta   80.91989421
_cell_angle_gamma   34.76605651
_symmetry_Int_Tables_number   1
_chemical_formula_structural   Cs3PrCl6
_chemical_formula_sum   'Cs12 Pr4 Cl24'
_cell_volume   1586.57196410
_cell_formula_units_Z   4
loop_
 _symmetry_equiv_pos_site_id
 _symmetry_equiv_pos_as_xyz
  1  'x, y, z'
loop_
 _atom_site_type_symbol
 _atom_site_label
 _atom_site_symmetry_multiplicity
 _atom_site_fract_x
 _atom_site_fract_y
 _atom_site_fract_z
 _atom_site_occupancy
  Cs  Cs0  1  0.30239300  0.79609000  0.06734900  1
  Cs  Cs1  1  0.69760700  0.20391000  0.93265100  1
  Cs  Cs2  1  0.20391000  0.69760700  0.43265100  1
  Cs  Cs3  1  0.79609000  0.30239300  0.56734900  1
  Cs  Cs4  1  0.46480000  0.84194200  0.35591700  1
  Cs  Cs5  1  0.53520000  0.15805800  0.64408300  1
  Cs  Cs6  1  0.15805800  0.53520000  0.14408300  1
  Cs  Cs7  1  0.84194200  0.46480000  0.85591700  1
  Cs  Cs8  1  0.64981400  0.02591400  0.29928700  1
  Cs  Cs9  1  0.35018600  0.97408600  0.70071300  1
  Cs  Cs10  1  0.97408600  0.35018600  0.20071300  1
  Cs  Cs11  1  0.02591400  0.64981400  0.79928700  1
  Pr  Pr12  1  0.78221000  0.21779000  0.25000000  1
  Pr  Pr13  1  0.21779000  0.78221000  0.75000000  1
  Pr  Pr14  1  0.50000000  0.00000000  0.00000000  1
  Pr  Pr15  1  0.00000000  0.50000000  0.50000000  1
  Cl  Cl16  1  0.62007000  0.72564700  0.08149200  1
  Cl  Cl17  1  0.37993000  0.27435300  0.91850800  1
  Cl  Cl18  1  0.27435300  0.37993000  0.41850800  1
  Cl  Cl19  1  0.72564700  0.62007000  0.58149200  1
  Cl  Cl20  1  0.49861600  0.38489300  0.17996800  1
  Cl  Cl21  1  0.50138400  0.61510700  0.82003200  1
  Cl  Cl22  1  0.61510700  0.50138400  0.32003200  1
  Cl  Cl23  1  0.38489300  0.49861600  0.67996800  1
  Cl  Cl24  1  0.77976700  0.86609100  0.03504400  1
  Cl  Cl25  1  0.22023300  0.13390900  0.96495600  1
  Cl  Cl26  1  0.13390900  0.22023300  0.46495600  1
  Cl  Cl27  1  0.86609100  0.77976700  0.53504400  1
  Cl  Cl28  1  0.91755800  0.96656400  0.69609200  1
  Cl  Cl29  1  0.08244200  0.03343600  0.30390800  1
  Cl  Cl30  1  0.03343600  0.08244200  0.80390800  1
  Cl  Cl31  1  0.96656400  0.91755800  0.19609200  1
  Cl  Cl32  1  0.71694000  0.16647800  0.43420800  1
  Cl  Cl33  1  0.28306000  0.83352200  0.56579200  1
  Cl  Cl34  1  0.83352200  0.28306000  0.06579200  1
  Cl  Cl35  1  0.16647800  0.71694000  0.93420800  1
  Cl  Cl36  1  0.36166100  0.13917700  0.18433900  1
  Cl  Cl37  1  0.63833900  0.86082300  0.81566100  1
  Cl  Cl38  1  0.86082300  0.63833900  0.31566100  1
  Cl  Cl39  1  0.13917700  0.36166100  0.68433900  1
