# generated using pymatgen
data_H9Au(ClO)4
_symmetry_space_group_name_H-M   'P 1'
_cell_length_a   4.46162900
_cell_length_b   7.35470546
_cell_length_c   9.62748597
_cell_angle_alpha   101.79834020
_cell_angle_beta   102.99842957
_cell_angle_gamma   107.10824062
_symmetry_Int_Tables_number   1
_chemical_formula_structural   H9Au(ClO)4
_chemical_formula_sum   'H9 Au1 Cl4 O4'
_cell_volume   281.50280775
_cell_formula_units_Z   1
loop_
 _symmetry_equiv_pos_site_id
 _symmetry_equiv_pos_as_xyz
  1  'x, y, z'
loop_
 _atom_site_type_symbol
 _atom_site_label
 _atom_site_symmetry_multiplicity
 _atom_site_fract_x
 _atom_site_fract_y
 _atom_site_fract_z
 _atom_site_occupancy
  H  H0  1  0.43390200  0.64921100  0.21820700  1
  H  H1  1  0.54375200  0.33594800  0.78415200  1
  H  H2  1  0.22901400  0.66545400  0.40357400  1
  H  H3  1  0.86571200  0.67140900  0.40471700  1
  H  H4  1  0.78965500  0.32900300  0.60098600  1
  H  H5  1  0.15756400  0.33088000  0.60034300  1
  H  H6  1  0.55425100  0.86542800  0.32165000  1
  H  H7  1  0.36578400  0.12513900  0.67262300  1
  H  H8  1  0.00677800  0.49973300  0.50335800  1
  Au  Au9  1  0.13457700  0.00098200  0.00086000  1
  Cl  Cl10  1  0.31213900  0.09860900  0.25947700  1
  Cl  Cl11  1  0.93552500  0.90359200  0.74269800  1
  Cl  Cl12  1  0.97849200  0.67057800  0.99641800  1
  Cl  Cl13  1  0.32607700  0.33147800  0.00484100  1
  O  O14  1  0.53053100  0.72807300  0.32394300  1
  O  O15  1  0.47243900  0.26492100  0.67701700  1
  O  O16  1  0.06108400  0.64611400  0.45881600  1
  O  O17  1  0.95742100  0.35414700  0.54662100  1
