# generated using pymatgen
data_BaMn5(SO4)6
_symmetry_space_group_name_H-M   'P 1'
_cell_length_a   14.88334040
_cell_length_b   14.88334040
_cell_length_c   7.71577700
_cell_angle_alpha   90.00000000
_cell_angle_beta   90.00000000
_cell_angle_gamma   120.00000180
_symmetry_Int_Tables_number   1
_chemical_formula_structural   BaMn5(SO4)6
_chemical_formula_sum   'Ba3 Mn15 S18 O72'
_cell_volume   1480.16837444
_cell_formula_units_Z   3
loop_
 _symmetry_equiv_pos_site_id
 _symmetry_equiv_pos_as_xyz
  1  'x, y, z'
loop_
 _atom_site_type_symbol
 _atom_site_label
 _atom_site_symmetry_multiplicity
 _atom_site_fract_x
 _atom_site_fract_y
 _atom_site_fract_z
 _atom_site_occupancy
  Ba  Ba0  1  0.66666700  0.33333300  0.99780400  1
  Ba  Ba1  1  0.33333300  0.66666700  0.00219600  1
  Ba  Ba2  1  0.00000000  0.00000000  0.50000000  1
  Mn  Mn3  1  0.99658100  0.34500900  0.96326400  1
  Mn  Mn4  1  0.00341900  0.65499100  0.03673600  1
  Mn  Mn5  1  0.34842800  0.00341900  0.96326400  1
  Mn  Mn6  1  0.65157200  0.99658100  0.03673600  1
  Mn  Mn7  1  0.65499100  0.65157200  0.96326400  1
  Mn  Mn8  1  0.34500900  0.34842800  0.03673600  1
  Mn  Mn9  1  0.67839500  0.68138100  0.54699500  1
  Mn  Mn10  1  0.32160500  0.31861900  0.45300500  1
  Mn  Mn11  1  0.00298600  0.32160500  0.54699500  1
  Mn  Mn12  1  0.99701400  0.67839500  0.45300500  1
  Mn  Mn13  1  0.31861900  0.99701400  0.54699500  1
  Mn  Mn14  1  0.68138100  0.00298600  0.45300500  1
  Mn  Mn15  1  0.66666700  0.33333300  0.49714900  1
  Mn  Mn16  1  0.33333300  0.66666700  0.50285100  1
  Mn  Mn17  1  0.00000000  0.00000000  0.00000000  1
  S  S18  1  0.86916400  0.09712200  0.76011100  1
  S  S19  1  0.13083600  0.90287800  0.23988900  1
  S  S20  1  0.22795800  0.13083600  0.76011100  1
  S  S21  1  0.77204200  0.86916400  0.23988900  1
  S  S22  1  0.90287800  0.77204200  0.76011100  1
  S  S23  1  0.09712200  0.22795800  0.23988900  1
  S  S24  1  0.56016100  0.79425000  0.74172500  1
  S  S25  1  0.43983900  0.20575000  0.25827500  1
  S  S26  1  0.23409000  0.43983900  0.74172500  1
  S  S27  1  0.76591000  0.56016100  0.25827500  1
  S  S28  1  0.20575000  0.76591000  0.74172500  1
  S  S29  1  0.79425000  0.23409000  0.25827500  1
  S  S30  1  0.89355900  0.46238600  0.73775300  1
  S  S31  1  0.10644100  0.53761400  0.26224700  1
  S  S32  1  0.56882800  0.10644100  0.73775300  1
  S  S33  1  0.43117200  0.89355900  0.26224700  1
  S  S34  1  0.53761400  0.43117200  0.73775300  1
  S  S35  1  0.46238600  0.56882800  0.26224700  1
  O  O36  1  0.45472100  0.70431500  0.70683300  1
  O  O37  1  0.54527900  0.29568500  0.29316700  1
  O  O38  1  0.24959400  0.54527900  0.70683300  1
  O  O39  1  0.75040600  0.45472100  0.29316700  1
  O  O40  1  0.29568500  0.75040600  0.70683300  1
  O  O41  1  0.70431500  0.24959400  0.29316700  1
  O  O42  1  0.89217700  0.50508600  0.91274200  1
  O  O43  1  0.10782300  0.49491400  0.08725800  1
  O  O44  1  0.61291000  0.10782300  0.91274200  1
  O  O45  1  0.38709000  0.89217700  0.08725800  1
  O  O46  1  0.49491400  0.38709000  0.91274200  1
  O  O47  1  0.50508600  0.61291000  0.08725800  1
  O  O48  1  0.83325500  0.05666600  0.58067900  1
  O  O49  1  0.16674500  0.94333400  0.41932100  1
  O  O50  1  0.22341100  0.16674500  0.58067900  1
  O  O51  1  0.77658900  0.83325500  0.41932100  1
  O  O52  1  0.94333400  0.77658900  0.58067900  1
  O  O53  1  0.05666600  0.22341100  0.41932100  1
  O  O54  1  0.61923400  0.07830500  0.60208700  1
  O  O55  1  0.38076600  0.92169500  0.39791300  1
  O  O56  1  0.45907100  0.38076600  0.60208700  1
  O  O57  1  0.54092900  0.61923400  0.39791300  1
  O  O58  1  0.92169500  0.54092900  0.60208700  1
  O  O59  1  0.07830500  0.45907100  0.39791300  1
  O  O60  1  0.95735400  0.08027800  0.80260500  1
  O  O61  1  0.04264600  0.91972200  0.19739500  1
  O  O62  1  0.12292400  0.04264600  0.80260500  1
  O  O63  1  0.87707600  0.95735400  0.19739500  1
  O  O64  1  0.91972200  0.87707600  0.80260500  1
  O  O65  1  0.08027800  0.12292400  0.19739500  1
  O  O66  1  0.96955700  0.42369300  0.74375200  1
  O  O67  1  0.03044300  0.57630700  0.25624800  1
  O  O68  1  0.45413600  0.03044300  0.74375200  1
  O  O69  1  0.54586400  0.96955700  0.25624800  1
  O  O70  1  0.57630700  0.54586400  0.74375200  1
  O  O71  1  0.42369300  0.45413600  0.25624800  1
  O  O72  1  0.90851400  0.21187200  0.76146700  1
  O  O73  1  0.09148600  0.78812800  0.23853300  1
  O  O74  1  0.30335700  0.09148600  0.76146700  1
  O  O75  1  0.69664300  0.90851400  0.23853300  1
  O  O76  1  0.78812800  0.69664300  0.76146700  1
  O  O77  1  0.21187200  0.30335700  0.23853300  1
  O  O78  1  0.55621600  0.84340100  0.90800200  1
  O  O79  1  0.44378400  0.15659900  0.09199800  1
  O  O80  1  0.28718500  0.44378400  0.90800200  1
  O  O81  1  0.71281500  0.55621600  0.09199800  1
  O  O82  1  0.15659900  0.71281500  0.90800200  1
  O  O83  1  0.84340100  0.28718500  0.09199800  1
  O  O84  1  0.59200200  0.86689400  0.59574500  1
  O  O85  1  0.40799800  0.13310600  0.40425500  1
  O  O86  1  0.27489100  0.40799800  0.59574500  1
  O  O87  1  0.72510900  0.59200200  0.40425500  1
  O  O88  1  0.13310600  0.72510900  0.59574500  1
  O  O89  1  0.86689400  0.27489100  0.40425500  1
  O  O90  1  0.78832200  0.37254900  0.70180100  1
  O  O91  1  0.21167800  0.62745100  0.29819900  1
  O  O92  1  0.58422700  0.21167800  0.70180100  1
  O  O93  1  0.41577300  0.78832200  0.29819900  1
  O  O94  1  0.62745100  0.41577300  0.70180100  1
  O  O95  1  0.37254900  0.58422700  0.29819900  1
  O  O96  1  0.63491900  0.75443000  0.76013400  1
  O  O97  1  0.36508100  0.24557000  0.23986600  1
  O  O98  1  0.11951100  0.36508100  0.76013400  1
  O  O99  1  0.88048900  0.63491900  0.23986600  1
  O  O100  1  0.24557000  0.88048900  0.76013400  1
  O  O101  1  0.75443000  0.11951100  0.23986600  1
  O  O102  1  0.78490300  0.04316600  0.88565700  1
  O  O103  1  0.21509700  0.95683400  0.11434300  1
  O  O104  1  0.25826300  0.21509700  0.88565700  1
  O  O105  1  0.74173700  0.78490300  0.11434300  1
  O  O106  1  0.95683400  0.74173700  0.88565700  1
  O  O107  1  0.04316600  0.25826300  0.11434300  1
