# generated using pymatgen
data_Gd3RuO7
_symmetry_space_group_name_H-M   'P 1'
_cell_length_a   6.48977861
_cell_length_b   6.48977861
_cell_length_c   7.48788700
_cell_angle_alpha   90.00000000
_cell_angle_beta   90.00000000
_cell_angle_gamma   110.68410591
_symmetry_Int_Tables_number   1
_chemical_formula_structural   Gd3RuO7
_chemical_formula_sum   'Gd6 Ru2 O14'
_cell_volume   295.04099113
_cell_formula_units_Z   2
loop_
 _symmetry_equiv_pos_site_id
 _symmetry_equiv_pos_as_xyz
  1  'x, y, z'
loop_
 _atom_site_type_symbol
 _atom_site_label
 _atom_site_symmetry_multiplicity
 _atom_site_fract_x
 _atom_site_fract_y
 _atom_site_fract_z
 _atom_site_occupancy
  Gd  Gd0  1  0.47819700  0.92617700  0.75000000  1
  Gd  Gd1  1  0.52180300  0.07382300  0.25000000  1
  Gd  Gd2  1  0.92617700  0.47819700  0.75000000  1
  Gd  Gd3  1  0.07382300  0.52180300  0.25000000  1
  Gd  Gd4  1  0.00000000  0.00000000  0.50000000  1
  Gd  Gd5  1  0.00000000  0.00000000  0.00000000  1
  Ru  Ru6  1  0.50000000  0.50000000  0.50000000  1
  Ru  Ru7  1  0.50000000  0.50000000  0.00000000  1
  O  O8  1  0.58721900  0.58721900  0.75000000  1
  O  O9  1  0.41278100  0.41278100  0.25000000  1
  O  O10  1  0.84338800  0.10815400  0.75000000  1
  O  O11  1  0.15661200  0.89184600  0.25000000  1
  O  O12  1  0.10815400  0.84338800  0.75000000  1
  O  O13  1  0.89184600  0.15661200  0.25000000  1
  O  O14  1  0.43815200  0.18282100  0.96114700  1
  O  O15  1  0.56184800  0.81717900  0.46114700  1
  O  O16  1  0.18282100  0.43815200  0.96114700  1
  O  O17  1  0.81717900  0.56184800  0.46114700  1
  O  O18  1  0.43815200  0.18282100  0.53885300  1
  O  O19  1  0.56184800  0.81717900  0.03885300  1
  O  O20  1  0.81717900  0.56184800  0.03885300  1
  O  O21  1  0.18282100  0.43815200  0.53885300  1
