# generated using pymatgen
data_Ca3GaN3
_symmetry_space_group_name_H-M   'P 1'
_cell_length_a   7.20683905
_cell_length_b   7.20683905
_cell_length_c   5.08654300
_cell_angle_alpha   90.00000000
_cell_angle_beta   90.00000000
_cell_angle_gamma   120.00000963
_symmetry_Int_Tables_number   1
_chemical_formula_structural   Ca3GaN3
_chemical_formula_sum   'Ca6 Ga2 N6'
_cell_volume   228.79311742
_cell_formula_units_Z   2
loop_
 _symmetry_equiv_pos_site_id
 _symmetry_equiv_pos_as_xyz
  1  'x, y, z'
loop_
 _atom_site_type_symbol
 _atom_site_label
 _atom_site_symmetry_multiplicity
 _atom_site_fract_x
 _atom_site_fract_y
 _atom_site_fract_z
 _atom_site_occupancy
  Ca  Ca0  1  0.93122800  0.64883500  0.25000000  1
  Ca  Ca1  1  0.71760700  0.06877200  0.25000000  1
  Ca  Ca2  1  0.35116500  0.28239300  0.25000000  1
  Ca  Ca3  1  0.06877200  0.35116500  0.75000000  1
  Ca  Ca4  1  0.28239300  0.93122800  0.75000000  1
  Ca  Ca5  1  0.64883500  0.71760700  0.75000000  1
  Ga  Ga6  1  0.66666700  0.33333300  0.75000000  1
  Ga  Ga7  1  0.33333300  0.66666700  0.25000000  1
  N  N8  1  0.91751200  0.61158800  0.75000000  1
  N  N9  1  0.69407600  0.08248800  0.75000000  1
  N  N10  1  0.38841200  0.30592400  0.75000000  1
  N  N11  1  0.08248800  0.38841200  0.25000000  1
  N  N12  1  0.30592400  0.91751200  0.25000000  1
  N  N13  1  0.61158800  0.69407600  0.25000000  1
