# generated using pymatgen
data_Ba2InBiO6
_symmetry_space_group_name_H-M   'P 1'
_cell_length_a   8.61765146
_cell_length_b   8.61765146
_cell_length_c   8.61765146
_cell_angle_alpha   90.00000000
_cell_angle_beta   90.00000000
_cell_angle_gamma   90.00000000
_symmetry_Int_Tables_number   1
_chemical_formula_structural   Ba2InBiO6
_chemical_formula_sum   'Ba8 In4 Bi4 O24'
_cell_volume   639.98055005
_cell_formula_units_Z   4
loop_
 _symmetry_equiv_pos_site_id
 _symmetry_equiv_pos_as_xyz
  1  'x, y, z'
loop_
 _atom_site_type_symbol
 _atom_site_label
 _atom_site_symmetry_multiplicity
 _atom_site_fract_x
 _atom_site_fract_y
 _atom_site_fract_z
 _atom_site_occupancy
  Ba  Ba0  1  0.50000000  0.50000000  0.50000000  1
  Ba  Ba1  1  0.00000000  -0.00000000  0.00000000  1
  Ba  Ba2  1  0.00000000  -0.00000000  0.50000000  1
  Ba  Ba3  1  0.00000000  0.50000000  0.00000000  1
  Ba  Ba4  1  0.50000000  -0.00000000  0.00000000  1
  Ba  Ba5  1  0.50000000  0.50000000  0.00000000  1
  Ba  Ba6  1  0.50000000  -0.00000000  0.50000000  1
  Ba  Ba7  1  0.00000000  0.50000000  0.50000000  1
  In  In8  1  0.25000000  0.25000000  0.25000000  1
  In  In9  1  0.25000000  0.75000000  0.75000000  1
  In  In10  1  0.75000000  0.25000000  0.75000000  1
  In  In11  1  0.75000000  0.75000000  0.25000000  1
  Bi  Bi12  1  0.75000000  0.75000000  0.75000000  1
  Bi  Bi13  1  0.75000000  0.25000000  0.25000000  1
  Bi  Bi14  1  0.25000000  0.75000000  0.25000000  1
  Bi  Bi15  1  0.25000000  0.25000000  0.75000000  1
  O  O16  1  0.22866316  0.27367605  0.50223216  1
  O  O17  1  0.22866316  0.72632395  0.49776784  1
  O  O18  1  0.77133684  0.27367605  0.49776784  1
  O  O19  1  0.77133684  0.72632395  0.50223216  1
  O  O20  1  0.27367605  0.50223216  0.22866316  1
  O  O21  1  0.72632395  0.49776784  0.22866316  1
  O  O22  1  0.27367605  0.49776784  0.77133684  1
  O  O23  1  0.72632395  0.50223216  0.77133684  1
  O  O24  1  0.50223216  0.22866316  0.27367605  1
  O  O25  1  0.49776784  0.22866316  0.72632395  1
  O  O26  1  0.49776784  0.77133684  0.27367605  1
  O  O27  1  0.50223216  0.77133684  0.72632395  1
  O  O28  1  0.27133684  0.22632395  0.99776784  1
  O  O29  1  0.27133684  0.77367605  0.00223216  1
  O  O30  1  0.72866316  0.22632395  0.00223216  1
  O  O31  1  0.72866316  0.77367605  0.99776784  1
  O  O32  1  0.22632395  0.99776784  0.27133684  1
  O  O33  1  0.77367605  0.00223216  0.27133684  1
  O  O34  1  0.22632395  0.00223216  0.72866316  1
  O  O35  1  0.77367605  0.99776784  0.72866316  1
  O  O36  1  0.99776784  0.27133684  0.22632395  1
  O  O37  1  0.00223216  0.27133684  0.77367605  1
  O  O38  1  0.00223216  0.72866316  0.22632395  1
  O  O39  1  0.99776784  0.72866316  0.77367605  1
