# generated using pymatgen
data_LaTaTiO6
_symmetry_space_group_name_H-M   'P 1'
_cell_length_a   5.48888500
_cell_length_b   7.61514100
_cell_length_c   11.08794300
_cell_angle_alpha   90.00000000
_cell_angle_beta   90.00000000
_cell_angle_gamma   90.00000000
_symmetry_Int_Tables_number   1
_chemical_formula_structural   LaTaTiO6
_chemical_formula_sum   'La4 Ta4 Ti4 O24'
_cell_volume   463.46086249
_cell_formula_units_Z   4
loop_
 _symmetry_equiv_pos_site_id
 _symmetry_equiv_pos_as_xyz
  1  'x, y, z'
loop_
 _atom_site_type_symbol
 _atom_site_label
 _atom_site_symmetry_multiplicity
 _atom_site_fract_x
 _atom_site_fract_y
 _atom_site_fract_z
 _atom_site_occupancy
  La  La0  1  0.45574200  0.74903500  0.95814600  1
  La  La1  1  0.04425800  0.74903500  0.45814600  1
  La  La2  1  0.54425800  0.24903500  0.04185400  1
  La  La3  1  0.95574200  0.24903500  0.54185400  1
  Ta  Ta4  1  0.46182100  0.50514100  0.64369400  1
  Ta  Ta5  1  0.53817900  0.00514100  0.35630600  1
  Ta  Ta6  1  0.96182100  0.00514100  0.85630600  1
  Ta  Ta7  1  0.03817900  0.50514100  0.14369400  1
  Ti  Ti8  1  0.03526100  0.99405900  0.14346400  1
  Ti  Ti9  1  0.96473900  0.49405900  0.85653600  1
  Ti  Ti10  1  0.53526100  0.49405900  0.35653600  1
  Ti  Ti11  1  0.46473900  0.99405900  0.64346400  1
  O  O12  1  0.04071900  0.74878700  0.85648100  1
  O  O13  1  0.45928100  0.74878700  0.35648100  1
  O  O14  1  0.95928100  0.24878700  0.14351900  1
  O  O15  1  0.54071900  0.24878700  0.64351900  1
  O  O16  1  0.63307800  0.55400500  0.78974400  1
  O  O17  1  0.87157600  0.94637600  0.28783400  1
  O  O18  1  0.36692200  0.05400500  0.21025600  1
  O  O19  1  0.12842400  0.44637600  0.71216600  1
  O  O20  1  0.37157600  0.44637600  0.21216600  1
  O  O21  1  0.13307800  0.05400500  0.71025600  1
  O  O22  1  0.62842400  0.94637600  0.78783400  1
  O  O23  1  0.86692200  0.55400500  0.28974400  1
  O  O24  1  0.14929900  0.75205800  0.12415200  1
  O  O25  1  0.35070100  0.75205800  0.62415200  1
  O  O26  1  0.85070100  0.25205800  0.87584800  1
  O  O27  1  0.64929900  0.25205800  0.37584800  1
  O  O28  1  0.23074900  0.03580400  0.97350400  1
  O  O29  1  0.27284800  0.46473600  0.47413900  1
  O  O30  1  0.76925100  0.53580400  0.02649600  1
  O  O31  1  0.72715200  0.96473600  0.52586100  1
  O  O32  1  0.77284800  0.96473600  0.02586100  1
  O  O33  1  0.73074900  0.53580400  0.52649600  1
  O  O34  1  0.22715200  0.46473600  0.97413900  1
  O  O35  1  0.26925100  0.03580400  0.47350400  1
