# generated using pymatgen
data_Dy12Ni6Pb
_symmetry_space_group_name_H-M   'P 1'
_cell_length_a   8.39188316
_cell_length_b   8.39188316
_cell_length_c   8.39188316
_cell_angle_alpha   109.47122063
_cell_angle_beta   109.47122063
_cell_angle_gamma   109.47122063
_symmetry_Int_Tables_number   1
_chemical_formula_structural   Dy12Ni6Pb
_chemical_formula_sum   'Dy12 Ni6 Pb1'
_cell_volume   454.94237923
_cell_formula_units_Z   1
loop_
 _symmetry_equiv_pos_site_id
 _symmetry_equiv_pos_as_xyz
  1  'x, y, z'
loop_
 _atom_site_type_symbol
 _atom_site_label
 _atom_site_symmetry_multiplicity
 _atom_site_fract_x
 _atom_site_fract_y
 _atom_site_fract_z
 _atom_site_occupancy
  Dy  Dy0  1  0.81205000  0.69514700  0.50719700  1
  Dy  Dy1  1  0.18795000  0.30485300  0.49280300  1
  Dy  Dy2  1  0.18795000  0.69514700  0.88309700  1
  Dy  Dy3  1  0.81205000  0.30485300  0.11690300  1
  Dy  Dy4  1  0.69514700  0.50719700  0.81205000  1
  Dy  Dy5  1  0.30485300  0.49280300  0.18795000  1
  Dy  Dy6  1  0.69514700  0.88309700  0.18795000  1
  Dy  Dy7  1  0.30485300  0.11690300  0.81205000  1
  Dy  Dy8  1  0.50719700  0.81205000  0.69514700  1
  Dy  Dy9  1  0.49280300  0.18795000  0.30485300  1
  Dy  Dy10  1  0.11690300  0.81205000  0.30485300  1
  Dy  Dy11  1  0.88309700  0.18795000  0.69514700  1
  Ni  Ni12  1  0.87582100  0.37582100  0.50000000  1
  Ni  Ni13  1  0.12417900  0.62417900  0.50000000  1
  Ni  Ni14  1  0.37582100  0.50000000  0.87582100  1
  Ni  Ni15  1  0.62417900  0.50000000  0.12417900  1
  Ni  Ni16  1  0.50000000  0.87582100  0.37582100  1
  Ni  Ni17  1  0.50000000  0.12417900  0.62417900  1
  Pb  Pb18  1  0.00000000  0.00000000  0.00000000  1
