# generated using pymatgen
data_Yb2WO6
_symmetry_space_group_name_H-M   'P 1'
_cell_length_a   5.63634200
_cell_length_b   7.64408000
_cell_length_c   11.16999467
_cell_angle_alpha   79.44651202
_cell_angle_beta   90.00000000
_cell_angle_gamma   90.00000000
_symmetry_Int_Tables_number   1
_chemical_formula_structural   Yb2WO6
_chemical_formula_sum   'Yb8 W4 O24'
_cell_volume   473.11455735
_cell_formula_units_Z   4
loop_
 _symmetry_equiv_pos_site_id
 _symmetry_equiv_pos_as_xyz
  1  'x, y, z'
loop_
 _atom_site_type_symbol
 _atom_site_label
 _atom_site_symmetry_multiplicity
 _atom_site_fract_x
 _atom_site_fract_y
 _atom_site_fract_z
 _atom_site_occupancy
  Yb  Yb0  1  0.18779100  0.19902500  0.41575100  1
  Yb  Yb1  1  0.18779100  0.80097500  0.08424900  1
  Yb  Yb2  1  0.81220900  0.80097500  0.58424900  1
  Yb  Yb3  1  0.81220900  0.19902500  0.91575100  1
  Yb  Yb4  1  0.66887500  0.50000000  0.25000000  1
  Yb  Yb5  1  0.33112500  0.50000000  0.75000000  1
  Yb  Yb6  1  0.73627700  0.00000000  0.25000000  1
  Yb  Yb7  1  0.26372300  0.00000000  0.75000000  1
  W  W8  1  0.25050200  0.29046300  0.09973400  1
  W  W9  1  0.25050200  0.70953700  0.40026600  1
  W  W10  1  0.74949800  0.70953700  0.90026600  1
  W  W11  1  0.74949800  0.29046300  0.59973400  1
  O  O12  1  0.45760800  0.21659400  0.25133700  1
  O  O13  1  0.45760800  0.78340600  0.24866300  1
  O  O14  1  0.54239200  0.78340600  0.74866300  1
  O  O15  1  0.54239200  0.21659400  0.75133700  1
  O  O16  1  0.02900100  0.07550300  0.10349100  1
  O  O17  1  0.02900100  0.92449700  0.39650900  1
  O  O18  1  0.97099900  0.92449700  0.89650900  1
  O  O19  1  0.97099900  0.07550300  0.60349100  1
  O  O20  1  0.98361100  0.28863200  0.21214400  1
  O  O21  1  0.98361100  0.71136800  0.28785600  1
  O  O22  1  0.01638900  0.71136800  0.78785600  1
  O  O23  1  0.01638900  0.28863200  0.71214400  1
  O  O24  1  0.83545900  0.34843200  0.43678300  1
  O  O25  1  0.83545900  0.65156800  0.06321700  1
  O  O26  1  0.16454100  0.65156800  0.56321700  1
  O  O27  1  0.16454100  0.34843200  0.93678300  1
  O  O28  1  0.65943300  0.51970700  0.61047700  1
  O  O29  1  0.65943300  0.48029300  0.88952300  1
  O  O30  1  0.34056700  0.48029300  0.38952300  1
  O  O31  1  0.34056700  0.51970700  0.11047700  1
  O  O32  1  0.48319300  0.14519000  0.56784300  1
  O  O33  1  0.48319300  0.85481000  0.93215700  1
  O  O34  1  0.51680700  0.85481000  0.43215700  1
  O  O35  1  0.51680700  0.14519000  0.06784300  1
