# generated using pymatgen
data_FeAgO2
_symmetry_space_group_name_H-M   'P 1'
_cell_length_a   5.32822797
_cell_length_b   6.16443413
_cell_length_c   7.21251305
_cell_angle_alpha   115.30089777
_cell_angle_beta   104.24079388
_cell_angle_gamma   89.99967460
_symmetry_Int_Tables_number   1
_chemical_formula_structural   FeAgO2
_chemical_formula_sum   'Fe4 Ag4 O8'
_cell_volume   206.09361360
_cell_formula_units_Z   4
loop_
 _symmetry_equiv_pos_site_id
 _symmetry_equiv_pos_as_xyz
  1  'x, y, z'
loop_
 _atom_site_type_symbol
 _atom_site_label
 _atom_site_symmetry_multiplicity
 _atom_site_fract_x
 _atom_site_fract_y
 _atom_site_fract_z
 _atom_site_occupancy
  Fe  Fe0  1  0.50000200  0.25021000  0.50000000  1
  Fe  Fe1  1  0.99999900  0.49979100  0.50000100  1
  Fe  Fe2  1  0.50000100  0.75022600  0.49999900  1
  Fe  Fe3  1  0.99999900  0.99977400  0.50000100  1
  Ag  Ag4  1  0.00000000  0.00004500  0.00000000  1
  Ag  Ag5  1  0.50000000  0.24995500  0.00000000  1
  Ag  Ag6  1  0.00000000  0.50004500  0.00000000  1
  Ag  Ag7  1  0.50000000  0.74995500  0.00000000  1
  O  O8  1  0.88771300  0.33121900  0.66294300  1
  O  O9  1  0.38771300  0.58171200  0.66294300  1
  O  O10  1  0.88771000  0.83122100  0.66294200  1
  O  O11  1  0.38771100  0.08171000  0.66294200  1
  O  O12  1  0.11228700  0.16828800  0.33705700  1
  O  O13  1  0.61228700  0.41878100  0.33705700  1
  O  O14  1  0.11228900  0.66829000  0.33705800  1
  O  O15  1  0.61229000  0.91877900  0.33705800  1
