# generated using pymatgen
data_ThCd3
_symmetry_space_group_name_H-M   'P 1'
_cell_length_a   6.85440761
_cell_length_b   6.85440761
_cell_length_c   5.02122900
_cell_angle_alpha   90.00000000
_cell_angle_beta   90.00000000
_cell_angle_gamma   119.99999619
_symmetry_Int_Tables_number   1
_chemical_formula_structural   ThCd3
_chemical_formula_sum   'Th2 Cd6'
_cell_volume   204.30572202
_cell_formula_units_Z   2
loop_
 _symmetry_equiv_pos_site_id
 _symmetry_equiv_pos_as_xyz
  1  'x, y, z'
loop_
 _atom_site_type_symbol
 _atom_site_label
 _atom_site_symmetry_multiplicity
 _atom_site_fract_x
 _atom_site_fract_y
 _atom_site_fract_z
 _atom_site_occupancy
  Th  Th0  1  0.33333300  0.66666700  0.25000000  1
  Th  Th1  1  0.66666700  0.33333300  0.75000000  1
  Cd  Cd2  1  0.15700800  0.31401600  0.75000000  1
  Cd  Cd3  1  0.84299200  0.68598400  0.25000000  1
  Cd  Cd4  1  0.68598400  0.84299200  0.75000000  1
  Cd  Cd5  1  0.31401600  0.15700800  0.25000000  1
  Cd  Cd6  1  0.15700800  0.84299200  0.75000000  1
  Cd  Cd7  1  0.84299200  0.15700800  0.25000000  1
