# generated using pymatgen
data_CrWO4
_symmetry_space_group_name_H-M   'P 1'
_cell_length_a   3.15478010
_cell_length_b   4.63117706
_cell_length_c   4.63320498
_cell_angle_alpha   91.07682916
_cell_angle_beta   89.99967347
_cell_angle_gamma   90.00034516
_symmetry_Int_Tables_number   1
_chemical_formula_structural   CrWO4
_chemical_formula_sum   'Cr1 W1 O4'
_cell_volume   67.68076951
_cell_formula_units_Z   1
loop_
 _symmetry_equiv_pos_site_id
 _symmetry_equiv_pos_as_xyz
  1  'x, y, z'
loop_
 _atom_site_type_symbol
 _atom_site_label
 _atom_site_symmetry_multiplicity
 _atom_site_fract_x
 _atom_site_fract_y
 _atom_site_fract_z
 _atom_site_occupancy
  Cr  Cr0  1  0.00000100  0.50000000  0.50000000  1
  W  W1  1  0.49999900  0.00000000  0.00000000  1
  O  O2  1  0.99999500  0.80463900  0.19509400  1
  O  O3  1  0.00000400  0.19536000  0.80490500  1
  O  O4  1  0.50000100  0.69918800  0.69906200  1
  O  O5  1  0.49999900  0.30081100  0.30093700  1
