# generated using pymatgen
data_Na3LuCl6
_symmetry_space_group_name_H-M   'P 1'
_cell_length_a   6.96032732
_cell_length_b   7.26362100
_cell_length_c   10.20192298
_cell_angle_alpha   90.00000000
_cell_angle_beta   90.51860115
_cell_angle_gamma   90.00000000
_symmetry_Int_Tables_number   1
_chemical_formula_structural   Na3LuCl6
_chemical_formula_sum   'Na6 Lu2 Cl12'
_cell_volume   515.75932524
_cell_formula_units_Z   2
loop_
 _symmetry_equiv_pos_site_id
 _symmetry_equiv_pos_as_xyz
  1  'x, y, z'
loop_
 _atom_site_type_symbol
 _atom_site_label
 _atom_site_symmetry_multiplicity
 _atom_site_fract_x
 _atom_site_fract_y
 _atom_site_fract_z
 _atom_site_occupancy
  Na  Na0  1  0.00000000  0.00000000  0.50000000  1
  Na  Na1  1  0.50000000  0.50000000  0.00000000  1
  Na  Na2  1  0.98567800  0.55819800  0.25832200  1
  Na  Na3  1  0.01432200  0.44180200  0.74167800  1
  Na  Na4  1  0.51432200  0.05819800  0.24167800  1
  Na  Na5  1  0.48567800  0.94180200  0.75832200  1
  Lu  Lu6  1  0.00000000  0.00000000  0.00000000  1
  Lu  Lu7  1  0.50000000  0.50000000  0.50000000  1
  Cl  Cl8  1  0.83080700  0.29873400  0.07625800  1
  Cl  Cl9  1  0.16919300  0.70126600  0.92374200  1
  Cl  Cl10  1  0.66919300  0.79873400  0.42374200  1
  Cl  Cl11  1  0.33080700  0.20126600  0.57625800  1
  Cl  Cl12  1  0.13010600  0.93584000  0.23593400  1
  Cl  Cl13  1  0.86989400  0.06416000  0.76406600  1
  Cl  Cl14  1  0.36989400  0.43584000  0.26406600  1
  Cl  Cl15  1  0.63010600  0.56416000  0.73593400  1
  Cl  Cl16  1  0.69360100  0.82111600  0.06056200  1
  Cl  Cl17  1  0.30639900  0.17888400  0.93943800  1
  Cl  Cl18  1  0.80639900  0.32111600  0.43943800  1
  Cl  Cl19  1  0.19360100  0.67888400  0.56056200  1
