# generated using pymatgen
data_Pr8Sb14Rh17
_symmetry_space_group_name_H-M   'P 1'
_cell_length_a   14.00718561
_cell_length_b   14.00718561
_cell_length_c   14.00718561
_cell_angle_alpha   127.85992257
_cell_angle_beta   127.85992257
_cell_angle_gamma   76.85205803
_symmetry_Int_Tables_number   1
_chemical_formula_structural   Pr8Sb14Rh17
_chemical_formula_sum   'Pr16 Sb28 Rh34'
_cell_volume   1663.25912257
_cell_formula_units_Z   2
loop_
 _symmetry_equiv_pos_site_id
 _symmetry_equiv_pos_as_xyz
  1  'x, y, z'
loop_
 _atom_site_type_symbol
 _atom_site_label
 _atom_site_symmetry_multiplicity
 _atom_site_fract_x
 _atom_site_fract_y
 _atom_site_fract_z
 _atom_site_occupancy
  Pr  Pr0  1  0.91339400  0.41339400  0.97245500  1
  Pr  Pr1  1  0.44094000  0.94094000  0.02754500  1
  Pr  Pr2  1  0.41339400  0.44094000  0.50000000  1
  Pr  Pr3  1  0.94094000  0.91339400  0.50000000  1
  Pr  Pr4  1  0.16976200  0.16976200  0.00000000  1
  Pr  Pr5  1  0.66976200  0.66976200  0.00000000  1
  Pr  Pr6  1  0.17091100  0.67091100  0.50000000  1
  Pr  Pr7  1  0.67091100  0.17091100  0.50000000  1
  Pr  Pr8  1  0.67679000  0.43828700  0.25829000  1
  Pr  Pr9  1  0.17999700  0.41850100  0.74171000  1
  Pr  Pr10  1  0.43828700  0.17999700  0.76149600  1
  Pr  Pr11  1  0.67999700  0.93828700  0.76149600  1
  Pr  Pr12  1  0.41850100  0.67679000  0.23850400  1
  Pr  Pr13  1  0.17679000  0.91850100  0.23850400  1
  Pr  Pr14  1  0.91850100  0.67999700  0.74171000  1
  Pr  Pr15  1  0.93828700  0.17679000  0.25829000  1
  Sb  Sb16  1  0.22387000  0.48338300  0.23904700  1
  Sb  Sb17  1  0.24433600  0.98482300  0.76095300  1
  Sb  Sb18  1  0.48338300  0.24433600  0.25951300  1
  Sb  Sb19  1  0.74433600  0.98338300  0.25951300  1
  Sb  Sb20  1  0.98482300  0.22387000  0.74048700  1
  Sb  Sb21  1  0.72387000  0.48482300  0.74048700  1
  Sb  Sb22  1  0.48482300  0.74433600  0.76095300  1
  Sb  Sb23  1  0.98338300  0.72387000  0.23904700  1
  Sb  Sb24  1  0.17457700  0.21128500  0.27444600  1
  Sb  Sb25  1  0.93683900  0.90013100  0.72555400  1
  Sb  Sb26  1  0.21128500  0.93683900  0.03670900  1
  Sb  Sb27  1  0.43683900  0.71128500  0.03670900  1
  Sb  Sb28  1  0.90013100  0.17457700  0.96329100  1
  Sb  Sb29  1  0.67457700  0.40013100  0.96329100  1
  Sb  Sb30  1  0.40013100  0.43683900  0.72555400  1
  Sb  Sb31  1  0.71128500  0.67457700  0.27444600  1
  Sb  Sb32  1  0.37666300  0.37666300  0.00000000  1
  Sb  Sb33  1  0.87666300  0.87666300  0.00000000  1
  Sb  Sb34  1  0.12245300  0.62245300  0.67877000  1
  Sb  Sb35  1  0.94368300  0.44368300  0.32123000  1
  Sb  Sb36  1  0.62245300  0.94368300  0.50000000  1
  Sb  Sb37  1  0.44368300  0.12245300  0.50000000  1
  Sb  Sb38  1  0.37586200  0.87586200  0.50000000  1
  Sb  Sb39  1  0.87586200  0.37586200  0.50000000  1
  Sb  Sb40  1  0.10817700  0.60817700  0.98508600  1
  Sb  Sb41  1  0.62309100  0.12309100  0.01491400  1
  Sb  Sb42  1  0.60817700  0.62309100  0.50000000  1
  Sb  Sb43  1  0.12309100  0.10817700  0.50000000  1
  Rh  Rh44  1  0.38017900  0.15401400  0.29935900  1
  Rh  Rh45  1  0.85465500  0.08082000  0.70064100  1
  Rh  Rh46  1  0.15401400  0.85465500  0.77383500  1
  Rh  Rh47  1  0.35465500  0.65401400  0.77383500  1
  Rh  Rh48  1  0.08082000  0.38017900  0.22616500  1
  Rh  Rh49  1  0.88017900  0.58082000  0.22616500  1
  Rh  Rh50  1  0.58082000  0.35465500  0.70064100  1
  Rh  Rh51  1  0.65401400  0.88017900  0.29935900  1
  Rh  Rh52  1  0.91712900  0.41712900  0.73778700  1
  Rh  Rh53  1  0.67934100  0.17934100  0.26221300  1
  Rh  Rh54  1  0.41712900  0.67934100  0.50000000  1
  Rh  Rh55  1  0.17934100  0.91712900  0.50000000  1
  Rh  Rh56  1  0.66939000  0.16939000  0.75001900  1
  Rh  Rh57  1  0.41937100  0.91937100  0.24998100  1
  Rh  Rh58  1  0.16939000  0.41937100  0.50000000  1
  Rh  Rh59  1  0.91937100  0.66939000  0.50000000  1
  Rh  Rh60  1  0.20955800  0.70955800  0.95658800  1
  Rh  Rh61  1  0.75296900  0.25296900  0.04341200  1
  Rh  Rh62  1  0.70955800  0.75296900  0.50000000  1
  Rh  Rh63  1  0.25296900  0.20955800  0.50000000  1
  Rh  Rh64  1  0.41899000  0.42852900  0.24434500  1
  Rh  Rh65  1  0.18418400  0.17464500  0.75565500  1
  Rh  Rh66  1  0.42852900  0.18418400  0.00953900  1
  Rh  Rh67  1  0.68418400  0.92852900  0.00953900  1
  Rh  Rh68  1  0.17464500  0.41899000  0.99046100  1
  Rh  Rh69  1  0.91899000  0.67464500  0.99046100  1
  Rh  Rh70  1  0.67464500  0.68418400  0.75565500  1
  Rh  Rh71  1  0.92852900  0.91899000  0.24434500  1
  Rh  Rh72  1  0.43195100  0.93195100  0.75088800  1
  Rh  Rh73  1  0.18106300  0.68106300  0.24911200  1
  Rh  Rh74  1  0.93195100  0.18106300  0.50000000  1
  Rh  Rh75  1  0.68106300  0.43195100  0.50000000  1
  Rh  Rh76  1  0.00275700  0.00275700  0.00000000  1
  Rh  Rh77  1  0.50275700  0.50275700  0.00000000  1
