# generated using pymatgen
data_Sr2CrOsO6
_symmetry_space_group_name_H-M   'P 1'
_cell_length_a   5.57719454
_cell_length_b   5.57714305
_cell_length_c   5.57707007
_cell_angle_alpha   60.47161309
_cell_angle_beta   60.47241417
_cell_angle_gamma   60.47128126
_symmetry_Int_Tables_number   1
_chemical_formula_structural   Sr2CrOsO6
_chemical_formula_sum   'Sr2 Cr1 Os1 O6'
_cell_volume   123.97252195
_cell_formula_units_Z   1
loop_
 _symmetry_equiv_pos_site_id
 _symmetry_equiv_pos_as_xyz
  1  'x, y, z'
loop_
 _atom_site_type_symbol
 _atom_site_label
 _atom_site_symmetry_multiplicity
 _atom_site_fract_x
 _atom_site_fract_y
 _atom_site_fract_z
 _atom_site_occupancy
  Sr  Sr0  1  0.74968100  0.74986100  0.74977900  1
  Sr  Sr1  1  0.25011600  0.25026200  0.25018600  1
  Cr  Cr2  1  0.50048700  0.49975000  0.50005800  1
  Os  Os3  1  0.00005300  0.99995500  0.00001700  1
  O  O4  1  0.70904200  0.79402800  0.24819200  1
  O  O5  1  0.79391100  0.24818400  0.70923800  1
  O  O6  1  0.24815600  0.70916000  0.79385600  1
  O  O7  1  0.29079000  0.20618600  0.75171000  1
  O  O8  1  0.20606500  0.75172500  0.29095000  1
  O  O9  1  0.75169900  0.29088800  0.20601300  1
