# generated using pymatgen
data_Li5Tl2
_symmetry_space_group_name_H-M   'P 1'
_cell_length_a   7.36152067
_cell_length_b   7.36152067
_cell_length_c   7.36151999
_cell_angle_alpha   37.57632737
_cell_angle_beta   37.57632737
_cell_angle_gamma   37.57632907
_symmetry_Int_Tables_number   1
_chemical_formula_structural   Li5Tl2
_chemical_formula_sum   'Li5 Tl2'
_cell_volume   133.06711386
_cell_formula_units_Z   1
loop_
 _symmetry_equiv_pos_site_id
 _symmetry_equiv_pos_as_xyz
  1  'x, y, z'
loop_
 _atom_site_type_symbol
 _atom_site_label
 _atom_site_symmetry_multiplicity
 _atom_site_fract_x
 _atom_site_fract_y
 _atom_site_fract_z
 _atom_site_occupancy
  Li  Li0  1  0.50000000  0.50000000  0.50000000  1
  Li  Li1  1  0.64539700  0.64539700  0.64539700  1
  Li  Li2  1  0.21379100  0.21379100  0.21379100  1
  Li  Li3  1  0.78620900  0.78620900  0.78620900  1
  Li  Li4  1  0.35460300  0.35460300  0.35460300  1
  Tl  Tl5  1  0.92454200  0.92454200  0.92454200  1
  Tl  Tl6  1  0.07545800  0.07545800  0.07545800  1
