# generated using pymatgen
data_K2In2P3Se10
_symmetry_space_group_name_H-M   'P 1'
_cell_length_a   8.00998600
_cell_length_b   13.62873300
_cell_length_c   20.17446950
_cell_angle_alpha   73.64321238
_cell_angle_beta   90.00000000
_cell_angle_gamma   90.00000000
_symmetry_Int_Tables_number   1
_chemical_formula_structural   K2In2P3Se10
_chemical_formula_sum   'K8 In8 P12 Se40'
_cell_volume   2113.22822310
_cell_formula_units_Z   4
loop_
 _symmetry_equiv_pos_site_id
 _symmetry_equiv_pos_as_xyz
  1  'x, y, z'
loop_
 _atom_site_type_symbol
 _atom_site_label
 _atom_site_symmetry_multiplicity
 _atom_site_fract_x
 _atom_site_fract_y
 _atom_site_fract_z
 _atom_site_occupancy
  K  K0  1  0.04993800  0.32075900  0.08024700  1
  K  K1  1  0.54993800  0.17924100  0.91975300  1
  K  K2  1  0.95006200  0.67924100  0.91975300  1
  K  K3  1  0.45006200  0.82075900  0.08024700  1
  K  K4  1  0.85434400  0.40244000  0.42686300  1
  K  K5  1  0.35434400  0.09756000  0.57313700  1
  K  K6  1  0.14565600  0.59756000  0.57313700  1
  K  K7  1  0.64565600  0.90244000  0.42686300  1
  In  In8  1  0.52814600  0.46726200  0.17618800  1
  In  In9  1  0.02814600  0.03273800  0.82381200  1
  In  In10  1  0.47185400  0.53273800  0.82381200  1
  In  In11  1  0.97185400  0.96726200  0.17618800  1
  In  In12  1  0.64665200  0.39910400  0.68818100  1
  In  In13  1  0.14665200  0.10089600  0.31181900  1
  In  In14  1  0.35334800  0.60089600  0.31181900  1
  In  In15  1  0.85334800  0.89910400  0.68818100  1
  P  P16  1  0.61279400  0.44892700  0.02007200  1
  P  P17  1  0.11279400  0.05107300  0.97992800  1
  P  P18  1  0.38720600  0.55107300  0.97992800  1
  P  P19  1  0.88720600  0.94892700  0.02007200  1
  P  P20  1  0.56089600  0.22596700  0.33590100  1
  P  P21  1  0.06089600  0.27403300  0.66409900  1
  P  P22  1  0.43910400  0.77403300  0.66409900  1
  P  P23  1  0.93910400  0.72596700  0.33590100  1
  P  P24  1  0.82560000  0.18383300  0.65258100  1
  P  P25  1  0.32560000  0.31616700  0.34741900  1
  P  P26  1  0.17440000  0.81616700  0.34741900  1
  P  P27  1  0.67440000  0.68383300  0.65258100  1
  Se  Se28  1  0.77768300  0.53593300  0.07122500  1
  Se  Se29  1  0.27768300  0.96406700  0.92877500  1
  Se  Se30  1  0.22231700  0.46406700  0.92877500  1
  Se  Se31  1  0.72231700  0.03593300  0.07122500  1
  Se  Se32  1  0.22315100  0.08344300  0.07089500  1
  Se  Se33  1  0.72315100  0.41655700  0.92910500  1
  Se  Se34  1  0.77684900  0.91655700  0.92910500  1
  Se  Se35  1  0.27684900  0.58344300  0.07089500  1
  Se  Se36  1  0.51669100  0.31827700  0.10281700  1
  Se  Se37  1  0.01669100  0.18172300  0.89718300  1
  Se  Se38  1  0.48330900  0.68172300  0.89718300  1
  Se  Se39  1  0.98330900  0.81827700  0.10281700  1
  Se  Se40  1  0.92288800  0.13253500  0.21878800  1
  Se  Se41  1  0.42288800  0.36746500  0.78121200  1
  Se  Se42  1  0.07711200  0.86746500  0.78121200  1
  Se  Se43  1  0.57711200  0.63253500  0.21878800  1
  Se  Se44  1  0.22790900  0.39530500  0.24402500  1
  Se  Se45  1  0.72790900  0.10469500  0.75597500  1
  Se  Se46  1  0.77209100  0.60469500  0.75597500  1
  Se  Se47  1  0.27209100  0.89530500  0.24402500  1
  Se  Se48  1  0.73451400  0.34329500  0.27651600  1
  Se  Se49  1  0.23451400  0.15670500  0.72348400  1
  Se  Se50  1  0.26548600  0.65670500  0.72348400  1
  Se  Se51  1  0.76548600  0.84329500  0.27651600  1
  Se  Se52  1  0.65974300  0.15427200  0.43789100  1
  Se  Se53  1  0.15974300  0.34572800  0.56210900  1
  Se  Se54  1  0.34025700  0.84572800  0.56210900  1
  Se  Se55  1  0.84025700  0.65427200  0.43789100  1
  Se  Se56  1  0.89809000  0.07968600  0.58990900  1
  Se  Se57  1  0.39809000  0.42031400  0.41009100  1
  Se  Se58  1  0.10191000  0.92031400  0.41009100  1
  Se  Se59  1  0.60191000  0.57968600  0.58990900  1
  Se  Se60  1  0.63402700  0.29216300  0.59358400  1
  Se  Se61  1  0.13402700  0.20783700  0.40641600  1
  Se  Se62  1  0.36597300  0.70783700  0.40641600  1
  Se  Se63  1  0.86597300  0.79216300  0.59358400  1
  Se  Se64  1  0.96911800  0.38344900  0.72186600  1
  Se  Se65  1  0.46911800  0.11655100  0.27813400  1
  Se  Se66  1  0.03088200  0.61655100  0.27813400  1
  Se  Se67  1  0.53088200  0.88344900  0.72186600  1
