# generated using pymatgen
data_HfNiP
_symmetry_space_group_name_H-M   'P 1'
_cell_length_a   3.70147900
_cell_length_b   6.31854100
_cell_length_c   7.14867600
_cell_angle_alpha   90.00000000
_cell_angle_beta   90.00000000
_cell_angle_gamma   90.00000000
_symmetry_Int_Tables_number   1
_chemical_formula_structural   HfNiP
_chemical_formula_sum   'Hf4 Ni4 P4'
_cell_volume   167.19285414
_cell_formula_units_Z   4
loop_
 _symmetry_equiv_pos_site_id
 _symmetry_equiv_pos_as_xyz
  1  'x, y, z'
loop_
 _atom_site_type_symbol
 _atom_site_label
 _atom_site_symmetry_multiplicity
 _atom_site_fract_x
 _atom_site_fract_y
 _atom_site_fract_z
 _atom_site_occupancy
  Hf  Hf0  1  0.25000000  0.02297900  0.81692300  1
  Hf  Hf1  1  0.25000000  0.52297900  0.68307700  1
  Hf  Hf2  1  0.75000000  0.97702100  0.18307700  1
  Hf  Hf3  1  0.75000000  0.47702100  0.31692300  1
  Ni  Ni4  1  0.25000000  0.15305400  0.43501800  1
  Ni  Ni5  1  0.25000000  0.65305400  0.06498200  1
  Ni  Ni6  1  0.75000000  0.84694600  0.56498200  1
  Ni  Ni7  1  0.75000000  0.34694600  0.93501800  1
  P  P8  1  0.25000000  0.77505300  0.38536200  1
  P  P9  1  0.25000000  0.27505300  0.11463800  1
  P  P10  1  0.75000000  0.22494700  0.61463800  1
  P  P11  1  0.75000000  0.72494700  0.88536200  1
