# generated using pymatgen
data_La2Si3Rh
_symmetry_space_group_name_H-M   'P 1'
_cell_length_a   8.33693432
_cell_length_b   8.33693432
_cell_length_c   8.60907100
_cell_angle_alpha   90.00000000
_cell_angle_beta   90.00000000
_cell_angle_gamma   120.00000252
_symmetry_Int_Tables_number   1
_chemical_formula_structural   La2Si3Rh
_chemical_formula_sum   'La8 Si12 Rh4'
_cell_volume   518.20269826
_cell_formula_units_Z   4
loop_
 _symmetry_equiv_pos_site_id
 _symmetry_equiv_pos_as_xyz
  1  'x, y, z'
loop_
 _atom_site_type_symbol
 _atom_site_label
 _atom_site_symmetry_multiplicity
 _atom_site_fract_x
 _atom_site_fract_y
 _atom_site_fract_z
 _atom_site_occupancy
  La  La0  1  0.00000000  0.00000000  0.25000000  1
  La  La1  1  0.00000000  0.00000000  0.75000000  1
  La  La2  1  0.50132500  0.49867500  0.25000000  1
  La  La3  1  0.50132500  0.00265100  0.25000000  1
  La  La4  1  0.99734900  0.49867500  0.25000000  1
  La  La5  1  0.49867500  0.50132500  0.75000000  1
  La  La6  1  0.49867500  0.99734900  0.75000000  1
  La  La7  1  0.00265100  0.50132500  0.75000000  1
  Si  Si8  1  0.16591400  0.83408600  0.50128000  1
  Si  Si9  1  0.16591400  0.33182800  0.50128000  1
  Si  Si10  1  0.66817200  0.83408600  0.50128000  1
  Si  Si11  1  0.83408600  0.16591400  0.49872000  1
  Si  Si12  1  0.83408600  0.66817200  0.49872000  1
  Si  Si13  1  0.33182800  0.16591400  0.49872000  1
  Si  Si14  1  0.83408600  0.16591400  0.00128000  1
  Si  Si15  1  0.83408600  0.66817200  0.00128000  1
  Si  Si16  1  0.33182800  0.16591400  0.00128000  1
  Si  Si17  1  0.16591400  0.83408600  0.99872000  1
  Si  Si18  1  0.16591400  0.33182800  0.99872000  1
  Si  Si19  1  0.66817200  0.83408600  0.99872000  1
  Rh  Rh20  1  0.33333300  0.66666700  0.49485300  1
  Rh  Rh21  1  0.66666700  0.33333300  0.50514700  1
  Rh  Rh22  1  0.66666700  0.33333300  0.99485300  1
  Rh  Rh23  1  0.33333300  0.66666700  0.00514700  1
