# generated using pymatgen
data_Ho5(SiB4)2
_symmetry_space_group_name_H-M   'P 1'
_cell_length_a   7.20464600
_cell_length_b   7.20464600
_cell_length_c   8.04629800
_cell_angle_alpha   90.00000000
_cell_angle_beta   90.00000000
_cell_angle_gamma   90.00000000
_symmetry_Int_Tables_number   1
_chemical_formula_structural   Ho5(SiB4)2
_chemical_formula_sum   'Ho10 Si4 B16'
_cell_volume   417.65857865
_cell_formula_units_Z   2
loop_
 _symmetry_equiv_pos_site_id
 _symmetry_equiv_pos_as_xyz
  1  'x, y, z'
loop_
 _atom_site_type_symbol
 _atom_site_label
 _atom_site_symmetry_multiplicity
 _atom_site_fract_x
 _atom_site_fract_y
 _atom_site_fract_z
 _atom_site_occupancy
  Ho  Ho0  1  0.68050600  0.18050600  0.22405000  1
  Ho  Ho1  1  0.31949400  0.81949400  0.77595000  1
  Ho  Ho2  1  0.31949400  0.81949400  0.22405000  1
  Ho  Ho3  1  0.81949400  0.68050600  0.22405000  1
  Ho  Ho4  1  0.81949400  0.68050600  0.77595000  1
  Ho  Ho5  1  0.68050600  0.18050600  0.77595000  1
  Ho  Ho6  1  0.18050600  0.31949400  0.77595000  1
  Ho  Ho7  1  0.18050600  0.31949400  0.22405000  1
  Ho  Ho8  1  0.00000000  0.00000000  0.50000000  1
  Ho  Ho9  1  0.50000000  0.50000000  0.50000000  1
  Si  Si10  1  0.11532600  0.61532600  0.50000000  1
  Si  Si11  1  0.88467400  0.38467400  0.50000000  1
  Si  Si12  1  0.38467400  0.11532600  0.50000000  1
  Si  Si13  1  0.61532600  0.88467400  0.50000000  1
  B  B14  1  0.17257400  0.03920300  0.00000000  1
  B  B15  1  0.82742600  0.96079700  0.00000000  1
  B  B16  1  0.96079700  0.17257400  0.00000000  1
  B  B17  1  0.32742600  0.53920300  0.00000000  1
  B  B18  1  0.03920300  0.82742600  0.00000000  1
  B  B19  1  0.67257400  0.46079700  0.00000000  1
  B  B20  1  0.53920300  0.67257400  0.00000000  1
  B  B21  1  0.46079700  0.32742600  0.00000000  1
  B  B22  1  0.08987100  0.58987100  0.00000000  1
  B  B23  1  0.91012900  0.41012900  0.00000000  1
  B  B24  1  0.41012900  0.08987100  0.00000000  1
  B  B25  1  0.58987100  0.91012900  0.00000000  1
  B  B26  1  0.00000000  0.00000000  0.16344300  1
  B  B27  1  0.00000000  0.00000000  0.83655700  1
  B  B28  1  0.50000000  0.50000000  0.83655700  1
  B  B29  1  0.50000000  0.50000000  0.16344300  1
