# generated using pymatgen
data_Eu4Lu(SnS4)3
_symmetry_space_group_name_H-M   'P 1'
_cell_length_a   3.97064500
_cell_length_b   11.51220200
_cell_length_c   20.35641900
_cell_angle_alpha   90.00000000
_cell_angle_beta   90.00000000
_cell_angle_gamma   90.00000000
_symmetry_Int_Tables_number   1
_chemical_formula_structural   Eu4Lu(SnS4)3
_chemical_formula_sum   'Eu8 Lu2 Sn6 S24'
_cell_volume   930.50956782
_cell_formula_units_Z   2
loop_
 _symmetry_equiv_pos_site_id
 _symmetry_equiv_pos_as_xyz
  1  'x, y, z'
loop_
 _atom_site_type_symbol
 _atom_site_label
 _atom_site_symmetry_multiplicity
 _atom_site_fract_x
 _atom_site_fract_y
 _atom_site_fract_z
 _atom_site_occupancy
  Eu  Eu0  1  0.50000000  0.91044400  0.74071600  1
  Eu  Eu1  1  0.50000000  0.41044400  0.25928400  1
  Eu  Eu2  1  0.50000000  0.27361200  0.61821600  1
  Eu  Eu3  1  0.50000000  0.77361200  0.38178400  1
  Eu  Eu4  1  0.50000000  0.14841800  0.41197000  1
  Eu  Eu5  1  0.50000000  0.64841800  0.58803000  1
  Eu  Eu6  1  0.50000000  0.68801900  0.91553700  1
  Eu  Eu7  1  0.50000000  0.18801900  0.08446300  1
  Lu  Lu8  1  0.50000000  0.32752400  0.89533400  1
  Lu  Lu9  1  0.50000000  0.82752400  0.10466600  1
  Sn  Sn10  1  0.00000000  0.01957800  0.91248500  1
  Sn  Sn11  1  0.00000000  0.51957800  0.08751500  1
  Sn  Sn12  1  0.00000000  0.49884400  0.75037000  1
  Sn  Sn13  1  0.00000000  0.99884400  0.24963000  1
  Sn  Sn14  1  0.00000000  0.48788700  0.42481600  1
  Sn  Sn15  1  0.00000000  0.98788700  0.57518400  1
  S  S16  1  0.50000000  0.95009200  0.98809600  1
  S  S17  1  0.50000000  0.45009200  0.01190400  1
  S  S18  1  0.50000000  0.10298800  0.84200600  1
  S  S19  1  0.50000000  0.60298800  0.15799400  1
  S  S20  1  0.50000000  0.34752600  0.76074300  1
  S  S21  1  0.50000000  0.84752600  0.23925700  1
  S  S22  1  0.50000000  0.42530800  0.49121200  1
  S  S23  1  0.50000000  0.92530800  0.50878800  1
  S  S24  1  0.50000000  0.14711100  0.25218100  1
  S  S25  1  0.50000000  0.64711100  0.74781900  1
  S  S26  1  0.00000000  0.21993800  0.96944500  1
  S  S27  1  0.00000000  0.71993800  0.03055500  1
  S  S28  1  0.00000000  0.49452500  0.87815200  1
  S  S29  1  0.00000000  0.99452500  0.12184800  1
  S  S30  1  0.00000000  0.83539000  0.84468600  1
  S  S31  1  0.00000000  0.33539000  0.15531400  1
  S  S32  1  0.00000000  0.09612100  0.68079500  1
  S  S33  1  0.00000000  0.59612100  0.31920500  1
  S  S34  1  0.00000000  0.46696200  0.62746500  1
  S  S35  1  0.00000000  0.96696200  0.37253500  1
  S  S36  1  0.00000000  0.18452300  0.51973300  1
  S  S37  1  0.00000000  0.68452300  0.48026700  1
  S  S38  1  0.00000000  0.30845000  0.35229000  1
  S  S39  1  0.00000000  0.80845000  0.64771000  1
