# generated using pymatgen
data_Lu(PO3)3
_symmetry_space_group_name_H-M   'P 1'
_cell_length_a   12.84269082
_cell_length_b   12.84269082
_cell_length_c   12.84269082
_cell_angle_alpha   109.47122063
_cell_angle_beta   109.47122063
_cell_angle_gamma   109.47122063
_symmetry_Int_Tables_number   1
_chemical_formula_structural   Lu(PO3)3
_chemical_formula_sum   'Lu8 P24 O72'
_cell_volume   1630.59531732
_cell_formula_units_Z   8
loop_
 _symmetry_equiv_pos_site_id
 _symmetry_equiv_pos_as_xyz
  1  'x, y, z'
loop_
 _atom_site_type_symbol
 _atom_site_label
 _atom_site_symmetry_multiplicity
 _atom_site_fract_x
 _atom_site_fract_y
 _atom_site_fract_z
 _atom_site_occupancy
  Lu  Lu0  1  0.79404500  0.79404500  0.79404500  1
  Lu  Lu1  1  0.00000000  0.70595500  0.50000000  1
  Lu  Lu2  1  0.50000000  0.00000000  0.70595500  1
  Lu  Lu3  1  0.70595500  0.50000000  0.00000000  1
  Lu  Lu4  1  0.29404500  0.29404500  0.29404500  1
  Lu  Lu5  1  0.00000000  0.20595500  0.50000000  1
  Lu  Lu6  1  0.20595500  0.50000000  0.00000000  1
  Lu  Lu7  1  0.50000000  0.00000000  0.20595500  1
  P  P8  1  0.83061200  0.53954500  0.62318700  1
  P  P9  1  0.08364200  0.96045500  0.79106700  1
  P  P10  1  0.41635800  0.20742500  0.87681300  1
  P  P11  1  0.66938800  0.29257500  0.70893300  1
  P  P12  1  0.12318700  0.03954500  0.33061200  1
  P  P13  1  0.29106700  0.46045500  0.58364200  1
  P  P14  1  0.37681300  0.70742500  0.91635800  1
  P  P15  1  0.20893300  0.79257500  0.16938800  1
  P  P16  1  0.53954500  0.62318700  0.83061200  1
  P  P17  1  0.96045500  0.79106700  0.08364200  1
  P  P18  1  0.20742500  0.87681300  0.41635800  1
  P  P19  1  0.29257500  0.70893300  0.66938800  1
  P  P20  1  0.03954500  0.33061200  0.12318700  1
  P  P21  1  0.46045500  0.58364200  0.29106700  1
  P  P22  1  0.70742500  0.91635800  0.37681300  1
  P  P23  1  0.79257500  0.16938800  0.20893300  1
  P  P24  1  0.62318700  0.83061200  0.53954500  1
  P  P25  1  0.79106700  0.08364200  0.96045500  1
  P  P26  1  0.87681300  0.41635800  0.20742500  1
  P  P27  1  0.70893300  0.66938800  0.29257500  1
  P  P28  1  0.33061200  0.12318700  0.03954500  1
  P  P29  1  0.58364200  0.29106700  0.46045500  1
  P  P30  1  0.91635800  0.37681300  0.70742500  1
  P  P31  1  0.16938800  0.20893300  0.79257500  1
  O  O32  1  0.90466600  0.50001100  0.71778200  1
  O  O33  1  0.21777100  0.99998900  0.90465500  1
  O  O34  1  0.28222900  0.18688400  0.78221800  1
  O  O35  1  0.59533400  0.31311600  0.59534500  1
  O  O36  1  0.21778200  0.00001100  0.40466600  1
  O  O37  1  0.40465500  0.49998900  0.71777100  1
  O  O38  1  0.28221800  0.68688400  0.78222900  1
  O  O39  1  0.09534500  0.81311600  0.09533400  1
  O  O40  1  0.50001100  0.71778200  0.90466600  1
  O  O41  1  0.99998900  0.90465500  0.21777100  1
  O  O42  1  0.18688400  0.78221800  0.28222900  1
  O  O43  1  0.31311600  0.59534500  0.59533400  1
  O  O44  1  0.00001100  0.40466600  0.21778200  1
  O  O45  1  0.49998900  0.71777100  0.40465500  1
  O  O46  1  0.68688400  0.78222900  0.28221800  1
  O  O47  1  0.81311600  0.09533400  0.09534500  1
  O  O48  1  0.71778200  0.90466600  0.50001100  1
  O  O49  1  0.90465500  0.21777100  0.99998900  1
  O  O50  1  0.78221800  0.28222900  0.18688400  1
  O  O51  1  0.59534500  0.59533400  0.31311600  1
  O  O52  1  0.40466600  0.21778200  0.00001100  1
  O  O53  1  0.71777100  0.40465500  0.49998900  1
  O  O54  1  0.78222900  0.28221800  0.68688400  1
  O  O55  1  0.09533400  0.09534500  0.81311600  1
  O  O56  1  0.89648200  0.81199700  0.97839800  1
  O  O57  1  0.16640100  0.68800300  0.58448500  1
  O  O58  1  0.33359900  0.91808400  0.52160200  1
  O  O59  1  0.60351800  0.58191600  0.91551500  1
  O  O60  1  0.47839800  0.31199700  0.39648200  1
  O  O61  1  0.08448500  0.18800300  0.66640100  1
  O  O62  1  0.02160200  0.41808400  0.83359900  1
  O  O63  1  0.41551500  0.08191600  0.10351800  1
  O  O64  1  0.81199700  0.97839800  0.89648200  1
  O  O65  1  0.68800300  0.58448500  0.16640100  1
  O  O66  1  0.91808400  0.52160200  0.33359900  1
  O  O67  1  0.58191600  0.91551500  0.60351800  1
  O  O68  1  0.31199700  0.39648200  0.47839800  1
  O  O69  1  0.18800300  0.66640100  0.08448500  1
  O  O70  1  0.41808400  0.83359900  0.02160200  1
  O  O71  1  0.08191600  0.10351800  0.41551500  1
  O  O72  1  0.97839800  0.89648200  0.81199700  1
  O  O73  1  0.58448500  0.16640100  0.68800300  1
  O  O74  1  0.52160200  0.33359900  0.91808400  1
  O  O75  1  0.91551500  0.60351800  0.58191600  1
  O  O76  1  0.39648200  0.47839800  0.31199700  1
  O  O77  1  0.66640100  0.08448500  0.18800300  1
  O  O78  1  0.83359900  0.02160200  0.41808400  1
  O  O79  1  0.10351800  0.41551500  0.08191600  1
  O  O80  1  0.78005800  0.61097700  0.68990900  1
  O  O81  1  0.07893100  0.88902300  0.66908100  1
  O  O82  1  0.42106900  0.09015000  0.81009100  1
  O  O83  1  0.71994200  0.40985000  0.83091900  1
  O  O84  1  0.18990900  0.11097700  0.28005800  1
  O  O85  1  0.16908100  0.38902300  0.57893100  1
  O  O86  1  0.31009100  0.59015000  0.92106900  1
  O  O87  1  0.33091900  0.90985000  0.21994200  1
  O  O88  1  0.61097700  0.68990900  0.78005800  1
  O  O89  1  0.88902300  0.66908100  0.07893100  1
  O  O90  1  0.09015000  0.81009100  0.42106900  1
  O  O91  1  0.40985000  0.83091900  0.71994200  1
  O  O92  1  0.11097700  0.28005800  0.18990900  1
  O  O93  1  0.38902300  0.57893100  0.16908100  1
  O  O94  1  0.59015000  0.92106900  0.31009100  1
  O  O95  1  0.90985000  0.21994200  0.33091900  1
  O  O96  1  0.68990900  0.78005800  0.61097700  1
  O  O97  1  0.66908100  0.07893100  0.88902300  1
  O  O98  1  0.81009100  0.42106900  0.09015000  1
  O  O99  1  0.83091900  0.71994200  0.40985000  1
  O  O100  1  0.28005800  0.18990900  0.11097700  1
  O  O101  1  0.57893100  0.16908100  0.38902300  1
  O  O102  1  0.92106900  0.31009100  0.59015000  1
  O  O103  1  0.21994200  0.33091900  0.90985000  1
