# generated using pymatgen
data_Tl2NiH12(SO7)2
_symmetry_space_group_name_H-M   'P 1'
_cell_length_a   12.49296000
_cell_length_b   6.26644000
_cell_length_c   9.18120864
_cell_angle_alpha   74.13124599
_cell_angle_beta   90.00000000
_cell_angle_gamma   90.00000000
_symmetry_Int_Tables_number   1
_chemical_formula_structural   Tl2NiH12(SO7)2
_chemical_formula_sum   'Tl4 Ni2 H24 S4 O28'
_cell_volume   691.37195449
_cell_formula_units_Z   2
loop_
 _symmetry_equiv_pos_site_id
 _symmetry_equiv_pos_as_xyz
  1  'x, y, z'
loop_
 _atom_site_type_symbol
 _atom_site_label
 _atom_site_symmetry_multiplicity
 _atom_site_fract_x
 _atom_site_fract_y
 _atom_site_fract_z
 _atom_site_occupancy
  Tl  Tl0  1  0.14629000  0.65025800  0.62844100  1
  Tl  Tl1  1  0.64629000  0.34974200  0.87155900  1
  Tl  Tl2  1  0.85371000  0.34974200  0.37155900  1
  Tl  Tl3  1  0.35371000  0.65025800  0.12844100  1
  Ni  Ni4  1  0.50000000  0.00000000  0.50000000  1
  Ni  Ni5  1  0.00000000  0.00000000  0.00000000  1
  H  H6  1  0.40632300  0.68662700  0.70919800  1
  H  H7  1  0.90632300  0.31337300  0.79080200  1
  H  H8  1  0.59367700  0.31337300  0.29080200  1
  H  H9  1  0.09367700  0.68662700  0.20919800  1
  H  H10  1  0.37238800  0.91937900  0.74072000  1
  H  H11  1  0.87238800  0.08062100  0.75928000  1
  H  H12  1  0.62761200  0.08062100  0.25928000  1
  H  H13  1  0.12761200  0.91937900  0.24072000  1
  H  H14  1  0.40409400  0.06476000  0.23022200  1
  H  H15  1  0.90409400  0.93524000  0.26977800  1
  H  H16  1  0.59590600  0.93524000  0.76977800  1
  H  H17  1  0.09590600  0.06476000  0.73022200  1
  H  H18  1  0.31556700  0.99923200  0.36019500  1
  H  H19  1  0.81556700  0.00076800  0.13980500  1
  H  H20  1  0.68443300  0.00076800  0.63980500  1
  H  H21  1  0.18443300  0.99923200  0.86019500  1
  H  H22  1  0.55561300  0.65786900  0.40948300  1
  H  H23  1  0.05561300  0.34213100  0.09051700  1
  H  H24  1  0.44438700  0.34213100  0.59051800  1
  H  H25  1  0.94438700  0.65786900  0.90948200  1
  H  H26  1  0.64190500  0.67373500  0.53173400  1
  H  H27  1  0.14190500  0.32626500  0.96826600  1
  H  H28  1  0.35809500  0.32626500  0.46826600  1
  H  H29  1  0.85809500  0.67373500  0.03173400  1
  S  S30  1  0.36156800  0.26462500  0.90560600  1
  S  S31  1  0.86156800  0.73537500  0.59439400  1
  S  S32  1  0.63843200  0.73537500  0.09439400  1
  S  S33  1  0.13843200  0.26462500  0.40560600  1
  O  O34  1  0.26758000  0.40615800  0.91869300  1
  O  O35  1  0.76758000  0.59384200  0.58130700  1
  O  O36  1  0.73242000  0.59384200  0.08130700  1
  O  O37  1  0.23242000  0.40615800  0.41869300  1
  O  O38  1  0.42723000  0.21632800  0.04581000  1
  O  O39  1  0.92723000  0.78367200  0.45419000  1
  O  O40  1  0.57277000  0.78367200  0.95419000  1
  O  O41  1  0.07277000  0.21632800  0.54581000  1
  O  O42  1  0.42927000  0.39007600  0.77491800  1
  O  O43  1  0.92927000  0.60992400  0.72508200  1
  O  O44  1  0.57073000  0.60992400  0.22508200  1
  O  O45  1  0.07073000  0.39007600  0.27491800  1
  O  O46  1  0.32252800  0.05238000  0.87721200  1
  O  O47  1  0.82252800  0.94762000  0.62278800  1
  O  O48  1  0.67747200  0.94762000  0.12278800  1
  O  O49  1  0.17747200  0.05238000  0.37721200  1
  O  O50  1  0.38781200  0.84382000  0.66080500  1
  O  O51  1  0.88781200  0.15618000  0.83919500  1
  O  O52  1  0.61218800  0.15618000  0.33919500  1
  O  O53  1  0.11218800  0.84382000  0.16080500  1
  O  O54  1  0.39013900  0.96788500  0.33438400  1
  O  O55  1  0.89013900  0.03211500  0.16561600  1
  O  O56  1  0.60986100  0.03211500  0.66561600  1
  O  O57  1  0.10986100  0.96788500  0.83438400  1
  O  O58  1  0.56408600  0.69514700  0.50670300  1
  O  O59  1  0.06408600  0.30485300  0.99329700  1
  O  O60  1  0.43591400  0.30485300  0.49329700  1
  O  O61  1  0.93591400  0.69514700  0.00670300  1
