# generated using pymatgen
data_Nd12InNi6
_symmetry_space_group_name_H-M   'P 1'
_cell_length_a   8.73006954
_cell_length_b   8.73006954
_cell_length_c   8.73006954
_cell_angle_alpha   109.47122063
_cell_angle_beta   109.47122063
_cell_angle_gamma   109.47122063
_symmetry_Int_Tables_number   1
_chemical_formula_structural   Nd12InNi6
_chemical_formula_sum   'Nd12 In1 Ni6'
_cell_volume   512.19014605
_cell_formula_units_Z   1
loop_
 _symmetry_equiv_pos_site_id
 _symmetry_equiv_pos_as_xyz
  1  'x, y, z'
loop_
 _atom_site_type_symbol
 _atom_site_label
 _atom_site_symmetry_multiplicity
 _atom_site_fract_x
 _atom_site_fract_y
 _atom_site_fract_z
 _atom_site_occupancy
  Nd  Nd0  1  0.81398600  0.69313000  0.50711700  1
  Nd  Nd1  1  0.18601400  0.30687000  0.49288300  1
  Nd  Nd2  1  0.18601400  0.69313000  0.87914400  1
  Nd  Nd3  1  0.81398600  0.30687000  0.12085600  1
  Nd  Nd4  1  0.69313000  0.50711700  0.81398600  1
  Nd  Nd5  1  0.30687000  0.49288300  0.18601400  1
  Nd  Nd6  1  0.69313000  0.87914400  0.18601400  1
  Nd  Nd7  1  0.30687000  0.12085600  0.81398600  1
  Nd  Nd8  1  0.50711700  0.81398600  0.69313000  1
  Nd  Nd9  1  0.49288300  0.18601400  0.30687000  1
  Nd  Nd10  1  0.12085600  0.81398600  0.30687000  1
  Nd  Nd11  1  0.87914400  0.18601400  0.69313000  1
  In  In12  1  0.00000000  0.00000000  0.00000000  1
  Ni  Ni13  1  0.87842200  0.37842200  0.50000000  1
  Ni  Ni14  1  0.12157800  0.62157800  0.50000000  1
  Ni  Ni15  1  0.37842200  0.50000000  0.87842200  1
  Ni  Ni16  1  0.62157800  0.50000000  0.12157800  1
  Ni  Ni17  1  0.50000000  0.87842200  0.37842200  1
  Ni  Ni18  1  0.50000000  0.12157800  0.62157800  1
