# generated using pymatgen
data_Ho7PtI12
_symmetry_space_group_name_H-M   'P 1'
_cell_length_a   9.74474506
_cell_length_b   9.74474506
_cell_length_c   9.74474499
_cell_angle_alpha   107.23924434
_cell_angle_beta   107.23924434
_cell_angle_gamma   107.23924807
_symmetry_Int_Tables_number   1
_chemical_formula_structural   Ho7PtI12
_chemical_formula_sum   'Ho7 Pt1 I12'
_cell_volume   765.56472654
_cell_formula_units_Z   1
loop_
 _symmetry_equiv_pos_site_id
 _symmetry_equiv_pos_as_xyz
  1  'x, y, z'
loop_
 _atom_site_type_symbol
 _atom_site_label
 _atom_site_symmetry_multiplicity
 _atom_site_fract_x
 _atom_site_fract_y
 _atom_site_fract_z
 _atom_site_occupancy
  Ho  Ho0  1  0.40062000  0.47102300  0.19732100  1
  Ho  Ho1  1  0.19732100  0.40062000  0.47102300  1
  Ho  Ho2  1  0.47102300  0.19732100  0.40062000  1
  Ho  Ho3  1  0.59938000  0.52897700  0.80267900  1
  Ho  Ho4  1  0.80267900  0.59938000  0.52897700  1
  Ho  Ho5  1  0.52897700  0.80267900  0.59938000  1
  Ho  Ho6  1  0.00000000  0.00000000  0.00000000  1
  Pt  Pt7  1  0.50000000  0.50000000  0.50000000  1
  I  I8  1  0.03385600  0.34276100  0.11197200  1
  I  I9  1  0.11197200  0.03385600  0.34276100  1
  I  I10  1  0.34276100  0.11197200  0.03385600  1
  I  I11  1  0.96614400  0.65723900  0.88802800  1
  I  I12  1  0.88802800  0.96614400  0.65723900  1
  I  I13  1  0.65723900  0.88802800  0.96614400  1
  I  I14  1  0.72588500  0.57483700  0.17723300  1
  I  I15  1  0.17723300  0.72588500  0.57483700  1
  I  I16  1  0.57483700  0.17723300  0.72588500  1
  I  I17  1  0.27411500  0.42516300  0.82276700  1
  I  I18  1  0.82276700  0.27411500  0.42516300  1
  I  I19  1  0.42516300  0.82276700  0.27411500  1
