# generated using pymatgen
data_Nd(Al2Fe)4
_symmetry_space_group_name_H-M   'P 1'
_cell_length_a   5.04994500
_cell_length_b   6.70973632
_cell_length_c   6.70973632
_cell_angle_alpha   81.85882257
_cell_angle_beta   67.89441113
_cell_angle_gamma   67.89441113
_symmetry_Int_Tables_number   1
_chemical_formula_structural   Nd(Al2Fe)4
_chemical_formula_sum   'Nd1 Al8 Fe4'
_cell_volume   195.15551781
_cell_formula_units_Z   1
loop_
 _symmetry_equiv_pos_site_id
 _symmetry_equiv_pos_as_xyz
  1  'x, y, z'
loop_
 _atom_site_type_symbol
 _atom_site_label
 _atom_site_symmetry_multiplicity
 _atom_site_fract_x
 _atom_site_fract_y
 _atom_site_fract_z
 _atom_site_occupancy
  Nd  Nd0  1  0.00000000  0.00000000  0.00000000  1
  Al  Al1  1  0.00000000  0.34206100  0.65793900  1
  Al  Al2  1  0.00000000  0.65793900  0.34206100  1
  Al  Al3  1  0.65793900  0.34206100  0.34206100  1
  Al  Al4  1  0.34206100  0.65793900  0.65793900  1
  Al  Al5  1  0.50000000  0.77667700  0.22332300  1
  Al  Al6  1  0.50000000  0.22332300  0.77667700  1
  Al  Al7  1  0.72332300  0.77667700  0.77667700  1
  Al  Al8  1  0.27667700  0.22332300  0.22332300  1
  Fe  Fe9  1  0.00000000  0.00000000  0.50000000  1
  Fe  Fe10  1  0.50000000  0.00000000  0.50000000  1
  Fe  Fe11  1  0.50000000  0.50000000  0.00000000  1
  Fe  Fe12  1  0.00000000  0.50000000  0.00000000  1
