# generated using pymatgen
data_CeAl4Co
_symmetry_space_group_name_H-M   'P 1'
_cell_length_a   4.04543400
_cell_length_b   6.82124600
_cell_length_c   7.61485600
_cell_angle_alpha   90.00000000
_cell_angle_beta   90.00000000
_cell_angle_gamma   90.00000000
_symmetry_Int_Tables_number   1
_chemical_formula_structural   CeAl4Co
_chemical_formula_sum   'Ce2 Al8 Co2'
_cell_volume   210.13119357
_cell_formula_units_Z   2
loop_
 _symmetry_equiv_pos_site_id
 _symmetry_equiv_pos_as_xyz
  1  'x, y, z'
loop_
 _atom_site_type_symbol
 _atom_site_label
 _atom_site_symmetry_multiplicity
 _atom_site_fract_x
 _atom_site_fract_y
 _atom_site_fract_z
 _atom_site_occupancy
  Ce  Ce0  1  0.00000000  0.61550300  0.75000000  1
  Ce  Ce1  1  0.00000000  0.38449700  0.25000000  1
  Al  Al2  1  0.50000000  0.30214200  0.56904400  1
  Al  Al3  1  0.50000000  0.69785800  0.43095600  1
  Al  Al4  1  0.50000000  0.30214200  0.93095600  1
  Al  Al5  1  0.50000000  0.69785800  0.06904400  1
  Al  Al6  1  0.00000000  0.00000000  0.00000000  1
  Al  Al7  1  0.00000000  0.00000000  0.50000000  1
  Al  Al8  1  0.50000000  0.04490800  0.25000000  1
  Al  Al9  1  0.50000000  0.95509300  0.75000000  1
  Co  Co10  1  0.00000000  0.19362400  0.75000000  1
  Co  Co11  1  0.00000000  0.80637600  0.25000000  1
