# generated using pymatgen
data_ThSiIr
_symmetry_space_group_name_H-M   'P 1'
_cell_length_a   7.81684569
_cell_length_b   7.81684569
_cell_length_c   7.81684569
_cell_angle_alpha   148.90428712
_cell_angle_beta   148.90428712
_cell_angle_gamma   44.55220969
_symmetry_Int_Tables_number   1
_chemical_formula_structural   ThSiIr
_chemical_formula_sum   'Th2 Si2 Ir2'
_cell_volume   127.02186449
_cell_formula_units_Z   2
loop_
 _symmetry_equiv_pos_site_id
 _symmetry_equiv_pos_as_xyz
  1  'x, y, z'
loop_
 _atom_site_type_symbol
 _atom_site_label
 _atom_site_symmetry_multiplicity
 _atom_site_fract_x
 _atom_site_fract_y
 _atom_site_fract_z
 _atom_site_occupancy
  Th  Th0  1  0.57787500  0.57787500  0.00000000  1
  Th  Th1  1  0.32787500  0.82787500  0.50000000  1
  Si  Si2  1  0.00043300  0.00043300  0.00000000  1
  Si  Si3  1  0.75043300  0.25043300  0.50000000  1
  Ir  Ir4  1  0.16869200  0.16869200  0.00000000  1
  Ir  Ir5  1  0.91869200  0.41869200  0.50000000  1
