# generated using pymatgen
data_CdP14Pb
_symmetry_space_group_name_H-M   'P 1'
_cell_length_a   9.91458400
_cell_length_b   11.14077400
_cell_length_c   13.31745400
_cell_angle_alpha   90.00000000
_cell_angle_beta   90.00000000
_cell_angle_gamma   90.00000000
_symmetry_Int_Tables_number   1
_chemical_formula_structural   CdP14Pb
_chemical_formula_sum   'Cd4 P56 Pb4'
_cell_volume   1470.99455878
_cell_formula_units_Z   4
loop_
 _symmetry_equiv_pos_site_id
 _symmetry_equiv_pos_as_xyz
  1  'x, y, z'
loop_
 _atom_site_type_symbol
 _atom_site_label
 _atom_site_symmetry_multiplicity
 _atom_site_fract_x
 _atom_site_fract_y
 _atom_site_fract_z
 _atom_site_occupancy
  Cd  Cd0  1  0.25000000  0.49709800  0.31601200  1
  Cd  Cd1  1  0.75000000  0.50290200  0.68398800  1
  Cd  Cd2  1  0.75000000  0.99709800  0.18398800  1
  Cd  Cd3  1  0.25000000  0.00290200  0.81601200  1
  P  P4  1  0.04764400  0.35815300  0.36597900  1
  P  P5  1  0.95235600  0.64184700  0.63402100  1
  P  P6  1  0.95235600  0.85815300  0.13402100  1
  P  P7  1  0.54764400  0.64184700  0.63402100  1
  P  P8  1  0.04764400  0.14184700  0.86597900  1
  P  P9  1  0.45235600  0.35815300  0.36597900  1
  P  P10  1  0.45235600  0.14184700  0.86597900  1
  P  P11  1  0.54764400  0.85815300  0.13402100  1
  P  P12  1  0.25000000  0.64883900  0.16640100  1
  P  P13  1  0.75000000  0.35116100  0.83359900  1
  P  P14  1  0.75000000  0.14883900  0.33359900  1
  P  P15  1  0.25000000  0.85116100  0.66640100  1
  P  P16  1  0.58375300  0.28911500  0.06622300  1
  P  P17  1  0.41624700  0.71088500  0.93377700  1
  P  P18  1  0.41624700  0.78911500  0.43377700  1
  P  P19  1  0.08375300  0.71088500  0.93377700  1
  P  P20  1  0.58375300  0.21088500  0.56622300  1
  P  P21  1  0.91624700  0.28911500  0.06622300  1
  P  P22  1  0.91624700  0.21088500  0.56622300  1
  P  P23  1  0.08375300  0.78911500  0.43377700  1
  P  P24  1  0.07654900  0.16805500  0.32889200  1
  P  P25  1  0.92345100  0.83194500  0.67110800  1
  P  P26  1  0.92345100  0.66805500  0.17110800  1
  P  P27  1  0.57654900  0.83194500  0.67110800  1
  P  P28  1  0.07654900  0.33194500  0.82889200  1
  P  P29  1  0.42345100  0.16805500  0.32889200  1
  P  P30  1  0.42345100  0.33194500  0.82889200  1
  P  P31  1  0.57654900  0.66805500  0.17110800  1
  P  P32  1  0.08027300  0.58637900  0.07176400  1
  P  P33  1  0.91972700  0.41362100  0.92823600  1
  P  P34  1  0.91972700  0.08637900  0.42823600  1
  P  P35  1  0.58027300  0.41362100  0.92823600  1
  P  P36  1  0.08027300  0.91362100  0.57176400  1
  P  P37  1  0.41972700  0.58637900  0.07176400  1
  P  P38  1  0.41972700  0.91362100  0.57176400  1
  P  P39  1  0.58027300  0.08637900  0.42823600  1
  P  P40  1  0.25000000  0.10359300  0.41992900  1
  P  P41  1  0.75000000  0.89640700  0.58007100  1
  P  P42  1  0.75000000  0.60359300  0.08007100  1
  P  P43  1  0.25000000  0.39640700  0.91992900  1
  P  P44  1  0.07582800  0.15497200  0.02894300  1
  P  P45  1  0.92417200  0.84502800  0.97105700  1
  P  P46  1  0.92417200  0.65497200  0.47105700  1
  P  P47  1  0.57582800  0.84502800  0.97105700  1
  P  P48  1  0.07582800  0.34502800  0.52894300  1
  P  P49  1  0.42417200  0.15497200  0.02894300  1
  P  P50  1  0.42417200  0.34502800  0.52894300  1
  P  P51  1  0.57582800  0.65497200  0.47105700  1
  P  P52  1  0.25000000  0.66230900  0.46655900  1
  P  P53  1  0.75000000  0.33769100  0.53344100  1
  P  P54  1  0.75000000  0.16230900  0.03344100  1
  P  P55  1  0.25000000  0.83769100  0.96655900  1
  P  P56  1  0.25000000  0.27754500  0.05574100  1
  P  P57  1  0.75000000  0.72245500  0.94425900  1
  P  P58  1  0.75000000  0.77754500  0.44425900  1
  P  P59  1  0.25000000  0.22245500  0.55574100  1
  Pb  Pb60  1  0.25000000  0.59865700  0.67144100  1
  Pb  Pb61  1  0.75000000  0.40134300  0.32855900  1
  Pb  Pb62  1  0.75000000  0.09865700  0.82855900  1
  Pb  Pb63  1  0.25000000  0.90134300  0.17144100  1
