# generated using pymatgen
data_Tl2CoI4
_symmetry_space_group_name_H-M   'P 1'
_cell_length_a   8.10497700
_cell_length_b   7.76952600
_cell_length_c   9.74004492
_cell_angle_alpha   71.59590088
_cell_angle_beta   90.00000000
_cell_angle_gamma   90.00000000
_symmetry_Int_Tables_number   1
_chemical_formula_structural   Tl2CoI4
_chemical_formula_sum   'Tl4 Co2 I8'
_cell_volume   581.97777705
_cell_formula_units_Z   2
loop_
 _symmetry_equiv_pos_site_id
 _symmetry_equiv_pos_as_xyz
  1  'x, y, z'
loop_
 _atom_site_type_symbol
 _atom_site_label
 _atom_site_symmetry_multiplicity
 _atom_site_fract_x
 _atom_site_fract_y
 _atom_site_fract_z
 _atom_site_occupancy
  Tl  Tl0  1  0.75000000  0.78128300  0.55125100  1
  Tl  Tl1  1  0.25000000  0.21871700  0.44874900  1
  Tl  Tl2  1  0.75000000  0.73678500  0.06805300  1
  Tl  Tl3  1  0.25000000  0.26321500  0.93194700  1
  Co  Co4  1  0.75000000  0.22067200  0.70144100  1
  Co  Co5  1  0.25000000  0.77932800  0.29855900  1
  I  I6  1  0.75000000  0.39896900  0.42859900  1
  I  I7  1  0.25000000  0.60103100  0.57140100  1
  I  I8  1  0.00082400  0.99448500  0.23690500  1
  I  I9  1  0.99917600  0.00551500  0.76309500  1
  I  I10  1  0.50082400  0.00551500  0.76309500  1
  I  I11  1  0.49917600  0.99448500  0.23690500  1
  I  I12  1  0.75000000  0.41798900  0.87056900  1
  I  I13  1  0.25000000  0.58201100  0.12943100  1
