# generated using pymatgen
data_Cu3AsF12
_symmetry_space_group_name_H-M   'P 1'
_cell_length_a   6.66129907
_cell_length_b   6.66129890
_cell_length_c   6.66129900
_cell_angle_alpha   109.47122095
_cell_angle_beta   109.47122042
_cell_angle_gamma   109.47121707
_symmetry_Int_Tables_number   1
_chemical_formula_structural   Cu3AsF12
_chemical_formula_sum   'Cu3 As1 F12'
_cell_volume   227.53850976
_cell_formula_units_Z   1
loop_
 _symmetry_equiv_pos_site_id
 _symmetry_equiv_pos_as_xyz
  1  'x, y, z'
loop_
 _atom_site_type_symbol
 _atom_site_label
 _atom_site_symmetry_multiplicity
 _atom_site_fract_x
 _atom_site_fract_y
 _atom_site_fract_z
 _atom_site_occupancy
  Cu  Cu0  1  0.50000000  0.50000000  0.00000000  1
  Cu  Cu1  1  0.50000000  0.00000000  0.50000000  1
  Cu  Cu2  1  0.00000000  0.50000000  0.50000000  1
  As  As3  1  0.00000000  0.00000000  0.00000000  1
  F  F4  1  0.50000000  0.25000000  0.75000000  1
  F  F5  1  0.77061300  0.77061300  0.00000000  1
  F  F6  1  0.77061300  0.00000000  0.77061300  1
  F  F7  1  0.22938700  0.00000000  0.22938700  1
  F  F8  1  0.00000000  0.22938700  0.22938700  1
  F  F9  1  0.22938700  0.22938700  0.00000000  1
  F  F10  1  0.00000000  0.77061300  0.77061300  1
  F  F11  1  0.50000000  0.75000000  0.25000000  1
  F  F12  1  0.75000000  0.50000000  0.25000000  1
  F  F13  1  0.25000000  0.50000000  0.75000000  1
  F  F14  1  0.75000000  0.25000000  0.50000000  1
  F  F15  1  0.25000000  0.75000000  0.50000000  1
