# generated using pymatgen
data_KTmF4
_symmetry_space_group_name_H-M   'P 1'
_cell_length_a   14.04507633
_cell_length_b   14.04507633
_cell_length_c   10.15067300
_cell_angle_alpha   90.00000000
_cell_angle_beta   90.00000000
_cell_angle_gamma   120.00000157
_symmetry_Int_Tables_number   1
_chemical_formula_structural   KTmF4
_chemical_formula_sum   'K18 Tm18 F72'
_cell_volume   1734.09813037
_cell_formula_units_Z   18
loop_
 _symmetry_equiv_pos_site_id
 _symmetry_equiv_pos_as_xyz
  1  'x, y, z'
loop_
 _atom_site_type_symbol
 _atom_site_label
 _atom_site_symmetry_multiplicity
 _atom_site_fract_x
 _atom_site_fract_y
 _atom_site_fract_z
 _atom_site_occupancy
  K  K0  1  0.04516100  0.77982700  0.01379500  1
  K  K1  1  0.22017300  0.26533400  0.68046200  1
  K  K2  1  0.73466600  0.95483900  0.34712800  1
  K  K3  1  0.06192500  0.28083900  0.98550100  1
  K  K4  1  0.71916100  0.78108500  0.65216800  1
  K  K5  1  0.21891500  0.93807500  0.31883400  1
  K  K6  1  0.72992700  0.12317500  0.01081000  1
  K  K7  1  0.87682500  0.60675100  0.67747700  1
  K  K8  1  0.39324900  0.27007300  0.34414400  1
  K  K9  1  0.71142400  0.60766600  0.98311800  1
  K  K10  1  0.39233400  0.10375800  0.64978500  1
  K  K11  1  0.89624200  0.28857600  0.31645100  1
  K  K12  1  0.38868600  0.93479800  0.98186900  1
  K  K13  1  0.06520200  0.45388800  0.64853500  1
  K  K14  1  0.54611200  0.61131400  0.31520200  1
  K  K15  1  0.38572200  0.44074600  0.01034000  1
  K  K16  1  0.55925400  0.94497600  0.67700700  1
  K  K17  1  0.05502400  0.61427800  0.34367400  1
  Tm  Tm18  1  0.24023900  0.11183100  0.99687200  1
  Tm  Tm19  1  0.88816900  0.12840800  0.66353800  1
  Tm  Tm20  1  0.87159200  0.75976100  0.33020500  1
  Tm  Tm21  1  0.55055400  0.26973900  0.98660000  1
  Tm  Tm22  1  0.73026100  0.28081500  0.65326600  1
  Tm  Tm23  1  0.71918500  0.44944600  0.31993300  1
  Tm  Tm24  1  0.57268900  0.79349700  0.00309500  1
  Tm  Tm25  1  0.20650300  0.77919200  0.66976200  1
  Tm  Tm26  1  0.22080800  0.42731100  0.33642900  1
  Tm  Tm27  1  0.88306000  0.94271200  0.99332200  1
  Tm  Tm28  1  0.05728800  0.94034700  0.65998900  1
  Tm  Tm29  1  0.05965300  0.11694000  0.32665500  1
  Tm  Tm30  1  0.90697600  0.45360100  0.99077400  1
  Tm  Tm31  1  0.54639900  0.45337500  0.65744000  1
  Tm  Tm32  1  0.54662500  0.09302400  0.32410700  1
  Tm  Tm33  1  0.21722800  0.61271400  0.00731000  1
  Tm  Tm34  1  0.38728600  0.60451400  0.67397600  1
  Tm  Tm35  1  0.39548600  0.78277200  0.34064300  1
  F  F36  1  0.19232900  0.05950100  0.78312700  1
  F  F37  1  0.94049900  0.13282800  0.44979400  1
  F  F38  1  0.86717200  0.80767100  0.11646000  1
  F  F39  1  0.19061000  0.12164100  0.20644400  1
  F  F40  1  0.87835900  0.06896900  0.87311100  1
  F  F41  1  0.93103100  0.80939000  0.53977800  1
  F  F42  1  0.61485700  0.40317100  0.13769600  1
  F  F43  1  0.59682900  0.21168600  0.80436200  1
  F  F44  1  0.78831400  0.38514300  0.47102900  1
  F  F45  1  0.61041800  0.27162100  0.32174000  1
  F  F46  1  0.72837900  0.33879700  0.98840700  1
  F  F47  1  0.66120300  0.38958200  0.65507400  1
  F  F48  1  0.53003800  0.79586300  0.21761100  1
  F  F49  1  0.20413700  0.73417500  0.88427700  1
  F  F50  1  0.26582500  0.46996200  0.55094400  1
  F  F51  1  0.51847600  0.72815500  0.79540500  1
  F  F52  1  0.27184500  0.79032100  0.46207200  1
  F  F53  1  0.20967900  0.48152400  0.12873900  1
  F  F54  1  0.94919100  0.93961700  0.33003200  1
  F  F55  1  0.06038300  0.00957400  0.99669900  1
  F  F56  1  0.99042600  0.05080900  0.66336600  1
  F  F57  1  0.94887000  0.07174100  0.15006800  1
  F  F58  1  0.92825900  0.87712900  0.81673400  1
  F  F59  1  0.12287100  0.05113000  0.48340100  1
  F  F60  1  0.85260900  0.46049700  0.19973500  1
  F  F61  1  0.53950300  0.39211200  0.86640200  1
  F  F62  1  0.60788800  0.14739100  0.53306900  1
  F  F63  1  0.86374900  0.40390500  0.77640400  1
  F  F64  1  0.59609500  0.45984400  0.44307000  1
  F  F65  1  0.54015600  0.13625100  0.10973700  1
  F  F66  1  0.25986100  0.71305000  0.19238200  1
  F  F67  1  0.28695000  0.54681100  0.85904800  1
  F  F68  1  0.45318900  0.74013900  0.52571500  1
  F  F69  1  0.33566400  0.60618800  0.33721600  1
  F  F70  1  0.39381200  0.72947600  0.00388200  1
  F  F71  1  0.27052400  0.66433600  0.67054900  1
  F  F72  1  0.03622500  0.26709300  0.72907000  1
  F  F73  1  0.73290700  0.76913100  0.39573700  1
  F  F74  1  0.23086900  0.96377500  0.06240400  1
  F  F75  1  0.08774600  0.27582600  0.23890100  1
  F  F76  1  0.72417400  0.81192100  0.90556800  1
  F  F77  1  0.18807900  0.91225400  0.57223500  1
  F  F78  1  0.02357400  0.77461100  0.27095700  1
  F  F79  1  0.22538900  0.24896300  0.93762400  1
  F  F80  1  0.75103700  0.97642600  0.60429000  1
  F  F81  1  0.73183000  0.92476200  0.09320600  1
  F  F82  1  0.07523800  0.80706800  0.75987300  1
  F  F83  1  0.19293200  0.26817000  0.42654000  1
  F  F84  1  0.74106000  0.60677900  0.23392800  1
  F  F85  1  0.39322100  0.13428100  0.90059400  1
  F  F86  1  0.86571900  0.25894000  0.56726100  1
  F  F87  1  0.68896000  0.59565200  0.72709900  1
  F  F88  1  0.40434800  0.09330800  0.39376600  1
  F  F89  1  0.90669200  0.31104000  0.06043300  1
  F  F90  1  0.39761400  0.24572200  0.08808700  1
  F  F91  1  0.75427800  0.15189200  0.75475300  1
  F  F92  1  0.84810800  0.60238600  0.42142000  1
  F  F93  1  0.70295600  0.11644900  0.26898300  1
  F  F94  1  0.88355100  0.58650700  0.93564900  1
  F  F95  1  0.41349300  0.29704400  0.60231600  1
  F  F96  1  0.36323000  0.42768800  0.26510300  1
  F  F97  1  0.57231200  0.93554200  0.93176900  1
  F  F98  1  0.06445800  0.63677000  0.59843600  1
  F  F99  1  0.05757900  0.58809600  0.08901000  1
  F  F100  1  0.41190400  0.46948300  0.75567700  1
  F  F101  1  0.53051700  0.94242100  0.42234400  1
  F  F102  1  0.41685800  0.93291000  0.23455800  1
  F  F103  1  0.06709000  0.48394900  0.90122500  1
  F  F104  1  0.51605100  0.58314200  0.56789100  1
  F  F105  1  0.36312700  0.91236500  0.72278500  1
  F  F106  1  0.08763500  0.45076200  0.38945100  1
  F  F107  1  0.54923800  0.63687300  0.05611800  1
