# generated using pymatgen
data_Ba3(CdAs2)2
_symmetry_space_group_name_H-M   'P 1'
_cell_length_a   8.94727892
_cell_length_b   8.94727892
_cell_length_c   7.41637435
_cell_angle_alpha   68.66747690
_cell_angle_beta   68.66747690
_cell_angle_gamma   30.24637190
_symmetry_Int_Tables_number   1
_chemical_formula_structural   Ba3(CdAs2)2
_chemical_formula_sum   'Ba3 Cd2 As4'
_cell_volume   277.01637996
_cell_formula_units_Z   1
loop_
 _symmetry_equiv_pos_site_id
 _symmetry_equiv_pos_as_xyz
  1  'x, y, z'
loop_
 _atom_site_type_symbol
 _atom_site_label
 _atom_site_symmetry_multiplicity
 _atom_site_fract_x
 _atom_site_fract_y
 _atom_site_fract_z
 _atom_site_occupancy
  Ba  Ba0  1  0.14154300  0.14154300  0.42204600  1
  Ba  Ba1  1  0.85845700  0.85845700  0.57795400  1
  Ba  Ba2  1  0.00000000  0.00000000  0.00000000  1
  Cd  Cd3  1  0.33046800  0.33046800  0.97080300  1
  Cd  Cd4  1  0.66953200  0.66953200  0.02919700  1
  As  As5  1  0.20720100  0.20720100  0.80732000  1
  As  As6  1  0.79279900  0.79279900  0.19268000  1
  As  As7  1  0.49472100  0.49472100  0.67434200  1
  As  As8  1  0.50527900  0.50527900  0.32565800  1
