# generated using pymatgen
data_RbSm(SeO4)2
_symmetry_space_group_name_H-M   'P 1'
_cell_length_a   7.45382300
_cell_length_b   9.31880200
_cell_length_c   11.15451731
_cell_angle_alpha   88.79585176
_cell_angle_beta   90.00000000
_cell_angle_gamma   90.00000000
_symmetry_Int_Tables_number   1
_chemical_formula_structural   RbSm(SeO4)2
_chemical_formula_sum   'Rb4 Sm4 Se8 O32'
_cell_volume   774.62948486
_cell_formula_units_Z   4
loop_
 _symmetry_equiv_pos_site_id
 _symmetry_equiv_pos_as_xyz
  1  'x, y, z'
loop_
 _atom_site_type_symbol
 _atom_site_label
 _atom_site_symmetry_multiplicity
 _atom_site_fract_x
 _atom_site_fract_y
 _atom_site_fract_z
 _atom_site_occupancy
  Rb  Rb0  1  0.35476300  0.43627600  0.84050400  1
  Rb  Rb1  1  0.64523700  0.56372400  0.15949600  1
  Rb  Rb2  1  0.85476300  0.56372400  0.65949600  1
  Rb  Rb3  1  0.14523700  0.43627600  0.34050400  1
  Sm  Sm4  1  0.16811700  0.94733300  0.84818100  1
  Sm  Sm5  1  0.83188300  0.05266700  0.15181900  1
  Sm  Sm6  1  0.66811700  0.05266700  0.65181900  1
  Sm  Sm7  1  0.33188300  0.94733300  0.34818100  1
  Se  Se8  1  0.16727200  0.17833900  0.60863500  1
  Se  Se9  1  0.83272800  0.82166100  0.39136500  1
  Se  Se10  1  0.66727200  0.82166100  0.89136500  1
  Se  Se11  1  0.33272800  0.17833900  0.10863500  1
  Se  Se12  1  0.34155800  0.73544200  0.58799400  1
  Se  Se13  1  0.65844200  0.26455800  0.41200600  1
  Se  Se14  1  0.84155800  0.26455800  0.91200600  1
  Se  Se15  1  0.15844200  0.73544200  0.08799400  1
  O  O16  1  0.82764100  0.88492000  0.52994300  1
  O  O17  1  0.17235900  0.11508000  0.47005700  1
  O  O18  1  0.32764100  0.11508000  0.97005700  1
  O  O19  1  0.67235900  0.88492000  0.02994300  1
  O  O20  1  0.50292500  0.90897400  0.81276600  1
  O  O21  1  0.49707500  0.09102600  0.18723400  1
  O  O22  1  0.00292500  0.09102600  0.68723400  1
  O  O23  1  0.99707500  0.90897400  0.31276600  1
  O  O24  1  0.14836200  0.35361200  0.60543100  1
  O  O25  1  0.85163800  0.64638800  0.39456900  1
  O  O26  1  0.64836200  0.64638800  0.89456900  1
  O  O27  1  0.35163800  0.35361200  0.10543100  1
  O  O28  1  0.25949300  0.71754800  0.95418700  1
  O  O29  1  0.74050700  0.28245200  0.04581300  1
  O  O30  1  0.75949300  0.28245200  0.54581300  1
  O  O31  1  0.24050700  0.71754800  0.45418700  1
  O  O32  1  0.45512600  0.88942500  0.55443000  1
  O  O33  1  0.54487400  0.11057500  0.44557000  1
  O  O34  1  0.95512600  0.11057500  0.94557000  1
  O  O35  1  0.04487400  0.88942500  0.05443000  1
  O  O36  1  0.47237300  0.60128500  0.62699200  1
  O  O37  1  0.52762700  0.39871500  0.37300800  1
  O  O38  1  0.97237300  0.39871500  0.87300800  1
  O  O39  1  0.02762700  0.60128500  0.12699200  1
  O  O40  1  0.84471300  0.87194700  0.80345300  1
  O  O41  1  0.15528700  0.12805300  0.19654700  1
  O  O42  1  0.34471300  0.12805300  0.69654700  1
  O  O43  1  0.65528700  0.87194700  0.30345300  1
  O  O44  1  0.18786000  0.76678100  0.69463500  1
  O  O45  1  0.81214000  0.23321900  0.30536500  1
  O  O46  1  0.68786000  0.23321900  0.80536500  1
  O  O47  1  0.31214000  0.76678100  0.19463500  1
