# generated using pymatgen
data_InPb2F7
_symmetry_space_group_name_H-M   'P 1'
_cell_length_a   12.57918600
_cell_length_b   5.74158000
_cell_length_c   8.49195052
_cell_angle_alpha   89.34936611
_cell_angle_beta   90.00000000
_cell_angle_gamma   90.00000000
_symmetry_Int_Tables_number   1
_chemical_formula_structural   InPb2F7
_chemical_formula_sum   'In4 Pb8 F28'
_cell_volume   613.28651022
_cell_formula_units_Z   4
loop_
 _symmetry_equiv_pos_site_id
 _symmetry_equiv_pos_as_xyz
  1  'x, y, z'
loop_
 _atom_site_type_symbol
 _atom_site_label
 _atom_site_symmetry_multiplicity
 _atom_site_fract_x
 _atom_site_fract_y
 _atom_site_fract_z
 _atom_site_occupancy
  In  In0  1  0.12614000  0.27508700  0.22056800  1
  In  In1  1  0.87386000  0.72491300  0.77943200  1
  In  In2  1  0.62614000  0.72491300  0.27943200  1
  In  In3  1  0.37386000  0.27508700  0.72056800  1
  Pb  Pb4  1  0.78643000  0.22558600  0.05546500  1
  Pb  Pb5  1  0.21357000  0.77441400  0.94453500  1
  Pb  Pb6  1  0.28643000  0.77441400  0.44453500  1
  Pb  Pb7  1  0.71357000  0.22558600  0.55546500  1
  Pb  Pb8  1  0.44038200  0.23514800  0.17733600  1
  Pb  Pb9  1  0.55961800  0.76485200  0.82266400  1
  Pb  Pb10  1  0.94038200  0.76485200  0.32266400  1
  Pb  Pb11  1  0.05961800  0.23514800  0.67733600  1
  F  F12  1  0.07456600  0.60801000  0.12518700  1
  F  F13  1  0.92543400  0.39199000  0.87481300  1
  F  F14  1  0.57456600  0.39199000  0.37481300  1
  F  F15  1  0.42543400  0.60801000  0.62518700  1
  F  F16  1  0.12949600  0.16505100  0.98060300  1
  F  F17  1  0.87050400  0.83494900  0.01939700  1
  F  F18  1  0.62949600  0.83494900  0.51939700  1
  F  F19  1  0.37050400  0.16505100  0.48060300  1
  F  F20  1  0.10456100  0.47987500  0.42999200  1
  F  F21  1  0.89543900  0.52012500  0.57000800  1
  F  F22  1  0.60456100  0.52012500  0.07000800  1
  F  F23  1  0.39543900  0.47987500  0.92999200  1
  F  F24  1  0.54091200  0.19702000  0.71848900  1
  F  F25  1  0.45908800  0.80298000  0.28151100  1
  F  F26  1  0.04091200  0.80298000  0.78151100  1
  F  F27  1  0.95908800  0.19702000  0.21848900  1
  F  F28  1  0.25827100  0.01361300  0.19874700  1
  F  F29  1  0.74172900  0.98638700  0.80125300  1
  F  F30  1  0.75827100  0.98638700  0.30125300  1
  F  F31  1  0.24172900  0.01361300  0.69874700  1
  F  F32  1  0.27257600  0.47476000  0.21593300  1
  F  F33  1  0.72742400  0.52524000  0.78406700  1
  F  F34  1  0.77257600  0.52524000  0.28406700  1
  F  F35  1  0.22742400  0.47476000  0.71593300  1
  F  F36  1  0.10651800  0.01084800  0.40981500  1
  F  F37  1  0.89348200  0.98915200  0.59018500  1
  F  F38  1  0.60651800  0.98915200  0.09018500  1
  F  F39  1  0.39348200  0.01084800  0.90981500  1
