# generated using pymatgen
data_Li2Sn(H5O4)2
_symmetry_space_group_name_H-M   'P 1'
_cell_length_a   10.50412500
_cell_length_b   6.09610800
_cell_length_c   6.13823201
_cell_angle_alpha   61.99538404
_cell_angle_beta   90.00000000
_cell_angle_gamma   90.00000000
_symmetry_Int_Tables_number   1
_chemical_formula_structural   Li2Sn(H5O4)2
_chemical_formula_sum   'Li4 Sn2 H20 O16'
_cell_volume   347.03410305
_cell_formula_units_Z   2
loop_
 _symmetry_equiv_pos_site_id
 _symmetry_equiv_pos_as_xyz
  1  'x, y, z'
loop_
 _atom_site_type_symbol
 _atom_site_label
 _atom_site_symmetry_multiplicity
 _atom_site_fract_x
 _atom_site_fract_y
 _atom_site_fract_z
 _atom_site_occupancy
  Li  Li0  1  0.06438900  0.34498600  0.82613200  1
  Li  Li1  1  0.56438900  0.15501400  0.17386800  1
  Li  Li2  1  0.93561100  0.65501400  0.17386800  1
  Li  Li3  1  0.43561100  0.84498600  0.82613200  1
  Sn  Sn4  1  0.00000000  0.00000000  0.50000000  1
  Sn  Sn5  1  0.50000000  0.50000000  0.50000000  1
  H  H6  1  0.12307400  0.38594100  0.43298500  1
  H  H7  1  0.62307400  0.11405900  0.56701500  1
  H  H8  1  0.87692600  0.61405900  0.56701500  1
  H  H9  1  0.37692600  0.88594100  0.43298500  1
  H  H10  1  0.79266700  0.28799100  0.34976800  1
  H  H11  1  0.29266700  0.21200900  0.65023200  1
  H  H12  1  0.20733300  0.71200900  0.65023200  1
  H  H13  1  0.70733300  0.78799100  0.34976800  1
  H  H14  1  0.19544800  0.13279700  0.19929700  1
  H  H15  1  0.69544800  0.36720300  0.80070300  1
  H  H16  1  0.80455200  0.86720300  0.80070300  1
  H  H17  1  0.30455200  0.63279700  0.19929700  1
  H  H18  1  0.87519100  0.14983200  0.85645500  1
  H  H19  1  0.37519100  0.35016800  0.14354500  1
  H  H20  1  0.12480900  0.85016800  0.14354500  1
  H  H21  1  0.62480900  0.64983200  0.85645500  1
  H  H22  1  0.86849600  0.30103200  0.02310200  1
  H  H23  1  0.36849600  0.19896800  0.97689800  1
  H  H24  1  0.13150400  0.69896800  0.97689800  1
  H  H25  1  0.63150400  0.80103200  0.02310200  1
  O  O26  1  0.11627600  0.22650000  0.58745900  1
  O  O27  1  0.61627600  0.27350000  0.41254100  1
  O  O28  1  0.88372400  0.77350000  0.41254100  1
  O  O29  1  0.38372400  0.72650000  0.58745900  1
  O  O30  1  0.88092300  0.30665300  0.28418000  1
  O  O31  1  0.38092300  0.19334700  0.71582000  1
  O  O32  1  0.11907700  0.69334700  0.71582000  1
  O  O33  1  0.61907700  0.80665300  0.28418000  1
  O  O34  1  0.10559200  0.09939400  0.17583300  1
  O  O35  1  0.60559200  0.40060600  0.82416700  1
  O  O36  1  0.89440800  0.90060600  0.82416700  1
  O  O37  1  0.39440800  0.59939400  0.17583300  1
  O  O38  1  0.86957000  0.31871400  0.85006200  1
  O  O39  1  0.36957000  0.18128600  0.14993800  1
  O  O40  1  0.13043000  0.68128600  0.14993800  1
  O  O41  1  0.63043000  0.81871400  0.85006200  1
