# generated using pymatgen
data_NdSiNi
_symmetry_space_group_name_H-M   'P 1'
_cell_length_a   7.53460345
_cell_length_b   7.53460345
_cell_length_c   7.53460345
_cell_angle_alpha   148.41625902
_cell_angle_beta   148.41625902
_cell_angle_gamma   45.27125761
_symmetry_Int_Tables_number   1
_chemical_formula_structural   NdSiNi
_chemical_formula_sum   'Nd2 Si2 Ni2'
_cell_volume   116.95691619
_cell_formula_units_Z   2
loop_
 _symmetry_equiv_pos_site_id
 _symmetry_equiv_pos_as_xyz
  1  'x, y, z'
loop_
 _atom_site_type_symbol
 _atom_site_label
 _atom_site_symmetry_multiplicity
 _atom_site_fract_x
 _atom_site_fract_y
 _atom_site_fract_z
 _atom_site_occupancy
  Nd  Nd0  1  0.58039600  0.58039600  0.00000000  1
  Nd  Nd1  1  0.33039600  0.83039600  0.50000000  1
  Si  Si2  1  0.99900400  0.99900400  0.00000000  1
  Si  Si3  1  0.74900400  0.24900400  0.50000000  1
  Ni  Ni4  1  0.16760100  0.16760100  0.00000000  1
  Ni  Ni5  1  0.91760100  0.41760100  0.50000000  1
