# generated using pymatgen
data_SmHO2
_symmetry_space_group_name_H-M   'P 1'
_cell_length_a   3.79135200
_cell_length_b   4.42980700
_cell_length_c   6.22348250
_cell_angle_alpha   70.01875447
_cell_angle_beta   90.00000000
_cell_angle_gamma   90.00000000
_symmetry_Int_Tables_number   1
_chemical_formula_structural   SmHO2
_chemical_formula_sum   'Sm2 H2 O4'
_cell_volume   98.23130549
_cell_formula_units_Z   2
loop_
 _symmetry_equiv_pos_site_id
 _symmetry_equiv_pos_as_xyz
  1  'x, y, z'
loop_
 _atom_site_type_symbol
 _atom_site_label
 _atom_site_symmetry_multiplicity
 _atom_site_fract_x
 _atom_site_fract_y
 _atom_site_fract_z
 _atom_site_occupancy
  Sm  Sm0  1  0.25000000  0.66093700  0.19015200  1
  Sm  Sm1  1  0.75000000  0.33906300  0.80984800  1
  H  H2  1  0.75000000  0.97984200  0.39694700  1
  H  H3  1  0.25000000  0.02015800  0.60305300  1
  O  O4  1  0.25000000  0.23426200  0.04848300  1
  O  O5  1  0.75000000  0.74923700  0.43071200  1
  O  O6  1  0.25000000  0.25076300  0.56928800  1
  O  O7  1  0.75000000  0.76573800  0.95151700  1
