# generated using pymatgen
data_Tb11(In3Ge2)2
_symmetry_space_group_name_H-M   'P 1'
_cell_length_a   11.57741994
_cell_length_b   11.57741994
_cell_length_c   11.57741994
_cell_angle_alpha   119.87731658
_cell_angle_beta   119.87731658
_cell_angle_gamma   90.21262559
_symmetry_Int_Tables_number   1
_chemical_formula_structural   Tb11(In3Ge2)2
_chemical_formula_sum   'Tb22 In12 Ge8'
_cell_volume   1099.31388921
_cell_formula_units_Z   2
loop_
 _symmetry_equiv_pos_site_id
 _symmetry_equiv_pos_as_xyz
  1  'x, y, z'
loop_
 _atom_site_type_symbol
 _atom_site_label
 _atom_site_symmetry_multiplicity
 _atom_site_fract_x
 _atom_site_fract_y
 _atom_site_fract_z
 _atom_site_occupancy
  Tb  Tb0  1  0.68579900  0.93485800  0.24906000  1
  Tb  Tb1  1  0.68579900  0.43673900  0.75094000  1
  Tb  Tb2  1  0.93485800  0.68579900  0.24906000  1
  Tb  Tb3  1  0.43673900  0.68579900  0.75094000  1
  Tb  Tb4  1  0.31420100  0.06514200  0.75094000  1
  Tb  Tb5  1  0.31420100  0.56326100  0.24906000  1
  Tb  Tb6  1  0.06514200  0.31420100  0.75094000  1
  Tb  Tb7  1  0.56326100  0.31420100  0.24906000  1
  Tb  Tb8  1  0.89892400  0.24448700  0.34556200  1
  Tb  Tb9  1  0.89892400  0.55336200  0.65443800  1
  Tb  Tb10  1  0.24448700  0.89892400  0.34556200  1
  Tb  Tb11  1  0.55336200  0.89892400  0.65443800  1
  Tb  Tb12  1  0.10107600  0.75551300  0.65443800  1
  Tb  Tb13  1  0.10107600  0.44663800  0.34556200  1
  Tb  Tb14  1  0.75551300  0.10107600  0.65443800  1
  Tb  Tb15  1  0.44663800  0.10107600  0.34556200  1
  Tb  Tb16  1  0.33149700  0.33149700  0.66299500  1
  Tb  Tb17  1  0.66850300  0.66850300  0.33700500  1
  Tb  Tb18  1  0.33149700  0.66850300  0.00000000  1
  Tb  Tb19  1  0.66850300  0.33149700  0.00000000  1
  Tb  Tb20  1  0.83372300  0.83372300  0.00000000  1
  Tb  Tb21  1  0.16627700  0.16627700  0.00000000  1
  In  In22  1  0.03435900  0.03435900  0.41137000  1
  In  In23  1  0.62298900  0.62298900  0.58863000  1
  In  In24  1  0.03435900  0.62298900  0.00000000  1
  In  In25  1  0.62298900  0.03435900  0.00000000  1
  In  In26  1  0.96564100  0.96564100  0.58863000  1
  In  In27  1  0.37701100  0.37701100  0.41137000  1
  In  In28  1  0.96564100  0.37701100  0.00000000  1
  In  In29  1  0.37701100  0.96564100  0.00000000  1
  In  In30  1  0.12932100  0.12932100  0.25864200  1
  In  In31  1  0.87067900  0.87067900  0.74135800  1
  In  In32  1  0.12932100  0.87067900  0.00000000  1
  In  In33  1  0.87067900  0.12932100  0.00000000  1
  Ge  Ge34  1  0.15332800  0.50000000  0.65332800  1
  Ge  Ge35  1  0.84667200  0.50000000  0.34667200  1
  Ge  Ge36  1  0.50000000  0.84667200  0.34667200  1
  Ge  Ge37  1  0.50000000  0.15332800  0.65332800  1
  Ge  Ge38  1  0.61703300  0.61703300  0.00000000  1
  Ge  Ge39  1  0.38296700  0.38296700  0.00000000  1
  Ge  Ge40  1  0.75000000  0.25000000  0.50000000  1
  Ge  Ge41  1  0.25000000  0.75000000  0.50000000  1
