# generated using pymatgen
data_Nd4MgCo
_symmetry_space_group_name_H-M   'P 1'
_cell_length_a   9.84571664
_cell_length_b   9.84571664
_cell_length_c   9.84571664
_cell_angle_alpha   60.00000000
_cell_angle_beta   60.00000000
_cell_angle_gamma   60.00000000
_symmetry_Int_Tables_number   1
_chemical_formula_structural   Nd4MgCo
_chemical_formula_sum   'Nd16 Mg4 Co4'
_cell_volume   674.88068624
_cell_formula_units_Z   4
loop_
 _symmetry_equiv_pos_site_id
 _symmetry_equiv_pos_as_xyz
  1  'x, y, z'
loop_
 _atom_site_type_symbol
 _atom_site_label
 _atom_site_symmetry_multiplicity
 _atom_site_fract_x
 _atom_site_fract_y
 _atom_site_fract_z
 _atom_site_occupancy
  Nd  Nd0  1  0.59418400  0.59418400  0.59418400  1
  Nd  Nd1  1  0.59418400  0.59418400  0.21744700  1
  Nd  Nd2  1  0.59418400  0.21744700  0.59418400  1
  Nd  Nd3  1  0.21744700  0.59418400  0.59418400  1
  Nd  Nd4  1  0.18771500  0.81228500  0.81228500  1
  Nd  Nd5  1  0.81228500  0.18771500  0.18771500  1
  Nd  Nd6  1  0.81228500  0.18771500  0.81228500  1
  Nd  Nd7  1  0.18771500  0.81228500  0.18771500  1
  Nd  Nd8  1  0.81228500  0.81228500  0.18771500  1
  Nd  Nd9  1  0.18771500  0.18771500  0.81228500  1
  Nd  Nd10  1  0.06274300  0.43725700  0.43725700  1
  Nd  Nd11  1  0.43725700  0.06274300  0.06274300  1
  Nd  Nd12  1  0.43725700  0.06274300  0.43725700  1
  Nd  Nd13  1  0.06274300  0.43725700  0.06274300  1
  Nd  Nd14  1  0.43725700  0.43725700  0.06274300  1
  Nd  Nd15  1  0.06274300  0.06274300  0.43725700  1
  Mg  Mg16  1  0.82878100  0.82878100  0.82878100  1
  Mg  Mg17  1  0.82878100  0.82878100  0.51365700  1
  Mg  Mg18  1  0.82878100  0.51365700  0.82878100  1
  Mg  Mg19  1  0.51365700  0.82878100  0.82878100  1
  Co  Co20  1  0.39038700  0.39038700  0.39038700  1
  Co  Co21  1  0.39038700  0.39038700  0.82883900  1
  Co  Co22  1  0.39038700  0.82883900  0.39038700  1
  Co  Co23  1  0.82883900  0.39038700  0.39038700  1
