# generated using pymatgen
data_RbTiNbO5
_symmetry_space_group_name_H-M   'P 1'
_cell_length_a   3.85656800
_cell_length_b   6.52568200
_cell_length_c   19.38431400
_cell_angle_alpha   90.00000000
_cell_angle_beta   90.00000000
_cell_angle_gamma   90.00000000
_symmetry_Int_Tables_number   1
_chemical_formula_structural   RbTiNbO5
_chemical_formula_sum   'Rb4 Ti4 Nb4 O20'
_cell_volume   487.83992033
_cell_formula_units_Z   4
loop_
 _symmetry_equiv_pos_site_id
 _symmetry_equiv_pos_as_xyz
  1  'x, y, z'
loop_
 _atom_site_type_symbol
 _atom_site_label
 _atom_site_symmetry_multiplicity
 _atom_site_fract_x
 _atom_site_fract_y
 _atom_site_fract_z
 _atom_site_occupancy
  Rb  Rb0  1  0.25000000  0.79662100  0.19391700  1
  Rb  Rb1  1  0.25000000  0.29662100  0.30608300  1
  Rb  Rb2  1  0.75000000  0.20337900  0.80608300  1
  Rb  Rb3  1  0.75000000  0.70337900  0.69391700  1
  Ti  Ti4  1  0.25000000  0.31414800  0.96780400  1
  Ti  Ti5  1  0.25000000  0.81414800  0.53219600  1
  Ti  Ti6  1  0.75000000  0.68585200  0.03219600  1
  Ti  Ti7  1  0.75000000  0.18585200  0.46780400  1
  Nb  Nb8  1  0.25000000  0.76635300  0.89412300  1
  Nb  Nb9  1  0.25000000  0.26635300  0.60587700  1
  Nb  Nb10  1  0.75000000  0.23364700  0.10587700  1
  Nb  Nb11  1  0.75000000  0.73364700  0.39412300  1
  O  O12  1  0.25000000  0.24041300  0.07700900  1
  O  O13  1  0.25000000  0.74041300  0.42299100  1
  O  O14  1  0.75000000  0.75958700  0.92299100  1
  O  O15  1  0.75000000  0.25958700  0.57700900  1
  O  O16  1  0.25000000  0.83095000  0.80318300  1
  O  O17  1  0.25000000  0.33095000  0.69681700  1
  O  O18  1  0.75000000  0.16905000  0.19681700  1
  O  O19  1  0.75000000  0.66905000  0.30318300  1
  O  O20  1  0.25000000  0.46092900  0.88478200  1
  O  O21  1  0.25000000  0.96092900  0.61521800  1
  O  O22  1  0.75000000  0.53907100  0.11521800  1
  O  O23  1  0.75000000  0.03907100  0.38478200  1
  O  O24  1  0.25000000  0.06316100  0.93000200  1
  O  O25  1  0.25000000  0.56316100  0.56999800  1
  O  O26  1  0.75000000  0.93683900  0.06999800  1
  O  O27  1  0.75000000  0.43683900  0.43000200  1
  O  O28  1  0.25000000  0.64694600  0.00962800  1
  O  O29  1  0.25000000  0.14694600  0.49037200  1
  O  O30  1  0.75000000  0.35305400  0.99037200  1
  O  O31  1  0.75000000  0.85305400  0.50962800  1
