# generated using pymatgen
data_TmAlPt
_symmetry_space_group_name_H-M   'P 1'
_cell_length_a   4.40427600
_cell_length_b   6.81451100
_cell_length_c   7.70976500
_cell_angle_alpha   90.00000000
_cell_angle_beta   90.00000000
_cell_angle_gamma   90.00000000
_symmetry_Int_Tables_number   1
_chemical_formula_structural   TmAlPt
_chemical_formula_sum   'Tm4 Al4 Pt4'
_cell_volume   231.39307864
_cell_formula_units_Z   4
loop_
 _symmetry_equiv_pos_site_id
 _symmetry_equiv_pos_as_xyz
  1  'x, y, z'
loop_
 _atom_site_type_symbol
 _atom_site_label
 _atom_site_symmetry_multiplicity
 _atom_site_fract_x
 _atom_site_fract_y
 _atom_site_fract_z
 _atom_site_occupancy
  Tm  Tm0  1  0.25000000  0.02832200  0.68331200  1
  Tm  Tm1  1  0.25000000  0.52832200  0.81668800  1
  Tm  Tm2  1  0.75000000  0.97167800  0.31668800  1
  Tm  Tm3  1  0.75000000  0.47167800  0.18331200  1
  Al  Al4  1  0.25000000  0.15001200  0.06500900  1
  Al  Al5  1  0.25000000  0.65001200  0.43499100  1
  Al  Al6  1  0.75000000  0.84998800  0.93499100  1
  Al  Al7  1  0.75000000  0.34998800  0.56500900  1
  Pt  Pt8  1  0.25000000  0.27303600  0.38594800  1
  Pt  Pt9  1  0.25000000  0.77303600  0.11405200  1
  Pt  Pt10  1  0.75000000  0.72696400  0.61405200  1
  Pt  Pt11  1  0.75000000  0.22696400  0.88594800  1
