# generated using pymatgen
data_K2CeI5
_symmetry_space_group_name_H-M   'P 1'
_cell_length_a   9.34278700
_cell_length_b   9.93940300
_cell_length_c   14.67385800
_cell_angle_alpha   90.00000000
_cell_angle_beta   90.00000000
_cell_angle_gamma   90.00000000
_symmetry_Int_Tables_number   1
_chemical_formula_structural   K2CeI5
_chemical_formula_sum   'K8 Ce4 I20'
_cell_volume   1362.63976828
_cell_formula_units_Z   4
loop_
 _symmetry_equiv_pos_site_id
 _symmetry_equiv_pos_as_xyz
  1  'x, y, z'
loop_
 _atom_site_type_symbol
 _atom_site_label
 _atom_site_symmetry_multiplicity
 _atom_site_fract_x
 _atom_site_fract_y
 _atom_site_fract_z
 _atom_site_occupancy
  K  K0  1  0.94834200  0.00438400  0.82832400  1
  K  K1  1  0.05165800  0.99561600  0.17167600  1
  K  K2  1  0.44834200  0.99561600  0.67167600  1
  K  K3  1  0.05165800  0.50438400  0.17167600  1
  K  K4  1  0.55165800  0.00438400  0.32832400  1
  K  K5  1  0.94834200  0.49561600  0.82832400  1
  K  K6  1  0.55165800  0.49561600  0.32832400  1
  K  K7  1  0.44834200  0.50438400  0.67167600  1
  Ce  Ce8  1  0.92215600  0.75000000  0.50523500  1
  Ce  Ce9  1  0.07784400  0.25000000  0.49476500  1
  Ce  Ce10  1  0.42215600  0.25000000  0.99476500  1
  Ce  Ce11  1  0.57784400  0.75000000  0.00523500  1
  I  I12  1  0.12846300  0.75000000  0.68124600  1
  I  I13  1  0.87153700  0.25000000  0.31875400  1
  I  I14  1  0.62846300  0.25000000  0.81875400  1
  I  I15  1  0.37153700  0.75000000  0.18124600  1
  I  I16  1  0.83467500  0.04481200  0.57771800  1
  I  I17  1  0.16532500  0.95518800  0.42228200  1
  I  I18  1  0.33467500  0.95518800  0.92228200  1
  I  I19  1  0.16532500  0.54481200  0.42228200  1
  I  I20  1  0.66532500  0.04481200  0.07771800  1
  I  I21  1  0.83467500  0.45518800  0.57771800  1
  I  I22  1  0.66532500  0.45518800  0.07771800  1
  I  I23  1  0.33467500  0.54481200  0.92228200  1
  I  I24  1  0.57093200  0.75000000  0.50699700  1
  I  I25  1  0.42906800  0.25000000  0.49300300  1
  I  I26  1  0.07093200  0.25000000  0.99300300  1
  I  I27  1  0.92906800  0.75000000  0.00699700  1
  I  I28  1  0.66449800  0.75000000  0.79431500  1
  I  I29  1  0.33550200  0.25000000  0.20568500  1
  I  I30  1  0.16449800  0.25000000  0.70568500  1
  I  I31  1  0.83550200  0.75000000  0.29431500  1
