# generated using pymatgen
data_K2CdGeO4
_symmetry_space_group_name_H-M   'P 1'
_cell_length_a   5.86056000
_cell_length_b   11.73302600
_cell_length_c   16.41992800
_cell_angle_alpha   90.00000000
_cell_angle_beta   90.00000000
_cell_angle_gamma   90.00000000
_symmetry_Int_Tables_number   1
_chemical_formula_structural   K2CdGeO4
_chemical_formula_sum   'K16 Cd8 Ge8 O32'
_cell_volume   1129.06877800
_cell_formula_units_Z   8
loop_
 _symmetry_equiv_pos_site_id
 _symmetry_equiv_pos_as_xyz
  1  'x, y, z'
loop_
 _atom_site_type_symbol
 _atom_site_label
 _atom_site_symmetry_multiplicity
 _atom_site_fract_x
 _atom_site_fract_y
 _atom_site_fract_z
 _atom_site_occupancy
  K  K0  1  0.02998500  0.22624900  0.87113700  1
  K  K1  1  0.97001500  0.77375100  0.37113700  1
  K  K2  1  0.97001500  0.72624900  0.87113700  1
  K  K3  1  0.02998500  0.27375100  0.37113700  1
  K  K4  1  0.01430900  0.49535100  0.74232900  1
  K  K5  1  0.98569100  0.50464900  0.24232900  1
  K  K6  1  0.98569100  0.99535100  0.74232900  1
  K  K7  1  0.01430900  0.00464900  0.24232900  1
  K  K8  1  0.53343100  0.26769100  0.50076500  1
  K  K9  1  0.46656900  0.73230900  0.00076500  1
  K  K10  1  0.46656900  0.76769100  0.50076500  1
  K  K11  1  0.53343100  0.23230900  0.00076500  1
  K  K12  1  0.51429000  0.00616700  0.62560900  1
  K  K13  1  0.48571000  0.99383300  0.12560900  1
  K  K14  1  0.48571000  0.50616700  0.62560900  1
  K  K15  1  0.51429000  0.49383300  0.12560900  1
  Cd  Cd16  1  0.01809700  0.01886900  0.49566200  1
  Cd  Cd17  1  0.98190300  0.98113100  0.99566200  1
  Cd  Cd18  1  0.98190300  0.51886900  0.49566200  1
  Cd  Cd19  1  0.01809700  0.48113100  0.99566200  1
  Cd  Cd20  1  0.51613600  0.23881300  0.74878500  1
  Cd  Cd21  1  0.48386400  0.76118700  0.24878500  1
  Cd  Cd22  1  0.48386400  0.73881300  0.74878500  1
  Cd  Cd23  1  0.51613600  0.26118700  0.24878500  1
  Ge  Ge24  1  0.52311900  0.48755800  0.87495100  1
  Ge  Ge25  1  0.47688100  0.51244200  0.37495100  1
  Ge  Ge26  1  0.47688100  0.98755800  0.87495100  1
  Ge  Ge27  1  0.52311900  0.01244200  0.37495100  1
  Ge  Ge28  1  0.00801100  0.27095900  0.61883100  1
  Ge  Ge29  1  0.99198900  0.72904100  0.11883100  1
  Ge  Ge30  1  0.99198900  0.77095900  0.61883100  1
  Ge  Ge31  1  0.00801100  0.22904100  0.11883100  1
  O  O32  1  0.59794100  0.34168000  0.85611300  1
  O  O33  1  0.40205900  0.65832000  0.35611300  1
  O  O34  1  0.40205900  0.84168000  0.85611300  1
  O  O35  1  0.59794100  0.15832000  0.35611300  1
  O  O36  1  0.24491900  0.32006700  0.67753100  1
  O  O37  1  0.75508100  0.67993300  0.17753100  1
  O  O38  1  0.75508100  0.82006700  0.67753100  1
  O  O39  1  0.24491900  0.17993300  0.17753100  1
  O  O40  1  0.14224400  0.60355700  0.08882700  1
  O  O41  1  0.85775600  0.39644300  0.58882700  1
  O  O42  1  0.85775600  0.10355700  0.08882700  1
  O  O43  1  0.14224400  0.89644300  0.58882700  1
  O  O44  1  0.22421800  0.51425900  0.88453000  1
  O  O45  1  0.77578200  0.48574100  0.38453000  1
  O  O46  1  0.77578200  0.01425900  0.88453000  1
  O  O47  1  0.22421800  0.98574100  0.38453000  1
  O  O48  1  0.18539000  0.68423600  0.67571600  1
  O  O49  1  0.81461000  0.31576400  0.17571600  1
  O  O50  1  0.81461000  0.18423600  0.67571600  1
  O  O51  1  0.18539000  0.81576400  0.17571600  1
  O  O52  1  0.34195300  0.02310500  0.96942300  1
  O  O53  1  0.65804700  0.97689500  0.46942300  1
  O  O54  1  0.65804700  0.52310500  0.96942300  1
  O  O55  1  0.34195300  0.47689500  0.46942300  1
  O  O56  1  0.10543500  0.19476100  0.53140500  1
  O  O57  1  0.89456500  0.80523900  0.03140500  1
  O  O58  1  0.89456500  0.69476100  0.53140500  1
  O  O59  1  0.10543500  0.30523900  0.03140500  1
  O  O60  1  0.37388300  0.07410300  0.79308800  1
  O  O61  1  0.62611700  0.92589700  0.29308800  1
  O  O62  1  0.62611700  0.57410300  0.79308800  1
  O  O63  1  0.37388300  0.42589700  0.29308800  1
