# generated using pymatgen
data_KGe2N3
_symmetry_space_group_name_H-M   'P 1'
_cell_length_a   5.88303524
_cell_length_b   5.88303524
_cell_length_c   5.32150600
_cell_angle_alpha   90.00000000
_cell_angle_beta   90.00000000
_cell_angle_gamma   118.38115970
_symmetry_Int_Tables_number   1
_chemical_formula_structural   KGe2N3
_chemical_formula_sum   'K2 Ge4 N6'
_cell_volume   162.04060004
_cell_formula_units_Z   2
loop_
 _symmetry_equiv_pos_site_id
 _symmetry_equiv_pos_as_xyz
  1  'x, y, z'
loop_
 _atom_site_type_symbol
 _atom_site_label
 _atom_site_symmetry_multiplicity
 _atom_site_fract_x
 _atom_site_fract_y
 _atom_site_fract_z
 _atom_site_occupancy
  K  K0  1  0.65492900  0.65492900  0.47373300  1
  K  K1  1  0.34507100  0.34507100  0.97373300  1
  Ge  Ge2  1  0.31675500  0.97089200  0.49540800  1
  Ge  Ge3  1  0.97089200  0.31675500  0.49540800  1
  Ge  Ge4  1  0.68324500  0.02910800  0.99540800  1
  Ge  Ge5  1  0.02910800  0.68324500  0.99540800  1
  N  N6  1  0.35313000  0.88382000  0.83224500  1
  N  N7  1  0.88382000  0.35313000  0.83224500  1
  N  N8  1  0.64687000  0.11618000  0.33224500  1
  N  N9  1  0.11618000  0.64687000  0.33224500  1
  N  N10  1  0.79411600  0.79411600  0.95896100  1
  N  N11  1  0.20588400  0.20588400  0.45896100  1
