# generated using pymatgen
data_P2PdPbO7
_symmetry_space_group_name_H-M   'P 1'
_cell_length_a   6.13434800
_cell_length_b   7.48559500
_cell_length_c   13.66918500
_cell_angle_alpha   90.00000000
_cell_angle_beta   90.00000000
_cell_angle_gamma   90.00000000
_symmetry_Int_Tables_number   1
_chemical_formula_structural   P2PdPbO7
_chemical_formula_sum   'P8 Pd4 Pb4 O28'
_cell_volume   627.67865110
_cell_formula_units_Z   4
loop_
 _symmetry_equiv_pos_site_id
 _symmetry_equiv_pos_as_xyz
  1  'x, y, z'
loop_
 _atom_site_type_symbol
 _atom_site_label
 _atom_site_symmetry_multiplicity
 _atom_site_fract_x
 _atom_site_fract_y
 _atom_site_fract_z
 _atom_site_occupancy
  P  P0  1  0.25000000  0.78400800  0.62181700  1
  P  P1  1  0.25000000  0.71599200  0.12181700  1
  P  P2  1  0.75000000  0.21599200  0.37818300  1
  P  P3  1  0.75000000  0.28400800  0.87818300  1
  P  P4  1  0.75000000  0.17771500  0.58773100  1
  P  P5  1  0.75000000  0.32228500  0.08773100  1
  P  P6  1  0.25000000  0.82228500  0.41226900  1
  P  P7  1  0.25000000  0.67771500  0.91226900  1
  Pd  Pd8  1  0.00000000  0.50000000  0.50000000  1
  Pd  Pd9  1  0.50000000  0.00000000  0.00000000  1
  Pd  Pd10  1  0.50000000  0.50000000  0.50000000  1
  Pd  Pd11  1  0.00000000  0.00000000  0.00000000  1
  Pb  Pb12  1  0.25000000  0.24053200  0.74282600  1
  Pb  Pb13  1  0.25000000  0.25946800  0.24282600  1
  Pb  Pb14  1  0.75000000  0.75946800  0.25717400  1
  Pb  Pb15  1  0.75000000  0.74053200  0.75717400  1
  O  O16  1  0.75000000  0.02779000  0.66009800  1
  O  O17  1  0.75000000  0.47221000  0.16009800  1
  O  O18  1  0.25000000  0.97221000  0.33990200  1
  O  O19  1  0.25000000  0.52779000  0.83990200  1
  O  O20  1  0.25000000  0.90374200  0.52311100  1
  O  O21  1  0.25000000  0.59625800  0.02311100  1
  O  O22  1  0.75000000  0.09625800  0.47688900  1
  O  O23  1  0.75000000  0.40374200  0.97688900  1
  O  O24  1  0.96267500  0.29116800  0.59477600  1
  O  O25  1  0.53732500  0.20883200  0.09477600  1
  O  O26  1  0.46267500  0.70883200  0.40522400  1
  O  O27  1  0.03732500  0.79116800  0.90522400  1
  O  O28  1  0.03732500  0.70883200  0.40522400  1
  O  O29  1  0.46267500  0.79116800  0.90522400  1
  O  O30  1  0.53732500  0.29116800  0.59477600  1
  O  O31  1  0.96267500  0.20883200  0.09477600  1
  O  O32  1  0.25000000  0.90812200  0.70837400  1
  O  O33  1  0.25000000  0.59187800  0.20837400  1
  O  O34  1  0.75000000  0.09187800  0.29162600  1
  O  O35  1  0.75000000  0.40812200  0.79162600  1
  O  O36  1  0.03995100  0.66597800  0.61930600  1
  O  O37  1  0.46004900  0.83402200  0.11930600  1
  O  O38  1  0.53995100  0.33402200  0.38069400  1
  O  O39  1  0.96004900  0.16597800  0.88069400  1
  O  O40  1  0.96004900  0.33402200  0.38069400  1
  O  O41  1  0.53995100  0.16597800  0.88069400  1
  O  O42  1  0.46004900  0.66597800  0.61930600  1
  O  O43  1  0.03995100  0.83402200  0.11930600  1
