# generated using pymatgen
data_KB5O8
_symmetry_space_group_name_H-M   'P 1'
_cell_length_a   8.60486600
_cell_length_b   8.63880800
_cell_length_c   21.72114700
_cell_angle_alpha   90.00000000
_cell_angle_beta   90.00000000
_cell_angle_gamma   90.00000000
_symmetry_Int_Tables_number   1
_chemical_formula_structural   KB5O8
_chemical_formula_sum   'K8 B40 O64'
_cell_volume   1614.65851855
_cell_formula_units_Z   8
loop_
 _symmetry_equiv_pos_site_id
 _symmetry_equiv_pos_as_xyz
  1  'x, y, z'
loop_
 _atom_site_type_symbol
 _atom_site_label
 _atom_site_symmetry_multiplicity
 _atom_site_fract_x
 _atom_site_fract_y
 _atom_site_fract_z
 _atom_site_occupancy
  K  K0  1  0.60441900  0.39857700  0.12377600  1
  K  K1  1  0.10441900  0.10142300  0.87622400  1
  K  K2  1  0.39558100  0.89857700  0.37622400  1
  K  K3  1  0.89558100  0.60142300  0.62377600  1
  K  K4  1  0.39558100  0.60142300  0.87622400  1
  K  K5  1  0.89558100  0.89857700  0.12377600  1
  K  K6  1  0.60441900  0.10142300  0.62377600  1
  K  K7  1  0.10441900  0.39857700  0.37622400  1
  B  B8  1  0.53309700  0.00252900  0.20155700  1
  B  B9  1  0.03309700  0.49747100  0.79844300  1
  B  B10  1  0.46690300  0.50252900  0.29844300  1
  B  B11  1  0.96690300  0.99747100  0.70155700  1
  B  B12  1  0.46690300  0.99747100  0.79844300  1
  B  B13  1  0.96690300  0.50252900  0.20155700  1
  B  B14  1  0.53309700  0.49747100  0.70155700  1
  B  B15  1  0.03309700  0.00252900  0.29844300  1
  B  B16  1  0.53259800  0.24527900  0.26683400  1
  B  B17  1  0.03259800  0.25472100  0.73316600  1
  B  B18  1  0.46740200  0.74527900  0.23316600  1
  B  B19  1  0.96740200  0.75472100  0.76683400  1
  B  B20  1  0.46740200  0.75472100  0.73316600  1
  B  B21  1  0.96740200  0.74527900  0.26683400  1
  B  B22  1  0.53259800  0.25472100  0.76683400  1
  B  B23  1  0.03259800  0.24527900  0.23316600  1
  B  B24  1  0.96013000  0.21894800  0.01625900  1
  B  B25  1  0.46013000  0.28105200  0.98374100  1
  B  B26  1  0.03987000  0.71894800  0.48374100  1
  B  B27  1  0.53987000  0.78105200  0.51625900  1
  B  B28  1  0.03987000  0.78105200  0.98374100  1
  B  B29  1  0.53987000  0.71894800  0.01625900  1
  B  B30  1  0.96013000  0.28105200  0.51625900  1
  B  B31  1  0.46013000  0.21894800  0.48374100  1
  B  B32  1  0.71444700  0.30065100  0.45309900  1
  B  B33  1  0.21444700  0.19934900  0.54690100  1
  B  B34  1  0.28555300  0.80065100  0.04690100  1
  B  B35  1  0.78555300  0.69934900  0.95309900  1
  B  B36  1  0.28555300  0.69934900  0.54690100  1
  B  B37  1  0.78555300  0.80065100  0.45309900  1
  B  B38  1  0.71444700  0.19934900  0.95309900  1
  B  B39  1  0.21444700  0.30065100  0.04690100  1
  B  B40  1  0.50206500  0.30268100  0.37598600  1
  B  B41  1  0.00206500  0.19731900  0.62401400  1
  B  B42  1  0.49793500  0.80268100  0.12401400  1
  B  B43  1  0.99793500  0.69731900  0.87598600  1
  B  B44  1  0.49793500  0.69731900  0.62401400  1
  B  B45  1  0.99793500  0.80268100  0.37598600  1
  B  B46  1  0.50206500  0.19731900  0.87598600  1
  B  B47  1  0.00206500  0.30268100  0.12401400  1
  O  O48  1  0.55989600  0.15648700  0.21485300  1
  O  O49  1  0.05989600  0.34351300  0.78514700  1
  O  O50  1  0.44010400  0.65648700  0.28514700  1
  O  O51  1  0.94010400  0.84351300  0.71485300  1
  O  O52  1  0.44010400  0.84351300  0.78514700  1
  O  O53  1  0.94010400  0.65648700  0.21485300  1
  O  O54  1  0.55989600  0.34351300  0.71485300  1
  O  O55  1  0.05989600  0.15648700  0.28514700  1
  O  O56  1  0.53041700  0.40447100  0.25410900  1
  O  O57  1  0.03041700  0.09552900  0.74589100  1
  O  O58  1  0.46958300  0.90447100  0.24589100  1
  O  O59  1  0.96958300  0.59552900  0.75410900  1
  O  O60  1  0.46958300  0.59552900  0.74589100  1
  O  O61  1  0.96958300  0.90447100  0.25410900  1
  O  O62  1  0.53041700  0.09552900  0.75410900  1
  O  O63  1  0.03041700  0.40447100  0.24589100  1
  O  O64  1  0.61668900  0.23941500  0.49830800  1
  O  O65  1  0.11668900  0.26058500  0.50169200  1
  O  O66  1  0.38331100  0.73941500  0.00169200  1
  O  O67  1  0.88331100  0.76058500  0.99830800  1
  O  O68  1  0.38331100  0.76058500  0.50169200  1
  O  O69  1  0.88331100  0.73941500  0.49830800  1
  O  O70  1  0.61668900  0.26058500  0.99830800  1
  O  O71  1  0.11668900  0.23941500  0.00169200  1
  O  O72  1  0.87024800  0.32471400  0.46631400  1
  O  O73  1  0.37024800  0.17528600  0.53368600  1
  O  O74  1  0.12975200  0.82471400  0.03368600  1
  O  O75  1  0.62975200  0.67528600  0.96631400  1
  O  O76  1  0.12975200  0.67528600  0.53368600  1
  O  O77  1  0.62975200  0.82471400  0.46631400  1
  O  O78  1  0.87024800  0.17528600  0.96631400  1
  O  O79  1  0.37024800  0.32471400  0.03368600  1
  O  O80  1  0.92809600  0.44896800  0.14479000  1
  O  O81  1  0.42809600  0.05103200  0.85521000  1
  O  O82  1  0.07190400  0.94896800  0.35521000  1
  O  O83  1  0.57190400  0.55103200  0.64479000  1
  O  O84  1  0.07190400  0.55103200  0.85521000  1
  O  O85  1  0.57190400  0.94896800  0.14479000  1
  O  O86  1  0.92809600  0.05103200  0.64479000  1
  O  O87  1  0.42809600  0.44896800  0.35521000  1
  O  O88  1  0.90516100  0.23560700  0.07437300  1
  O  O89  1  0.40516100  0.26439300  0.92562700  1
  O  O90  1  0.09483900  0.73560700  0.42562700  1
  O  O91  1  0.59483900  0.76439300  0.57437300  1
  O  O92  1  0.09483900  0.76439300  0.92562700  1
  O  O93  1  0.59483900  0.73560700  0.07437300  1
  O  O94  1  0.90516100  0.26439300  0.57437300  1
  O  O95  1  0.40516100  0.23560700  0.42562700  1
  O  O96  1  0.50855000  0.18952400  0.32419200  1
  O  O97  1  0.00855000  0.31047600  0.67580800  1
  O  O98  1  0.49145000  0.68952400  0.17580800  1
  O  O99  1  0.99145000  0.81047600  0.82419200  1
  O  O100  1  0.49145000  0.81047600  0.67580800  1
  O  O101  1  0.99145000  0.68952400  0.32419200  1
  O  O102  1  0.50855000  0.31047600  0.82419200  1
  O  O103  1  0.00855000  0.18952400  0.17580800  1
  O  O104  1  0.66187800  0.33632400  0.39645700  1
  O  O105  1  0.16187800  0.16367600  0.60354300  1
  O  O106  1  0.33812200  0.83632400  0.10354300  1
  O  O107  1  0.83812200  0.66367600  0.89645700  1
  O  O108  1  0.33812200  0.66367600  0.60354300  1
  O  O109  1  0.83812200  0.83632400  0.39645700  1
  O  O110  1  0.66187800  0.16367600  0.89645700  1
  O  O111  1  0.16187800  0.33632400  0.10354300  1
