# generated using pymatgen
data_Ho5(In2Pt)2
_symmetry_space_group_name_H-M   'P 1'
_cell_length_a   3.60683800
_cell_length_b   8.15993200
_cell_length_c   18.23665100
_cell_angle_alpha   90.00000000
_cell_angle_beta   90.00000000
_cell_angle_gamma   90.00000000
_symmetry_Int_Tables_number   1
_chemical_formula_structural   Ho5(In2Pt)2
_chemical_formula_sum   'Ho10 In8 Pt4'
_cell_volume   536.73295708
_cell_formula_units_Z   2
loop_
 _symmetry_equiv_pos_site_id
 _symmetry_equiv_pos_as_xyz
  1  'x, y, z'
loop_
 _atom_site_type_symbol
 _atom_site_label
 _atom_site_symmetry_multiplicity
 _atom_site_fract_x
 _atom_site_fract_y
 _atom_site_fract_z
 _atom_site_occupancy
  Ho  Ho0  1  0.00000000  0.11690700  0.41430100  1
  Ho  Ho1  1  0.00000000  0.88309300  0.58569900  1
  Ho  Ho2  1  0.00000000  0.38309300  0.91430100  1
  Ho  Ho3  1  0.00000000  0.61690700  0.08569900  1
  Ho  Ho4  1  0.00000000  0.24369900  0.22000700  1
  Ho  Ho5  1  0.00000000  0.75630100  0.77999300  1
  Ho  Ho6  1  0.00000000  0.25630100  0.72000700  1
  Ho  Ho7  1  0.00000000  0.74369900  0.27999300  1
  Ho  Ho8  1  0.00000000  0.00000000  0.00000000  1
  Ho  Ho9  1  0.00000000  0.50000000  0.50000000  1
  In  In10  1  0.50000000  0.42417200  0.35036600  1
  In  In11  1  0.50000000  0.57582800  0.64963400  1
  In  In12  1  0.50000000  0.07582800  0.85036600  1
  In  In13  1  0.50000000  0.92417200  0.14963400  1
  In  In14  1  0.50000000  0.29236300  0.06671100  1
  In  In15  1  0.50000000  0.70763700  0.93328900  1
  In  In16  1  0.50000000  0.20763700  0.56671100  1
  In  In17  1  0.50000000  0.79236300  0.43328900  1
  Pt  Pt18  1  0.50000000  0.02437700  0.30315300  1
  Pt  Pt19  1  0.50000000  0.97562300  0.69684700  1
  Pt  Pt20  1  0.50000000  0.47562300  0.80315300  1
  Pt  Pt21  1  0.50000000  0.52437700  0.19684700  1
