# generated using pymatgen
data_Li2Ga7
_symmetry_space_group_name_H-M   'P 1'
_cell_length_a   7.51358549
_cell_length_b   7.51358549
_cell_length_c   7.51632044
_cell_angle_alpha   69.46222982
_cell_angle_beta   69.46222982
_cell_angle_gamma   69.30270544
_symmetry_Int_Tables_number   1
_chemical_formula_structural   Li2Ga7
_chemical_formula_sum   'Li4 Ga14'
_cell_volume   359.03350203
_cell_formula_units_Z   2
loop_
 _symmetry_equiv_pos_site_id
 _symmetry_equiv_pos_as_xyz
  1  'x, y, z'
loop_
 _atom_site_type_symbol
 _atom_site_label
 _atom_site_symmetry_multiplicity
 _atom_site_fract_x
 _atom_site_fract_y
 _atom_site_fract_z
 _atom_site_occupancy
  Li  Li0  1  0.11822100  0.11822100  0.53249100  1
  Li  Li1  1  0.46714400  0.88283300  0.88363100  1
  Li  Li2  1  0.88283300  0.46714400  0.88363100  1
  Li  Li3  1  0.88224300  0.88224300  0.46621000  1
  Ga  Ga4  1  0.18367300  0.70072700  0.70877500  1
  Ga  Ga5  1  0.70072700  0.18367300  0.70877500  1
  Ga  Ga6  1  0.70582400  0.70582400  0.18218700  1
  Ga  Ga7  1  0.81428500  0.29911400  0.29442000  1
  Ga  Ga8  1  0.29911400  0.81428500  0.29442000  1
  Ga  Ga9  1  0.29698300  0.29698300  0.81764400  1
  Ga  Ga10  1  0.17476800  0.49104000  0.48671800  1
  Ga  Ga11  1  0.49104000  0.17476800  0.48671800  1
  Ga  Ga12  1  0.48828100  0.48828100  0.17217000  1
  Ga  Ga13  1  0.82665800  0.50908000  0.50813300  1
  Ga  Ga14  1  0.50908000  0.82665800  0.50813300  1
  Ga  Ga15  1  0.50886100  0.50886100  0.82784900  1
  Ga  Ga16  1  0.07820500  0.07820500  0.07728100  1
  Ga  Ga17  1  0.92026000  0.92026000  0.92461800  1
