# generated using pymatgen
data_Sr4TaFeO8
_symmetry_space_group_name_H-M   'P 1'
_cell_length_a   6.98165997
_cell_length_b   6.98165997
_cell_length_c   5.64112400
_cell_angle_alpha   90.00000000
_cell_angle_beta   90.00000000
_cell_angle_gamma   132.31931768
_symmetry_Int_Tables_number   1
_chemical_formula_structural   Sr4TaFeO8
_chemical_formula_sum   'Sr4 Ta1 Fe1 O8'
_cell_volume   203.31288921
_cell_formula_units_Z   1
loop_
 _symmetry_equiv_pos_site_id
 _symmetry_equiv_pos_as_xyz
  1  'x, y, z'
loop_
 _atom_site_type_symbol
 _atom_site_label
 _atom_site_symmetry_multiplicity
 _atom_site_fract_x
 _atom_site_fract_y
 _atom_site_fract_z
 _atom_site_occupancy
  Sr  Sr0  1  0.64801300  0.35198700  0.00000000  1
  Sr  Sr1  1  0.14584200  0.85415800  0.50000000  1
  Sr  Sr2  1  0.85415800  0.14584200  0.50000000  1
  Sr  Sr3  1  0.35198700  0.64801300  0.00000000  1
  Ta  Ta4  1  0.50000000  0.50000000  0.50000000  1
  Fe  Fe5  1  0.00000000  0.00000000  0.00000000  1
  O  O6  1  0.74786300  0.74786300  0.74686300  1
  O  O7  1  0.25213700  0.25213700  0.25313700  1
  O  O8  1  0.25213700  0.25213700  0.74686300  1
  O  O9  1  0.74786300  0.74786300  0.25313700  1
  O  O10  1  0.83804800  0.16195200  0.00000000  1
  O  O11  1  0.33986400  0.66013600  0.50000000  1
  O  O12  1  0.66013600  0.33986400  0.50000000  1
  O  O13  1  0.16195200  0.83804800  0.00000000  1
