# generated using pymatgen
data_KTh2F9
_symmetry_space_group_name_H-M   'P 1'
_cell_length_a   7.25771800
_cell_length_b   8.94076800
_cell_length_c   11.83085400
_cell_angle_alpha   90.00000000
_cell_angle_beta   90.00000000
_cell_angle_gamma   90.00000000
_symmetry_Int_Tables_number   1
_chemical_formula_structural   KTh2F9
_chemical_formula_sum   'K4 Th8 F36'
_cell_volume   767.69906248
_cell_formula_units_Z   4
loop_
 _symmetry_equiv_pos_site_id
 _symmetry_equiv_pos_as_xyz
  1  'x, y, z'
loop_
 _atom_site_type_symbol
 _atom_site_label
 _atom_site_symmetry_multiplicity
 _atom_site_fract_x
 _atom_site_fract_y
 _atom_site_fract_z
 _atom_site_occupancy
  K  K0  1  0.64356200  0.03679300  0.25000000  1
  K  K1  1  0.35643800  0.96320700  0.75000000  1
  K  K2  1  0.14356200  0.46320700  0.75000000  1
  K  K3  1  0.85643800  0.53679300  0.25000000  1
  Th  Th4  1  0.15339200  0.17495500  0.05029000  1
  Th  Th5  1  0.84660800  0.82504500  0.94971000  1
  Th  Th6  1  0.65339200  0.32504500  0.94971000  1
  Th  Th7  1  0.84660800  0.82504500  0.55029000  1
  Th  Th8  1  0.34660800  0.67495500  0.05029000  1
  Th  Th9  1  0.15339200  0.17495500  0.44971000  1
  Th  Th10  1  0.34660800  0.67495500  0.44971000  1
  Th  Th11  1  0.65339200  0.32504500  0.55029000  1
  F  F12  1  0.19874800  0.43678200  0.07973100  1
  F  F13  1  0.80125200  0.56321800  0.92026900  1
  F  F14  1  0.69874800  0.06321800  0.92026900  1
  F  F15  1  0.80125200  0.56321800  0.57973100  1
  F  F16  1  0.30125200  0.93678200  0.07973100  1
  F  F17  1  0.19874800  0.43678200  0.42026900  1
  F  F18  1  0.30125200  0.93678200  0.42026900  1
  F  F19  1  0.69874800  0.06321800  0.57973100  1
  F  F20  1  0.07583200  0.00383100  0.59779100  1
  F  F21  1  0.92416800  0.99616900  0.40220900  1
  F  F22  1  0.57583200  0.49616900  0.40220900  1
  F  F23  1  0.92416800  0.99616900  0.09779100  1
  F  F24  1  0.42416800  0.50383100  0.59779100  1
  F  F25  1  0.07583200  0.00383100  0.90220900  1
  F  F26  1  0.42416800  0.50383100  0.90220900  1
  F  F27  1  0.57583200  0.49616900  0.09779100  1
  F  F28  1  0.47102400  0.20992000  0.09545000  1
  F  F29  1  0.52897600  0.79008000  0.90455000  1
  F  F30  1  0.97102400  0.29008000  0.90455000  1
  F  F31  1  0.52897600  0.79008000  0.59545000  1
  F  F32  1  0.02897600  0.70992000  0.09545000  1
  F  F33  1  0.47102400  0.20992000  0.40455000  1
  F  F34  1  0.02897600  0.70992000  0.40455000  1
  F  F35  1  0.97102400  0.29008000  0.59545000  1
  F  F36  1  0.16189300  0.17864800  0.25000000  1
  F  F37  1  0.83810700  0.82135200  0.75000000  1
  F  F38  1  0.66189300  0.32135200  0.75000000  1
  F  F39  1  0.33810700  0.67864800  0.25000000  1
  F  F40  1  0.35516500  0.21666300  0.60620300  1
  F  F41  1  0.64483500  0.78333700  0.39379700  1
  F  F42  1  0.85516500  0.28333700  0.39379700  1
  F  F43  1  0.64483500  0.78333700  0.10620300  1
  F  F44  1  0.14483500  0.71666300  0.60620300  1
  F  F45  1  0.35516500  0.21666300  0.89379700  1
  F  F46  1  0.14483500  0.71666300  0.89379700  1
  F  F47  1  0.85516500  0.28333700  0.10620300  1
