# generated using pymatgen
data_V8N
_symmetry_space_group_name_H-M   'P 1'
_cell_length_a   8.69833800
_cell_length_b   8.69833800
_cell_length_c   2.98975000
_cell_angle_alpha   90.00000000
_cell_angle_beta   90.00000000
_cell_angle_gamma   90.00000000
_symmetry_Int_Tables_number   1
_chemical_formula_structural   V8N
_chemical_formula_sum   'V16 N2'
_cell_volume   226.20772578
_cell_formula_units_Z   2
loop_
 _symmetry_equiv_pos_site_id
 _symmetry_equiv_pos_as_xyz
  1  'x, y, z'
loop_
 _atom_site_type_symbol
 _atom_site_label
 _atom_site_symmetry_multiplicity
 _atom_site_fract_x
 _atom_site_fract_y
 _atom_site_fract_z
 _atom_site_occupancy
  V  V0  1  0.65787900  0.34212100  0.50000000  1
  V  V1  1  0.34212100  0.65787900  0.50000000  1
  V  V2  1  0.15787900  0.15787900  0.00000000  1
  V  V3  1  0.84212100  0.84212100  0.00000000  1
  V  V4  1  0.11259700  0.88740300  0.50000000  1
  V  V5  1  0.88740300  0.11259700  0.50000000  1
  V  V6  1  0.61259700  0.61259700  0.00000000  1
  V  V7  1  0.38740300  0.38740300  0.00000000  1
  V  V8  1  0.12650200  0.38557400  0.50000000  1
  V  V9  1  0.87349800  0.61442600  0.50000000  1
  V  V10  1  0.62650200  0.11442600  0.00000000  1
  V  V11  1  0.37349800  0.88557400  0.00000000  1
  V  V12  1  0.38557400  0.12650200  0.50000000  1
  V  V13  1  0.61442600  0.87349800  0.50000000  1
  V  V14  1  0.11442600  0.62650200  0.00000000  1
  V  V15  1  0.88557400  0.37349800  0.00000000  1
  N  N16  1  0.50000000  0.50000000  0.50000000  1
  N  N17  1  0.00000000  0.00000000  0.00000000  1
