# generated using pymatgen
data_Sr3Pt2
_symmetry_space_group_name_H-M   'P 1'
_cell_length_a   8.03723247
_cell_length_b   8.03723247
_cell_length_c   8.03723261
_cell_angle_alpha   71.94257807
_cell_angle_beta   71.94257807
_cell_angle_gamma   71.94258101
_symmetry_Int_Tables_number   1
_chemical_formula_structural   Sr3Pt2
_chemical_formula_sum   'Sr9 Pt6'
_cell_volume   455.97081364
_cell_formula_units_Z   3
loop_
 _symmetry_equiv_pos_site_id
 _symmetry_equiv_pos_as_xyz
  1  'x, y, z'
loop_
 _atom_site_type_symbol
 _atom_site_label
 _atom_site_symmetry_multiplicity
 _atom_site_fract_x
 _atom_site_fract_y
 _atom_site_fract_z
 _atom_site_occupancy
  Sr  Sr0  1  0.00000000  0.00000000  0.00000000  1
  Sr  Sr1  1  0.79661200  0.79661200  0.79661200  1
  Sr  Sr2  1  0.20338800  0.20338800  0.20338800  1
  Sr  Sr3  1  0.32602000  0.61191100  0.84327600  1
  Sr  Sr4  1  0.84327600  0.32602000  0.61191100  1
  Sr  Sr5  1  0.61191100  0.84327600  0.32602000  1
  Sr  Sr6  1  0.67398000  0.38808900  0.15672400  1
  Sr  Sr7  1  0.15672400  0.67398000  0.38808900  1
  Sr  Sr8  1  0.38808900  0.15672400  0.67398000  1
  Pt  Pt9  1  0.14709000  0.96025600  0.58764300  1
  Pt  Pt10  1  0.58764300  0.14709000  0.96025600  1
  Pt  Pt11  1  0.96025600  0.58764300  0.14709000  1
  Pt  Pt12  1  0.85291000  0.03974400  0.41235700  1
  Pt  Pt13  1  0.41235700  0.85291000  0.03974400  1
  Pt  Pt14  1  0.03974400  0.41235700  0.85291000  1
