# generated using pymatgen
data_KHoF4
_symmetry_space_group_name_H-M   'P 1'
_cell_length_a   14.17212365
_cell_length_b   14.17212365
_cell_length_c   10.23603000
_cell_angle_alpha   90.00000000
_cell_angle_beta   90.00000000
_cell_angle_gamma   119.99999834
_symmetry_Int_Tables_number   1
_chemical_formula_structural   KHoF4
_chemical_formula_sum   'K18 Ho18 F72'
_cell_volume   1780.45931610
_cell_formula_units_Z   18
loop_
 _symmetry_equiv_pos_site_id
 _symmetry_equiv_pos_as_xyz
  1  'x, y, z'
loop_
 _atom_site_type_symbol
 _atom_site_label
 _atom_site_symmetry_multiplicity
 _atom_site_fract_x
 _atom_site_fract_y
 _atom_site_fract_z
 _atom_site_occupancy
  K  K0  1  0.78146300  0.06273400  0.01233500  1
  K  K1  1  0.93726600  0.71872900  0.34566800  1
  K  K2  1  0.28127100  0.21853700  0.67900200  1
  K  K3  1  0.26721100  0.04731500  0.98523000  1
  K  K4  1  0.95268500  0.21989600  0.31856300  1
  K  K5  1  0.78010400  0.73278900  0.65189600  1
  K  K6  1  0.10374600  0.70836000  0.01839600  1
  K  K7  1  0.29164000  0.39538600  0.35172900  1
  K  K8  1  0.60461400  0.89625400  0.68506200  1
  K  K9  1  0.61107000  0.73385300  0.98753600  1
  K  K10  1  0.26614700  0.87721800  0.32086900  1
  K  K11  1  0.12278200  0.38893000  0.65420300  1
  K  K12  1  0.94886600  0.38601800  0.98854800  1
  K  K13  1  0.61398200  0.56284800  0.32188100  1
  K  K14  1  0.43715200  0.05113400  0.65521500  1
  K  K15  1  0.45592300  0.39093900  0.01853900  1
  K  K16  1  0.60906100  0.06498400  0.35187300  1
  K  K17  1  0.93501600  0.54407700  0.68520600  1
  Ho  Ho18  1  0.13104500  0.24046400  0.00365500  1
  Ho  Ho19  1  0.75953600  0.89058100  0.33698800  1
  Ho  Ho20  1  0.10941900  0.86895500  0.67032100  1
  Ho  Ho21  1  0.28315900  0.55112400  0.01383500  1
  Ho  Ho22  1  0.44887600  0.73203500  0.34716900  1
  Ho  Ho23  1  0.26796500  0.71684100  0.68050200  1
  Ho  Ho24  1  0.77967400  0.57311800  0.99348700  1
  Ho  Ho25  1  0.42688200  0.20655600  0.32682000  1
  Ho  Ho26  1  0.79344400  0.22032600  0.66015300  1
  Ho  Ho27  1  0.94284300  0.88385700  0.00815500  1
  Ho  Ho28  1  0.11614300  0.05898600  0.34148800  1
  Ho  Ho29  1  0.94101400  0.05715700  0.67482200  1
  Ho  Ho30  1  0.45301100  0.90775500  0.01003700  1
  Ho  Ho31  1  0.09224500  0.54525600  0.34337000  1
  Ho  Ho32  1  0.45474400  0.54698900  0.67670400  1
  Ho  Ho33  1  0.60450500  0.21812200  0.98815500  1
  Ho  Ho34  1  0.78187800  0.38638400  0.32148900  1
  Ho  Ho35  1  0.61361600  0.39549500  0.65482200  1
  F  F36  1  0.13147100  0.19557800  0.21970900  1
  F  F37  1  0.80442200  0.93589300  0.55304200  1
  F  F38  1  0.06410700  0.86852900  0.88637600  1
  F  F39  1  0.06801700  0.18966500  0.79511800  1
  F  F40  1  0.81033500  0.87835200  0.12845100  1
  F  F41  1  0.12164800  0.93198300  0.46178400  1
  F  F42  1  0.21217900  0.61677600  0.86668300  1
  F  F43  1  0.38322400  0.59540200  0.20001700  1
  F  F44  1  0.40459800  0.78782100  0.53335000  1
  F  F45  1  0.33562300  0.60617600  0.68075700  1
  F  F46  1  0.39382400  0.72944700  0.01409100  1
  F  F47  1  0.27055300  0.66437700  0.34742400  1
  F  F48  1  0.73630300  0.53242200  0.77731700  1
  F  F49  1  0.46757800  0.20388100  0.11065000  1
  F  F50  1  0.79611900  0.26369700  0.44398400  1
  F  F51  1  0.78864600  0.51897900  0.20158700  1
  F  F52  1  0.48102100  0.26966700  0.53492000  1
  F  F53  1  0.73033300  0.21135400  0.86825400  1
  F  F54  1  0.99828500  0.93788700  0.67248400  1
  F  F55  1  0.06211300  0.06039800  0.00581700  1
  F  F56  1  0.93960200  0.00171500  0.33915100  1
  F  F57  1  0.87958700  0.95583200  0.85934000  1
  F  F58  1  0.04416800  0.92375500  0.19267400  1
  F  F59  1  0.07624500  0.12041300  0.52600700  1
  F  F60  1  0.38984100  0.85162900  0.80184600  1
  F  F61  1  0.14837100  0.53821200  0.13518000  1
  F  F62  1  0.46178800  0.61015900  0.46851300  1
  F  F63  1  0.45698700  0.86661100  0.22593400  1
  F  F64  1  0.13338900  0.59037600  0.55926700  1
  F  F65  1  0.40962400  0.54301300  0.89260000  1
  F  F66  1  0.54823200  0.25714400  0.79945900  1
  F  F67  1  0.74285600  0.29108800  0.13279200  1
  F  F68  1  0.70891200  0.45176800  0.46612500  1
  F  F69  1  0.73467300  0.34013600  0.65661500  1
  F  F70  1  0.65986400  0.39453700  0.98994900  1
  F  F71  1  0.60546300  0.26532700  0.32328200  1
  F  F72  1  0.76715700  0.03804300  0.26806400  1
  F  F73  1  0.96195700  0.72911500  0.60139700  1
  F  F74  1  0.27088500  0.23284300  0.93473100  1
  F  F75  1  0.80810500  0.08476300  0.75773200  1
  F  F76  1  0.91523700  0.72334200  0.09106600  1
  F  F77  1  0.27665800  0.19189500  0.42439900  1
  F  F78  1  0.24702500  0.02378500  0.72617800  1
  F  F79  1  0.97621500  0.22323900  0.05951200  1
  F  F80  1  0.77676100  0.75297500  0.39284500  1
  F  F81  1  0.80934500  0.73408500  0.90375100  1
  F  F82  1  0.26591500  0.07525900  0.23708500  1
  F  F83  1  0.92474100  0.19065500  0.57041800  1
  F  F84  1  0.13063900  0.73695500  0.76551500  1
  F  F85  1  0.26304500  0.39368400  0.09884800  1
  F  F86  1  0.60631600  0.86936100  0.43218100  1
  F  F87  1  0.09208100  0.68838900  0.27199200  1
  F  F88  1  0.31161100  0.40369200  0.60532500  1
  F  F89  1  0.59630800  0.90791900  0.93865800  1
  F  F90  1  0.15447800  0.39816300  0.91022700  1
  F  F91  1  0.60183700  0.75631500  0.24356100  1
  F  F92  1  0.24368500  0.84552200  0.57689400  1
  F  F93  1  0.58834800  0.70505500  0.73029600  1
  F  F94  1  0.29494500  0.88329400  0.06362900  1
  F  F95  1  0.11670600  0.41165200  0.39696300  1
  F  F96  1  0.93749000  0.36188900  0.73344300  1
  F  F97  1  0.63811100  0.57560100  0.06677700  1
  F  F98  1  0.42439900  0.06251000  0.40011000  1
  F  F99  1  0.46828700  0.05708000  0.90842400  1
  F  F100  1  0.94292000  0.41120700  0.24175800  1
  F  F101  1  0.58879300  0.53171300  0.57509100  1
  F  F102  1  0.48457100  0.41542600  0.76377900  1
  F  F103  1  0.58457400  0.06914500  0.09711200  1
  F  F104  1  0.93085500  0.51542900  0.43044600  1
  F  F105  1  0.45310400  0.36569200  0.27533900  1
  F  F106  1  0.63430800  0.08741300  0.60867200  1
  F  F107  1  0.91258700  0.54689600  0.94200500  1
