# generated using pymatgen
data_EuCu4Pd
_symmetry_space_group_name_H-M   'P 1'
_cell_length_a   4.21980700
_cell_length_b   5.16020813
_cell_length_c   5.15923905
_cell_angle_alpha   59.96824442
_cell_angle_beta   90.00000000
_cell_angle_gamma   90.00000000
_symmetry_Int_Tables_number   1
_chemical_formula_structural   EuCu4Pd
_chemical_formula_sum   'Eu1 Cu4 Pd1'
_cell_volume   97.26061926
_cell_formula_units_Z   1
loop_
 _symmetry_equiv_pos_site_id
 _symmetry_equiv_pos_as_xyz
  1  'x, y, z'
loop_
 _atom_site_type_symbol
 _atom_site_label
 _atom_site_symmetry_multiplicity
 _atom_site_fract_x
 _atom_site_fract_y
 _atom_site_fract_z
 _atom_site_occupancy
  Eu  Eu0  1  0.00000000  0.99996900  0.99998600  1
  Cu  Cu1  1  0.00000000  0.66657600  0.66651800  1
  Cu  Cu2  1  0.50000000  0.50403000  0.50403100  1
  Cu  Cu3  1  0.50000000  0.50397500  0.99200100  1
  Cu  Cu4  1  0.50000000  0.99196200  0.50400300  1
  Pd  Pd5  1  0.00000000  0.33338800  0.33356100  1
