# generated using pymatgen
data_Na3MoCl6
_symmetry_space_group_name_H-M   'P 1'
_cell_length_a   6.95269432
_cell_length_b   6.95269432
_cell_length_c   12.32368800
_cell_angle_alpha   90.00000000
_cell_angle_beta   90.00000000
_cell_angle_gamma   120.00000306
_symmetry_Int_Tables_number   1
_chemical_formula_structural   Na3MoCl6
_chemical_formula_sum   'Na6 Mo2 Cl12'
_cell_volume   515.91432255
_cell_formula_units_Z   2
loop_
 _symmetry_equiv_pos_site_id
 _symmetry_equiv_pos_as_xyz
  1  'x, y, z'
loop_
 _atom_site_type_symbol
 _atom_site_label
 _atom_site_symmetry_multiplicity
 _atom_site_fract_x
 _atom_site_fract_y
 _atom_site_fract_z
 _atom_site_occupancy
  Na  Na0  1  0.66666700  0.33333300  0.04088200  1
  Na  Na1  1  0.33333300  0.66666700  0.54088200  1
  Na  Na2  1  0.33333300  0.66666700  0.95911800  1
  Na  Na3  1  0.66666700  0.33333300  0.45911800  1
  Na  Na4  1  0.00000000  0.00000000  0.25000000  1
  Na  Na5  1  0.00000000  0.00000000  0.75000000  1
  Mo  Mo6  1  0.33333300  0.66666700  0.25000000  1
  Mo  Mo7  1  0.66666700  0.33333300  0.75000000  1
  Cl  Cl8  1  0.31849700  0.94679100  0.13172300  1
  Cl  Cl9  1  0.62829400  0.68150300  0.13172300  1
  Cl  Cl10  1  0.05320900  0.37170600  0.13172300  1
  Cl  Cl11  1  0.37170600  0.05320900  0.63172300  1
  Cl  Cl12  1  0.68150300  0.62829400  0.63172300  1
  Cl  Cl13  1  0.94679100  0.31849700  0.63172300  1
  Cl  Cl14  1  0.68150300  0.05320900  0.86827700  1
  Cl  Cl15  1  0.37170600  0.31849700  0.86827700  1
  Cl  Cl16  1  0.94679100  0.62829400  0.86827700  1
  Cl  Cl17  1  0.62829400  0.94679100  0.36827700  1
  Cl  Cl18  1  0.31849700  0.37170600  0.36827700  1
  Cl  Cl19  1  0.05320900  0.68150300  0.36827700  1
