# generated using pymatgen
data_La4CdIr
_symmetry_space_group_name_H-M   'P 1'
_cell_length_a   10.11729938
_cell_length_b   10.11729938
_cell_length_c   10.11729938
_cell_angle_alpha   60.00000000
_cell_angle_beta   60.00000000
_cell_angle_gamma   60.00000000
_symmetry_Int_Tables_number   1
_chemical_formula_structural   La4CdIr
_chemical_formula_sum   'La16 Cd4 Ir4'
_cell_volume   732.28275439
_cell_formula_units_Z   4
loop_
 _symmetry_equiv_pos_site_id
 _symmetry_equiv_pos_as_xyz
  1  'x, y, z'
loop_
 _atom_site_type_symbol
 _atom_site_label
 _atom_site_symmetry_multiplicity
 _atom_site_fract_x
 _atom_site_fract_y
 _atom_site_fract_z
 _atom_site_occupancy
  La  La0  1  0.59762700  0.59762700  0.59762700  1
  La  La1  1  0.59762700  0.59762700  0.20711900  1
  La  La2  1  0.59762700  0.20711900  0.59762700  1
  La  La3  1  0.20711900  0.59762700  0.59762700  1
  La  La4  1  0.06053600  0.43946400  0.43946400  1
  La  La5  1  0.43946400  0.06053600  0.06053600  1
  La  La6  1  0.43946400  0.06053600  0.43946400  1
  La  La7  1  0.06053600  0.43946400  0.06053600  1
  La  La8  1  0.43946400  0.43946400  0.06053600  1
  La  La9  1  0.06053600  0.06053600  0.43946400  1
  La  La10  1  0.18877500  0.81122500  0.81122500  1
  La  La11  1  0.81122500  0.18877500  0.18877500  1
  La  La12  1  0.81122500  0.18877500  0.81122500  1
  La  La13  1  0.18877500  0.81122500  0.18877500  1
  La  La14  1  0.81122500  0.81122500  0.18877500  1
  La  La15  1  0.18877500  0.18877500  0.81122500  1
  Cd  Cd16  1  0.83084600  0.83084600  0.83084600  1
  Cd  Cd17  1  0.83084600  0.83084600  0.50746100  1
  Cd  Cd18  1  0.83084600  0.50746100  0.83084600  1
  Cd  Cd19  1  0.50746100  0.83084600  0.83084600  1
  Ir  Ir20  1  0.39157300  0.39157300  0.39157300  1
  Ir  Ir21  1  0.39157300  0.39157300  0.82528100  1
  Ir  Ir22  1  0.39157300  0.82528100  0.39157300  1
  Ir  Ir23  1  0.82528100  0.39157300  0.39157300  1
