# generated using pymatgen
data_Tm5Ir3
_symmetry_space_group_name_H-M   'P 1'
_cell_length_a   10.74168700
_cell_length_b   10.74168700
_cell_length_c   6.30685800
_cell_angle_alpha   90.00000000
_cell_angle_beta   90.00000000
_cell_angle_gamma   90.00000000
_symmetry_Int_Tables_number   1
_chemical_formula_structural   Tm5Ir3
_chemical_formula_sum   'Tm20 Ir12'
_cell_volume   727.70949189
_cell_formula_units_Z   4
loop_
 _symmetry_equiv_pos_site_id
 _symmetry_equiv_pos_as_xyz
  1  'x, y, z'
loop_
 _atom_site_type_symbol
 _atom_site_label
 _atom_site_symmetry_multiplicity
 _atom_site_fract_x
 _atom_site_fract_y
 _atom_site_fract_z
 _atom_site_occupancy
  Tm  Tm0  1  0.29109500  0.08779500  0.37729400  1
  Tm  Tm1  1  0.29109500  0.91220500  0.87729400  1
  Tm  Tm2  1  0.70890500  0.08779500  0.87729400  1
  Tm  Tm3  1  0.70890500  0.91220500  0.37729400  1
  Tm  Tm4  1  0.58779500  0.79109500  0.87729400  1
  Tm  Tm5  1  0.58779500  0.20890500  0.37729400  1
  Tm  Tm6  1  0.41220500  0.79109500  0.37729400  1
  Tm  Tm7  1  0.41220500  0.20890500  0.87729400  1
  Tm  Tm8  1  0.20890500  0.41220500  0.62270600  1
  Tm  Tm9  1  0.20890500  0.58779500  0.12270600  1
  Tm  Tm10  1  0.79109500  0.41220500  0.12270600  1
  Tm  Tm11  1  0.79109500  0.58779500  0.62270600  1
  Tm  Tm12  1  0.91220500  0.70890500  0.12270600  1
  Tm  Tm13  1  0.91220500  0.29109500  0.62270600  1
  Tm  Tm14  1  0.08779500  0.70890500  0.62270600  1
  Tm  Tm15  1  0.08779500  0.29109500  0.12270600  1
  Tm  Tm16  1  0.00000000  0.00000000  0.50000000  1
  Tm  Tm17  1  0.00000000  0.00000000  0.00000000  1
  Tm  Tm18  1  0.50000000  0.50000000  0.00000000  1
  Tm  Tm19  1  0.50000000  0.50000000  0.50000000  1
  Ir  Ir20  1  0.84636600  0.15363400  0.25000000  1
  Ir  Ir21  1  0.84636600  0.84636600  0.75000000  1
  Ir  Ir22  1  0.15363400  0.15363400  0.75000000  1
  Ir  Ir23  1  0.15363400  0.84636600  0.25000000  1
  Ir  Ir24  1  0.65363400  0.34636600  0.75000000  1
  Ir  Ir25  1  0.65363400  0.65363400  0.25000000  1
  Ir  Ir26  1  0.34636600  0.34636600  0.25000000  1
  Ir  Ir27  1  0.34636600  0.65363400  0.75000000  1
  Ir  Ir28  1  0.50000000  0.00000000  0.12096600  1
  Ir  Ir29  1  0.50000000  0.00000000  0.62096600  1
  Ir  Ir30  1  0.00000000  0.50000000  0.87903400  1
  Ir  Ir31  1  0.00000000  0.50000000  0.37903400  1
