# generated using pymatgen
data_ScAu2
_symmetry_space_group_name_H-M   'P 1'
_cell_length_a   5.10119778
_cell_length_b   5.10119778
_cell_length_c   5.10119778
_cell_angle_alpha   139.10629835
_cell_angle_beta   139.10629835
_cell_angle_gamma   59.21280547
_symmetry_Int_Tables_number   1
_chemical_formula_structural   ScAu2
_chemical_formula_sum   'Sc1 Au2'
_cell_volume   56.33891501
_cell_formula_units_Z   1
loop_
 _symmetry_equiv_pos_site_id
 _symmetry_equiv_pos_as_xyz
  1  'x, y, z'
loop_
 _atom_site_type_symbol
 _atom_site_label
 _atom_site_symmetry_multiplicity
 _atom_site_fract_x
 _atom_site_fract_y
 _atom_site_fract_z
 _atom_site_occupancy
  Sc  Sc0  1  0.00000000  0.00000000  0.00000000  1
  Au  Au1  1  0.66302000  0.66302000  0.00000000  1
  Au  Au2  1  0.33698000  0.33698000  0.00000000  1
