# generated using pymatgen
data_K2Au(IO3)5
_symmetry_space_group_name_H-M   'P 1'
_cell_length_a   8.37332537
_cell_length_b   8.37332537
_cell_length_c   11.87089300
_cell_angle_alpha   90.00000000
_cell_angle_beta   90.00000000
_cell_angle_gamma   90.76851248
_symmetry_Int_Tables_number   1
_chemical_formula_structural   K2Au(IO3)5
_chemical_formula_sum   'K4 Au2 I10 O30'
_cell_volume   832.22404042
_cell_formula_units_Z   2
loop_
 _symmetry_equiv_pos_site_id
 _symmetry_equiv_pos_as_xyz
  1  'x, y, z'
loop_
 _atom_site_type_symbol
 _atom_site_label
 _atom_site_symmetry_multiplicity
 _atom_site_fract_x
 _atom_site_fract_y
 _atom_site_fract_z
 _atom_site_occupancy
  K  K0  1  0.99360100  0.46966500  0.43079100  1
  K  K1  1  0.53033500  0.00639900  0.43079100  1
  K  K2  1  0.00639900  0.53033500  0.93079100  1
  K  K3  1  0.46966500  0.99360100  0.93079100  1
  Au  Au4  1  0.99044800  0.00955200  0.31467400  1
  Au  Au5  1  0.00955200  0.99044800  0.81467400  1
  I  I6  1  0.50090800  0.49909200  0.44315400  1
  I  I7  1  0.49909200  0.50090800  0.94315400  1
  I  I8  1  0.76310800  0.23689200  0.15465100  1
  I  I9  1  0.23689200  0.76310800  0.65465100  1
  I  I10  1  0.25725300  0.74274700  0.21027200  1
  I  I11  1  0.74274700  0.25725300  0.71027200  1
  I  I12  1  0.27468200  0.23776200  0.18770000  1
  I  I13  1  0.76223800  0.72531800  0.18770000  1
  I  I14  1  0.72531800  0.76223800  0.68770100  1
  I  I15  1  0.23776200  0.27468200  0.68770100  1
  O  O16  1  0.63910400  0.36089600  0.51156800  1
  O  O17  1  0.36089600  0.63910400  0.01156800  1
  O  O18  1  0.31318100  0.44838200  0.51727400  1
  O  O19  1  0.55161800  0.68681900  0.51727400  1
  O  O20  1  0.68681900  0.55161800  0.01727400  1
  O  O21  1  0.44838200  0.31318100  0.01727400  1
  O  O22  1  0.96202800  0.27840300  0.09930600  1
  O  O23  1  0.72159700  0.03797200  0.09930600  1
  O  O24  1  0.03797200  0.72159700  0.59930600  1
  O  O25  1  0.27840300  0.96202800  0.59930600  1
  O  O26  1  0.82000800  0.17999200  0.30633600  1
  O  O27  1  0.17999200  0.82000800  0.80633600  1
  O  O28  1  0.22570100  0.54091800  0.26504900  1
  O  O29  1  0.45908200  0.77429900  0.26504900  1
  O  O30  1  0.77429900  0.45908200  0.76504900  1
  O  O31  1  0.54091800  0.22570100  0.76504900  1
  O  O32  1  0.15894500  0.84105500  0.33855900  1
  O  O33  1  0.84105500  0.15894500  0.83855900  1
  O  O34  1  0.27812800  0.03768600  0.12665800  1
  O  O35  1  0.96231400  0.72187200  0.12665800  1
  O  O36  1  0.72187200  0.96231400  0.62665800  1
  O  O37  1  0.03768600  0.27812800  0.62665800  1
  O  O38  1  0.46104600  0.24560900  0.26782300  1
  O  O39  1  0.75439100  0.53895400  0.26782300  1
  O  O40  1  0.53895400  0.75439100  0.76782300  1
  O  O41  1  0.24560900  0.46104600  0.76782300  1
  O  O42  1  0.15738900  0.18586500  0.32317100  1
  O  O43  1  0.81413500  0.84261100  0.32317100  1
  O  O44  1  0.84261100  0.81413500  0.82317100  1
  O  O45  1  0.18586500  0.15738900  0.82317100  1
