# generated using pymatgen
data_Tb2Hf2(MoO4)7
_symmetry_space_group_name_H-M   'P 1'
_cell_length_a   11.65399977
_cell_length_b   11.65399977
_cell_length_c   14.01673131
_cell_angle_alpha   69.11097024
_cell_angle_beta   69.11097024
_cell_angle_gamma   50.60496558
_symmetry_Int_Tables_number   1
_chemical_formula_structural   Tb2Hf2(MoO4)7
_chemical_formula_sum   'Tb4 Hf4 Mo14 O56'
_cell_volume   1351.90106914
_cell_formula_units_Z   2
loop_
 _symmetry_equiv_pos_site_id
 _symmetry_equiv_pos_as_xyz
  1  'x, y, z'
loop_
 _atom_site_type_symbol
 _atom_site_label
 _atom_site_symmetry_multiplicity
 _atom_site_fract_x
 _atom_site_fract_y
 _atom_site_fract_z
 _atom_site_occupancy
  Tb  Tb0  1  0.14926400  0.12443000  0.06304800  1
  Tb  Tb1  1  0.85073600  0.87557000  0.93695200  1
  Tb  Tb2  1  0.87557000  0.85073600  0.43695200  1
  Tb  Tb3  1  0.12443000  0.14926400  0.56304800  1
  Hf  Hf4  1  0.42032800  0.34853500  0.18729300  1
  Hf  Hf5  1  0.57967200  0.65146500  0.81270700  1
  Hf  Hf6  1  0.65146500  0.57967200  0.31270700  1
  Hf  Hf7  1  0.34853500  0.42032800  0.68729300  1
  Mo  Mo8  1  0.49936300  0.98788400  0.17347500  1
  Mo  Mo9  1  0.50063700  0.01211600  0.82652500  1
  Mo  Mo10  1  0.01211600  0.50063700  0.32652500  1
  Mo  Mo11  1  0.98788400  0.49936300  0.67347500  1
  Mo  Mo12  1  0.45615000  0.22764800  0.47709200  1
  Mo  Mo13  1  0.54385000  0.77235200  0.52290800  1
  Mo  Mo14  1  0.77235200  0.54385000  0.02290800  1
  Mo  Mo15  1  0.22764800  0.45615000  0.97709200  1
  Mo  Mo16  1  0.81186200  0.06664500  0.14694700  1
  Mo  Mo17  1  0.18813800  0.93335500  0.85305300  1
  Mo  Mo18  1  0.93335500  0.18813800  0.35305300  1
  Mo  Mo19  1  0.06664500  0.81186200  0.64694700  1
  Mo  Mo20  1  0.29659500  0.70340500  0.25000000  1
  Mo  Mo21  1  0.70340500  0.29659500  0.75000000  1
  O  O22  1  0.48731300  0.12586100  0.21801200  1
  O  O23  1  0.51268700  0.87413900  0.78198800  1
  O  O24  1  0.87413900  0.51268700  0.28198800  1
  O  O25  1  0.12586100  0.48731300  0.71801200  1
  O  O26  1  0.64228000  0.07088800  0.49550600  1
  O  O27  1  0.35772000  0.92911200  0.50449400  1
  O  O28  1  0.92911200  0.35772000  0.00449400  1
  O  O29  1  0.07088800  0.64228000  0.99550600  1
  O  O30  1  0.31648300  0.05999200  0.16576200  1
  O  O31  1  0.68351700  0.94000800  0.83423800  1
  O  O32  1  0.94000800  0.68351700  0.33423800  1
  O  O33  1  0.05999200  0.31648300  0.66576200  1
  O  O34  1  0.93488600  0.02519000  0.39823800  1
  O  O35  1  0.06511400  0.97481000  0.60176200  1
  O  O36  1  0.97481000  0.06511400  0.10176200  1
  O  O37  1  0.02519000  0.93488600  0.89823800  1
  O  O38  1  0.79710500  0.99666700  0.28288300  1
  O  O39  1  0.20289500  0.00333300  0.71711700  1
  O  O40  1  0.00333300  0.20289500  0.21711700  1
  O  O41  1  0.99666700  0.79710500  0.78288300  1
  O  O42  1  0.57597500  0.80574400  0.26112400  1
  O  O43  1  0.42402500  0.19425600  0.73887600  1
  O  O44  1  0.19425600  0.42402500  0.23887600  1
  O  O45  1  0.80574400  0.57597500  0.76112400  1
  O  O46  1  0.66586000  0.82945200  0.47061300  1
  O  O47  1  0.33414000  0.17054800  0.52938700  1
  O  O48  1  0.17054800  0.33414000  0.02938700  1
  O  O49  1  0.82945200  0.66586000  0.97061300  1
  O  O50  1  0.82956700  0.94676300  0.08330500  1
  O  O51  1  0.17043300  0.05323700  0.91669500  1
  O  O52  1  0.05323700  0.17043300  0.41669500  1
  O  O53  1  0.94676300  0.82956700  0.58330500  1
  O  O54  1  0.61121500  0.96052500  0.04838500  1
  O  O55  1  0.38878500  0.03947500  0.95161500  1
  O  O56  1  0.03947500  0.38878500  0.45161500  1
  O  O57  1  0.96052500  0.61121500  0.54838500  1
  O  O58  1  0.37544100  0.39015900  0.04338000  1
  O  O59  1  0.62455900  0.60984100  0.95662000  1
  O  O60  1  0.60984100  0.62455900  0.45662000  1
  O  O61  1  0.39015900  0.37544100  0.54338000  1
  O  O62  1  0.25965900  0.86786300  0.15741900  1
  O  O63  1  0.74034100  0.13213700  0.84258200  1
  O  O64  1  0.13213700  0.74034100  0.34258100  1
  O  O65  1  0.86786300  0.25965900  0.65741900  1
  O  O66  1  0.43973400  0.63888900  0.31960800  1
  O  O67  1  0.56026600  0.36111100  0.68039200  1
  O  O68  1  0.36111100  0.56026600  0.18039200  1
  O  O69  1  0.63888900  0.43973400  0.81960800  1
  O  O70  1  0.64258400  0.26384700  0.12487900  1
  O  O71  1  0.35741600  0.73615300  0.87512100  1
  O  O72  1  0.73615300  0.35741600  0.37512100  1
  O  O73  1  0.26384700  0.64258400  0.62487900  1
  O  O74  1  0.44859900  0.30324900  0.33938300  1
  O  O75  1  0.55140100  0.69675100  0.66061700  1
  O  O76  1  0.69675100  0.55140100  0.16061700  1
  O  O77  1  0.30324900  0.44859900  0.83938300  1
