# generated using pymatgen
data_K3FeS3
_symmetry_space_group_name_H-M   'P 1'
_cell_length_a   12.59709600
_cell_length_b   7.76084500
_cell_length_c   10.03443528
_cell_angle_alpha   52.45155551
_cell_angle_beta   90.00000000
_cell_angle_gamma   90.00000000
_symmetry_Int_Tables_number   1
_chemical_formula_structural   K3FeS3
_chemical_formula_sum   'K12 Fe4 S12'
_cell_volume   777.78045954
_cell_formula_units_Z   4
loop_
 _symmetry_equiv_pos_site_id
 _symmetry_equiv_pos_as_xyz
  1  'x, y, z'
loop_
 _atom_site_type_symbol
 _atom_site_label
 _atom_site_symmetry_multiplicity
 _atom_site_fract_x
 _atom_site_fract_y
 _atom_site_fract_z
 _atom_site_occupancy
  K  K0  1  0.91953900  0.65167400  0.60553000  1
  K  K1  1  0.41953900  0.34832600  0.89447000  1
  K  K2  1  0.08046100  0.34832600  0.39447000  1
  K  K3  1  0.58046100  0.65167400  0.10553000  1
  K  K4  1  0.63113200  0.61204600  0.52364900  1
  K  K5  1  0.13113200  0.38795400  0.97635100  1
  K  K6  1  0.36886800  0.38795400  0.47635100  1
  K  K7  1  0.86886800  0.61204600  0.02364900  1
  K  K8  1  0.81039500  0.13360400  0.57737500  1
  K  K9  1  0.31039500  0.86639600  0.92262500  1
  K  K10  1  0.18960500  0.86639600  0.42262500  1
  K  K11  1  0.68960500  0.13360400  0.07737500  1
  Fe  Fe12  1  0.55550900  0.93998600  0.65122400  1
  Fe  Fe13  1  0.05550900  0.06001400  0.84877600  1
  Fe  Fe14  1  0.44449100  0.06001400  0.34877600  1
  Fe  Fe15  1  0.94449100  0.93998600  0.15122400  1
  S  S16  1  0.10946200  0.85033400  0.12157000  1
  S  S17  1  0.60946200  0.14966600  0.37843000  1
  S  S18  1  0.89053800  0.14966600  0.87843000  1
  S  S19  1  0.39053800  0.85033400  0.62157000  1
  S  S20  1  0.04533700  0.87663000  0.74251100  1
  S  S21  1  0.54533700  0.12337000  0.75748900  1
  S  S22  1  0.95466300  0.12337000  0.25748900  1
  S  S23  1  0.45466300  0.87663000  0.24251100  1
  S  S24  1  0.66953400  0.65711500  0.80502900  1
  S  S25  1  0.16953400  0.34288500  0.69497100  1
  S  S26  1  0.33046600  0.34288500  0.19497100  1
  S  S27  1  0.83046600  0.65711500  0.30502900  1
