# generated using pymatgen
data_Dy2Mo2C3
_symmetry_space_group_name_H-M   'P 1'
_cell_length_a   6.11793325
_cell_length_b   6.11793325
_cell_length_c   5.73306727
_cell_angle_alpha   68.44462699
_cell_angle_beta   68.44462699
_cell_angle_gamma   31.78961551
_symmetry_Int_Tables_number   1
_chemical_formula_structural   Dy2Mo2C3
_chemical_formula_sum   'Dy2 Mo2 C3'
_cell_volume   104.46981972
_cell_formula_units_Z   1
loop_
 _symmetry_equiv_pos_site_id
 _symmetry_equiv_pos_as_xyz
  1  'x, y, z'
loop_
 _atom_site_type_symbol
 _atom_site_label
 _atom_site_symmetry_multiplicity
 _atom_site_fract_x
 _atom_site_fract_y
 _atom_site_fract_z
 _atom_site_occupancy
  Dy  Dy0  1  0.61029100  0.61029100  0.17494900  1
  Dy  Dy1  1  0.38970900  0.38970900  0.82505100  1
  Mo  Mo2  1  0.84297900  0.84297900  0.32653200  1
  Mo  Mo3  1  0.15702100  0.15702100  0.67346800  1
  C  C4  1  0.75096100  0.75096100  0.73356300  1
  C  C5  1  0.24903900  0.24903900  0.26643700  1
  C  C6  1  0.00000000  0.00000000  0.00000000  1
