# generated using pymatgen
data_RbCoNiF6
_symmetry_space_group_name_H-M   'P 1'
_cell_length_a   7.28835659
_cell_length_b   7.28835659
_cell_length_c   7.28835659
_cell_angle_alpha   119.87829431
_cell_angle_beta   119.20668110
_cell_angle_gamma   90.79524870
_symmetry_Int_Tables_number   1
_chemical_formula_structural   RbCoNiF6
_chemical_formula_sum   'Rb2 Co2 Ni2 F12'
_cell_volume   275.61519531
_cell_formula_units_Z   2
loop_
 _symmetry_equiv_pos_site_id
 _symmetry_equiv_pos_as_xyz
  1  'x, y, z'
loop_
 _atom_site_type_symbol
 _atom_site_label
 _atom_site_symmetry_multiplicity
 _atom_site_fract_x
 _atom_site_fract_y
 _atom_site_fract_z
 _atom_site_occupancy
  Rb  Rb0  1  0.37039500  0.62039500  0.75000000  1
  Rb  Rb1  1  0.62960500  0.37960500  0.25000000  1
  Co  Co2  1  0.00000000  0.00000000  0.00000000  1
  Co  Co3  1  0.50000000  0.00000000  0.50000000  1
  Ni  Ni4  1  0.00000000  0.00000000  0.50000000  1
  Ni  Ni5  1  0.00000000  0.50000000  0.00000000  1
  F  F6  1  0.31941100  0.06941100  0.25000000  1
  F  F7  1  0.91938400  0.66938400  0.25000000  1
  F  F8  1  0.33157400  0.68735100  0.26307400  1
  F  F9  1  0.92427700  0.06850000  0.23692600  1
  F  F10  1  0.33157400  0.06850000  0.64422300  1
  F  F11  1  0.92427700  0.68735100  0.85577700  1
  F  F12  1  0.68058900  0.93058900  0.75000000  1
  F  F13  1  0.08061600  0.33061600  0.75000000  1
  F  F14  1  0.66842600  0.31264900  0.73692600  1
  F  F15  1  0.07572300  0.93150000  0.76307400  1
  F  F16  1  0.66842600  0.93150000  0.35577700  1
  F  F17  1  0.07572300  0.31264900  0.14422300  1
