# generated using pymatgen
data_Na5Mn3S4(O4F)4
_symmetry_space_group_name_H-M   'P 1'
_cell_length_a   9.10611039
_cell_length_b   9.36763355
_cell_length_c   9.75668099
_cell_angle_alpha   89.56197871
_cell_angle_beta   88.50583145
_cell_angle_gamma   98.44076117
_symmetry_Int_Tables_number   1
_chemical_formula_structural   Na5Mn3S4(O4F)4
_chemical_formula_sum   'Na10 Mn6 S8 O32 F8'
_cell_volume   822.92094016
_cell_formula_units_Z   2
loop_
 _symmetry_equiv_pos_site_id
 _symmetry_equiv_pos_as_xyz
  1  'x, y, z'
loop_
 _atom_site_type_symbol
 _atom_site_label
 _atom_site_symmetry_multiplicity
 _atom_site_fract_x
 _atom_site_fract_y
 _atom_site_fract_z
 _atom_site_occupancy
  Na  Na0  1  0.00000000  0.25000000  0.75000100  1
  Na  Na1  1  0.99999900  0.75000000  0.25000000  1
  Na  Na2  1  0.01810900  0.85130800  0.88680900  1
  Na  Na3  1  0.01811000  0.35130800  0.38680900  1
  Na  Na4  1  0.98189100  0.14869300  0.11319000  1
  Na  Na5  1  0.98189000  0.64869100  0.61318800  1
  Na  Na6  1  0.33936100  0.37715600  0.11690500  1
  Na  Na7  1  0.33936400  0.87715200  0.61690400  1
  Na  Na8  1  0.66063600  0.62284600  0.88309300  1
  Na  Na9  1  0.66063700  0.12284700  0.38309400  1
  Mn  Mn10  1  0.00004300  0.49996100  0.00002100  1
  Mn  Mn11  1  0.35701100  0.28373800  0.55573400  1
  Mn  Mn12  1  0.64298000  0.71625800  0.44427400  1
  Mn  Mn13  1  0.99999700  0.00003400  0.49996400  1
  Mn  Mn14  1  0.35702200  0.78374300  0.05573100  1
  Mn  Mn15  1  0.64298600  0.21624500  0.94429100  1
  S  S16  1  0.29818400  0.58895400  0.36629600  1
  S  S17  1  0.29818600  0.08895400  0.86629000  1
  S  S18  1  0.70181400  0.41104500  0.63370400  1
  S  S19  1  0.70181400  0.91104600  0.13370900  1
  S  S20  1  0.28062100  0.54653300  0.79871400  1
  S  S21  1  0.28062100  0.04654600  0.29872100  1
  S  S22  1  0.71937300  0.45346100  0.20128900  1
  S  S23  1  0.71937600  0.95345600  0.70127900  1
  O  O24  1  0.21748700  0.66198400  0.72966000  1
  O  O25  1  0.21749000  0.16197700  0.22966200  1
  O  O26  1  0.78251200  0.33801900  0.27033700  1
  O  O27  1  0.78251000  0.83802400  0.77033700  1
  O  O28  1  0.31515200  0.43455800  0.39293500  1
  O  O29  1  0.31515600  0.93455100  0.89294400  1
  O  O30  1  0.68484700  0.56544300  0.60706400  1
  O  O31  1  0.68484400  0.06545000  0.10705600  1
  O  O32  1  0.33714200  0.61832600  0.21833500  1
  O  O33  1  0.33714200  0.11831800  0.71834000  1
  O  O34  1  0.66285900  0.38167400  0.78166600  1
  O  O35  1  0.66285800  0.88168300  0.28166000  1
  O  O36  1  0.59950000  0.81170600  0.04748400  1
  O  O37  1  0.59950700  0.31170100  0.54748600  1
  O  O38  1  0.40049700  0.18829500  0.95251500  1
  O  O39  1  0.40049100  0.68830000  0.45251500  1
  O  O40  1  0.34972400  0.45377600  0.70411800  1
  O  O41  1  0.34972900  0.95376200  0.20410400  1
  O  O42  1  0.65027500  0.54622500  0.29588100  1
  O  O43  1  0.65027000  0.04623800  0.79589400  1
  O  O44  1  0.15444600  0.44550500  0.87352200  1
  O  O45  1  0.15444800  0.94549700  0.37351900  1
  O  O46  1  0.84554700  0.55450200  0.12648200  1
  O  O47  1  0.84555000  0.05450400  0.62648200  1
  O  O48  1  0.38894400  0.60555200  0.90413700  1
  O  O49  1  0.38894400  0.10554300  0.40413200  1
  O  O50  1  0.61105700  0.39445000  0.09586000  1
  O  O51  1  0.61105500  0.89445800  0.59586600  1
  O  O52  1  0.14132400  0.10780800  0.89840300  1
  O  O53  1  0.14132300  0.60781400  0.39840400  1
  O  O54  1  0.85867600  0.89219200  0.10159600  1
  O  O55  1  0.85867600  0.39218700  0.60159700  1
  F  F56  1  0.91855200  0.60126500  0.85934300  1
  F  F57  1  0.91855500  0.10125700  0.35935000  1
  F  F58  1  0.08143900  0.39874400  0.14064700  1
  F  F59  1  0.08144800  0.89873700  0.64065700  1
  F  F60  1  0.12159700  0.70975600  0.04748200  1
  F  F61  1  0.12158700  0.20975500  0.54748500  1
  F  F62  1  0.87840100  0.29024400  0.95251700  1
  F  F63  1  0.87841100  0.79024500  0.45251500  1
