# generated using pymatgen
data_CaCuP2O7
_symmetry_space_group_name_H-M   'P 1'
_cell_length_a   8.13703200
_cell_length_b   5.30171400
_cell_length_c   13.42041057
_cell_angle_alpha   68.57561374
_cell_angle_beta   90.00000000
_cell_angle_gamma   90.00000000
_symmetry_Int_Tables_number   1
_chemical_formula_structural   CaCuP2O7
_chemical_formula_sum   'Ca4 Cu4 P8 O28'
_cell_volume   538.95357165
_cell_formula_units_Z   4
loop_
 _symmetry_equiv_pos_site_id
 _symmetry_equiv_pos_as_xyz
  1  'x, y, z'
loop_
 _atom_site_type_symbol
 _atom_site_label
 _atom_site_symmetry_multiplicity
 _atom_site_fract_x
 _atom_site_fract_y
 _atom_site_fract_z
 _atom_site_occupancy
  Ca  Ca0  1  0.18179900  0.98513400  0.22631700  1
  Ca  Ca1  1  0.68179900  0.01486600  0.27368300  1
  Ca  Ca2  1  0.81820100  0.01486600  0.77368300  1
  Ca  Ca3  1  0.31820100  0.98513400  0.72631700  1
  Cu  Cu4  1  0.35945200  0.31760300  0.38979600  1
  Cu  Cu5  1  0.85945200  0.68239700  0.11020400  1
  Cu  Cu6  1  0.64054800  0.68239700  0.61020400  1
  Cu  Cu7  1  0.14054800  0.31760300  0.88979600  1
  P  P8  1  0.29800400  0.67438100  0.51560000  1
  P  P9  1  0.79800400  0.32561900  0.98440000  1
  P  P10  1  0.70199600  0.32561900  0.48440000  1
  P  P11  1  0.20199600  0.67438100  0.01560000  1
  P  P12  1  0.97240500  0.41179000  0.33407200  1
  P  P13  1  0.47240500  0.58821000  0.16592800  1
  P  P14  1  0.02759500  0.58821000  0.66592800  1
  P  P15  1  0.52759500  0.41179000  0.83407200  1
  O  O16  1  0.31092100  0.88341300  0.40330300  1
  O  O17  1  0.81092100  0.11658700  0.09669700  1
  O  O18  1  0.68907900  0.11658700  0.59669700  1
  O  O19  1  0.18907900  0.88341300  0.90330300  1
  O  O20  1  0.16645400  0.37646600  0.02848800  1
  O  O21  1  0.66645400  0.62353400  0.47151200  1
  O  O22  1  0.83354600  0.62353400  0.97151200  1
  O  O23  1  0.33354600  0.37646600  0.52848800  1
  O  O24  1  0.45786300  0.81985300  0.20716200  1
  O  O25  1  0.95786300  0.18014700  0.29283800  1
  O  O26  1  0.54213700  0.18014700  0.79283800  1
  O  O27  1  0.04213700  0.81985300  0.70716200  1
  O  O28  1  0.39388300  0.68811000  0.04797100  1
  O  O29  1  0.89388300  0.31189000  0.45202900  1
  O  O30  1  0.60611700  0.31189000  0.95202900  1
  O  O31  1  0.10611700  0.68811000  0.54797100  1
  O  O32  1  0.35132300  0.49952300  0.84436500  1
  O  O33  1  0.85132300  0.50047700  0.65563500  1
  O  O34  1  0.64867700  0.50047700  0.15563500  1
  O  O35  1  0.14867700  0.49952300  0.34436500  1
  O  O36  1  0.39781400  0.74923800  0.59950200  1
  O  O37  1  0.89781400  0.25076200  0.90049800  1
  O  O38  1  0.60218600  0.25076200  0.40049800  1
  O  O39  1  0.10218600  0.74923800  0.09950200  1
  O  O40  1  0.12211200  0.33006500  0.73515100  1
  O  O41  1  0.62211200  0.66993500  0.76484900  1
  O  O42  1  0.87788800  0.66993500  0.26484900  1
  O  O43  1  0.37788800  0.33006500  0.23515100  1
