# generated using pymatgen
data_Ta2Pd3Se8
_symmetry_space_group_name_H-M   'P 1'
_cell_length_a   3.61104100
_cell_length_b   11.19992900
_cell_length_c   15.64809600
_cell_angle_alpha   90.00000000
_cell_angle_beta   90.00000000
_cell_angle_gamma   90.00000000
_symmetry_Int_Tables_number   1
_chemical_formula_structural   Ta2Pd3Se8
_chemical_formula_sum   'Ta4 Pd6 Se16'
_cell_volume   632.86224983
_cell_formula_units_Z   2
loop_
 _symmetry_equiv_pos_site_id
 _symmetry_equiv_pos_as_xyz
  1  'x, y, z'
loop_
 _atom_site_type_symbol
 _atom_site_label
 _atom_site_symmetry_multiplicity
 _atom_site_fract_x
 _atom_site_fract_y
 _atom_site_fract_z
 _atom_site_occupancy
  Ta  Ta0  1  0.50000000  0.69428300  0.37492800  1
  Ta  Ta1  1  0.50000000  0.30571700  0.62507200  1
  Ta  Ta2  1  0.50000000  0.19428300  0.12507200  1
  Ta  Ta3  1  0.50000000  0.80571700  0.87492800  1
  Pd  Pd4  1  0.00000000  0.85122000  0.27495700  1
  Pd  Pd5  1  0.00000000  0.14878000  0.72504300  1
  Pd  Pd6  1  0.00000000  0.35122000  0.22504300  1
  Pd  Pd7  1  0.00000000  0.64878000  0.77495700  1
  Pd  Pd8  1  0.00000000  0.50000000  0.50000000  1
  Pd  Pd9  1  0.00000000  0.00000000  0.00000000  1
  Se  Se10  1  0.50000000  0.92431300  0.37213700  1
  Se  Se11  1  0.50000000  0.07568700  0.62786300  1
  Se  Se12  1  0.50000000  0.42431300  0.12786300  1
  Se  Se13  1  0.50000000  0.57568700  0.87213700  1
  Se  Se14  1  0.50000000  0.72395400  0.21209800  1
  Se  Se15  1  0.50000000  0.27604600  0.78790200  1
  Se  Se16  1  0.50000000  0.22395400  0.28790200  1
  Se  Se17  1  0.50000000  0.77604600  0.71209800  1
  Se  Se18  1  0.00000000  0.52667900  0.34318800  1
  Se  Se19  1  0.00000000  0.47332100  0.65681200  1
  Se  Se20  1  0.00000000  0.77923200  0.99619100  1
  Se  Se21  1  0.00000000  0.22076800  0.00380900  1
  Se  Se22  1  0.00000000  0.27923200  0.50380900  1
  Se  Se23  1  0.00000000  0.72076800  0.49619100  1
  Se  Se24  1  0.00000000  0.97332100  0.84318800  1
  Se  Se25  1  0.00000000  0.02667900  0.15681200  1
