# generated using pymatgen
data_VAg2(PO4)2
_symmetry_space_group_name_H-M   'P 1'
_cell_length_a   14.09545600
_cell_length_b   6.36037500
_cell_length_c   7.79557738
_cell_angle_alpha   80.34649474
_cell_angle_beta   90.00000000
_cell_angle_gamma   90.00000000
_symmetry_Int_Tables_number   1
_chemical_formula_structural   VAg2(PO4)2
_chemical_formula_sum   'V4 Ag8 P8 O32'
_cell_volume   688.99570968
_cell_formula_units_Z   4
loop_
 _symmetry_equiv_pos_site_id
 _symmetry_equiv_pos_as_xyz
  1  'x, y, z'
loop_
 _atom_site_type_symbol
 _atom_site_label
 _atom_site_symmetry_multiplicity
 _atom_site_fract_x
 _atom_site_fract_y
 _atom_site_fract_z
 _atom_site_occupancy
  V  V0  1  0.92494100  0.23444200  0.22442600  1
  V  V1  1  0.42494100  0.26555800  0.77557400  1
  V  V2  1  0.57505900  0.73444200  0.22442600  1
  V  V3  1  0.07505900  0.76555800  0.77557400  1
  Ag  Ag4  1  0.28644900  0.84886500  0.04522800  1
  Ag  Ag5  1  0.78644900  0.65113500  0.95477200  1
  Ag  Ag6  1  0.71355100  0.15113500  0.95477200  1
  Ag  Ag7  1  0.21355100  0.34886500  0.04522800  1
  Ag  Ag8  1  0.64698900  0.07547400  0.53081800  1
  Ag  Ag9  1  0.14698900  0.42452600  0.46918200  1
  Ag  Ag10  1  0.35301100  0.92452600  0.46918200  1
  Ag  Ag11  1  0.85301100  0.57547400  0.53081800  1
  P  P12  1  0.02060300  0.24888900  0.82683400  1
  P  P13  1  0.52060300  0.25111100  0.17316600  1
  P  P14  1  0.47939700  0.74888900  0.82683400  1
  P  P15  1  0.97939700  0.75111100  0.17316600  1
  P  P16  1  0.37483300  0.46377200  0.36115000  1
  P  P17  1  0.87483300  0.03622800  0.63885000  1
  P  P18  1  0.62516700  0.53622800  0.63885000  1
  P  P19  1  0.12516700  0.96377200  0.36115000  1
  O  O20  1  0.22154800  0.04213900  0.28462700  1
  O  O21  1  0.72154800  0.45786100  0.71537300  1
  O  O22  1  0.77845200  0.95786100  0.71537300  1
  O  O23  1  0.27845200  0.54213900  0.28462700  1
  O  O24  1  0.08533800  0.81377800  0.22609300  1
  O  O25  1  0.58533800  0.68622200  0.77390700  1
  O  O26  1  0.91466200  0.18622200  0.77390700  1
  O  O27  1  0.41466200  0.31377800  0.22609300  1
  O  O28  1  0.95749100  0.53157000  0.28358100  1
  O  O29  1  0.45749100  0.96843000  0.71641900  1
  O  O30  1  0.04250900  0.46843000  0.71641900  1
  O  O31  1  0.54250900  0.03157000  0.28358100  1
  O  O32  1  0.01840000  0.25936400  0.02084200  1
  O  O33  1  0.51840000  0.24063600  0.97915800  1
  O  O34  1  0.98160000  0.74063600  0.97915800  1
  O  O35  1  0.48160000  0.75936400  0.02084200  1
  O  O36  1  0.91083500  0.91850900  0.22172300  1
  O  O37  1  0.41083500  0.58149100  0.77827700  1
  O  O38  1  0.08916500  0.08149100  0.77827700  1
  O  O39  1  0.58916500  0.41850900  0.22172300  1
  O  O40  1  0.44588400  0.64559100  0.36456800  1
  O  O41  1  0.94588400  0.85440900  0.63543200  1
  O  O42  1  0.55411600  0.35440900  0.63543200  1
  O  O43  1  0.05411600  0.14559100  0.36456800  1
  O  O44  1  0.63731500  0.68553100  0.46330700  1
  O  O45  1  0.13731500  0.81446900  0.53669300  1
  O  O46  1  0.36268500  0.31446900  0.53669300  1
  O  O47  1  0.86268500  0.18553100  0.46330700  1
  O  O48  1  0.67149000  0.81976500  0.10444400  1
  O  O49  1  0.17149000  0.68023500  0.89555600  1
  O  O50  1  0.32851000  0.18023500  0.89555600  1
  O  O51  1  0.82851000  0.31976500  0.10444400  1
