# generated using pymatgen
data_NdSiBO5
_symmetry_space_group_name_H-M   'P 1'
_cell_length_a   6.87303396
_cell_length_b   6.87303396
_cell_length_c   6.70111900
_cell_angle_alpha   90.00000000
_cell_angle_beta   90.00000000
_cell_angle_gamma   119.99999962
_symmetry_Int_Tables_number   1
_chemical_formula_structural   NdSiBO5
_chemical_formula_sum   'Nd3 Si3 B3 O15'
_cell_volume   274.14160011
_cell_formula_units_Z   3
loop_
 _symmetry_equiv_pos_site_id
 _symmetry_equiv_pos_as_xyz
  1  'x, y, z'
loop_
 _atom_site_type_symbol
 _atom_site_label
 _atom_site_symmetry_multiplicity
 _atom_site_fract_x
 _atom_site_fract_y
 _atom_site_fract_z
 _atom_site_occupancy
  Nd  Nd0  1  0.74771000  0.66549100  0.66404500  1
  Nd  Nd1  1  0.33450900  0.08221800  0.99737800  1
  Nd  Nd2  1  0.91778200  0.25229000  0.33071100  1
  Si  Si3  1  0.75222800  0.66727200  0.16211500  1
  Si  Si4  1  0.33272800  0.08495600  0.49544800  1
  Si  Si5  1  0.91504400  0.24777200  0.82878100  1
  B  B6  1  0.23261700  0.68081200  0.69085100  1
  B  B7  1  0.31918800  0.55180500  0.02418400  1
  B  B8  1  0.44819500  0.76738300  0.35751700  1
  O  O9  1  0.68467700  0.82406400  0.30589800  1
  O  O10  1  0.17593600  0.86061300  0.63923100  1
  O  O11  1  0.13938700  0.31532300  0.97256500  1
  O  O12  1  0.47441100  0.00050800  0.34861500  1
  O  O13  1  0.99949200  0.47390300  0.68194800  1
  O  O14  1  0.52609700  0.52558900  0.01528100  1
  O  O15  1  0.79467600  0.52268300  0.32989400  1
  O  O16  1  0.47731700  0.27199300  0.66322700  1
  O  O17  1  0.72800700  0.20532400  0.99656000  1
  O  O18  1  0.19664900  0.14048400  0.33027800  1
  O  O19  1  0.85951600  0.05616400  0.66361100  1
  O  O20  1  0.94383600  0.80335100  0.99694500  1
  O  O21  1  0.32714000  0.72199400  0.89037000  1
  O  O22  1  0.27800600  0.60514600  0.22370300  1
  O  O23  1  0.39485400  0.67286000  0.55703600  1
