# generated using pymatgen
data_Tm5Ni2Sb
_symmetry_space_group_name_H-M   'P 1'
_cell_length_a   8.52763914
_cell_length_b   8.52763914
_cell_length_c   8.52763914
_cell_angle_alpha   128.26613697
_cell_angle_beta   128.26613697
_cell_angle_gamma   76.19429178
_symmetry_Int_Tables_number   1
_chemical_formula_structural   Tm5Ni2Sb
_chemical_formula_sum   'Tm10 Ni4 Sb2'
_cell_volume   371.56767149
_cell_formula_units_Z   2
loop_
 _symmetry_equiv_pos_site_id
 _symmetry_equiv_pos_as_xyz
  1  'x, y, z'
loop_
 _atom_site_type_symbol
 _atom_site_label
 _atom_site_symmetry_multiplicity
 _atom_site_fract_x
 _atom_site_fract_y
 _atom_site_fract_z
 _atom_site_occupancy
  Tm  Tm0  1  0.00000000  0.00000000  0.00000000  1
  Tm  Tm1  1  0.50000000  0.50000000  0.00000000  1
  Tm  Tm2  1  0.79456000  0.29456000  0.81628400  1
  Tm  Tm3  1  0.20544000  0.70544000  0.18371600  1
  Tm  Tm4  1  0.47827600  0.97827600  0.18371600  1
  Tm  Tm5  1  0.29456000  0.47827600  0.50000000  1
  Tm  Tm6  1  0.02172400  0.20544000  0.50000000  1
  Tm  Tm7  1  0.52172400  0.02172400  0.81628400  1
  Tm  Tm8  1  0.70544000  0.52172400  0.50000000  1
  Tm  Tm9  1  0.97827600  0.79456000  0.50000000  1
  Ni  Ni10  1  0.13099400  0.63099400  0.76198800  1
  Ni  Ni11  1  0.86900600  0.36900600  0.23801200  1
  Ni  Ni12  1  0.63099400  0.86900600  0.50000000  1
  Ni  Ni13  1  0.36900600  0.13099400  0.50000000  1
  Sb  Sb14  1  0.25000000  0.25000000  0.00000000  1
  Sb  Sb15  1  0.75000000  0.75000000  0.00000000  1
