# generated using pymatgen
data_La3InGe
_symmetry_space_group_name_H-M   'P 1'
_cell_length_a   12.35165051
_cell_length_b   11.95936490
_cell_length_c   11.95003167
_cell_angle_alpha   62.20922297
_cell_angle_beta   58.93245812
_cell_angle_gamma   58.85831891
_symmetry_Int_Tables_number   1
_chemical_formula_structural   La3InGe
_chemical_formula_sum   'La24 In8 Ge8'
_cell_volume   1245.35982848
_cell_formula_units_Z   8
loop_
 _symmetry_equiv_pos_site_id
 _symmetry_equiv_pos_as_xyz
  1  'x, y, z'
loop_
 _atom_site_type_symbol
 _atom_site_label
 _atom_site_symmetry_multiplicity
 _atom_site_fract_x
 _atom_site_fract_y
 _atom_site_fract_z
 _atom_site_occupancy
  La  La0  1  0.64200800  0.35799200  0.35799200  1
  La  La1  1  0.14003600  0.85996400  0.85996400  1
  La  La2  1  0.35440900  0.64559100  0.64559100  1
  La  La3  1  0.85927500  0.14072500  0.14072500  1
  La  La4  1  0.70045600  0.06332000  0.66815100  1
  La  La5  1  0.56807300  0.66815100  0.06332000  1
  La  La6  1  0.06947600  0.56253400  0.16178100  1
  La  La7  1  0.20620900  0.16178100  0.56253400  1
  La  La8  1  0.83821800  0.79379100  0.93052400  1
  La  La9  1  0.43746600  0.93052400  0.79379100  1
  La  La10  1  0.33184900  0.43192700  0.29954400  1
  La  La11  1  0.93668000  0.29954400  0.43192700  1
  La  La12  1  0.30055800  0.93617800  0.33567200  1
  La  La13  1  0.42759200  0.33567200  0.93617800  1
  La  La14  1  0.93524000  0.43818700  0.83235400  1
  La  La15  1  0.79422000  0.83235400  0.43818700  1
  La  La16  1  0.16764600  0.20578000  0.06476000  1
  La  La17  1  0.56181300  0.06476000  0.20578000  1
  La  La18  1  0.66432800  0.57240800  0.69944200  1
  La  La19  1  0.06382200  0.69944200  0.57240800  1
  La  La20  1  0.66440000  0.67099500  0.33560000  1
  La  La21  1  0.32900500  0.33560000  0.67099500  1
  La  La22  1  0.83277100  0.16722900  0.83248000  1
  La  La23  1  0.16752000  0.83248000  0.16722900  1
  In  In24  1  0.49996500  0.00003500  0.00003500  1
  In  In25  1  0.99996500  0.50003500  0.50003500  1
  In  In26  1  0.62272200  0.37727800  0.02718100  1
  In  In27  1  0.97281900  0.02718100  0.37727800  1
  In  In28  1  0.52718000  0.12203300  0.47282000  1
  In  In29  1  0.87796700  0.47282000  0.12203300  1
  In  In30  1  0.37770700  0.62229300  0.97140200  1
  In  In31  1  0.02859800  0.97140200  0.62229300  1
  Ge  Ge32  1  0.12038000  0.12005400  0.87962000  1
  Ge  Ge33  1  0.87994600  0.87962000  0.12005400  1
  Ge  Ge34  1  0.37969900  0.62030100  0.38074700  1
  Ge  Ge35  1  0.61925300  0.38074700  0.62030100  1
  Ge  Ge36  1  0.75017300  0.74982700  0.74982700  1
  Ge  Ge37  1  0.25017300  0.24982700  0.24982700  1
  Ge  Ge38  1  0.47627800  0.87559800  0.52372200  1
  Ge  Ge39  1  0.12440200  0.52372200  0.87559800  1
