# generated using pymatgen
data_YCoSi
_symmetry_space_group_name_H-M   'P 1'
_cell_length_a   4.14507800
_cell_length_b   6.82455100
_cell_length_c   7.10463100
_cell_angle_alpha   90.00000000
_cell_angle_beta   90.00000000
_cell_angle_gamma   90.00000000
_symmetry_Int_Tables_number   1
_chemical_formula_structural   YCoSi
_chemical_formula_sum   'Y4 Co4 Si4'
_cell_volume   200.97790619
_cell_formula_units_Z   4
loop_
 _symmetry_equiv_pos_site_id
 _symmetry_equiv_pos_as_xyz
  1  'x, y, z'
loop_
 _atom_site_type_symbol
 _atom_site_label
 _atom_site_symmetry_multiplicity
 _atom_site_fract_x
 _atom_site_fract_y
 _atom_site_fract_z
 _atom_site_occupancy
  Y  Y0  1  0.75000000  0.01033800  0.30682000  1
  Y  Y1  1  0.25000000  0.98966200  0.69318000  1
  Y  Y2  1  0.25000000  0.48966200  0.80682000  1
  Y  Y3  1  0.75000000  0.51033800  0.19318000  1
  Co  Co4  1  0.75000000  0.84986700  0.93277900  1
  Co  Co5  1  0.25000000  0.15013300  0.06722100  1
  Co  Co6  1  0.25000000  0.65013300  0.43277900  1
  Co  Co7  1  0.75000000  0.34986700  0.56722100  1
  Si  Si8  1  0.75000000  0.69579400  0.59851800  1
  Si  Si9  1  0.25000000  0.30420600  0.40148200  1
  Si  Si10  1  0.25000000  0.80420600  0.09851800  1
  Si  Si11  1  0.75000000  0.19579400  0.90148200  1
