# generated using pymatgen
data_Ba(GdSe2)2
_symmetry_space_group_name_H-M   'P 1'
_cell_length_a   4.27673700
_cell_length_b   12.93308100
_cell_length_c   15.34572900
_cell_angle_alpha   90.00000000
_cell_angle_beta   90.00000000
_cell_angle_gamma   90.00000000
_symmetry_Int_Tables_number   1
_chemical_formula_structural   Ba(GdSe2)2
_chemical_formula_sum   'Ba4 Gd8 Se16'
_cell_volume   848.79354073
_cell_formula_units_Z   4
loop_
 _symmetry_equiv_pos_site_id
 _symmetry_equiv_pos_as_xyz
  1  'x, y, z'
loop_
 _atom_site_type_symbol
 _atom_site_label
 _atom_site_symmetry_multiplicity
 _atom_site_fract_x
 _atom_site_fract_y
 _atom_site_fract_z
 _atom_site_occupancy
  Ba  Ba0  1  0.25000000  0.75627200  0.33704600  1
  Ba  Ba1  1  0.25000000  0.25627200  0.16295400  1
  Ba  Ba2  1  0.75000000  0.24372800  0.66295400  1
  Ba  Ba3  1  0.75000000  0.74372800  0.83704600  1
  Gd  Gd4  1  0.25000000  0.43283300  0.38991300  1
  Gd  Gd5  1  0.25000000  0.93283300  0.11008700  1
  Gd  Gd6  1  0.75000000  0.56716700  0.61008700  1
  Gd  Gd7  1  0.75000000  0.06716700  0.88991300  1
  Gd  Gd8  1  0.25000000  0.41976200  0.90011900  1
  Gd  Gd9  1  0.25000000  0.91976200  0.59988100  1
  Gd  Gd10  1  0.75000000  0.58023800  0.09988100  1
  Gd  Gd11  1  0.75000000  0.08023800  0.40011900  1
  Se  Se12  1  0.25000000  0.20690000  0.83112300  1
  Se  Se13  1  0.25000000  0.70690000  0.66887700  1
  Se  Se14  1  0.75000000  0.79310000  0.16887700  1
  Se  Se15  1  0.75000000  0.29310000  0.33112300  1
  Se  Se16  1  0.25000000  0.12709700  0.52492700  1
  Se  Se17  1  0.25000000  0.62709700  0.97507300  1
  Se  Se18  1  0.75000000  0.87290300  0.47507300  1
  Se  Se19  1  0.75000000  0.37290300  0.02492700  1
  Se  Se20  1  0.25000000  0.52403400  0.21607200  1
  Se  Se21  1  0.25000000  0.02403400  0.28392800  1
  Se  Se22  1  0.75000000  0.47596600  0.78392800  1
  Se  Se23  1  0.75000000  0.97596600  0.71607200  1
  Se  Se24  1  0.25000000  0.41797800  0.57750900  1
  Se  Se25  1  0.25000000  0.91797800  0.92249100  1
  Se  Se26  1  0.75000000  0.58202200  0.42249100  1
  Se  Se27  1  0.75000000  0.08202200  0.07750900  1
