# generated using pymatgen
data_Tm11Sn10
_symmetry_space_group_name_H-M   'P 1'
_cell_length_a   11.71997833
_cell_length_b   11.71997833
_cell_length_c   11.71997833
_cell_angle_alpha   121.13275711
_cell_angle_beta   121.13275711
_cell_angle_gamma   88.04895504
_symmetry_Int_Tables_number   1
_chemical_formula_structural   Tm11Sn10
_chemical_formula_sum   'Tm22 Sn20'
_cell_volume   1118.12898203
_cell_formula_units_Z   2
loop_
 _symmetry_equiv_pos_site_id
 _symmetry_equiv_pos_as_xyz
  1  'x, y, z'
loop_
 _atom_site_type_symbol
 _atom_site_label
 _atom_site_symmetry_multiplicity
 _atom_site_fract_x
 _atom_site_fract_y
 _atom_site_fract_z
 _atom_site_occupancy
  Tm  Tm0  1  0.81160100  0.06364600  0.25204500  1
  Tm  Tm1  1  0.81160100  0.55955600  0.74795500  1
  Tm  Tm2  1  0.06364600  0.81160100  0.25204500  1
  Tm  Tm3  1  0.55955600  0.81160100  0.74795500  1
  Tm  Tm4  1  0.18839900  0.93635400  0.74795500  1
  Tm  Tm5  1  0.18839900  0.44044400  0.25204500  1
  Tm  Tm6  1  0.93635400  0.18839900  0.74795500  1
  Tm  Tm7  1  0.44044400  0.18839900  0.25204500  1
  Tm  Tm8  1  0.17434400  0.17434400  0.34868900  1
  Tm  Tm9  1  0.82565600  0.82565600  0.65131100  1
  Tm  Tm10  1  0.17434400  0.82565600  0.00000000  1
  Tm  Tm11  1  0.82565600  0.17434400  0.00000000  1
  Tm  Tm12  1  0.66416200  0.66416200  0.00000000  1
  Tm  Tm13  1  0.33583800  0.33583800  0.00000000  1
  Tm  Tm14  1  0.60232700  0.93257900  0.33025200  1
  Tm  Tm15  1  0.60232700  0.27207400  0.66974800  1
  Tm  Tm16  1  0.93257900  0.60232700  0.33025200  1
  Tm  Tm17  1  0.27207400  0.60232700  0.66974800  1
  Tm  Tm18  1  0.39767300  0.06742100  0.66974800  1
  Tm  Tm19  1  0.39767300  0.72792600  0.33025200  1
  Tm  Tm20  1  0.06742100  0.39767300  0.66974800  1
  Tm  Tm21  1  0.72792600  0.39767300  0.33025200  1
  Sn  Sn22  1  0.35576000  0.00000000  0.35576000  1
  Sn  Sn23  1  0.64424000  0.00000000  0.64424000  1
  Sn  Sn24  1  0.00000000  0.64424000  0.64424000  1
  Sn  Sn25  1  0.00000000  0.35576000  0.35576000  1
  Sn  Sn26  1  0.88704800  0.88704800  0.00000000  1
  Sn  Sn27  1  0.11295200  0.11295200  0.00000000  1
  Sn  Sn28  1  0.37004700  0.37004700  0.74009400  1
  Sn  Sn29  1  0.62995300  0.62995300  0.25990600  1
  Sn  Sn30  1  0.37004700  0.62995300  0.00000000  1
  Sn  Sn31  1  0.62995300  0.37004700  0.00000000  1
  Sn  Sn32  1  0.75000000  0.25000000  0.50000000  1
  Sn  Sn33  1  0.25000000  0.75000000  0.50000000  1
  Sn  Sn34  1  0.88185400  0.88185400  0.41323000  1
  Sn  Sn35  1  0.46862400  0.46862400  0.58677000  1
  Sn  Sn36  1  0.88185400  0.46862400  0.00000000  1
  Sn  Sn37  1  0.46862400  0.88185400  0.00000000  1
  Sn  Sn38  1  0.11814600  0.11814600  0.58677000  1
  Sn  Sn39  1  0.53137600  0.53137600  0.41323000  1
  Sn  Sn40  1  0.11814600  0.53137600  0.00000000  1
  Sn  Sn41  1  0.53137600  0.11814600  0.00000000  1
