# generated using pymatgen
data_EuAl3(BO3)4
_symmetry_space_group_name_H-M   'P 1'
_cell_length_a   5.96801072
_cell_length_b   5.96801072
_cell_length_c   16.44382312
_cell_angle_alpha   89.32379740
_cell_angle_beta   89.32379740
_cell_angle_gamma   104.12797207
_symmetry_Int_Tables_number   1
_chemical_formula_structural   EuAl3(BO3)4
_chemical_formula_sum   'Eu3 Al9 B12 O36'
_cell_volume   567.86233905
_cell_formula_units_Z   3
loop_
 _symmetry_equiv_pos_site_id
 _symmetry_equiv_pos_as_xyz
  1  'x, y, z'
loop_
 _atom_site_type_symbol
 _atom_site_label
 _atom_site_symmetry_multiplicity
 _atom_site_fract_x
 _atom_site_fract_y
 _atom_site_fract_z
 _atom_site_occupancy
  Eu  Eu0  1  0.45424400  0.20596600  0.66842200  1
  Eu  Eu1  1  0.79403400  0.54575600  0.33157800  1
  Eu  Eu2  1  0.55342600  0.44657400  0.00000000  1
  Al  Al3  1  0.96724500  0.29009600  0.14743400  1
  Al  Al4  1  0.70990400  0.03275500  0.85256600  1
  Al  Al5  1  0.37522300  0.69593200  0.18559900  1
  Al  Al6  1  0.30406800  0.62477700  0.81440100  1
  Al  Al7  1  0.34483000  0.98845800  0.33429600  1
  Al  Al8  1  0.01154200  0.65517000  0.66570400  1
  Al  Al9  1  0.64258100  0.95150500  0.48112200  1
  Al  Al10  1  0.04849500  0.35741900  0.51887800  1
  Al  Al11  1  0.99902900  0.00097100  0.00000000  1
  B  B12  1  0.56507400  0.43492600  0.50000000  1
  B  B13  1  0.86683200  0.06330800  0.31421200  1
  B  B14  1  0.93669200  0.13316800  0.68578800  1
  B  B15  1  0.47561500  0.92664300  0.01867400  1
  B  B16  1  0.07335700  0.52438500  0.98132600  1
  B  B17  1  0.27063200  0.46644100  0.35273200  1
  B  B18  1  0.53355900  0.72936800  0.64726800  1
  B  B19  1  0.89187000  0.77139700  0.16218200  1
  B  B20  1  0.22860300  0.10813000  0.83781800  1
  B  B21  1  0.12347400  0.87652600  0.50000000  1
  B  B22  1  0.45131000  0.21370900  0.17033600  1
  B  B23  1  0.78629100  0.54869000  0.82966400  1
  O  O24  1  0.02477600  0.93409300  0.32579000  1
  O  O25  1  0.06590700  0.97522400  0.67421000  1
  O  O26  1  0.71372300  0.28627700  0.50000000  1
  O  O27  1  0.94801400  0.97601800  0.11704100  1
  O  O28  1  0.02398200  0.05198600  0.88295900  1
  O  O29  1  0.30090500  0.36008500  0.16651700  1
  O  O30  1  0.63991500  0.69909500  0.83348300  1
  O  O31  1  0.44385000  0.75026700  0.07501800  1
  O  O32  1  0.24973300  0.55615000  0.92498200  1
  O  O33  1  0.66754400  0.01464200  0.36328000  1
  O  O34  1  0.98535800  0.33245600  0.63672000  1
  O  O35  1  0.68872100  0.70675500  0.20660900  1
  O  O36  1  0.29324500  0.31127900  0.79339100  1
  O  O37  1  0.39641000  0.01046100  0.21609900  1
  O  O38  1  0.98953900  0.60359000  0.78390100  1
  O  O39  1  0.65316200  0.27768100  0.12491000  1
  O  O40  1  0.72231900  0.34683800  0.87509000  1
  O  O41  1  0.76213200  0.10577500  0.74255500  1
  O  O42  1  0.89422500  0.23786800  0.25744500  1
  O  O43  1  0.56078500  0.90601400  0.59109200  1
  O  O44  1  0.09398600  0.43921500  0.40890800  1
  O  O45  1  0.32164100  0.92689800  0.45074800  1
  O  O46  1  0.07310200  0.67835900  0.54925200  1
  O  O47  1  0.31988600  0.05835000  0.00620000  1
  O  O48  1  0.94165000  0.68011400  0.99380000  1
  O  O49  1  0.04216500  0.62524600  0.16737600  1
  O  O50  1  0.37475400  0.95783500  0.83262400  1
  O  O51  1  0.31577500  0.66501100  0.30314600  1
  O  O52  1  0.33498900  0.68422500  0.69685400  1
  O  O53  1  0.40243900  0.31012900  0.34143500  1
  O  O54  1  0.68987100  0.59756100  0.65856500  1
  O  O55  1  0.97525000  0.02475000  0.50000000  1
  O  O56  1  0.63524100  0.64261300  0.45895400  1
  O  O57  1  0.35738700  0.36475900  0.54104600  1
  O  O58  1  0.02686000  0.32367000  0.02990900  1
  O  O59  1  0.67633000  0.97314000  0.97009100  1
