# generated using pymatgen
data_BiPO4
_symmetry_space_group_name_H-M   'P 1'
_cell_length_a   4.78232835
_cell_length_b   4.78162807
_cell_length_c   7.26721500
_cell_angle_alpha   90.00000000
_cell_angle_beta   90.00000000
_cell_angle_gamma   95.23327217
_symmetry_Int_Tables_number   1
_chemical_formula_structural   BiPO4
_chemical_formula_sum   'Bi2 P2 O8'
_cell_volume   165.48898608
_cell_formula_units_Z   2
loop_
 _symmetry_equiv_pos_site_id
 _symmetry_equiv_pos_as_xyz
  1  'x, y, z'
loop_
 _atom_site_type_symbol
 _atom_site_label
 _atom_site_symmetry_multiplicity
 _atom_site_fract_x
 _atom_site_fract_y
 _atom_site_fract_z
 _atom_site_occupancy
  Bi  Bi0  1  0.86701400  0.86699100  0.49999400  1
  Bi  Bi1  1  0.13298600  0.13300900  0.99999400  1
  P  P2  1  0.34067000  0.34054600  0.50000100  1
  P  P3  1  0.65933000  0.65945400  0.00000100  1
  O  O4  1  0.18681400  0.18687800  0.33290500  1
  O  O5  1  0.69199300  0.34093200  0.00000100  1
  O  O6  1  0.81318600  0.81312200  0.83290500  1
  O  O7  1  0.81318400  0.81311900  0.16709700  1
  O  O8  1  0.18681600  0.18688100  0.66709700  1
  O  O9  1  0.30800700  0.65906800  0.50000100  1
  O  O10  1  0.65906500  0.30736800  0.50000100  1
  O  O11  1  0.34093500  0.69263200  0.00000100  1
