# generated using pymatgen
data_BaFeO3
_symmetry_space_group_name_H-M   'P 1'
_cell_length_a   5.71616243
_cell_length_b   5.71616243
_cell_length_c   14.06010800
_cell_angle_alpha   90.00000000
_cell_angle_beta   90.00000000
_cell_angle_gamma   120.00000497
_symmetry_Int_Tables_number   1
_chemical_formula_structural   BaFeO3
_chemical_formula_sum   'Ba6 Fe6 O18'
_cell_volume   397.85826906
_cell_formula_units_Z   6
loop_
 _symmetry_equiv_pos_site_id
 _symmetry_equiv_pos_as_xyz
  1  'x, y, z'
loop_
 _atom_site_type_symbol
 _atom_site_label
 _atom_site_symmetry_multiplicity
 _atom_site_fract_x
 _atom_site_fract_y
 _atom_site_fract_z
 _atom_site_occupancy
  Ba  Ba0  1  0.00000000  0.00000000  0.25000000  1
  Ba  Ba1  1  0.00000000  0.00000000  0.75000000  1
  Ba  Ba2  1  0.33333300  0.66666700  0.41071800  1
  Ba  Ba3  1  0.66666700  0.33333300  0.58928200  1
  Ba  Ba4  1  0.66666700  0.33333300  0.91071800  1
  Ba  Ba5  1  0.33333300  0.66666700  0.08928200  1
  Fe  Fe6  1  0.00000000  0.00000000  0.50000000  1
  Fe  Fe7  1  0.00000000  0.00000000  0.00000000  1
  Fe  Fe8  1  0.33333300  0.66666700  0.65246900  1
  Fe  Fe9  1  0.66666700  0.33333300  0.34753100  1
  Fe  Fe10  1  0.66666700  0.33333300  0.15246900  1
  Fe  Fe11  1  0.33333300  0.66666700  0.84753100  1
  O  O12  1  0.51580900  0.48419100  0.25000000  1
  O  O13  1  0.51580900  0.03161800  0.25000000  1
  O  O14  1  0.96838200  0.48419100  0.25000000  1
  O  O15  1  0.48419100  0.51580900  0.75000000  1
  O  O16  1  0.48419100  0.96838200  0.75000000  1
  O  O17  1  0.03161800  0.51580900  0.75000000  1
  O  O18  1  0.83758100  0.16241900  0.42025000  1
  O  O19  1  0.83758100  0.67516100  0.42025000  1
  O  O20  1  0.32483900  0.16241900  0.42025000  1
  O  O21  1  0.16241900  0.83758100  0.57975000  1
  O  O22  1  0.16241900  0.32483900  0.57975000  1
  O  O23  1  0.67516100  0.83758100  0.57975000  1
  O  O24  1  0.16241900  0.83758100  0.92025000  1
  O  O25  1  0.16241900  0.32483900  0.92025000  1
  O  O26  1  0.67516100  0.83758100  0.92025000  1
  O  O27  1  0.83758100  0.16241900  0.07975000  1
  O  O28  1  0.83758100  0.67516100  0.07975000  1
  O  O29  1  0.32483900  0.16241900  0.07975000  1
