# generated using pymatgen
data_Cs3(Na13In24)2
_symmetry_space_group_name_H-M   'P 1'
_cell_length_a   16.52941421
_cell_length_b   16.52941421
_cell_length_c   16.52941421
_cell_angle_alpha   90.00000000
_cell_angle_beta   90.00000000
_cell_angle_gamma   90.00000000
_symmetry_Int_Tables_number   1
_chemical_formula_structural   Cs3(Na13In24)2
_chemical_formula_sum   'Cs6 Na52 In96'
_cell_volume   4516.19190866
_cell_formula_units_Z   2
loop_
 _symmetry_equiv_pos_site_id
 _symmetry_equiv_pos_as_xyz
  1  'x, y, z'
loop_
 _atom_site_type_symbol
 _atom_site_label
 _atom_site_symmetry_multiplicity
 _atom_site_fract_x
 _atom_site_fract_y
 _atom_site_fract_z
 _atom_site_occupancy
  Cs  Cs0  1  0.00000000  0.50000000  0.50000000  1
  Cs  Cs1  1  0.50000000  -0.00000000  0.50000000  1
  Cs  Cs2  1  0.00000000  0.50000000  0.00000000  1
  Cs  Cs3  1  0.50000000  0.50000000  0.00000000  1
  Cs  Cs4  1  0.50000000  -0.00000000  0.00000000  1
  Cs  Cs5  1  0.00000000  -0.00000000  0.50000000  1
  Na  Na6  1  0.00000000  0.13648951  0.29528483  1
  Na  Na7  1  0.00000000  0.86351049  0.70471517  1
  Na  Na8  1  0.00000000  0.86351049  0.29528483  1
  Na  Na9  1  0.00000000  0.13648951  0.70471517  1
  Na  Na10  1  0.29528483  -0.00000000  0.13648951  1
  Na  Na11  1  0.63648951  0.50000000  0.20471517  1
  Na  Na12  1  0.70471517  -0.00000000  0.86351049  1
  Na  Na13  1  0.36351049  0.50000000  0.79528483  1
  Na  Na14  1  0.29528483  -0.00000000  0.86351049  1
  Na  Na15  1  0.36351049  0.50000000  0.20471517  1
  Na  Na16  1  0.70471517  -0.00000000  0.13648951  1
  Na  Na17  1  0.63648951  0.50000000  0.79528483  1
  Na  Na18  1  0.13648951  0.29528483  0.00000000  1
  Na  Na19  1  0.50000000  0.79528483  0.36351049  1
  Na  Na20  1  0.86351049  0.70471517  0.00000000  1
  Na  Na21  1  0.50000000  0.20471517  0.63648951  1
  Na  Na22  1  0.13648951  0.70471517  0.00000000  1
  Na  Na23  1  0.50000000  0.20471517  0.36351049  1
  Na  Na24  1  0.86351049  0.29528483  0.00000000  1
  Na  Na25  1  0.50000000  0.79528483  0.63648951  1
  Na  Na26  1  0.20471517  0.63648951  0.50000000  1
  Na  Na27  1  0.79528483  0.36351049  0.50000000  1
  Na  Na28  1  0.20471517  0.36351049  0.50000000  1
  Na  Na29  1  0.79528483  0.63648951  0.50000000  1
  Na  Na30  1  0.25000000  0.50000000  0.00000000  1
  Na  Na31  1  0.75000000  0.50000000  0.00000000  1
  Na  Na32  1  0.00000000  0.25000000  0.50000000  1
  Na  Na33  1  0.00000000  0.75000000  0.50000000  1
  Na  Na34  1  0.50000000  -0.00000000  0.25000000  1
  Na  Na35  1  0.50000000  -0.00000000  0.75000000  1
  Na  Na36  1  0.25000000  -0.00000000  0.50000000  1
  Na  Na37  1  0.75000000  -0.00000000  0.50000000  1
  Na  Na38  1  0.50000000  0.25000000  0.00000000  1
  Na  Na39  1  0.50000000  0.75000000  0.00000000  1
  Na  Na40  1  0.00000000  0.50000000  0.25000000  1
  Na  Na41  1  0.00000000  0.50000000  0.75000000  1
  Na  Na42  1  0.18903875  0.18903875  0.18903875  1
  Na  Na43  1  0.81096125  0.81096125  0.81096125  1
  Na  Na44  1  0.81096125  0.81096125  0.18903875  1
  Na  Na45  1  0.81096125  0.18903875  0.81096125  1
  Na  Na46  1  0.68903875  0.68903875  0.31096125  1
  Na  Na47  1  0.18903875  0.18903875  0.81096125  1
  Na  Na48  1  0.18903875  0.81096125  0.18903875  1
  Na  Na49  1  0.31096125  0.31096125  0.68903875  1
  Na  Na50  1  0.18903875  0.81096125  0.81096125  1
  Na  Na51  1  0.31096125  0.31096125  0.31096125  1
  Na  Na52  1  0.81096125  0.18903875  0.18903875  1
  Na  Na53  1  0.68903875  0.68903875  0.68903875  1
  Na  Na54  1  0.68903875  0.31096125  0.68903875  1
  Na  Na55  1  0.31096125  0.68903875  0.31096125  1
  Na  Na56  1  0.31096125  0.68903875  0.68903875  1
  Na  Na57  1  0.68903875  0.31096125  0.31096125  1
  In  In58  1  0.00000000  0.15359949  0.09247554  1
  In  In59  1  0.00000000  0.84640051  0.90752446  1
  In  In60  1  0.00000000  0.84640051  0.09247554  1
  In  In61  1  0.00000000  0.15359949  0.90752446  1
  In  In62  1  0.09247554  -0.00000000  0.15359949  1
  In  In63  1  0.65359949  0.50000000  0.40752446  1
  In  In64  1  0.90752446  -0.00000000  0.84640051  1
  In  In65  1  0.34640051  0.50000000  0.59247554  1
  In  In66  1  0.09247554  -0.00000000  0.84640051  1
  In  In67  1  0.34640051  0.50000000  0.40752446  1
  In  In68  1  0.90752446  -0.00000000  0.15359949  1
  In  In69  1  0.65359949  0.50000000  0.59247554  1
  In  In70  1  0.15359949  0.09247554  0.00000000  1
  In  In71  1  0.50000000  0.59247554  0.34640051  1
  In  In72  1  0.84640051  0.90752446  0.00000000  1
  In  In73  1  0.50000000  0.40752446  0.65359949  1
  In  In74  1  0.15359949  0.90752446  0.00000000  1
  In  In75  1  0.50000000  0.40752446  0.34640051  1
  In  In76  1  0.84640051  0.09247554  0.00000000  1
  In  In77  1  0.50000000  0.59247554  0.65359949  1
  In  In78  1  0.40752446  0.65359949  0.50000000  1
  In  In79  1  0.59247554  0.34640051  0.50000000  1
  In  In80  1  0.40752446  0.34640051  0.50000000  1
  In  In81  1  0.59247554  0.65359949  0.50000000  1
  In  In82  1  0.16802773  0.17038542  0.40475915  1
  In  In83  1  0.83197227  0.82961458  0.59524085  1
  In  In84  1  0.83197227  0.82961458  0.40475915  1
  In  In85  1  0.83197227  0.17038542  0.59524085  1
  In  In86  1  0.40475915  0.16802773  0.17038542  1
  In  In87  1  0.67038542  0.66802773  0.09524085  1
  In  In88  1  0.16802773  0.17038542  0.59524085  1
  In  In89  1  0.16802773  0.82961458  0.40475915  1
  In  In90  1  0.59524085  0.83197227  0.82961458  1
  In  In91  1  0.32961458  0.33197227  0.90475915  1
  In  In92  1  0.16802773  0.82961458  0.59524085  1
  In  In93  1  0.40475915  0.83197227  0.82961458  1
  In  In94  1  0.32961458  0.33197227  0.09524085  1
  In  In95  1  0.83197227  0.17038542  0.40475915  1
  In  In96  1  0.59524085  0.16802773  0.17038542  1
  In  In97  1  0.67038542  0.66802773  0.90475915  1
  In  In98  1  0.59524085  0.83197227  0.17038542  1
  In  In99  1  0.67038542  0.33197227  0.90475915  1
  In  In100  1  0.40475915  0.16802773  0.82961458  1
  In  In101  1  0.32961458  0.66802773  0.09524085  1
  In  In102  1  0.59524085  0.16802773  0.82961458  1
  In  In103  1  0.32961458  0.66802773  0.90475915  1
  In  In104  1  0.40475915  0.83197227  0.17038542  1
  In  In105  1  0.67038542  0.33197227  0.09524085  1
  In  In106  1  0.17038542  0.40475915  0.16802773  1
  In  In107  1  0.66802773  0.90475915  0.32961458  1
  In  In108  1  0.82961458  0.59524085  0.83197227  1
  In  In109  1  0.33197227  0.09524085  0.67038542  1
  In  In110  1  0.17038542  0.59524085  0.83197227  1
  In  In111  1  0.33197227  0.09524085  0.32961458  1
  In  In112  1  0.82961458  0.40475915  0.16802773  1
  In  In113  1  0.66802773  0.90475915  0.67038542  1
  In  In114  1  0.82961458  0.59524085  0.16802773  1
  In  In115  1  0.66802773  0.09524085  0.67038542  1
  In  In116  1  0.17038542  0.40475915  0.83197227  1
  In  In117  1  0.33197227  0.90475915  0.32961458  1
  In  In118  1  0.82961458  0.40475915  0.83197227  1
  In  In119  1  0.33197227  0.90475915  0.67038542  1
  In  In120  1  0.17038542  0.59524085  0.16802773  1
  In  In121  1  0.66802773  0.09524085  0.32961458  1
  In  In122  1  0.09524085  0.67038542  0.66802773  1
  In  In123  1  0.90475915  0.32961458  0.33197227  1
  In  In124  1  0.09524085  0.32961458  0.33197227  1
  In  In125  1  0.90475915  0.67038542  0.66802773  1
  In  In126  1  0.90475915  0.32961458  0.66802773  1
  In  In127  1  0.09524085  0.67038542  0.33197227  1
  In  In128  1  0.90475915  0.67038542  0.33197227  1
  In  In129  1  0.09524085  0.32961458  0.66802773  1
  In  In130  1  0.00000000  0.31770638  0.16435296  1
  In  In131  1  0.00000000  0.68229362  0.83564704  1
  In  In132  1  0.00000000  0.68229362  0.16435296  1
  In  In133  1  0.00000000  0.31770638  0.83564704  1
  In  In134  1  0.16435296  -0.00000000  0.31770638  1
  In  In135  1  0.81770638  0.50000000  0.33564704  1
  In  In136  1  0.83564704  -0.00000000  0.68229362  1
  In  In137  1  0.18229362  0.50000000  0.66435296  1
  In  In138  1  0.16435296  -0.00000000  0.68229362  1
  In  In139  1  0.18229362  0.50000000  0.33564704  1
  In  In140  1  0.83564704  -0.00000000  0.31770638  1
  In  In141  1  0.81770638  0.50000000  0.66435296  1
  In  In142  1  0.31770638  0.16435296  0.00000000  1
  In  In143  1  0.50000000  0.66435296  0.18229362  1
  In  In144  1  0.68229362  0.83564704  0.00000000  1
  In  In145  1  0.50000000  0.33564704  0.81770638  1
  In  In146  1  0.31770638  0.83564704  0.00000000  1
  In  In147  1  0.50000000  0.33564704  0.18229362  1
  In  In148  1  0.68229362  0.16435296  0.00000000  1
  In  In149  1  0.50000000  0.66435296  0.81770638  1
  In  In150  1  0.33564704  0.81770638  0.50000000  1
  In  In151  1  0.66435296  0.18229362  0.50000000  1
  In  In152  1  0.33564704  0.18229362  0.50000000  1
  In  In153  1  0.66435296  0.81770638  0.50000000  1
