# generated using pymatgen
data_MnZn4Se5
_symmetry_space_group_name_H-M   'P 1'
_cell_length_a   7.06992508
_cell_length_b   7.06992508
_cell_length_c   10.00083607
_cell_angle_alpha   61.90201458
_cell_angle_beta   61.90201458
_cell_angle_gamma   33.55831580
_symmetry_Int_Tables_number   1
_chemical_formula_structural   MnZn4Se5
_chemical_formula_sum   'Mn1 Zn4 Se5'
_cell_volume   240.58026149
_cell_formula_units_Z   1
loop_
 _symmetry_equiv_pos_site_id
 _symmetry_equiv_pos_as_xyz
  1  'x, y, z'
loop_
 _atom_site_type_symbol
 _atom_site_label
 _atom_site_symmetry_multiplicity
 _atom_site_fract_x
 _atom_site_fract_y
 _atom_site_fract_z
 _atom_site_occupancy
  Mn  Mn0  1  0.00047200  0.00047200  0.99926100  1
  Zn  Zn1  1  0.60062900  0.60062900  0.59830900  1
  Zn  Zn2  1  0.19896300  0.19896300  0.20130200  1
  Zn  Zn3  1  0.80060300  0.80060300  0.79882000  1
  Zn  Zn4  1  0.39959200  0.39959200  0.40185900  1
  Se  Se5  1  0.79959000  0.79959000  0.55072800  1
  Se  Se6  1  0.39686200  0.39686200  0.15523200  1
  Se  Se7  1  0.00069800  0.00069800  0.74598500  1
  Se  Se8  1  0.59958300  0.59958300  0.34928500  1
  Se  Se9  1  0.20300900  0.20300900  0.94921800  1
