# generated using pymatgen
data_LaCePd6
_symmetry_space_group_name_H-M   'P 1'
_cell_length_a   4.20657300
_cell_length_b   4.20657300
_cell_length_c   8.38281100
_cell_angle_alpha   90.00000000
_cell_angle_beta   90.00000000
_cell_angle_gamma   90.00000000
_symmetry_Int_Tables_number   1
_chemical_formula_structural   LaCePd6
_chemical_formula_sum   'La1 Ce1 Pd6'
_cell_volume   148.33599003
_cell_formula_units_Z   1
loop_
 _symmetry_equiv_pos_site_id
 _symmetry_equiv_pos_as_xyz
  1  'x, y, z'
loop_
 _atom_site_type_symbol
 _atom_site_label
 _atom_site_symmetry_multiplicity
 _atom_site_fract_x
 _atom_site_fract_y
 _atom_site_fract_z
 _atom_site_occupancy
  La  La0  1  0.00000000  0.00000000  0.50000000  1
  Ce  Ce1  1  0.00000000  0.00000000  0.00000000  1
  Pd  Pd2  1  0.50000000  0.50000000  0.00000000  1
  Pd  Pd3  1  0.50000000  0.50000000  0.50000000  1
  Pd  Pd4  1  0.50000000  0.00000000  0.24163200  1
  Pd  Pd5  1  0.50000000  0.00000000  0.75836800  1
  Pd  Pd6  1  0.00000000  0.50000000  0.24163200  1
  Pd  Pd7  1  0.00000000  0.50000000  0.75836800  1
