# generated using pymatgen
data_Ce2MgNi2
_symmetry_space_group_name_H-M   'P 1'
_cell_length_a   7.53327300
_cell_length_b   7.53327300
_cell_length_c   3.61498300
_cell_angle_alpha   90.00000000
_cell_angle_beta   90.00000000
_cell_angle_gamma   90.00000000
_symmetry_Int_Tables_number   1
_chemical_formula_structural   Ce2MgNi2
_chemical_formula_sum   'Ce4 Mg2 Ni4'
_cell_volume   205.15101581
_cell_formula_units_Z   2
loop_
 _symmetry_equiv_pos_site_id
 _symmetry_equiv_pos_as_xyz
  1  'x, y, z'
loop_
 _atom_site_type_symbol
 _atom_site_label
 _atom_site_symmetry_multiplicity
 _atom_site_fract_x
 _atom_site_fract_y
 _atom_site_fract_z
 _atom_site_occupancy
  Ce  Ce0  1  0.33116700  0.83116700  0.50000000  1
  Ce  Ce1  1  0.83116700  0.66883300  0.50000000  1
  Ce  Ce2  1  0.16883300  0.33116700  0.50000000  1
  Ce  Ce3  1  0.66883300  0.16883300  0.50000000  1
  Mg  Mg4  1  0.50000000  0.50000000  0.00000000  1
  Mg  Mg5  1  0.00000000  0.00000000  0.00000000  1
  Ni  Ni6  1  0.12836800  0.62836800  0.00000000  1
  Ni  Ni7  1  0.62836800  0.87163200  0.00000000  1
  Ni  Ni8  1  0.87163200  0.37163200  0.00000000  1
  Ni  Ni9  1  0.37163200  0.12836800  0.00000000  1
