# generated using pymatgen
data_CsNpCl2O3
_symmetry_space_group_name_H-M   'P 1'
_cell_length_a   7.58541077
_cell_length_b   8.70339400
_cell_length_c   11.42728317
_cell_angle_alpha   90.00000000
_cell_angle_beta   90.76354997
_cell_angle_gamma   90.00000000
_symmetry_Int_Tables_number   1
_chemical_formula_structural   CsNpCl2O3
_chemical_formula_sum   'Cs4 Np4 Cl8 O12'
_cell_volume   754.34874549
_cell_formula_units_Z   4
loop_
 _symmetry_equiv_pos_site_id
 _symmetry_equiv_pos_as_xyz
  1  'x, y, z'
loop_
 _atom_site_type_symbol
 _atom_site_label
 _atom_site_symmetry_multiplicity
 _atom_site_fract_x
 _atom_site_fract_y
 _atom_site_fract_z
 _atom_site_occupancy
  Cs  Cs0  1  0.75112300  0.38661400  0.15335000  1
  Cs  Cs1  1  0.74887700  0.88661400  0.34665000  1
  Cs  Cs2  1  0.24887700  0.61338600  0.84665000  1
  Cs  Cs3  1  0.25112300  0.11338600  0.65335000  1
  Np  Np4  1  0.75626300  0.40733300  0.67328400  1
  Np  Np5  1  0.74373700  0.90733300  0.82671600  1
  Np  Np6  1  0.24373700  0.59266700  0.32671600  1
  Np  Np7  1  0.25626300  0.09266700  0.17328400  1
  Cl  Cl8  1  0.74237100  0.09117500  0.61180100  1
  Cl  Cl9  1  0.75762900  0.59117500  0.88819900  1
  Cl  Cl10  1  0.25762900  0.90882500  0.38819900  1
  Cl  Cl11  1  0.24237100  0.40882500  0.11180100  1
  Cl  Cl12  1  0.67836200  0.22145700  0.87300900  1
  Cl  Cl13  1  0.82163800  0.72145700  0.62699100  1
  Cl  Cl14  1  0.32163800  0.77854300  0.12699100  1
  Cl  Cl15  1  0.17836200  0.27854300  0.37300900  1
  O  O16  1  0.51856300  0.43105300  0.67204600  1
  O  O17  1  0.98143700  0.93105300  0.82795400  1
  O  O18  1  0.48143700  0.56894700  0.32795400  1
  O  O19  1  0.01856300  0.06894700  0.17204600  1
  O  O20  1  0.98893200  0.38048600  0.70767100  1
  O  O21  1  0.51106800  0.88048600  0.79232900  1
  O  O22  1  0.01106800  0.61951400  0.29232900  1
  O  O23  1  0.48893200  0.11951400  0.20767100  1
  O  O24  1  0.77627800  0.41066300  0.51141900  1
  O  O25  1  0.72372200  0.91066300  0.98858100  1
  O  O26  1  0.22372200  0.58933700  0.48858100  1
  O  O27  1  0.27627800  0.08933700  0.01141900  1
