# generated using pymatgen
data_Eu2MoO6
_symmetry_space_group_name_H-M   'P 1'
_cell_length_a   5.52440668
_cell_length_b   10.18559322
_cell_length_c   10.18559322
_cell_angle_alpha   68.10519702
_cell_angle_beta   74.84174865
_cell_angle_gamma   74.84174865
_symmetry_Int_Tables_number   1
_chemical_formula_structural   Eu2MoO6
_chemical_formula_sum   'Eu8 Mo4 O24'
_cell_volume   504.61679472
_cell_formula_units_Z   4
loop_
 _symmetry_equiv_pos_site_id
 _symmetry_equiv_pos_as_xyz
  1  'x, y, z'
loop_
 _atom_site_type_symbol
 _atom_site_label
 _atom_site_symmetry_multiplicity
 _atom_site_fract_x
 _atom_site_fract_y
 _atom_site_fract_z
 _atom_site_occupancy
  Eu  Eu0  1  0.25000000  0.36510200  0.63489800  1
  Eu  Eu1  1  0.75000000  0.63489800  0.36510200  1
  Eu  Eu2  1  0.25000000  0.88835000  0.11165000  1
  Eu  Eu3  1  0.75000000  0.11165000  0.88835000  1
  Eu  Eu4  1  0.38556800  0.94573400  0.71047600  1
  Eu  Eu5  1  0.61443200  0.05426600  0.28952400  1
  Eu  Eu6  1  0.11443200  0.28952400  0.05426600  1
  Eu  Eu7  1  0.88556800  0.71047600  0.94573400  1
  Mo  Mo8  1  0.06291500  0.79620700  0.51135000  1
  Mo  Mo9  1  0.93708500  0.20379300  0.48865000  1
  Mo  Mo10  1  0.43708500  0.48865000  0.20379300  1
  Mo  Mo11  1  0.56291500  0.51135000  0.79620700  1
  O  O12  1  0.08166400  0.16094900  0.69091500  1
  O  O13  1  0.91833600  0.83905100  0.30908500  1
  O  O14  1  0.41833600  0.30908500  0.83905100  1
  O  O15  1  0.58166400  0.69091500  0.16094900  1
  O  O16  1  0.36295600  0.82651100  0.38415800  1
  O  O17  1  0.63704400  0.17348900  0.61584200  1
  O  O18  1  0.13704400  0.61584200  0.17348900  1
  O  O19  1  0.86295600  0.38415800  0.82651100  1
  O  O20  1  0.13455300  0.78647500  0.67972400  1
  O  O21  1  0.86544700  0.21352500  0.32027600  1
  O  O22  1  0.36544700  0.32027600  0.21352500  1
  O  O23  1  0.63455300  0.67972400  0.78647500  1
  O  O24  1  0.23517600  0.06801100  0.47909800  1
  O  O25  1  0.76482400  0.93198900  0.52090200  1
  O  O26  1  0.26482400  0.52090200  0.93198900  1
  O  O27  1  0.73517600  0.47909800  0.06801100  1
  O  O28  1  0.01699400  0.61686200  0.54482300  1
  O  O29  1  0.98300600  0.38313800  0.45517700  1
  O  O30  1  0.48300600  0.45517700  0.38313800  1
  O  O31  1  0.51699400  0.54482300  0.61686200  1
  O  O32  1  0.57449900  0.92477800  0.89408400  1
  O  O33  1  0.42550100  0.07522200  0.10591600  1
  O  O34  1  0.92550100  0.10591600  0.07522200  1
  O  O35  1  0.07449900  0.89408400  0.92477800  1
