# generated using pymatgen
data_Eu2B2O5
_symmetry_space_group_name_H-M   'P 1'
_cell_length_a   5.36769600
_cell_length_b   7.77066900
_cell_length_c   11.96704343
_cell_angle_alpha   87.08321108
_cell_angle_beta   90.00000000
_cell_angle_gamma   90.00000000
_symmetry_Int_Tables_number   1
_chemical_formula_structural   Eu2B2O5
_chemical_formula_sum   'Eu8 B8 O20'
_cell_volume   498.50577176
_cell_formula_units_Z   4
loop_
 _symmetry_equiv_pos_site_id
 _symmetry_equiv_pos_as_xyz
  1  'x, y, z'
loop_
 _atom_site_type_symbol
 _atom_site_label
 _atom_site_symmetry_multiplicity
 _atom_site_fract_x
 _atom_site_fract_y
 _atom_site_fract_z
 _atom_site_occupancy
  Eu  Eu0  1  0.40925600  0.87720700  0.83848600  1
  Eu  Eu1  1  0.59074400  0.12279300  0.16151400  1
  Eu  Eu2  1  0.90925600  0.12279300  0.66151400  1
  Eu  Eu3  1  0.09074400  0.87720700  0.33848600  1
  Eu  Eu4  1  0.94912600  0.61681400  0.63351800  1
  Eu  Eu5  1  0.05087400  0.38318600  0.36648200  1
  Eu  Eu6  1  0.44912600  0.38318600  0.86648200  1
  Eu  Eu7  1  0.55087400  0.61681400  0.13351800  1
  B  B8  1  0.44999800  0.33901900  0.58423900  1
  B  B9  1  0.55000200  0.66098100  0.41576100  1
  B  B10  1  0.94999800  0.66098100  0.91576100  1
  B  B11  1  0.05000200  0.33901900  0.08423900  1
  B  B12  1  0.42739800  0.83970400  0.59435300  1
  B  B13  1  0.57260200  0.16029600  0.40564700  1
  B  B14  1  0.92739800  0.16029600  0.90564700  1
  B  B15  1  0.07260200  0.83970400  0.09435300  1
  O  O16  1  0.20678700  0.89205600  0.63978000  1
  O  O17  1  0.79321300  0.10794400  0.36022000  1
  O  O18  1  0.70678700  0.10794400  0.86022000  1
  O  O19  1  0.29321300  0.89205600  0.13978000  1
  O  O20  1  0.64876300  0.85784900  0.64870200  1
  O  O21  1  0.35123700  0.14215100  0.35129800  1
  O  O22  1  0.14876300  0.14215100  0.85129800  1
  O  O23  1  0.85123700  0.85784900  0.14870200  1
  O  O24  1  0.09951100  0.75457800  0.99253400  1
  O  O25  1  0.90048900  0.24542200  0.00746600  1
  O  O26  1  0.59951100  0.24542200  0.50746600  1
  O  O27  1  0.40048900  0.75457800  0.49253400  1
  O  O28  1  0.19739000  0.35520600  0.57125700  1
  O  O29  1  0.80261000  0.64479400  0.42874300  1
  O  O30  1  0.69739000  0.64479400  0.92874300  1
  O  O31  1  0.30261000  0.35520600  0.07125700  1
  O  O32  1  0.09139300  0.59902400  0.83107200  1
  O  O33  1  0.90860700  0.40097600  0.16892800  1
  O  O34  1  0.59139300  0.40097600  0.66892800  1
  O  O35  1  0.40860700  0.59902400  0.33107200  1
