# generated using pymatgen
data_NaCoP2HO7
_symmetry_space_group_name_H-M   'P 1'
_cell_length_a   6.60926791
_cell_length_b   6.74614000
_cell_length_c   12.22092853
_cell_angle_alpha   97.60094478
_cell_angle_beta   91.03656730
_cell_angle_gamma   84.53623404
_symmetry_Int_Tables_number   1
_chemical_formula_structural   NaCoP2HO7
_chemical_formula_sum   'Na4 Co4 P8 H4 O28'
_cell_volume   537.64505534
_cell_formula_units_Z   4
loop_
 _symmetry_equiv_pos_site_id
 _symmetry_equiv_pos_as_xyz
  1  'x, y, z'
loop_
 _atom_site_type_symbol
 _atom_site_label
 _atom_site_symmetry_multiplicity
 _atom_site_fract_x
 _atom_site_fract_y
 _atom_site_fract_z
 _atom_site_occupancy
  Na  Na0  1  0.61809700  0.37149300  0.11848900  1
  Na  Na1  1  0.61804200  0.87148800  0.61845900  1
  Na  Na2  1  0.33744300  0.10809200  0.34391600  1
  Na  Na3  1  0.33751200  0.60816200  0.84398000  1
  Co  Co4  1  0.14917900  0.25673300  0.64057300  1
  Co  Co5  1  0.85164900  0.74071700  0.35644200  1
  Co  Co6  1  0.14916400  0.75667900  0.14053900  1
  Co  Co7  1  0.85164200  0.24050300  0.85632500  1
  P  P8  1  0.11834800  0.21900200  0.08102500  1
  P  P9  1  0.11846800  0.71901100  0.58103800  1
  P  P10  1  0.88007300  0.28186300  0.41883000  1
  P  P11  1  0.88002700  0.78185200  0.91882600  1
  P  P12  1  0.64347500  0.84763200  0.13079000  1
  P  P13  1  0.64347500  0.34776500  0.63079500  1
  P  P14  1  0.35612100  0.65121400  0.36921500  1
  P  P15  1  0.35613000  0.15116500  0.86924100  1
  H  H16  1  0.28759900  0.41613100  0.21616700  1
  H  H17  1  0.28773300  0.91603800  0.71621600  1
  H  H18  1  0.71229500  0.08912400  0.28584200  1
  H  H19  1  0.71233100  0.58920900  0.78584200  1
  O  O20  1  0.20910800  0.41740600  0.13554200  1
  O  O21  1  0.20930900  0.91734100  0.63554600  1
  O  O22  1  0.79208500  0.08281600  0.36247100  1
  O  O23  1  0.79197700  0.58285700  0.86245200  1
  O  O24  1  0.59026500  0.06033000  0.19088600  1
  O  O25  1  0.59022300  0.56046000  0.69084600  1
  O  O26  1  0.40311400  0.43895700  0.30700700  1
  O  O27  1  0.40327700  0.93888400  0.80707200  1
  O  O28  1  0.82983700  0.73853300  0.18405500  1
  O  O29  1  0.82989200  0.23878100  0.68408300  1
  O  O30  1  0.17406300  0.76668200  0.31558700  1
  O  O31  1  0.17399600  0.26647000  0.81554300  1
  O  O32  1  0.11349700  0.07213600  0.16414800  1
  O  O33  1  0.11343200  0.57215000  0.66415300  1
  O  O34  1  0.88997400  0.42939700  0.33695600  1
  O  O35  1  0.89002800  0.92935500  0.83693400  1
  O  O36  1  0.46616800  0.71747400  0.11516600  1
  O  O37  1  0.46625000  0.21751300  0.61521500  1
  O  O38  1  0.53607200  0.77770300  0.38807200  1
  O  O39  1  0.53597800  0.27778400  0.88807700  1
  O  O40  1  0.71293500  0.88225800  0.00886900  1
  O  O41  1  0.71294800  0.38224700  0.50885000  1
  O  O42  1  0.28462600  0.61604800  0.49051700  1
  O  O43  1  0.28457500  0.11603500  0.99054400  1
  O  O44  1  0.92184600  0.27730300  0.02179300  1
  O  O45  1  0.92196400  0.77745400  0.52183800  1
  O  O46  1  0.07669500  0.21934000  0.47712800  1
  O  O47  1  0.07666400  0.71941000  0.97710000  1
