# generated using pymatgen
data_RbLiZn2O3
_symmetry_space_group_name_H-M   'P 1'
_cell_length_a   10.49877300
_cell_length_b   10.49877300
_cell_length_c   3.47434600
_cell_angle_alpha   90.00000000
_cell_angle_beta   90.00000000
_cell_angle_gamma   90.00000000
_symmetry_Int_Tables_number   1
_chemical_formula_structural   RbLiZn2O3
_chemical_formula_sum   'Rb4 Li4 Zn8 O12'
_cell_volume   382.95712826
_cell_formula_units_Z   4
loop_
 _symmetry_equiv_pos_site_id
 _symmetry_equiv_pos_as_xyz
  1  'x, y, z'
loop_
 _atom_site_type_symbol
 _atom_site_label
 _atom_site_symmetry_multiplicity
 _atom_site_fract_x
 _atom_site_fract_y
 _atom_site_fract_z
 _atom_site_occupancy
  Rb  Rb0  1  0.39028900  0.39028900  0.00000000  1
  Rb  Rb1  1  0.89028900  0.10971100  0.50000000  1
  Rb  Rb2  1  0.10971100  0.89028900  0.50000000  1
  Rb  Rb3  1  0.60971100  0.60971100  0.00000000  1
  Li  Li4  1  0.79837200  0.79837200  0.50000000  1
  Li  Li5  1  0.20162800  0.20162800  0.50000000  1
  Li  Li6  1  0.29837200  0.70162800  0.00000000  1
  Li  Li7  1  0.70162800  0.29837200  0.00000000  1
  Zn  Zn8  1  0.32834900  0.07310200  0.00000000  1
  Zn  Zn9  1  0.67165100  0.92689800  0.00000000  1
  Zn  Zn10  1  0.42689800  0.82834900  0.50000000  1
  Zn  Zn11  1  0.57310200  0.17165100  0.50000000  1
  Zn  Zn12  1  0.07310200  0.32834900  0.00000000  1
  Zn  Zn13  1  0.82834900  0.42689800  0.50000000  1
  Zn  Zn14  1  0.17165100  0.57310200  0.50000000  1
  Zn  Zn15  1  0.92689800  0.67165100  0.00000000  1
  O  O16  1  0.38615000  0.15530000  0.50000000  1
  O  O17  1  0.84470000  0.61385000  0.50000000  1
  O  O18  1  0.15530000  0.38615000  0.50000000  1
  O  O19  1  0.88615000  0.34470000  0.00000000  1
  O  O20  1  0.85837800  0.85837800  0.00000000  1
  O  O21  1  0.35837800  0.64162200  0.50000000  1
  O  O22  1  0.64162200  0.35837800  0.50000000  1
  O  O23  1  0.14162200  0.14162200  0.00000000  1
  O  O24  1  0.61385000  0.84470000  0.50000000  1
  O  O25  1  0.65530000  0.11385000  0.00000000  1
  O  O26  1  0.34470000  0.88615000  0.00000000  1
  O  O27  1  0.11385000  0.65530000  0.00000000  1
