# generated using pymatgen
data_TbSn2
_symmetry_space_group_name_H-M   'P 1'
_cell_length_a   8.49428701
_cell_length_b   8.49428701
_cell_length_c   4.37198900
_cell_angle_alpha   90.00000000
_cell_angle_beta   90.00000000
_cell_angle_gamma   149.66015130
_symmetry_Int_Tables_number   1
_chemical_formula_structural   TbSn2
_chemical_formula_sum   'Tb2 Sn4'
_cell_volume   159.34350047
_cell_formula_units_Z   2
loop_
 _symmetry_equiv_pos_site_id
 _symmetry_equiv_pos_as_xyz
  1  'x, y, z'
loop_
 _atom_site_type_symbol
 _atom_site_label
 _atom_site_symmetry_multiplicity
 _atom_site_fract_x
 _atom_site_fract_y
 _atom_site_fract_z
 _atom_site_occupancy
  Tb  Tb0  1  0.90092500  0.09907500  0.75000000  1
  Tb  Tb1  1  0.09907500  0.90092500  0.25000000  1
  Sn  Sn2  1  0.56321200  0.43678800  0.75000000  1
  Sn  Sn3  1  0.43678800  0.56321200  0.25000000  1
  Sn  Sn4  1  0.25096400  0.74903600  0.75000000  1
  Sn  Sn5  1  0.74903600  0.25096400  0.25000000  1
