# generated using pymatgen
data_V3GaN
_symmetry_space_group_name_H-M   'P 1'
_cell_length_a   5.32268432
_cell_length_b   5.32268432
_cell_length_c   7.88400600
_cell_angle_alpha   90.00000000
_cell_angle_beta   90.00000000
_cell_angle_gamma   147.48451554
_symmetry_Int_Tables_number   1
_chemical_formula_structural   V3GaN
_chemical_formula_sum   'V6 Ga2 N2'
_cell_volume   120.06296648
_cell_formula_units_Z   2
loop_
 _symmetry_equiv_pos_site_id
 _symmetry_equiv_pos_as_xyz
  1  'x, y, z'
loop_
 _atom_site_type_symbol
 _atom_site_label
 _atom_site_symmetry_multiplicity
 _atom_site_fract_x
 _atom_site_fract_y
 _atom_site_fract_z
 _atom_site_occupancy
  V  V0  1  0.96763900  0.03236100  0.25000000  1
  V  V1  1  0.03236100  0.96763900  0.75000000  1
  V  V2  1  0.62540500  0.37459500  0.45506400  1
  V  V3  1  0.37459500  0.62540500  0.54493600  1
  V  V4  1  0.62540500  0.37459500  0.04493600  1
  V  V5  1  0.37459500  0.62540500  0.95506400  1
  Ga  Ga6  1  0.25793200  0.74206800  0.25000000  1
  Ga  Ga7  1  0.74206800  0.25793200  0.75000000  1
  N  N8  1  0.00000000  0.00000000  0.50000000  1
  N  N9  1  0.00000000  0.00000000  0.00000000  1
