# generated using pymatgen
data_Y(Al5Re)2
_symmetry_space_group_name_H-M   'P 1'
_cell_length_a   6.96198208
_cell_length_b   6.96198208
_cell_length_c   26.99943500
_cell_angle_alpha   90.00000000
_cell_angle_beta   90.00000000
_cell_angle_gamma   96.00472403
_symmetry_Int_Tables_number   1
_chemical_formula_structural   Y(Al5Re)2
_chemical_formula_sum   'Y6 Al60 Re12'
_cell_volume   1301.46071224
_cell_formula_units_Z   6
loop_
 _symmetry_equiv_pos_site_id
 _symmetry_equiv_pos_as_xyz
  1  'x, y, z'
loop_
 _atom_site_type_symbol
 _atom_site_label
 _atom_site_symmetry_multiplicity
 _atom_site_fract_x
 _atom_site_fract_y
 _atom_site_fract_z
 _atom_site_occupancy
  Y  Y0  1  0.87591300  0.12408700  0.58474900  1
  Y  Y1  1  0.12408700  0.87591300  0.41525100  1
  Y  Y2  1  0.12408700  0.87591300  0.08474900  1
  Y  Y3  1  0.87591300  0.12408700  0.91525100  1
  Y  Y4  1  0.61867500  0.38132500  0.75000000  1
  Y  Y5  1  0.38132500  0.61867500  0.25000000  1
  Al  Al6  1  0.59546400  0.40453600  0.63312500  1
  Al  Al7  1  0.40453600  0.59546400  0.36687500  1
  Al  Al8  1  0.40453600  0.59546400  0.13312500  1
  Al  Al9  1  0.59546400  0.40453600  0.86687500  1
  Al  Al10  1  0.17988200  0.40302300  0.75000000  1
  Al  Al11  1  0.82011800  0.59697700  0.25000000  1
  Al  Al12  1  0.59697700  0.82011800  0.75000000  1
  Al  Al13  1  0.40302300  0.17988200  0.25000000  1
  Al  Al14  1  0.87500900  0.12499100  0.14586800  1
  Al  Al15  1  0.12499100  0.87500900  0.85413200  1
  Al  Al16  1  0.12499100  0.87500900  0.64586800  1
  Al  Al17  1  0.87500900  0.12499100  0.35413200  1
  Al  Al18  1  0.36993500  0.63006500  0.67746100  1
  Al  Al19  1  0.63006500  0.36993500  0.32253900  1
  Al  Al20  1  0.63006500  0.36993500  0.17746100  1
  Al  Al21  1  0.36993500  0.63006500  0.82253900  1
  Al  Al22  1  0.22805400  0.47152700  0.58068500  1
  Al  Al23  1  0.77194600  0.52847300  0.41931500  1
  Al  Al24  1  0.77194600  0.52847300  0.08068500  1
  Al  Al25  1  0.52847300  0.77194600  0.91931500  1
  Al  Al26  1  0.22805400  0.47152700  0.91931500  1
  Al  Al27  1  0.47152700  0.22805400  0.08068500  1
  Al  Al28  1  0.47152700  0.22805400  0.41931500  1
  Al  Al29  1  0.52847300  0.77194600  0.58068500  1
  Al  Al30  1  0.96170000  0.73982400  0.75000000  1
  Al  Al31  1  0.03830000  0.26017600  0.25000000  1
  Al  Al32  1  0.26017600  0.03830000  0.75000000  1
  Al  Al33  1  0.73982400  0.96170000  0.25000000  1
  Al  Al34  1  0.62233400  0.37766600  0.52194500  1
  Al  Al35  1  0.37766600  0.62233400  0.47805500  1
  Al  Al36  1  0.37766600  0.62233400  0.02194500  1
  Al  Al37  1  0.62233400  0.37766600  0.97805500  1
  Al  Al38  1  0.96950800  0.47512700  0.67108600  1
  Al  Al39  1  0.03049200  0.52487300  0.32891400  1
  Al  Al40  1  0.03049200  0.52487300  0.17108600  1
  Al  Al41  1  0.52487300  0.03049200  0.82891400  1
  Al  Al42  1  0.96950800  0.47512700  0.82891400  1
  Al  Al43  1  0.47512700  0.96950800  0.17108600  1
  Al  Al44  1  0.47512700  0.96950800  0.32891400  1
  Al  Al45  1  0.52487300  0.03049200  0.67108600  1
  Al  Al46  1  0.90755700  0.09244300  0.69995100  1
  Al  Al47  1  0.09244300  0.90755700  0.30004900  1
  Al  Al48  1  0.09244300  0.90755700  0.19995100  1
  Al  Al49  1  0.90755700  0.09244300  0.80004900  1
  Al  Al50  1  0.87632300  0.62077500  0.58303700  1
  Al  Al51  1  0.12367700  0.37922500  0.41696300  1
  Al  Al52  1  0.12367700  0.37922500  0.08303700  1
  Al  Al53  1  0.37922500  0.12367700  0.91696300  1
  Al  Al54  1  0.87632300  0.62077500  0.91696300  1
  Al  Al55  1  0.62077500  0.87632300  0.08303700  1
  Al  Al56  1  0.62077500  0.87632300  0.41696300  1
  Al  Al57  1  0.37922500  0.12367700  0.58303700  1
  Al  Al58  1  0.20717200  0.20717200  0.50000000  1
  Al  Al59  1  0.79282800  0.79282800  0.50000000  1
  Al  Al60  1  0.79282800  0.79282800  0.00000000  1
  Al  Al61  1  0.20717200  0.20717200  0.00000000  1
  Al  Al62  1  0.83455100  0.16544900  0.03415700  1
  Al  Al63  1  0.16544900  0.83455100  0.96584300  1
  Al  Al64  1  0.16544900  0.83455100  0.53415700  1
  Al  Al65  1  0.83455100  0.16544900  0.46584300  1
  Re  Re66  1  0.24941100  0.25504600  0.66320600  1
  Re  Re67  1  0.75058900  0.74495400  0.33679400  1
  Re  Re68  1  0.75058900  0.74495400  0.16320600  1
  Re  Re69  1  0.74495400  0.75058900  0.83679400  1
  Re  Re70  1  0.24941100  0.25504600  0.83679400  1
  Re  Re71  1  0.25504600  0.24941100  0.16320600  1
  Re  Re72  1  0.25504600  0.24941100  0.33679400  1
  Re  Re73  1  0.74495400  0.75058900  0.66320600  1
  Re  Re74  1  0.00000000  0.50000000  0.50000000  1
  Re  Re75  1  0.00000000  0.50000000  0.00000000  1
  Re  Re76  1  0.50000000  0.00000000  0.00000000  1
  Re  Re77  1  0.50000000  0.00000000  0.50000000  1
