# generated using pymatgen
data_Y4UPd15
_symmetry_space_group_name_H-M   'P 1'
_cell_length_a   4.13990000
_cell_length_b   4.13990000
_cell_length_c   20.74993500
_cell_angle_alpha   90.00000000
_cell_angle_beta   90.00000000
_cell_angle_gamma   90.00000000
_symmetry_Int_Tables_number   1
_chemical_formula_structural   Y4UPd15
_chemical_formula_sum   'Y4 U1 Pd15'
_cell_volume   355.62840519
_cell_formula_units_Z   1
loop_
 _symmetry_equiv_pos_site_id
 _symmetry_equiv_pos_as_xyz
  1  'x, y, z'
loop_
 _atom_site_type_symbol
 _atom_site_label
 _atom_site_symmetry_multiplicity
 _atom_site_fract_x
 _atom_site_fract_y
 _atom_site_fract_z
 _atom_site_occupancy
  Y  Y0  1  0.00000000  0.00000000  0.20342400  1
  Y  Y1  1  0.00000000  0.00000000  0.40084600  1
  Y  Y2  1  0.00000000  0.00000000  0.59915400  1
  Y  Y3  1  0.00000000  0.00000000  0.79657600  1
  U  U4  1  0.00000000  0.00000000  0.00000000  1
  Pd  Pd5  1  0.50000000  0.50000000  0.00000000  1
  Pd  Pd6  1  0.50000000  0.50000000  0.19885100  1
  Pd  Pd7  1  0.50000000  0.50000000  0.40005100  1
  Pd  Pd8  1  0.50000000  0.50000000  0.59994900  1
  Pd  Pd9  1  0.50000000  0.50000000  0.80114900  1
  Pd  Pd10  1  0.50000000  0.00000000  0.09603400  1
  Pd  Pd11  1  0.50000000  0.00000000  0.29968600  1
  Pd  Pd12  1  0.50000000  0.00000000  0.50000000  1
  Pd  Pd13  1  0.50000000  0.00000000  0.70031400  1
  Pd  Pd14  1  0.50000000  0.00000000  0.90396600  1
  Pd  Pd15  1  0.00000000  0.50000000  0.09603400  1
  Pd  Pd16  1  0.00000000  0.50000000  0.29968600  1
  Pd  Pd17  1  0.00000000  0.50000000  0.50000000  1
  Pd  Pd18  1  0.00000000  0.50000000  0.70031400  1
  Pd  Pd19  1  0.00000000  0.50000000  0.90396600  1
