# generated using pymatgen
data_Sr4TiN4
_symmetry_space_group_name_H-M   'P 1'
_cell_length_a   6.35585800
_cell_length_b   6.45678685
_cell_length_c   9.35625087
_cell_angle_alpha   72.25975579
_cell_angle_beta   80.08096366
_cell_angle_gamma   67.72072991
_symmetry_Int_Tables_number   1
_chemical_formula_structural   Sr4TiN4
_chemical_formula_sum   'Sr8 Ti2 N8'
_cell_volume   337.70418544
_cell_formula_units_Z   2
loop_
 _symmetry_equiv_pos_site_id
 _symmetry_equiv_pos_as_xyz
  1  'x, y, z'
loop_
 _atom_site_type_symbol
 _atom_site_label
 _atom_site_symmetry_multiplicity
 _atom_site_fract_x
 _atom_site_fract_y
 _atom_site_fract_z
 _atom_site_occupancy
  Sr  Sr0  1  0.78253900  0.56854700  0.16372900  1
  Sr  Sr1  1  0.21746100  0.43145300  0.83627100  1
  Sr  Sr2  1  0.73244500  0.22150000  0.97285000  1
  Sr  Sr3  1  0.26755500  0.77850000  0.02715000  1
  Sr  Sr4  1  0.72576900  0.48796600  0.56951000  1
  Sr  Sr5  1  0.27423100  0.51203400  0.43049000  1
  Sr  Sr6  1  0.22801500  0.95995400  0.61506500  1
  Sr  Sr7  1  0.77198500  0.04004600  0.38493500  1
  Ti  Ti8  1  0.72395400  0.84602800  0.75503300  1
  Ti  Ti9  1  0.27604600  0.15397200  0.24496700  1
  N  N10  1  0.96211600  0.70876800  0.61304700  1
  N  N11  1  0.03788400  0.29123200  0.38695300  1
  N  N12  1  0.90177000  0.82220700  0.91668300  1
  N  N13  1  0.09823000  0.17779300  0.08331700  1
  N  N14  1  0.53416800  0.64934300  0.80783100  1
  N  N15  1  0.46583200  0.35065700  0.19216900  1
  N  N16  1  0.46950500  0.83695900  0.35373800  1
  N  N17  1  0.53049500  0.16304100  0.64626200  1
