# generated using pymatgen
data_NiTeSe
_symmetry_space_group_name_H-M   'P 1'
_cell_length_a   3.76764091
_cell_length_b   3.76764091
_cell_length_c   5.05442300
_cell_angle_alpha   90.00000000
_cell_angle_beta   90.00000000
_cell_angle_gamma   120.00001593
_symmetry_Int_Tables_number   1
_chemical_formula_structural   NiTeSe
_chemical_formula_sum   'Ni1 Te1 Se1'
_cell_volume   62.13569409
_cell_formula_units_Z   1
loop_
 _symmetry_equiv_pos_site_id
 _symmetry_equiv_pos_as_xyz
  1  'x, y, z'
loop_
 _atom_site_type_symbol
 _atom_site_label
 _atom_site_symmetry_multiplicity
 _atom_site_fract_x
 _atom_site_fract_y
 _atom_site_fract_z
 _atom_site_occupancy
  Ni  Ni0  1  0.00000000  0.00000000  0.01302300  1
  Te  Te1  1  0.66666700  0.33333300  0.74732000  1
  Se  Se2  1  0.33333300  0.66666700  0.23965700  1
