# generated using pymatgen
data_YbEu3O6
_symmetry_space_group_name_H-M   'P 1'
_cell_length_a   9.42300591
_cell_length_b   9.42300591
_cell_length_c   9.42300591
_cell_angle_alpha   109.47122063
_cell_angle_beta   109.47122063
_cell_angle_gamma   109.47122063
_symmetry_Int_Tables_number   1
_chemical_formula_structural   YbEu3O6
_chemical_formula_sum   'Yb4 Eu12 O24'
_cell_volume   644.08991638
_cell_formula_units_Z   4
loop_
 _symmetry_equiv_pos_site_id
 _symmetry_equiv_pos_as_xyz
  1  'x, y, z'
loop_
 _atom_site_type_symbol
 _atom_site_label
 _atom_site_symmetry_multiplicity
 _atom_site_fract_x
 _atom_site_fract_y
 _atom_site_fract_z
 _atom_site_occupancy
  Yb  Yb0  1  0.50000000  0.50000000  0.50000000  1
  Yb  Yb1  1  0.00000000  0.50000000  0.00000000  1
  Yb  Yb2  1  0.00000000  0.00000000  0.50000000  1
  Yb  Yb3  1  0.50000000  0.00000000  0.00000000  1
  Eu  Eu4  1  0.21822300  0.96822300  0.25000000  1
  Eu  Eu5  1  0.78177700  0.03177700  0.75000000  1
  Eu  Eu6  1  0.28177700  0.53177700  0.75000000  1
  Eu  Eu7  1  0.96822300  0.25000000  0.21822300  1
  Eu  Eu8  1  0.71822300  0.46822300  0.25000000  1
  Eu  Eu9  1  0.03177700  0.75000000  0.78177700  1
  Eu  Eu10  1  0.53177700  0.75000000  0.28177700  1
  Eu  Eu11  1  0.46822300  0.25000000  0.71822300  1
  Eu  Eu12  1  0.25000000  0.21822300  0.96822300  1
  Eu  Eu13  1  0.75000000  0.78177700  0.03177700  1
  Eu  Eu14  1  0.75000000  0.28177700  0.53177700  1
  Eu  Eu15  1  0.25000000  0.71822300  0.46822300  1
  O  O16  1  0.04241200  0.26932300  0.00857800  1
  O  O17  1  0.95758800  0.73067700  0.99142200  1
  O  O18  1  0.45758800  0.46616700  0.22691100  1
  O  O19  1  0.73925600  0.23067700  0.27308900  1
  O  O20  1  0.26932300  0.00857800  0.04241200  1
  O  O21  1  0.54241200  0.53383300  0.77308900  1
  O  O22  1  0.26074400  0.76932300  0.72691100  1
  O  O23  1  0.73067700  0.99142200  0.95758800  1
  O  O24  1  0.76074400  0.03383300  0.49142200  1
  O  O25  1  0.46616700  0.22691100  0.45758800  1
  O  O26  1  0.23925600  0.96616700  0.50857800  1
  O  O27  1  0.53383300  0.77308900  0.54241200  1
  O  O28  1  0.23067700  0.27308900  0.73925600  1
  O  O29  1  0.76932300  0.72691100  0.26074400  1
  O  O30  1  0.03383300  0.49142200  0.76074400  1
  O  O31  1  0.96616700  0.50857800  0.23925600  1
  O  O32  1  0.00857800  0.04241200  0.26932300  1
  O  O33  1  0.99142200  0.95758800  0.73067700  1
  O  O34  1  0.27308900  0.73925600  0.23067700  1
  O  O35  1  0.72691100  0.26074400  0.76932300  1
  O  O36  1  0.49142200  0.76074400  0.03383300  1
  O  O37  1  0.50857800  0.23925600  0.96616700  1
  O  O38  1  0.22691100  0.45758800  0.46616700  1
  O  O39  1  0.77308900  0.54241200  0.53383300  1
