# generated using pymatgen
data_GaPd2
_symmetry_space_group_name_H-M   'P 1'
_cell_length_a   4.10256500
_cell_length_b   5.59041300
_cell_length_c   7.90854100
_cell_angle_alpha   90.00000000
_cell_angle_beta   90.00000000
_cell_angle_gamma   90.00000000
_symmetry_Int_Tables_number   1
_chemical_formula_structural   GaPd2
_chemical_formula_sum   'Ga4 Pd8'
_cell_volume   181.38264652
_cell_formula_units_Z   4
loop_
 _symmetry_equiv_pos_site_id
 _symmetry_equiv_pos_as_xyz
  1  'x, y, z'
loop_
 _atom_site_type_symbol
 _atom_site_label
 _atom_site_symmetry_multiplicity
 _atom_site_fract_x
 _atom_site_fract_y
 _atom_site_fract_z
 _atom_site_occupancy
  Ga  Ga0  1  0.75000000  0.20501100  0.39200400  1
  Ga  Ga1  1  0.25000000  0.79498900  0.60799600  1
  Ga  Ga2  1  0.75000000  0.70501100  0.10799600  1
  Ga  Ga3  1  0.25000000  0.29498900  0.89200400  1
  Pd  Pd4  1  0.75000000  0.16423500  0.06641100  1
  Pd  Pd5  1  0.25000000  0.83576500  0.93358900  1
  Pd  Pd6  1  0.75000000  0.66423500  0.43358900  1
  Pd  Pd7  1  0.25000000  0.33576500  0.56641100  1
  Pd  Pd8  1  0.75000000  0.04130600  0.70806500  1
  Pd  Pd9  1  0.25000000  0.95869400  0.29193500  1
  Pd  Pd10  1  0.75000000  0.54130600  0.79193500  1
  Pd  Pd11  1  0.25000000  0.45869400  0.20806500  1
