# generated using pymatgen
data_Sr2ZnWO6
_symmetry_space_group_name_H-M   'P 1'
_cell_length_a   8.05765103
_cell_length_b   8.06256969
_cell_length_c   8.07110056
_cell_angle_alpha   89.99068631
_cell_angle_beta   89.93517161
_cell_angle_gamma   90.00190153
_symmetry_Int_Tables_number   1
_chemical_formula_structural   Sr2ZnWO6
_chemical_formula_sum   'Sr8 Zn4 W4 O24'
_cell_volume   524.34171545
_cell_formula_units_Z   4
loop_
 _symmetry_equiv_pos_site_id
 _symmetry_equiv_pos_as_xyz
  1  'x, y, z'
loop_
 _atom_site_type_symbol
 _atom_site_label
 _atom_site_symmetry_multiplicity
 _atom_site_fract_x
 _atom_site_fract_y
 _atom_site_fract_z
 _atom_site_occupancy
  Sr  Sr0  1  0.74954700  0.49142600  0.49025800  1
  Sr  Sr1  1  0.25045300  0.50857400  0.50974200  1
  Sr  Sr2  1  0.75059200  0.99119800  0.48699200  1
  Sr  Sr3  1  0.24940800  0.00880200  0.51300800  1
  Sr  Sr4  1  0.74964500  0.49094300  0.98668400  1
  Sr  Sr5  1  0.25035500  0.50905700  0.01331600  1
  Sr  Sr6  1  0.25098200  0.01759200  0.00914000  1
  Sr  Sr7  1  0.74901800  0.98240800  0.99086000  1
  Zn  Zn8  1  0.99977000  0.24850500  0.75143800  1
  Zn  Zn9  1  0.00023000  0.75149500  0.24856200  1
  Zn  Zn10  1  0.50101300  0.25141200  0.25059200  1
  Zn  Zn11  1  0.49898700  0.74858800  0.74940800  1
  W  W12  1  0.00028400  0.25228500  0.25043500  1
  W  W13  1  0.99971600  0.74771500  0.74956500  1
  W  W14  1  0.50158800  0.24831500  0.75062800  1
  W  W15  1  0.49841200  0.75168500  0.24937200  1
  O  O16  1  0.96774000  0.01357100  0.21837800  1
  O  O17  1  0.03226000  0.98642900  0.78162200  1
  O  O18  1  0.03038500  0.28039300  0.01151400  1
  O  O19  1  0.96961500  0.71960700  0.98848600  1
  O  O20  1  0.03309800  0.49063200  0.28031600  1
  O  O21  1  0.96690200  0.50936800  0.71968400  1
  O  O22  1  0.97234600  0.22155600  0.49031200  1
  O  O23  1  0.02765400  0.77844400  0.50968800  1
  O  O24  1  0.76123400  0.28963900  0.22895400  1
  O  O25  1  0.23876600  0.71036100  0.77104600  1
  O  O26  1  0.74013900  0.22012600  0.78516400  1
  O  O27  1  0.25986100  0.77987400  0.21483600  1
  O  O28  1  0.76055900  0.78261100  0.72468200  1
  O  O29  1  0.23944100  0.21738900  0.27531800  1
  O  O30  1  0.52996800  0.99098700  0.22461900  1
  O  O31  1  0.47003200  0.00901300  0.77538100  1
  O  O32  1  0.47032600  0.27730700  0.99017200  1
  O  O33  1  0.52967400  0.72269300  0.00982800  1
  O  O34  1  0.53175700  0.22324700  0.51111200  1
  O  O35  1  0.46824300  0.77675300  0.48888800  1
  O  O36  1  0.46684500  0.51249800  0.27446300  1
  O  O37  1  0.53315500  0.48750200  0.72553700  1
  O  O38  1  0.73812100  0.72760200  0.28157200  1
  O  O39  1  0.26187900  0.27239800  0.71842800  1
