# generated using pymatgen
data_YbSiPd
_symmetry_space_group_name_H-M   'P 1'
_cell_length_a   4.42087600
_cell_length_b   7.10476200
_cell_length_c   7.19473900
_cell_angle_alpha   90.00000000
_cell_angle_beta   90.00000000
_cell_angle_gamma   90.00000000
_symmetry_Int_Tables_number   1
_chemical_formula_structural   YbSiPd
_chemical_formula_sum   'Yb4 Si4 Pd4'
_cell_volume   225.98151286
_cell_formula_units_Z   4
loop_
 _symmetry_equiv_pos_site_id
 _symmetry_equiv_pos_as_xyz
  1  'x, y, z'
loop_
 _atom_site_type_symbol
 _atom_site_label
 _atom_site_symmetry_multiplicity
 _atom_site_fract_x
 _atom_site_fract_y
 _atom_site_fract_z
 _atom_site_occupancy
  Yb  Yb0  1  0.25000000  0.49388700  0.18420800  1
  Yb  Yb1  1  0.75000000  0.50611300  0.81579200  1
  Yb  Yb2  1  0.75000000  0.00611300  0.68420800  1
  Yb  Yb3  1  0.25000000  0.99388700  0.31579200  1
  Si  Si4  1  0.25000000  0.80557900  0.89647100  1
  Si  Si5  1  0.75000000  0.19442100  0.10352900  1
  Si  Si6  1  0.75000000  0.69442100  0.39647100  1
  Si  Si7  1  0.25000000  0.30557900  0.60352900  1
  Pd  Pd8  1  0.25000000  0.65944700  0.57573400  1
  Pd  Pd9  1  0.75000000  0.34055300  0.42426600  1
  Pd  Pd10  1  0.75000000  0.84055300  0.07573400  1
  Pd  Pd11  1  0.25000000  0.15944700  0.92426600  1
