# generated using pymatgen
data_BaUPO6F
_symmetry_space_group_name_H-M   'P 1'
_cell_length_a   6.72567400
_cell_length_b   8.37860500
_cell_length_c   11.17272276
_cell_angle_alpha   90.00000000
_cell_angle_beta   92.33373825
_cell_angle_gamma   90.00000000
_symmetry_Int_Tables_number   1
_chemical_formula_structural   BaUPO6F
_chemical_formula_sum   'Ba4 U4 P4 O24 F4'
_cell_volume   629.08045808
_cell_formula_units_Z   4
loop_
 _symmetry_equiv_pos_site_id
 _symmetry_equiv_pos_as_xyz
  1  'x, y, z'
loop_
 _atom_site_type_symbol
 _atom_site_label
 _atom_site_symmetry_multiplicity
 _atom_site_fract_x
 _atom_site_fract_y
 _atom_site_fract_z
 _atom_site_occupancy
  Ba  Ba0  1  0.83854300  0.26829600  0.50771400  1
  Ba  Ba1  1  0.16145700  0.76829600  0.99228600  1
  Ba  Ba2  1  0.16145700  0.73170400  0.49228600  1
  Ba  Ba3  1  0.83854300  0.23170400  0.00771400  1
  U  U4  1  0.39285000  0.38139500  0.76276600  1
  U  U5  1  0.60715000  0.88139500  0.73723400  1
  U  U6  1  0.60715000  0.61860500  0.23723400  1
  U  U7  1  0.39285000  0.11860500  0.26276600  1
  P  P8  1  0.90711500  0.53417100  0.76546300  1
  P  P9  1  0.09288500  0.03417100  0.73453700  1
  P  P10  1  0.09288500  0.46582900  0.23453700  1
  P  P11  1  0.90711500  0.96582900  0.26546300  1
  O  O12  1  0.84826000  0.70354300  0.81026100  1
  O  O13  1  0.15174000  0.20354300  0.68973900  1
  O  O14  1  0.15174000  0.29645700  0.18973900  1
  O  O15  1  0.84826000  0.79645700  0.31026100  1
  O  O16  1  0.09118900  0.48155100  0.84658800  1
  O  O17  1  0.90881100  0.98155100  0.65341200  1
  O  O18  1  0.90881100  0.51844900  0.15341200  1
  O  O19  1  0.09118900  0.01844900  0.34658800  1
  O  O20  1  0.73650700  0.41362200  0.79074200  1
  O  O21  1  0.26349300  0.91362200  0.70925800  1
  O  O22  1  0.26349300  0.58637800  0.20925800  1
  O  O23  1  0.73650700  0.08637800  0.29074200  1
  O  O24  1  0.95274300  0.53451200  0.63278400  1
  O  O25  1  0.04725700  0.03451200  0.86721600  1
  O  O26  1  0.04725700  0.46548800  0.36721600  1
  O  O27  1  0.95274300  0.96548800  0.13278400  1
  O  O28  1  0.38549000  0.47178600  0.61461800  1
  O  O29  1  0.61451000  0.97178600  0.88538200  1
  O  O30  1  0.61451000  0.52821400  0.38538200  1
  O  O31  1  0.38549000  0.02821400  0.11461800  1
  O  O32  1  0.42156200  0.29078300  0.90998800  1
  O  O33  1  0.57843800  0.79078300  0.59001200  1
  O  O34  1  0.57843800  0.70921700  0.09001200  1
  O  O35  1  0.42156200  0.20921700  0.40998800  1
  F  F36  1  0.44046500  0.65435600  0.82282800  1
  F  F37  1  0.55953500  0.15435600  0.67717200  1
  F  F38  1  0.55953500  0.34564400  0.17717200  1
  F  F39  1  0.44046500  0.84564400  0.32282800  1
