# generated using pymatgen
data_Eu2VO4
_symmetry_space_group_name_H-M   'P 1'
_cell_length_a   3.86641201
_cell_length_b   3.86641220
_cell_length_c   6.84094631
_cell_angle_alpha   106.41504812
_cell_angle_beta   106.41504925
_cell_angle_gamma   90.00000294
_symmetry_Int_Tables_number   1
_chemical_formula_structural   Eu2VO4
_chemical_formula_sum   'Eu2 V1 O4'
_cell_volume   93.74432273
_cell_formula_units_Z   1
loop_
 _symmetry_equiv_pos_site_id
 _symmetry_equiv_pos_as_xyz
  1  'x, y, z'
loop_
 _atom_site_type_symbol
 _atom_site_label
 _atom_site_symmetry_multiplicity
 _atom_site_fract_x
 _atom_site_fract_y
 _atom_site_fract_z
 _atom_site_occupancy
  Eu  Eu0  1  0.64541600  0.64541500  0.29083100  1
  Eu  Eu1  1  0.35458400  0.35458500  0.70916900  1
  V  V2  1  0.00000000  0.00000000  0.00000000  1
  O  O3  1  0.83191500  0.83191600  0.66383100  1
  O  O4  1  0.16808400  0.16808500  0.33616800  1
  O  O5  1  0.00000100  0.49999900  0.00000000  1
  O  O6  1  0.50000100  0.00000000  0.00000100  1
