# generated using pymatgen
data_NdGaPd2
_symmetry_space_group_name_H-M   'P 1'
_cell_length_a   5.78279600
_cell_length_b   7.15049500
_cell_length_c   7.58460300
_cell_angle_alpha   90.00000000
_cell_angle_beta   90.00000000
_cell_angle_gamma   90.00000000
_symmetry_Int_Tables_number   1
_chemical_formula_structural   NdGaPd2
_chemical_formula_sum   'Nd4 Ga4 Pd8'
_cell_volume   313.62222582
_cell_formula_units_Z   4
loop_
 _symmetry_equiv_pos_site_id
 _symmetry_equiv_pos_as_xyz
  1  'x, y, z'
loop_
 _atom_site_type_symbol
 _atom_site_label
 _atom_site_symmetry_multiplicity
 _atom_site_fract_x
 _atom_site_fract_y
 _atom_site_fract_z
 _atom_site_occupancy
  Nd  Nd0  1  0.34972400  0.75000000  0.03306800  1
  Nd  Nd1  1  0.15027600  0.75000000  0.53306800  1
  Nd  Nd2  1  0.65027600  0.25000000  0.96693200  1
  Nd  Nd3  1  0.84972400  0.25000000  0.46693200  1
  Ga  Ga4  1  0.65153400  0.75000000  0.37965700  1
  Ga  Ga5  1  0.84846600  0.75000000  0.87965700  1
  Ga  Ga6  1  0.34846600  0.25000000  0.62034300  1
  Ga  Ga7  1  0.15153400  0.25000000  0.12034300  1
  Pd  Pd8  1  0.91212000  0.55295000  0.17709400  1
  Pd  Pd9  1  0.58788000  0.94705000  0.67709400  1
  Pd  Pd10  1  0.08788000  0.05295000  0.82290600  1
  Pd  Pd11  1  0.41212000  0.44705000  0.32290600  1
  Pd  Pd12  1  0.08788000  0.44705000  0.82290600  1
  Pd  Pd13  1  0.41212000  0.05295000  0.32290600  1
  Pd  Pd14  1  0.91212000  0.94705000  0.17709400  1
  Pd  Pd15  1  0.58788000  0.55295000  0.67709400  1
