# generated using pymatgen
data_HoGe
_symmetry_space_group_name_H-M   'P 1'
_cell_length_a   5.75727724
_cell_length_b   5.75727724
_cell_length_c   3.94558200
_cell_angle_alpha   90.00000000
_cell_angle_beta   90.00000000
_cell_angle_gamma   136.42303482
_symmetry_Int_Tables_number   1
_chemical_formula_structural   HoGe
_chemical_formula_sum   'Ho2 Ge2'
_cell_volume   90.15119721
_cell_formula_units_Z   2
loop_
 _symmetry_equiv_pos_site_id
 _symmetry_equiv_pos_as_xyz
  1  'x, y, z'
loop_
 _atom_site_type_symbol
 _atom_site_label
 _atom_site_symmetry_multiplicity
 _atom_site_fract_x
 _atom_site_fract_y
 _atom_site_fract_z
 _atom_site_occupancy
  Ho  Ho0  1  0.13793300  0.86206700  0.25000000  1
  Ho  Ho1  1  0.86206700  0.13793300  0.75000000  1
  Ge  Ge2  1  0.41374100  0.58625900  0.25000000  1
  Ge  Ge3  1  0.58625900  0.41374100  0.75000000  1
