# generated using pymatgen
data_Cs3SbS3
_symmetry_space_group_name_H-M   'P 1'
_cell_length_a   10.48150000
_cell_length_b   10.48150000
_cell_length_c   10.48150000
_cell_angle_alpha   90.00000000
_cell_angle_beta   90.00000000
_cell_angle_gamma   90.00000000
_symmetry_Int_Tables_number   1
_chemical_formula_structural   Cs3SbS3
_chemical_formula_sum   'Cs12 Sb4 S12'
_cell_volume   1151.51689954
_cell_formula_units_Z   4
loop_
 _symmetry_equiv_pos_site_id
 _symmetry_equiv_pos_as_xyz
  1  'x, y, z'
loop_
 _atom_site_type_symbol
 _atom_site_label
 _atom_site_symmetry_multiplicity
 _atom_site_fract_x
 _atom_site_fract_y
 _atom_site_fract_z
 _atom_site_occupancy
  Cs  Cs0  1  0.44199300  0.94199300  0.55800700  1
  Cs  Cs1  1  0.94199300  0.55800700  0.44199300  1
  Cs  Cs2  1  0.55800700  0.44199300  0.94199300  1
  Cs  Cs3  1  0.05800700  0.05800700  0.05800700  1
  Cs  Cs4  1  0.94057200  0.44057200  0.05942800  1
  Cs  Cs5  1  0.44057200  0.05942800  0.94057200  1
  Cs  Cs6  1  0.05942800  0.94057200  0.44057200  1
  Cs  Cs7  1  0.55942800  0.55942800  0.55942800  1
  Cs  Cs8  1  0.67948300  0.17948300  0.32051700  1
  Cs  Cs9  1  0.17948300  0.32051700  0.67948300  1
  Cs  Cs10  1  0.32051700  0.67948300  0.17948300  1
  Cs  Cs11  1  0.82051700  0.82051700  0.82051700  1
  Sb  Sb12  1  0.22461800  0.72461800  0.77538200  1
  Sb  Sb13  1  0.72461800  0.77538200  0.22461800  1
  Sb  Sb14  1  0.77538200  0.22461800  0.72461800  1
  Sb  Sb15  1  0.27538200  0.27538200  0.27538200  1
  S  S16  1  0.15822200  0.94920400  0.75837200  1
  S  S17  1  0.24162800  0.65822200  0.55079600  1
  S  S18  1  0.44920400  0.74162800  0.84177800  1
  S  S19  1  0.65822200  0.55079600  0.24162800  1
  S  S20  1  0.74162800  0.84177800  0.44920400  1
  S  S21  1  0.94920400  0.75837200  0.15822200  1
  S  S22  1  0.84177800  0.44920400  0.74162800  1
  S  S23  1  0.75837200  0.15822200  0.94920400  1
  S  S24  1  0.55079600  0.24162800  0.65822200  1
  S  S25  1  0.34177800  0.05079600  0.25837200  1
  S  S26  1  0.25837200  0.34177800  0.05079600  1
  S  S27  1  0.05079600  0.25837200  0.34177800  1
