# generated using pymatgen
data_KYBeF6
_symmetry_space_group_name_H-M   'P 1'
_cell_length_a   5.86557200
_cell_length_b   6.46365700
_cell_length_c   7.13354586
_cell_angle_alpha   67.10079816
_cell_angle_beta   90.00000000
_cell_angle_gamma   90.00000000
_symmetry_Int_Tables_number   1
_chemical_formula_structural   KYBeF6
_chemical_formula_sum   'K2 Y2 Be2 F12'
_cell_volume   249.14015705
_cell_formula_units_Z   2
loop_
 _symmetry_equiv_pos_site_id
 _symmetry_equiv_pos_as_xyz
  1  'x, y, z'
loop_
 _atom_site_type_symbol
 _atom_site_label
 _atom_site_symmetry_multiplicity
 _atom_site_fract_x
 _atom_site_fract_y
 _atom_site_fract_z
 _atom_site_occupancy
  K  K0  1  0.25000000  0.07100300  0.79647700  1
  K  K1  1  0.75000000  0.92899700  0.20352300  1
  Y  Y2  1  0.25000000  0.38823100  0.18080500  1
  Y  Y3  1  0.75000000  0.61176900  0.81919500  1
  Be  Be4  1  0.25000000  0.76771500  0.46409400  1
  Be  Be5  1  0.75000000  0.23228500  0.53590600  1
  F  F6  1  0.46480000  0.76799200  0.59455200  1
  F  F7  1  0.53520000  0.23200800  0.40544800  1
  F  F8  1  0.96480000  0.23200800  0.40544800  1
  F  F9  1  0.03520000  0.76799200  0.59455200  1
  F  F10  1  0.25000000  0.55895300  0.40855600  1
  F  F11  1  0.75000000  0.44104700  0.59144400  1
  F  F12  1  0.49885400  0.67969200  0.03437000  1
  F  F13  1  0.50114600  0.32030800  0.96563000  1
  F  F14  1  0.99885400  0.32030800  0.96563000  1
  F  F15  1  0.00114600  0.67969200  0.03437000  1
  F  F16  1  0.25000000  0.98642200  0.26380600  1
  F  F17  1  0.75000000  0.01357800  0.73619400  1
