# generated using pymatgen
data_Rb(SnAs)3
_symmetry_space_group_name_H-M   'P 1'
_cell_length_a   4.18649300
_cell_length_b   10.53158300
_cell_length_c   20.00436000
_cell_angle_alpha   90.00000000
_cell_angle_beta   90.00000000
_cell_angle_gamma   90.00000000
_symmetry_Int_Tables_number   1
_chemical_formula_structural   Rb(SnAs)3
_chemical_formula_sum   'Rb4 Sn12 As12'
_cell_volume   882.00020431
_cell_formula_units_Z   4
loop_
 _symmetry_equiv_pos_site_id
 _symmetry_equiv_pos_as_xyz
  1  'x, y, z'
loop_
 _atom_site_type_symbol
 _atom_site_label
 _atom_site_symmetry_multiplicity
 _atom_site_fract_x
 _atom_site_fract_y
 _atom_site_fract_z
 _atom_site_occupancy
  Rb  Rb0  1  0.75000000  0.28812500  0.95992800  1
  Rb  Rb1  1  0.75000000  0.78812600  0.54007200  1
  Rb  Rb2  1  0.25000000  0.71187400  0.04007200  1
  Rb  Rb3  1  0.25000000  0.21187400  0.45992800  1
  Sn  Sn4  1  0.75000000  0.18093400  0.65172500  1
  Sn  Sn5  1  0.75000000  0.68093400  0.84827500  1
  Sn  Sn6  1  0.25000000  0.81906600  0.34827500  1
  Sn  Sn7  1  0.25000000  0.31906600  0.15172500  1
  Sn  Sn8  1  0.75000000  0.10192300  0.25863300  1
  Sn  Sn9  1  0.75000000  0.60192300  0.24136700  1
  Sn  Sn10  1  0.25000000  0.89807700  0.74136700  1
  Sn  Sn11  1  0.25000000  0.39807700  0.75863300  1
  Sn  Sn12  1  0.75000000  0.97850300  0.12432100  1
  Sn  Sn13  1  0.75000000  0.47850300  0.37567900  1
  Sn  Sn14  1  0.25000000  0.02149700  0.87567900  1
  Sn  Sn15  1  0.25000000  0.52149700  0.62432100  1
  As  As16  1  0.75000000  0.47271300  0.12398600  1
  As  As17  1  0.75000000  0.97271300  0.37601400  1
  As  As18  1  0.25000000  0.52728700  0.87601400  1
  As  As19  1  0.25000000  0.02728700  0.62398600  1
  As  As20  1  0.75000000  0.38073500  0.57209300  1
  As  As21  1  0.75000000  0.88073500  0.92790700  1
  As  As22  1  0.25000000  0.61926500  0.42790700  1
  As  As23  1  0.25000000  0.11926500  0.07209300  1
  As  As24  1  0.75000000  0.23708900  0.78145900  1
  As  As25  1  0.75000000  0.73708900  0.71854100  1
  As  As26  1  0.25000000  0.76291100  0.21854100  1
  As  As27  1  0.25000000  0.26291100  0.28145900  1
