# generated using pymatgen
data_TlPd5Se
_symmetry_space_group_name_H-M   'P 1'
_cell_length_a   4.09882400
_cell_length_b   4.09882400
_cell_length_c   7.23518600
_cell_angle_alpha   90.00000000
_cell_angle_beta   90.00000000
_cell_angle_gamma   90.00000000
_symmetry_Int_Tables_number   1
_chemical_formula_structural   TlPd5Se
_chemical_formula_sum   'Tl1 Pd5 Se1'
_cell_volume   121.55371632
_cell_formula_units_Z   1
loop_
 _symmetry_equiv_pos_site_id
 _symmetry_equiv_pos_as_xyz
  1  'x, y, z'
loop_
 _atom_site_type_symbol
 _atom_site_label
 _atom_site_symmetry_multiplicity
 _atom_site_fract_x
 _atom_site_fract_y
 _atom_site_fract_z
 _atom_site_occupancy
  Tl  Tl0  1  0.50000000  0.50000000  0.00000000  1
  Pd  Pd1  1  0.00000000  0.50000000  0.28614200  1
  Pd  Pd2  1  0.00000000  0.50000000  0.71385800  1
  Pd  Pd3  1  0.50000000  0.00000000  0.28614200  1
  Pd  Pd4  1  0.50000000  0.00000000  0.71385800  1
  Pd  Pd5  1  0.00000000  0.00000000  0.00000000  1
  Se  Se6  1  0.00000000  0.00000000  0.50000000  1
