# generated using pymatgen
data_TmAl
_symmetry_space_group_name_H-M   'P 1'
_cell_length_a   5.55481200
_cell_length_b   5.79450500
_cell_length_c   11.28772500
_cell_angle_alpha   90.00000000
_cell_angle_beta   90.00000000
_cell_angle_gamma   90.00000000
_symmetry_Int_Tables_number   1
_chemical_formula_structural   TmAl
_chemical_formula_sum   'Tm8 Al8'
_cell_volume   363.32236060
_cell_formula_units_Z   8
loop_
 _symmetry_equiv_pos_site_id
 _symmetry_equiv_pos_as_xyz
  1  'x, y, z'
loop_
 _atom_site_type_symbol
 _atom_site_label
 _atom_site_symmetry_multiplicity
 _atom_site_fract_x
 _atom_site_fract_y
 _atom_site_fract_z
 _atom_site_occupancy
  Tm  Tm0  1  0.25000000  0.16067000  0.01764100  1
  Tm  Tm1  1  0.75000000  0.83933000  0.98235900  1
  Tm  Tm2  1  0.75000000  0.16067000  0.48235900  1
  Tm  Tm3  1  0.25000000  0.83933000  0.51764100  1
  Tm  Tm4  1  0.25000000  0.39745300  0.33116700  1
  Tm  Tm5  1  0.75000000  0.60254700  0.66883300  1
  Tm  Tm6  1  0.75000000  0.39745300  0.16883300  1
  Tm  Tm7  1  0.25000000  0.60254700  0.83116700  1
  Al  Al8  1  0.00000000  0.93108500  0.25000000  1
  Al  Al9  1  0.50000000  0.06891500  0.75000000  1
  Al  Al10  1  0.00000000  0.06891500  0.75000000  1
  Al  Al11  1  0.50000000  0.93108500  0.25000000  1
  Al  Al12  1  0.25000000  0.65890400  0.09687500  1
  Al  Al13  1  0.75000000  0.34109600  0.90312500  1
  Al  Al14  1  0.75000000  0.65890400  0.40312500  1
  Al  Al15  1  0.25000000  0.34109600  0.59687500  1
