# generated using pymatgen
data_NiSb3XeF23
_symmetry_space_group_name_H-M   'P 1'
_cell_length_a   10.79359200
_cell_length_b   10.96346200
_cell_length_c   18.97632248
_cell_angle_alpha   55.03159485
_cell_angle_beta   90.00000000
_cell_angle_gamma   90.00000000
_symmetry_Int_Tables_number   1
_chemical_formula_structural   NiSb3XeF23
_chemical_formula_sum   'Ni4 Sb12 Xe4 F92'
_cell_volume   1840.16969991
_cell_formula_units_Z   4
loop_
 _symmetry_equiv_pos_site_id
 _symmetry_equiv_pos_as_xyz
  1  'x, y, z'
loop_
 _atom_site_type_symbol
 _atom_site_label
 _atom_site_symmetry_multiplicity
 _atom_site_fract_x
 _atom_site_fract_y
 _atom_site_fract_z
 _atom_site_occupancy
  Ni  Ni0  1  0.50000000  0.50000000  0.50000000  1
  Ni  Ni1  1  0.00000000  0.50000000  0.00000000  1
  Ni  Ni2  1  0.00000000  0.00000000  0.50000000  1
  Ni  Ni3  1  0.50000000  0.00000000  0.00000000  1
  Sb  Sb4  1  0.70912900  0.21297400  0.49455300  1
  Sb  Sb5  1  0.79087100  0.21297400  0.99455300  1
  Sb  Sb6  1  0.29087100  0.78702600  0.50544700  1
  Sb  Sb7  1  0.20912900  0.78702600  0.00544700  1
  Sb  Sb8  1  0.79408600  0.69466300  0.51090200  1
  Sb  Sb9  1  0.70591400  0.69466300  0.01090200  1
  Sb  Sb10  1  0.20591400  0.30533700  0.48909800  1
  Sb  Sb11  1  0.29408600  0.30533700  0.98909800  1
  Sb  Sb12  1  0.99516200  0.22979300  0.24659700  1
  Sb  Sb13  1  0.50483800  0.22979300  0.74659700  1
  Sb  Sb14  1  0.00483800  0.77020700  0.75340300  1
  Sb  Sb15  1  0.49516200  0.77020700  0.25340300  1
  Xe  Xe16  1  0.94726800  0.79667100  0.24666700  1
  Xe  Xe17  1  0.55273200  0.79667100  0.74666700  1
  Xe  Xe18  1  0.05273200  0.20332900  0.75333300  1
  Xe  Xe19  1  0.44726800  0.20332900  0.25333300  1
  F  F20  1  0.06551700  0.66497800  0.24319100  1
  F  F21  1  0.43448300  0.66497800  0.74319100  1
  F  F22  1  0.93448300  0.33502200  0.75680900  1
  F  F23  1  0.56551700  0.33502200  0.25680900  1
  F  F24  1  0.05125000  0.75226700  0.34338800  1
  F  F25  1  0.44875000  0.75226700  0.84338800  1
  F  F26  1  0.94875000  0.24773300  0.65661200  1
  F  F27  1  0.55125000  0.24773300  0.15661200  1
  F  F28  1  0.87607500  0.80514100  0.14874000  1
  F  F29  1  0.62392500  0.80514100  0.64874000  1
  F  F30  1  0.12392500  0.19485900  0.85126000  1
  F  F31  1  0.37607500  0.19485900  0.35126000  1
  F  F32  1  0.06971700  0.94796000  0.16937000  1
  F  F33  1  0.43028300  0.94796000  0.66937000  1
  F  F34  1  0.93028300  0.05204000  0.83063000  1
  F  F35  1  0.56971700  0.05204000  0.33063000  1
  F  F36  1  0.85918700  0.60721000  0.32317100  1
  F  F37  1  0.64081300  0.60721000  0.82317100  1
  F  F38  1  0.14081300  0.39279000  0.67682900  1
  F  F39  1  0.35918700  0.39279000  0.17682900  1
  F  F40  1  0.58875200  0.36681300  0.47323800  1
  F  F41  1  0.91124800  0.36681300  0.97323800  1
  F  F42  1  0.41124800  0.63318700  0.52676200  1
  F  F43  1  0.08875200  0.63318700  0.02676200  1
  F  F44  1  0.65932600  0.08981300  0.61359700  1
  F  F45  1  0.84067400  0.08981300  0.11359700  1
  F  F46  1  0.34067400  0.91018700  0.38640300  1
  F  F47  1  0.15932600  0.91018700  0.88640300  1
  F  F48  1  0.58726300  0.12000400  0.46925700  1
  F  F49  1  0.91273700  0.12000400  0.96925700  1
  F  F50  1  0.41273700  0.87999600  0.53074300  1
  F  F51  1  0.08726300  0.87999600  0.03074300  1
  F  F52  1  0.83221400  0.05867600  0.51940600  1
  F  F53  1  0.66778600  0.05867600  0.01940600  1
  F  F54  1  0.16778600  0.94132400  0.48059400  1
  F  F55  1  0.33221400  0.94132400  0.98059400  1
  F  F56  1  0.76120700  0.32933100  0.37815900  1
  F  F57  1  0.73879300  0.32933100  0.87815900  1
  F  F58  1  0.23879300  0.67066900  0.62184100  1
  F  F59  1  0.26120700  0.67066900  0.12184100  1
  F  F60  1  0.82867600  0.30393800  0.52319700  1
  F  F61  1  0.67132400  0.30393800  0.02319700  1
  F  F62  1  0.17132400  0.69606200  0.47680300  1
  F  F63  1  0.32867600  0.69606200  0.97680300  1
  F  F64  1  0.66525300  0.55188100  0.52721000  1
  F  F65  1  0.83474700  0.55188100  0.02721000  1
  F  F66  1  0.33474700  0.44811900  0.47279000  1
  F  F67  1  0.16525300  0.44811900  0.97279000  1
  F  F68  1  0.91997500  0.55539900  0.53703900  1
  F  F69  1  0.58002500  0.55539900  0.03703900  1
  F  F70  1  0.08002500  0.44460100  0.46296100  1
  F  F71  1  0.41997500  0.44460100  0.96296100  1
  F  F72  1  0.80619000  0.76772200  0.39161600  1
  F  F73  1  0.69381000  0.76772200  0.89161600  1
  F  F74  1  0.19381000  0.23227800  0.60838400  1
  F  F75  1  0.30619000  0.23227800  0.10838400  1
  F  F76  1  0.91990000  0.84247500  0.49152300  1
  F  F77  1  0.58010000  0.84247500  0.99152300  1
  F  F78  1  0.08010000  0.15752500  0.50847700  1
  F  F79  1  0.41990000  0.15752500  0.00847700  1
  F  F80  1  0.66753200  0.83599500  0.48118000  1
  F  F81  1  0.83246800  0.83599500  0.98118000  1
  F  F82  1  0.33246800  0.16400500  0.51882000  1
  F  F83  1  0.16753200  0.16400500  0.01882000  1
  F  F84  1  0.78418500  0.62499200  0.62803100  1
  F  F85  1  0.71581500  0.62499200  0.12803100  1
  F  F86  1  0.21581500  0.37500800  0.37196900  1
  F  F87  1  0.28418500  0.37500800  0.87196900  1
  F  F88  1  0.97830700  0.14368600  0.36977100  1
  F  F89  1  0.52169300  0.14368600  0.86977100  1
  F  F90  1  0.02169300  0.85631400  0.63022900  1
  F  F91  1  0.47830700  0.85631400  0.13022900  1
  F  F92  1  0.96424000  0.03720900  0.26967800  1
  F  F93  1  0.53576000  0.03720900  0.76967800  1
  F  F94  1  0.03576000  0.96279100  0.73032200  1
  F  F95  1  0.46424000  0.96279100  0.23032200  1
  F  F96  1  0.16742500  0.17830800  0.26492600  1
  F  F97  1  0.33257500  0.17830800  0.76492600  1
  F  F98  1  0.83257500  0.82169200  0.73507400  1
  F  F99  1  0.66742500  0.82169200  0.23507400  1
  F  F100  1  0.01753800  0.31646600  0.12330500  1
  F  F101  1  0.48246200  0.31646600  0.62330500  1
  F  F102  1  0.98246200  0.68353400  0.87669500  1
  F  F103  1  0.51753800  0.68353400  0.37669500  1
  F  F104  1  0.02930200  0.41898800  0.22291500  1
  F  F105  1  0.47069800  0.41898800  0.72291500  1
  F  F106  1  0.97069800  0.58101200  0.77708500  1
  F  F107  1  0.52930200  0.58101200  0.27708500  1
  F  F108  1  0.82322000  0.26834300  0.22888500  1
  F  F109  1  0.67678000  0.26834300  0.72888500  1
  F  F110  1  0.17678000  0.73165700  0.77111500  1
  F  F111  1  0.32322000  0.73165700  0.27111500  1
