# generated using pymatgen
data_Cs3ErO3
_symmetry_space_group_name_H-M   'P 1'
_cell_length_a   12.27262018
_cell_length_b   7.63116400
_cell_length_c   8.32027236
_cell_angle_alpha   90.00000000
_cell_angle_beta   95.51295456
_cell_angle_gamma   90.00000000
_symmetry_Int_Tables_number   1
_chemical_formula_structural   Cs3ErO3
_chemical_formula_sum   'Cs12 Er4 O12'
_cell_volume   775.62560065
_cell_formula_units_Z   4
loop_
 _symmetry_equiv_pos_site_id
 _symmetry_equiv_pos_as_xyz
  1  'x, y, z'
loop_
 _atom_site_type_symbol
 _atom_site_label
 _atom_site_symmetry_multiplicity
 _atom_site_fract_x
 _atom_site_fract_y
 _atom_site_fract_z
 _atom_site_occupancy
  Cs  Cs0  1  0.07868200  0.33226600  0.64711200  1
  Cs  Cs1  1  0.15456300  0.62059000  0.06318400  1
  Cs  Cs2  1  0.19158600  0.80892900  0.62304600  1
  Cs  Cs3  1  0.30841400  0.30892900  0.37695400  1
  Cs  Cs4  1  0.34543700  0.12058900  0.93681600  1
  Cs  Cs5  1  0.42131800  0.83226600  0.35288800  1
  Cs  Cs6  1  0.57868200  0.16773400  0.64711200  1
  Cs  Cs7  1  0.65456300  0.87941000  0.06318400  1
  Cs  Cs8  1  0.69158600  0.69107100  0.62304600  1
  Cs  Cs9  1  0.80841400  0.19107100  0.37695400  1
  Cs  Cs10  1  0.84543700  0.37941000  0.93681600  1
  Cs  Cs11  1  0.92131800  0.66773400  0.35288800  1
  Er  Er12  1  0.06603300  0.08556800  0.15764000  1
  Er  Er13  1  0.43396700  0.58556800  0.84236000  1
  Er  Er14  1  0.56603300  0.41443200  0.15764000  1
  Er  Er15  1  0.93396700  0.91443200  0.84236000  1
  O  O16  1  0.04285900  0.34358800  0.24530000  1
  O  O17  1  0.08889100  0.05214500  0.89959200  1
  O  O18  1  0.18468900  0.94291400  0.30349100  1
  O  O19  1  0.31531100  0.44291400  0.69650900  1
  O  O20  1  0.41110900  0.55214500  0.10040800  1
  O  O21  1  0.45714100  0.84358800  0.75470000  1
  O  O22  1  0.54285900  0.15641200  0.24530000  1
  O  O23  1  0.58889100  0.44785500  0.89959200  1
  O  O24  1  0.68468900  0.55708600  0.30349100  1
  O  O25  1  0.81531100  0.05708600  0.69650900  1
  O  O26  1  0.91110900  0.94785500  0.10040800  1
  O  O27  1  0.95714100  0.65641200  0.75470000  1
