# generated using pymatgen
data_Fe(BW)2
_symmetry_space_group_name_H-M   'P 1'
_cell_length_a   4.54089032
_cell_length_b   4.54089032
_cell_length_c   4.54089032
_cell_angle_alpha   139.03529976
_cell_angle_beta   119.37140109
_cell_angle_gamma   75.78374189
_symmetry_Int_Tables_number   1
_chemical_formula_structural   Fe(BW)2
_chemical_formula_sum   'Fe1 B2 W2'
_cell_volume   52.20257884
_cell_formula_units_Z   1
loop_
 _symmetry_equiv_pos_site_id
 _symmetry_equiv_pos_as_xyz
  1  'x, y, z'
loop_
 _atom_site_type_symbol
 _atom_site_label
 _atom_site_symmetry_multiplicity
 _atom_site_fract_x
 _atom_site_fract_y
 _atom_site_fract_z
 _atom_site_occupancy
  Fe  Fe0  1  0.00000000  0.00000000  0.00000000  1
  B  B1  1  0.70559500  0.50000000  0.20559500  1
  B  B2  1  0.29440500  0.50000000  0.79440500  1
  W  W3  1  0.70298200  0.20298200  0.50000000  1
  W  W4  1  0.29701800  0.79701800  0.50000000  1
