# generated using pymatgen
data_Cs4FeO4
_symmetry_space_group_name_H-M   'P 1'
_cell_length_a   7.06693000
_cell_length_b   11.15975200
_cell_length_c   11.70258268
_cell_angle_alpha   80.46426799
_cell_angle_beta   90.00000000
_cell_angle_gamma   90.00000000
_symmetry_Int_Tables_number   1
_chemical_formula_structural   Cs4FeO4
_chemical_formula_sum   'Cs16 Fe4 O16'
_cell_volume   910.17380786
_cell_formula_units_Z   4
loop_
 _symmetry_equiv_pos_site_id
 _symmetry_equiv_pos_as_xyz
  1  'x, y, z'
loop_
 _atom_site_type_symbol
 _atom_site_label
 _atom_site_symmetry_multiplicity
 _atom_site_fract_x
 _atom_site_fract_y
 _atom_site_fract_z
 _atom_site_occupancy
  Cs  Cs0  1  0.61467000  0.84023100  0.00667400  1
  Cs  Cs1  1  0.11467000  0.15976900  0.49332600  1
  Cs  Cs2  1  0.38533000  0.15976900  0.99332600  1
  Cs  Cs3  1  0.88533000  0.84023100  0.50667400  1
  Cs  Cs4  1  0.42257200  0.93744900  0.32832200  1
  Cs  Cs5  1  0.92257200  0.06255100  0.17167800  1
  Cs  Cs6  1  0.57742800  0.06255100  0.67167800  1
  Cs  Cs7  1  0.07742800  0.93744900  0.82832200  1
  Cs  Cs8  1  0.20990900  0.39095300  0.21811400  1
  Cs  Cs9  1  0.70990900  0.60904700  0.28188600  1
  Cs  Cs10  1  0.79009100  0.60904700  0.78188600  1
  Cs  Cs11  1  0.29009100  0.39095300  0.71811400  1
  Cs  Cs12  1  0.23689400  0.59681500  0.43411400  1
  Cs  Cs13  1  0.73689400  0.40318500  0.06588600  1
  Cs  Cs14  1  0.76310600  0.40318500  0.56588600  1
  Cs  Cs15  1  0.26310600  0.59681500  0.93411400  1
  Fe  Fe16  1  0.12668600  0.76155300  0.14662000  1
  Fe  Fe17  1  0.62668600  0.23844700  0.35338000  1
  Fe  Fe18  1  0.87331400  0.23844700  0.85338000  1
  Fe  Fe19  1  0.37331400  0.76155300  0.64662000  1
  O  O20  1  0.33946000  0.66396800  0.17044200  1
  O  O21  1  0.83946000  0.33603200  0.32955800  1
  O  O22  1  0.66054000  0.33603200  0.82955800  1
  O  O23  1  0.16054000  0.66396800  0.67044200  1
  O  O24  1  0.22231500  0.90676200  0.07619000  1
  O  O25  1  0.72231500  0.09323800  0.42381000  1
  O  O26  1  0.77768500  0.09323800  0.92381000  1
  O  O27  1  0.27768500  0.90676200  0.57619000  1
  O  O28  1  0.99478000  0.80014200  0.27225900  1
  O  O29  1  0.49478000  0.19985800  0.22774100  1
  O  O30  1  0.00522000  0.19985800  0.72774100  1
  O  O31  1  0.50522000  0.80014200  0.77225900  1
  O  O32  1  0.54123400  0.66908000  0.57452800  1
  O  O33  1  0.04123400  0.33092000  0.92547200  1
  O  O34  1  0.45876600  0.33092000  0.42547200  1
  O  O35  1  0.95876600  0.66908000  0.07452800  1
