# generated using pymatgen
data_Lu2B6Os
_symmetry_space_group_name_H-M   'P 1'
_cell_length_a   3.59853600
_cell_length_b   9.03291800
_cell_length_c   11.39971400
_cell_angle_alpha   90.00000000
_cell_angle_beta   90.00000000
_cell_angle_gamma   90.00000000
_symmetry_Int_Tables_number   1
_chemical_formula_structural   Lu2B6Os
_chemical_formula_sum   'Lu8 B24 Os4'
_cell_volume   370.55090242
_cell_formula_units_Z   4
loop_
 _symmetry_equiv_pos_site_id
 _symmetry_equiv_pos_as_xyz
  1  'x, y, z'
loop_
 _atom_site_type_symbol
 _atom_site_label
 _atom_site_symmetry_multiplicity
 _atom_site_fract_x
 _atom_site_fract_y
 _atom_site_fract_z
 _atom_site_occupancy
  Lu  Lu0  1  0.00000000  0.32056600  0.41388800  1
  Lu  Lu1  1  0.00000000  0.67943400  0.58611200  1
  Lu  Lu2  1  0.00000000  0.82056600  0.08611200  1
  Lu  Lu3  1  0.00000000  0.17943400  0.91388800  1
  Lu  Lu4  1  0.00000000  0.94537500  0.37363800  1
  Lu  Lu5  1  0.00000000  0.05462500  0.62636200  1
  Lu  Lu6  1  0.00000000  0.44537500  0.12636200  1
  Lu  Lu7  1  0.00000000  0.55462500  0.87363800  1
  B  B8  1  0.50000000  0.55426100  0.43379900  1
  B  B9  1  0.50000000  0.44573900  0.56620100  1
  B  B10  1  0.50000000  0.05426100  0.06620100  1
  B  B11  1  0.50000000  0.94573900  0.93379900  1
  B  B12  1  0.50000000  0.74979000  0.42109200  1
  B  B13  1  0.50000000  0.25021000  0.57890800  1
  B  B14  1  0.50000000  0.24979000  0.07890800  1
  B  B15  1  0.50000000  0.75021000  0.92109200  1
  B  B16  1  0.50000000  0.79320600  0.26672400  1
  B  B17  1  0.50000000  0.20679400  0.73327500  1
  B  B18  1  0.50000000  0.29320600  0.23327600  1
  B  B19  1  0.50000000  0.70679400  0.76672500  1
  B  B20  1  0.50000000  0.63228500  0.18501000  1
  B  B21  1  0.50000000  0.36771500  0.81499000  1
  B  B22  1  0.50000000  0.13228500  0.31499000  1
  B  B23  1  0.50000000  0.86771500  0.68501000  1
  B  B24  1  0.50000000  0.98311000  0.21295700  1
  B  B25  1  0.50000000  0.01689000  0.78704300  1
  B  B26  1  0.50000000  0.48311000  0.28704300  1
  B  B27  1  0.50000000  0.51689000  0.71295700  1
  B  B28  1  0.50000000  0.60838900  0.03017600  1
  B  B29  1  0.50000000  0.39161100  0.96982400  1
  B  B30  1  0.50000000  0.10838900  0.46982400  1
  B  B31  1  0.50000000  0.89161100  0.53017600  1
  Os  Os32  1  0.00000000  0.63874300  0.32128400  1
  Os  Os33  1  0.00000000  0.36125700  0.67871600  1
  Os  Os34  1  0.00000000  0.13874300  0.17871600  1
  Os  Os35  1  0.00000000  0.86125700  0.82128400  1
