# generated using pymatgen
data_Y2NiB10
_symmetry_space_group_name_H-M   'P 1'
_cell_length_a   4.14594700
_cell_length_b   5.55637700
_cell_length_c   11.09276100
_cell_angle_alpha   90.00000000
_cell_angle_beta   90.00000000
_cell_angle_gamma   90.00000000
_symmetry_Int_Tables_number   1
_chemical_formula_structural   Y2NiB10
_chemical_formula_sum   'Y4 Ni2 B20'
_cell_volume   255.53777373
_cell_formula_units_Z   2
loop_
 _symmetry_equiv_pos_site_id
 _symmetry_equiv_pos_as_xyz
  1  'x, y, z'
loop_
 _atom_site_type_symbol
 _atom_site_label
 _atom_site_symmetry_multiplicity
 _atom_site_fract_x
 _atom_site_fract_y
 _atom_site_fract_z
 _atom_site_occupancy
  Y  Y0  1  0.50000000  0.19300500  0.36362600  1
  Y  Y1  1  0.50000000  0.80699500  0.63637400  1
  Y  Y2  1  0.50000000  0.30699500  0.86362600  1
  Y  Y3  1  0.50000000  0.69300500  0.13637400  1
  Ni  Ni4  1  0.00000000  0.00000000  0.00000000  1
  Ni  Ni5  1  0.00000000  0.50000000  0.50000000  1
  B  B6  1  0.00000000  0.37490700  0.04099100  1
  B  B7  1  0.00000000  0.62509300  0.95900900  1
  B  B8  1  0.00000000  0.12509300  0.54099100  1
  B  B9  1  0.00000000  0.87490700  0.45900900  1
  B  B10  1  0.00000000  0.34590200  0.19738800  1
  B  B11  1  0.00000000  0.65409800  0.80261200  1
  B  B12  1  0.00000000  0.15409800  0.69738800  1
  B  B13  1  0.00000000  0.84590200  0.30261200  1
  B  B14  1  0.00000000  0.03543700  0.18786500  1
  B  B15  1  0.00000000  0.96456300  0.81213500  1
  B  B16  1  0.00000000  0.46456300  0.68786500  1
  B  B17  1  0.00000000  0.53543700  0.31213500  1
  B  B18  1  0.30077000  0.20362900  0.11396800  1
  B  B19  1  0.69923000  0.79637100  0.88603200  1
  B  B20  1  0.30077000  0.79637100  0.88603200  1
  B  B21  1  0.69923000  0.29637100  0.61396800  1
  B  B22  1  0.69923000  0.20362900  0.11396800  1
  B  B23  1  0.30077000  0.70362900  0.38603200  1
  B  B24  1  0.69923000  0.70362900  0.38603200  1
  B  B25  1  0.30077000  0.29637100  0.61396800  1
