# generated using pymatgen
data_CeCuGeH
_symmetry_space_group_name_H-M   'P 1'
_cell_length_a   4.15620771
_cell_length_b   4.15620700
_cell_length_c   8.26664000
_cell_angle_alpha   90.00000693
_cell_angle_beta   89.99967584
_cell_angle_gamma   60.00024914
_symmetry_Int_Tables_number   1
_chemical_formula_structural   CeCuGeH
_chemical_formula_sum   'Ce2 Cu2 Ge2 H2'
_cell_volume   123.66738022
_cell_formula_units_Z   2
loop_
 _symmetry_equiv_pos_site_id
 _symmetry_equiv_pos_as_xyz
  1  'x, y, z'
loop_
 _atom_site_type_symbol
 _atom_site_label
 _atom_site_symmetry_multiplicity
 _atom_site_fract_x
 _atom_site_fract_y
 _atom_site_fract_z
 _atom_site_occupancy
  Ce  Ce0  1  0.00000000  0.00000000  0.50000000  1
  Ce  Ce1  1  0.00000000  0.00000000  0.00000000  1
  Cu  Cu2  1  0.33332000  0.33334000  0.75580300  1
  Cu  Cu3  1  0.66668000  0.66666000  0.24419700  1
  Ge  Ge4  1  0.33333000  0.33333500  0.28219400  1
  Ge  Ge5  1  0.66667000  0.66666500  0.71780600  1
  H  H6  1  0.33334500  0.33332800  0.95795200  1
  H  H7  1  0.66665500  0.66667200  0.04204800  1
