# generated using pymatgen
data_RbVP2O7
_symmetry_space_group_name_H-M   'P 1'
_cell_length_a   10.23194000
_cell_length_b   7.65449000
_cell_length_c   8.40523386
_cell_angle_alpha   74.05833543
_cell_angle_beta   90.00000000
_cell_angle_gamma   90.00000000
_symmetry_Int_Tables_number   1
_chemical_formula_structural   RbVP2O7
_chemical_formula_sum   'Rb4 V4 P8 O28'
_cell_volume   632.98326932
_cell_formula_units_Z   4
loop_
 _symmetry_equiv_pos_site_id
 _symmetry_equiv_pos_as_xyz
  1  'x, y, z'
loop_
 _atom_site_type_symbol
 _atom_site_label
 _atom_site_symmetry_multiplicity
 _atom_site_fract_x
 _atom_site_fract_y
 _atom_site_fract_z
 _atom_site_occupancy
  Rb  Rb0  1  0.68457100  0.68747200  0.44765700  1
  Rb  Rb1  1  0.18457100  0.31252800  0.05234300  1
  Rb  Rb2  1  0.31542900  0.31252800  0.55234300  1
  Rb  Rb3  1  0.81542900  0.68747200  0.94765700  1
  V  V4  1  0.60148400  0.26147900  0.25925200  1
  V  V5  1  0.10148400  0.73852100  0.24074800  1
  V  V6  1  0.39851600  0.73852100  0.74074800  1
  V  V7  1  0.89851600  0.26147900  0.75925200  1
  P  P8  1  0.86774100  0.06488300  0.18753400  1
  P  P9  1  0.36774100  0.93511700  0.31246600  1
  P  P10  1  0.13225900  0.93511700  0.81246600  1
  P  P11  1  0.63225900  0.06488300  0.68753400  1
  P  P12  1  0.90284400  0.36807900  0.32983000  1
  P  P13  1  0.40284400  0.63192100  0.17017000  1
  P  P14  1  0.09715600  0.63192100  0.67017000  1
  P  P15  1  0.59715600  0.36807900  0.82983000  1
  O  O16  1  0.94410000  0.17259500  0.30369300  1
  O  O17  1  0.44410000  0.82740500  0.19630700  1
  O  O18  1  0.05590000  0.82740500  0.69630700  1
  O  O19  1  0.55590000  0.17259500  0.80369300  1
  O  O20  1  0.42700000  0.12592900  0.26631900  1
  O  O21  1  0.92700000  0.87407100  0.23368100  1
  O  O22  1  0.57300000  0.87407100  0.73368100  1
  O  O23  1  0.07300000  0.12592900  0.76631900  1
  O  O24  1  0.49817400  0.49356600  0.27456700  1
  O  O25  1  0.99817400  0.50643400  0.22543300  1
  O  O26  1  0.50182600  0.50643400  0.72543300  1
  O  O27  1  0.00182600  0.49356600  0.77456700  1
  O  O28  1  0.76299900  0.41304300  0.26130600  1
  O  O29  1  0.26299900  0.58695700  0.23869400  1
  O  O30  1  0.23700100  0.58695700  0.73869400  1
  O  O31  1  0.73700100  0.41304300  0.76130600  1
  O  O32  1  0.77670100  0.05300700  0.73787100  1
  O  O33  1  0.27670100  0.94699300  0.76212900  1
  O  O34  1  0.22329900  0.94699300  0.26212900  1
  O  O35  1  0.72329900  0.05300700  0.23787100  1
  O  O36  1  0.58855000  0.34827200  0.01342100  1
  O  O37  1  0.08855000  0.65172800  0.48657900  1
  O  O38  1  0.41145000  0.65172800  0.98657900  1
  O  O39  1  0.91145000  0.34827200  0.51342100  1
  O  O40  1  0.89658700  0.17448400  0.01008800  1
  O  O41  1  0.39658700  0.82551600  0.48991200  1
  O  O42  1  0.10341300  0.82551600  0.98991200  1
  O  O43  1  0.60341300  0.17448400  0.51008800  1
