# generated using pymatgen
data_YSi2Rh3
_symmetry_space_group_name_H-M   'P 1'
_cell_length_a   6.62449153
_cell_length_b   6.62449153
_cell_length_c   6.62449153
_cell_angle_alpha   130.41447734
_cell_angle_beta   114.20928202
_cell_angle_gamma   86.65299166
_symmetry_Int_Tables_number   1
_chemical_formula_structural   YSi2Rh3
_chemical_formula_sum   'Y2 Si4 Rh6'
_cell_volume   192.65160409
_cell_formula_units_Z   2
loop_
 _symmetry_equiv_pos_site_id
 _symmetry_equiv_pos_as_xyz
  1  'x, y, z'
loop_
 _atom_site_type_symbol
 _atom_site_label
 _atom_site_symmetry_multiplicity
 _atom_site_fract_x
 _atom_site_fract_y
 _atom_site_fract_z
 _atom_site_occupancy
  Y  Y0  1  0.25000000  0.53951100  0.28951100  1
  Y  Y1  1  0.75000000  0.46048900  0.71048900  1
  Si  Si2  1  0.07895300  0.88331000  0.80435700  1
  Si  Si3  1  0.92104700  0.11669000  0.19564300  1
  Si  Si4  1  0.57895300  0.77459600  0.19564300  1
  Si  Si5  1  0.42104700  0.22540400  0.80435700  1
  Rh  Rh6  1  0.71475400  0.00000000  0.71475400  1
  Rh  Rh7  1  0.21475400  0.50000000  0.71475400  1
  Rh  Rh8  1  0.28524600  0.00000000  0.28524600  1
  Rh  Rh9  1  0.78524600  0.50000000  0.28524600  1
  Rh  Rh10  1  0.00000000  0.00000000  0.50000000  1
  Rh  Rh11  1  0.50000000  0.00000000  0.00000000  1
