# generated using pymatgen
data_MgB4O7
_symmetry_space_group_name_H-M   'P 1'
_cell_length_a   8.11913400
_cell_length_b   8.73412600
_cell_length_c   13.89833600
_cell_angle_alpha   90.00000000
_cell_angle_beta   90.00000000
_cell_angle_gamma   90.00000000
_symmetry_Int_Tables_number   1
_chemical_formula_structural   MgB4O7
_chemical_formula_sum   'Mg8 B32 O56'
_cell_volume   985.58019707
_cell_formula_units_Z   8
loop_
 _symmetry_equiv_pos_site_id
 _symmetry_equiv_pos_as_xyz
  1  'x, y, z'
loop_
 _atom_site_type_symbol
 _atom_site_label
 _atom_site_symmetry_multiplicity
 _atom_site_fract_x
 _atom_site_fract_y
 _atom_site_fract_z
 _atom_site_occupancy
  Mg  Mg0  1  0.62094600  0.10170000  0.38747100  1
  Mg  Mg1  1  0.12094600  0.39830000  0.61252900  1
  Mg  Mg2  1  0.37905400  0.60170000  0.11252900  1
  Mg  Mg3  1  0.87905400  0.89830000  0.88747100  1
  Mg  Mg4  1  0.37905400  0.89830000  0.61252900  1
  Mg  Mg5  1  0.87905400  0.60170000  0.38747100  1
  Mg  Mg6  1  0.62094600  0.39830000  0.88747100  1
  Mg  Mg7  1  0.12094600  0.10170000  0.11252900  1
  B  B8  1  0.17737900  0.13700000  0.46511400  1
  B  B9  1  0.67737900  0.36300000  0.53488600  1
  B  B10  1  0.82262100  0.63700000  0.03488600  1
  B  B11  1  0.32262100  0.86300000  0.96511400  1
  B  B12  1  0.82262100  0.86300000  0.53488600  1
  B  B13  1  0.32262100  0.63700000  0.46511400  1
  B  B14  1  0.17737900  0.36300000  0.96511400  1
  B  B15  1  0.67737900  0.13700000  0.03488600  1
  B  B16  1  0.98393700  0.07642000  0.33394600  1
  B  B17  1  0.48393700  0.42358000  0.66605400  1
  B  B18  1  0.01606300  0.57642000  0.16605400  1
  B  B19  1  0.51606300  0.92358000  0.83394600  1
  B  B20  1  0.01606300  0.92358000  0.66605400  1
  B  B21  1  0.51606300  0.57642000  0.33394600  1
  B  B22  1  0.98393700  0.42358000  0.83394600  1
  B  B23  1  0.48393700  0.07642000  0.16605400  1
  B  B24  1  0.03635400  0.33742200  0.26454900  1
  B  B25  1  0.53635400  0.16257800  0.73545100  1
  B  B26  1  0.96364600  0.83742200  0.23545100  1
  B  B27  1  0.46364600  0.66257800  0.76454900  1
  B  B28  1  0.96364600  0.66257800  0.73545100  1
  B  B29  1  0.46364600  0.83742200  0.26454900  1
  B  B30  1  0.03635400  0.16257800  0.76454900  1
  B  B31  1  0.53635400  0.33742200  0.23545100  1
  B  B32  1  0.93101800  0.29634200  0.43280000  1
  B  B33  1  0.43101800  0.20365800  0.56720000  1
  B  B34  1  0.06898200  0.79634200  0.06720000  1
  B  B35  1  0.56898200  0.70365800  0.93280000  1
  B  B36  1  0.06898200  0.70365800  0.56720000  1
  B  B37  1  0.56898200  0.79634200  0.43280000  1
  B  B38  1  0.93101800  0.20365800  0.93280000  1
  B  B39  1  0.43101800  0.29634200  0.06720000  1
  O  O40  1  0.13510200  0.05068200  0.38848600  1
  O  O41  1  0.63510200  0.44931800  0.61151400  1
  O  O42  1  0.86489800  0.55068200  0.11151400  1
  O  O43  1  0.36489800  0.94931800  0.88848600  1
  O  O44  1  0.86489800  0.94931800  0.61151400  1
  O  O45  1  0.36489800  0.55068200  0.38848600  1
  O  O46  1  0.13510200  0.44931800  0.88848600  1
  O  O47  1  0.63510200  0.05068200  0.11151400  1
  O  O48  1  0.07696800  0.25776500  0.49622300  1
  O  O49  1  0.57696800  0.24223500  0.50377700  1
  O  O50  1  0.92303200  0.75776500  0.00377700  1
  O  O51  1  0.42303200  0.74223500  0.99622300  1
  O  O52  1  0.92303200  0.74223500  0.50377700  1
  O  O53  1  0.42303200  0.75776500  0.49622300  1
  O  O54  1  0.07696800  0.24223500  0.99622300  1
  O  O55  1  0.57696800  0.25776500  0.00377700  1
  O  O56  1  0.03274900  0.18054700  0.24718100  1
  O  O57  1  0.53274900  0.31945300  0.75281900  1
  O  O58  1  0.96725100  0.68054700  0.25281900  1
  O  O59  1  0.46725100  0.81945300  0.74718100  1
  O  O60  1  0.96725100  0.81945300  0.75281900  1
  O  O61  1  0.46725100  0.68054700  0.24718100  1
  O  O62  1  0.03274900  0.31945300  0.74718100  1
  O  O63  1  0.53274900  0.18054700  0.25281900  1
  O  O64  1  0.98805700  0.39758500  0.35244700  1
  O  O65  1  0.48805700  0.10241500  0.64755300  1
  O  O66  1  0.01194300  0.89758500  0.14755300  1
  O  O67  1  0.51194300  0.60241500  0.85244700  1
  O  O68  1  0.01194300  0.60241500  0.64755300  1
  O  O69  1  0.51194300  0.89758500  0.35244700  1
  O  O70  1  0.98805700  0.10241500  0.85244700  1
  O  O71  1  0.48805700  0.39758500  0.14755300  1
  O  O72  1  0.82407200  0.39582700  0.48828300  1
  O  O73  1  0.32407200  0.10417300  0.51171700  1
  O  O74  1  0.17592800  0.89582700  0.01171700  1
  O  O75  1  0.67592800  0.60417300  0.98828300  1
  O  O76  1  0.17592800  0.60417300  0.51171700  1
  O  O77  1  0.67592800  0.89582700  0.48828300  1
  O  O78  1  0.82407200  0.10417300  0.98828300  1
  O  O79  1  0.32407200  0.39582700  0.01171700  1
  O  O80  1  0.85976700  0.15939100  0.39181200  1
  O  O81  1  0.35976700  0.34060900  0.60818800  1
  O  O82  1  0.14023300  0.65939100  0.10818800  1
  O  O83  1  0.64023300  0.84060900  0.89181200  1
  O  O84  1  0.14023300  0.84060900  0.60818800  1
  O  O85  1  0.64023300  0.65939100  0.39181200  1
  O  O86  1  0.85976700  0.34060900  0.89181200  1
  O  O87  1  0.35976700  0.15939100  0.10818800  1
  O  O88  1  0.58883300  0.43299700  0.30589700  1
  O  O89  1  0.08883300  0.06700300  0.69410300  1
  O  O90  1  0.41116700  0.93299700  0.19410300  1
  O  O91  1  0.91116700  0.56700300  0.80589700  1
  O  O92  1  0.41116700  0.56700300  0.69410300  1
  O  O93  1  0.91116700  0.93299700  0.30589700  1
  O  O94  1  0.58883300  0.06700300  0.80589700  1
  O  O95  1  0.08883300  0.43299700  0.19410300  1
