# generated using pymatgen
data_Ca2YbRuO6
_symmetry_space_group_name_H-M   'P 1'
_cell_length_a   5.83237600
_cell_length_b   5.54615900
_cell_length_c   9.71206772
_cell_angle_alpha   55.23033270
_cell_angle_beta   90.00000000
_cell_angle_gamma   90.00000000
_symmetry_Int_Tables_number   1
_chemical_formula_structural   Ca2YbRuO6
_chemical_formula_sum   'Ca4 Yb2 Ru2 O12'
_cell_volume   258.06631342
_cell_formula_units_Z   2
loop_
 _symmetry_equiv_pos_site_id
 _symmetry_equiv_pos_as_xyz
  1  'x, y, z'
loop_
 _atom_site_type_symbol
 _atom_site_label
 _atom_site_symmetry_multiplicity
 _atom_site_fract_x
 _atom_site_fract_y
 _atom_site_fract_z
 _atom_site_occupancy
  Ca  Ca0  1  0.43937600  0.23834000  0.74493100  1
  Ca  Ca1  1  0.56062400  0.76166000  0.25506900  1
  Ca  Ca2  1  0.93937600  0.76166000  0.75506900  1
  Ca  Ca3  1  0.06062400  0.23834000  0.24493100  1
  Yb  Yb4  1  0.00000000  0.50000000  0.50000000  1
  Yb  Yb5  1  0.50000000  0.50000000  0.00000000  1
  Ru  Ru6  1  0.00000000  0.00000000  0.00000000  1
  Ru  Ru7  1  0.50000000  0.00000000  0.50000000  1
  O  O8  1  0.04982300  0.34062400  0.77161100  1
  O  O9  1  0.95017700  0.65937600  0.22838900  1
  O  O10  1  0.54982300  0.65937600  0.72838900  1
  O  O11  1  0.45017700  0.34062400  0.27161100  1
  O  O12  1  0.72090200  0.89757500  0.93159700  1
  O  O13  1  0.27909800  0.10242500  0.06840300  1
  O  O14  1  0.22090200  0.10242500  0.56840300  1
  O  O15  1  0.77909800  0.89757500  0.43159700  1
  O  O16  1  0.17957500  0.76602200  0.94803800  1
  O  O17  1  0.82042500  0.23397800  0.05196200  1
  O  O18  1  0.67957500  0.23397800  0.55196200  1
  O  O19  1  0.32042500  0.76602200  0.44803800  1
