# generated using pymatgen
data_YZnPO
_symmetry_space_group_name_H-M   'P 1'
_cell_length_a   10.41113876
_cell_length_b   10.41113876
_cell_length_c   10.41113919
_cell_angle_alpha   21.63298037
_cell_angle_beta   21.63298037
_cell_angle_gamma   21.63297901
_symmetry_Int_Tables_number   1
_chemical_formula_structural   YZnPO
_chemical_formula_sum   'Y2 Zn2 P2 O2'
_cell_volume   134.40133490
_cell_formula_units_Z   2
loop_
 _symmetry_equiv_pos_site_id
 _symmetry_equiv_pos_as_xyz
  1  'x, y, z'
loop_
 _atom_site_type_symbol
 _atom_site_label
 _atom_site_symmetry_multiplicity
 _atom_site_fract_x
 _atom_site_fract_y
 _atom_site_fract_z
 _atom_site_occupancy
  Y  Y0  1  0.62018300  0.62018300  0.62018300  1
  Y  Y1  1  0.37981700  0.37981700  0.37981700  1
  Zn  Zn2  1  0.80377700  0.80377700  0.80377700  1
  Zn  Zn3  1  0.19622300  0.19622300  0.19622300  1
  P  P4  1  0.11190700  0.11190700  0.11190700  1
  P  P5  1  0.88809300  0.88809300  0.88809300  1
  O  O6  1  0.69471800  0.69471800  0.69471800  1
  O  O7  1  0.30528200  0.30528200  0.30528200  1
