# generated using pymatgen
data_Ge5P6O25
_symmetry_space_group_name_H-M   'P 1'
_cell_length_a   9.62141051
_cell_length_b   9.62141051
_cell_length_c   9.62141039
_cell_angle_alpha   50.00130868
_cell_angle_beta   50.00130868
_cell_angle_gamma   50.00130383
_symmetry_Int_Tables_number   1
_chemical_formula_structural   Ge5P6O25
_chemical_formula_sum   'Ge5 P6 O25'
_cell_volume   481.01478791
_cell_formula_units_Z   1
loop_
 _symmetry_equiv_pos_site_id
 _symmetry_equiv_pos_as_xyz
  1  'x, y, z'
loop_
 _atom_site_type_symbol
 _atom_site_label
 _atom_site_symmetry_multiplicity
 _atom_site_fract_x
 _atom_site_fract_y
 _atom_site_fract_z
 _atom_site_occupancy
  Ge  Ge0  1  0.56800200  0.56800200  0.56800200  1
  Ge  Ge1  1  0.43199800  0.43199800  0.43199800  1
  Ge  Ge2  1  0.82269500  0.82269500  0.82269500  1
  Ge  Ge3  1  0.17730500  0.17730500  0.17730500  1
  Ge  Ge4  1  0.00000000  0.00000000  0.00000000  1
  P  P5  1  0.17627200  0.93015300  0.61977600  1
  P  P6  1  0.61977600  0.17627200  0.93015300  1
  P  P7  1  0.93015300  0.61977600  0.17627200  1
  P  P8  1  0.82372800  0.06984700  0.38022400  1
  P  P9  1  0.38022400  0.82372800  0.06984700  1
  P  P10  1  0.06984700  0.38022400  0.82372800  1
  O  O11  1  0.13768900  0.09310300  0.43294900  1
  O  O12  1  0.43294900  0.13768900  0.09310300  1
  O  O13  1  0.09310300  0.43294900  0.13768900  1
  O  O14  1  0.86231100  0.90689700  0.56705100  1
  O  O15  1  0.56705100  0.86231100  0.90689700  1
  O  O16  1  0.90689700  0.56705100  0.86231100  1
  O  O17  1  0.40734200  0.80771100  0.56642300  1
  O  O18  1  0.56642300  0.40734200  0.80771100  1
  O  O19  1  0.80771100  0.56642300  0.40734200  1
  O  O20  1  0.59265800  0.19228900  0.43357700  1
  O  O21  1  0.43357700  0.59265800  0.19228900  1
  O  O22  1  0.50000000  0.50000000  0.50000000  1
  O  O23  1  0.22110500  0.26832600  0.91205000  1
  O  O24  1  0.26832600  0.91205000  0.22110500  1
  O  O25  1  0.91205000  0.22110500  0.26832600  1
  O  O26  1  0.77889500  0.73167400  0.08795000  1
  O  O27  1  0.73167400  0.08795000  0.77889500  1
  O  O28  1  0.08795000  0.77889500  0.73167400  1
  O  O29  1  0.96615300  0.26105600  0.89699600  1
  O  O30  1  0.26105600  0.89699600  0.96615300  1
  O  O31  1  0.89699600  0.96615300  0.26105600  1
  O  O32  1  0.03384700  0.73894400  0.10300400  1
  O  O33  1  0.73894400  0.10300400  0.03384700  1
  O  O34  1  0.10300400  0.03384700  0.73894400  1
  O  O35  1  0.19228900  0.43357700  0.59265800  1
