# generated using pymatgen
data_BaCd2
_symmetry_space_group_name_H-M   'P 1'
_cell_length_a   6.66290231
_cell_length_b   6.66290231
_cell_length_c   6.66290231
_cell_angle_alpha   132.87820454
_cell_angle_beta   101.02603161
_cell_angle_gamma   97.37153300
_symmetry_Int_Tables_number   1
_chemical_formula_structural   BaCd2
_chemical_formula_sum   'Ba2 Cd4'
_cell_volume   198.54945284
_cell_formula_units_Z   2
loop_
 _symmetry_equiv_pos_site_id
 _symmetry_equiv_pos_as_xyz
  1  'x, y, z'
loop_
 _atom_site_type_symbol
 _atom_site_label
 _atom_site_symmetry_multiplicity
 _atom_site_fract_x
 _atom_site_fract_y
 _atom_site_fract_z
 _atom_site_occupancy
  Ba  Ba0  1  0.20281400  0.45281400  0.75000000  1
  Ba  Ba1  1  0.79718600  0.54718600  0.25000000  1
  Cd  Cd2  1  0.22591600  0.16462400  0.06129200  1
  Cd  Cd3  1  0.77408400  0.83537600  0.93870800  1
  Cd  Cd4  1  0.60333200  0.16462400  0.43870800  1
  Cd  Cd5  1  0.39666800  0.83537600  0.56129200  1
