# generated using pymatgen
data_Eu3(GaP2)2
_symmetry_space_group_name_H-M   'P 1'
_cell_length_a   8.21003916
_cell_length_b   8.21003916
_cell_length_c   6.56583128
_cell_angle_alpha   89.41304752
_cell_angle_beta   89.41304752
_cell_angle_gamma   76.05965270
_symmetry_Int_Tables_number   1
_chemical_formula_structural   Eu3(GaP2)2
_chemical_formula_sum   'Eu6 Ga4 P8'
_cell_volume   429.49691586
_cell_formula_units_Z   2
loop_
 _symmetry_equiv_pos_site_id
 _symmetry_equiv_pos_as_xyz
  1  'x, y, z'
loop_
 _atom_site_type_symbol
 _atom_site_label
 _atom_site_symmetry_multiplicity
 _atom_site_fract_x
 _atom_site_fract_y
 _atom_site_fract_z
 _atom_site_occupancy
  Eu  Eu0  1  0.74885500  0.49478500  0.03515200  1
  Eu  Eu1  1  0.50521500  0.25114500  0.46484800  1
  Eu  Eu2  1  0.25114500  0.50521500  0.96484800  1
  Eu  Eu3  1  0.49478500  0.74885500  0.53515200  1
  Eu  Eu4  1  0.10040800  0.89959200  0.25000000  1
  Eu  Eu5  1  0.89959200  0.10040800  0.75000000  1
  Ga  Ga6  1  0.08169400  0.32519700  0.41549200  1
  Ga  Ga7  1  0.67480300  0.91830600  0.08450800  1
  Ga  Ga8  1  0.91830600  0.67480300  0.58450800  1
  Ga  Ga9  1  0.32519700  0.08169400  0.91549200  1
  P  P10  1  0.21152600  0.55931700  0.47490400  1
  P  P11  1  0.44068300  0.78847400  0.02509600  1
  P  P12  1  0.78847400  0.44068300  0.52509600  1
  P  P13  1  0.55931700  0.21152600  0.97490400  1
  P  P14  1  0.06898500  0.24194200  0.06739000  1
  P  P15  1  0.75805800  0.93101500  0.43261000  1
  P  P16  1  0.93101500  0.75805800  0.93261000  1
  P  P17  1  0.24194200  0.06898500  0.56739000  1
