# generated using pymatgen
data_RbCd13
_symmetry_space_group_name_H-M   'P 1'
_cell_length_a   10.00486233
_cell_length_b   10.00486233
_cell_length_c   10.00486233
_cell_angle_alpha   60.00000000
_cell_angle_beta   60.00000000
_cell_angle_gamma   60.00000000
_symmetry_Int_Tables_number   1
_chemical_formula_structural   RbCd13
_chemical_formula_sum   'Rb2 Cd26'
_cell_volume   708.13873924
_cell_formula_units_Z   2
loop_
 _symmetry_equiv_pos_site_id
 _symmetry_equiv_pos_as_xyz
  1  'x, y, z'
loop_
 _atom_site_type_symbol
 _atom_site_label
 _atom_site_symmetry_multiplicity
 _atom_site_fract_x
 _atom_site_fract_y
 _atom_site_fract_z
 _atom_site_occupancy
  Rb  Rb0  1  0.25000000  0.25000000  0.25000000  1
  Rb  Rb1  1  0.75000000  0.75000000  0.75000000  1
  Cd  Cd2  1  0.44103900  0.19882000  0.80118000  1
  Cd  Cd3  1  0.94103900  0.69882000  0.05896100  1
  Cd  Cd4  1  0.69882000  0.94103900  0.30118000  1
  Cd  Cd5  1  0.30118000  0.69882000  0.94103900  1
  Cd  Cd6  1  0.94103900  0.05896100  0.30118000  1
  Cd  Cd7  1  0.69882000  0.05896100  0.94103900  1
  Cd  Cd8  1  0.30118000  0.94103900  0.05896100  1
  Cd  Cd9  1  0.80118000  0.44103900  0.19882000  1
  Cd  Cd10  1  0.19882000  0.80118000  0.44103900  1
  Cd  Cd11  1  0.44103900  0.55896100  0.19882000  1
  Cd  Cd12  1  0.44103900  0.80118000  0.55896100  1
  Cd  Cd13  1  0.19882000  0.55896100  0.80118000  1
  Cd  Cd14  1  0.55896100  0.44103900  0.80118000  1
  Cd  Cd15  1  0.55896100  0.19882000  0.44103900  1
  Cd  Cd16  1  0.80118000  0.19882000  0.55896100  1
  Cd  Cd17  1  0.05896100  0.94103900  0.69882000  1
  Cd  Cd18  1  0.05896100  0.30118000  0.94103900  1
  Cd  Cd19  1  0.94103900  0.30118000  0.69882000  1
  Cd  Cd20  1  0.05896100  0.69882000  0.30118000  1
  Cd  Cd21  1  0.30118000  0.05896100  0.69882000  1
  Cd  Cd22  1  0.69882000  0.30118000  0.05896100  1
  Cd  Cd23  1  0.19882000  0.44103900  0.55896100  1
  Cd  Cd24  1  0.80118000  0.55896100  0.44103900  1
  Cd  Cd25  1  0.55896100  0.80118000  0.19882000  1
  Cd  Cd26  1  0.00000000  0.00000000  0.00000000  1
  Cd  Cd27  1  0.50000000  0.50000000  0.50000000  1
