# generated using pymatgen
data_K3YCl6
_symmetry_space_group_name_H-M   'P 1'
_cell_length_a   7.81868500
_cell_length_b   12.68164800
_cell_length_c   13.23535181
_cell_angle_alpha   71.42995910
_cell_angle_beta   90.00000000
_cell_angle_gamma   90.00000000
_symmetry_Int_Tables_number   1
_chemical_formula_structural   K3YCl6
_chemical_formula_sum   'K12 Y4 Cl24'
_cell_volume   1244.00889778
_cell_formula_units_Z   4
loop_
 _symmetry_equiv_pos_site_id
 _symmetry_equiv_pos_as_xyz
  1  'x, y, z'
loop_
 _atom_site_type_symbol
 _atom_site_label
 _atom_site_symmetry_multiplicity
 _atom_site_fract_x
 _atom_site_fract_y
 _atom_site_fract_z
 _atom_site_occupancy
  K  K0  1  0.43522100  0.73437600  0.31477500  1
  K  K1  1  0.56477900  0.26562400  0.68522500  1
  K  K2  1  0.93522100  0.76562400  0.68522500  1
  K  K3  1  0.06477900  0.23437600  0.31477500  1
  K  K4  1  0.96784200  0.64046000  0.09873500  1
  K  K5  1  0.03215800  0.35954000  0.90126500  1
  K  K6  1  0.46784200  0.85954000  0.90126500  1
  K  K7  1  0.53215800  0.14046000  0.09873500  1
  K  K8  1  0.93482900  0.88728300  0.32015100  1
  K  K9  1  0.06517100  0.11271700  0.67984900  1
  K  K10  1  0.43482900  0.61271700  0.67984900  1
  K  K11  1  0.56517100  0.38728300  0.32015100  1
  Y  Y12  1  0.00000000  0.50000000  0.50000000  1
  Y  Y13  1  0.50000000  0.00000000  0.50000000  1
  Y  Y14  1  0.00000000  0.00000000  0.00000000  1
  Y  Y15  1  0.50000000  0.50000000  0.00000000  1
  Cl  Cl16  1  0.49838600  0.62920200  0.11925100  1
  Cl  Cl17  1  0.50161400  0.37079800  0.88074900  1
  Cl  Cl18  1  0.99838600  0.87079800  0.88074900  1
  Cl  Cl19  1  0.00161400  0.12920200  0.11925100  1
  Cl  Cl20  1  0.29113500  0.99508100  0.34493900  1
  Cl  Cl21  1  0.70886500  0.00491900  0.65506100  1
  Cl  Cl22  1  0.79113500  0.50491900  0.65506100  1
  Cl  Cl23  1  0.20886500  0.49508100  0.34493900  1
  Cl  Cl24  1  0.78449900  0.60789400  0.34692300  1
  Cl  Cl25  1  0.21550100  0.39210600  0.65307700  1
  Cl  Cl26  1  0.28449900  0.89210600  0.65307700  1
  Cl  Cl27  1  0.71550100  0.10789400  0.34692300  1
  Cl  Cl28  1  0.64256000  0.80847100  0.49992200  1
  Cl  Cl29  1  0.35744000  0.19152900  0.50007800  1
  Cl  Cl30  1  0.14256000  0.69152900  0.50007800  1
  Cl  Cl31  1  0.85744000  0.30847100  0.49992200  1
  Cl  Cl32  1  0.18155400  0.84541000  0.13858200  1
  Cl  Cl33  1  0.81844600  0.15459000  0.86141800  1
  Cl  Cl34  1  0.68155400  0.65459000  0.86141800  1
  Cl  Cl35  1  0.31844600  0.34541000  0.13858200  1
  Cl  Cl36  1  0.71620800  0.90328100  0.10202800  1
  Cl  Cl37  1  0.28379200  0.09671900  0.89797200  1
  Cl  Cl38  1  0.21620800  0.59671900  0.89797200  1
  Cl  Cl39  1  0.78379200  0.40328100  0.10202800  1
