# generated using pymatgen
data_TbAg(WO4)2
_symmetry_space_group_name_H-M   'P 1'
_cell_length_a   7.41017035
_cell_length_b   7.41017035
_cell_length_c   7.34525842
_cell_angle_alpha   65.79201100
_cell_angle_beta   65.79201100
_cell_angle_gamma   94.14420591
_symmetry_Int_Tables_number   1
_chemical_formula_structural   TbAg(WO4)2
_chemical_formula_sum   'Tb2 Ag2 W4 O16'
_cell_volume   321.19900600
_cell_formula_units_Z   2
loop_
 _symmetry_equiv_pos_site_id
 _symmetry_equiv_pos_as_xyz
  1  'x, y, z'
loop_
 _atom_site_type_symbol
 _atom_site_label
 _atom_site_symmetry_multiplicity
 _atom_site_fract_x
 _atom_site_fract_y
 _atom_site_fract_z
 _atom_site_occupancy
  Tb  Tb0  1  0.69821400  0.30178600  0.00000000  1
  Tb  Tb1  1  0.30178600  0.69821400  0.00000000  1
  Ag  Ag2  1  0.68377900  0.68377900  0.48257100  1
  Ag  Ag3  1  0.31622100  0.31622100  0.51742900  1
  W  W4  1  0.21136200  0.21136200  0.03257900  1
  W  W5  1  0.78863800  0.78863800  0.96742100  1
  W  W6  1  0.83566100  0.16433900  0.50000000  1
  W  W7  1  0.16433900  0.83566100  0.50000000  1
  O  O8  1  0.35241200  0.10177100  0.24416000  1
  O  O9  1  0.64758800  0.89822900  0.75584000  1
  O  O10  1  0.89822900  0.64758800  0.75584000  1
  O  O11  1  0.10177100  0.35241200  0.24416000  1
  O  O12  1  0.68534900  0.21880500  0.35190800  1
  O  O13  1  0.31465100  0.78119500  0.64809200  1
  O  O14  1  0.78119500  0.31465100  0.64809200  1
  O  O15  1  0.21880500  0.68534900  0.35190800  1
  O  O16  1  0.69867000  0.95893700  0.08549000  1
  O  O17  1  0.30133000  0.04106300  0.91451000  1
  O  O18  1  0.04106300  0.30133000  0.91451000  1
  O  O19  1  0.95893700  0.69867000  0.08549000  1
  O  O20  1  0.97814900  0.97814900  0.34146300  1
  O  O21  1  0.02185100  0.02185100  0.65853700  1
  O  O22  1  0.55643600  0.55643600  0.13548500  1
  O  O23  1  0.44356400  0.44356400  0.86451500  1
