# generated using pymatgen
data_RbP15
_symmetry_space_group_name_H-M   'P 1'
_cell_length_a   7.60928700
_cell_length_b   9.50323662
_cell_length_c   12.88839913
_cell_angle_alpha   88.41813759
_cell_angle_beta   101.54398804
_cell_angle_gamma   111.67010259
_symmetry_Int_Tables_number   1
_chemical_formula_structural   RbP15
_chemical_formula_sum   'Rb2 P30'
_cell_volume   847.51037385
_cell_formula_units_Z   2
loop_
 _symmetry_equiv_pos_site_id
 _symmetry_equiv_pos_as_xyz
  1  'x, y, z'
loop_
 _atom_site_type_symbol
 _atom_site_label
 _atom_site_symmetry_multiplicity
 _atom_site_fract_x
 _atom_site_fract_y
 _atom_site_fract_z
 _atom_site_occupancy
  Rb  Rb0  1  0.21539700  0.21002100  0.00192500  1
  Rb  Rb1  1  0.78460300  0.78997900  0.99807500  1
  P  P2  1  0.01060700  0.43241700  0.81127400  1
  P  P3  1  0.98939300  0.56758300  0.18872600  1
  P  P4  1  0.29742000  0.87852600  0.18926700  1
  P  P5  1  0.70258000  0.12147400  0.81073300  1
  P  P6  1  0.12072100  0.76246200  0.30485500  1
  P  P7  1  0.87927900  0.23753800  0.69514500  1
  P  P8  1  0.33407400  0.69052800  0.42911000  1
  P  P9  1  0.66592600  0.30947200  0.57089000  1
  P  P10  1  0.19945000  0.59003200  0.71598500  1
  P  P11  1  0.80055000  0.40996800  0.28401500  1
  P  P12  1  0.00720700  0.33900500  0.40521300  1
  P  P13  1  0.99279300  0.66099500  0.59478700  1
  P  P14  1  0.52126200  0.26292300  0.80582200  1
  P  P15  1  0.47873800  0.73707700  0.19417800  1
  P  P16  1  0.31275700  0.98333300  0.59419700  1
  P  P17  1  0.68724300  0.01666700  0.40580300  1
  P  P18  1  0.29382000  0.46339000  0.36882400  1
  P  P19  1  0.70618000  0.53661000  0.63117600  1
  P  P20  1  0.03948300  0.89245100  0.65559400  1
  P  P21  1  0.96051700  0.10754900  0.34440600  1
  P  P22  1  0.75777100  0.50177300  0.80507700  1
  P  P23  1  0.24222900  0.49822700  0.19492300  1
  P  P24  1  0.60347500  0.77328600  0.36773800  1
  P  P25  1  0.39652500  0.22671400  0.63226200  1
  P  P26  1  0.51988500  0.91189400  0.71459900  1
  P  P27  1  0.48011500  0.08810600  0.28540100  1
  P  P28  1  0.12594400  0.89397200  0.82551900  1
  P  P29  1  0.87405600  0.10602800  0.17448100  1
  P  P30  1  0.33727400  0.79201800  0.82977900  1
  P  P31  1  0.66272600  0.20798200  0.17022100  1
