# generated using pymatgen
data_Sr3B6H2O13
_symmetry_space_group_name_H-M   'P 1'
_cell_length_a   6.68669900
_cell_length_b   6.76276892
_cell_length_c   11.50400822
_cell_angle_alpha   90.75666980
_cell_angle_beta   94.32885970
_cell_angle_gamma   93.01272605
_symmetry_Int_Tables_number   1
_chemical_formula_structural   Sr3B6H2O13
_chemical_formula_sum   'Sr6 B12 H4 O26'
_cell_volume   517.94010696
_cell_formula_units_Z   2
loop_
 _symmetry_equiv_pos_site_id
 _symmetry_equiv_pos_as_xyz
  1  'x, y, z'
loop_
 _atom_site_type_symbol
 _atom_site_label
 _atom_site_symmetry_multiplicity
 _atom_site_fract_x
 _atom_site_fract_y
 _atom_site_fract_z
 _atom_site_occupancy
  Sr  Sr0  1  0.56687500  0.37499100  0.26455700  1
  Sr  Sr1  1  0.43312500  0.62500900  0.73544300  1
  Sr  Sr2  1  0.87325400  0.72630400  0.47822600  1
  Sr  Sr3  1  0.12674600  0.27369600  0.52177400  1
  Sr  Sr4  1  0.81904400  0.23712300  0.97104400  1
  Sr  Sr5  1  0.18095600  0.76287700  0.02895600  1
  B  B6  1  0.32287100  0.76323500  0.43965200  1
  B  B7  1  0.67712900  0.23676500  0.56034800  1
  B  B8  1  0.55241700  0.85461700  0.27653500  1
  B  B9  1  0.44758300  0.14538300  0.72346500  1
  B  B10  1  0.03854900  0.33525100  0.22825900  1
  B  B11  1  0.96145100  0.66474900  0.77174100  1
  B  B12  1  0.88027900  0.97866200  0.20185500  1
  B  B13  1  0.11972100  0.02133800  0.79814500  1
  B  B14  1  0.38257000  0.21865700  0.93393600  1
  B  B15  1  0.61743000  0.78134300  0.06606400  1
  B  B16  1  0.76643400  0.96820400  0.70234600  1
  B  B17  1  0.23356600  0.03179600  0.29765400  1
  H  H18  1  0.01914400  0.63546400  0.25726800  1
  H  H19  1  0.98085600  0.36453600  0.74273200  1
  H  H20  1  0.24233000  0.33775100  0.09440200  1
  H  H21  1  0.75767100  0.66224900  0.90559800  1
  O  O22  1  0.74197400  0.36306000  0.47947800  1
  O  O23  1  0.25802600  0.63694000  0.52052200  1
  O  O24  1  0.48735800  0.27035000  0.83537300  1
  O  O25  1  0.51264200  0.72965000  0.16462700  1
  O  O26  1  0.48798100  0.72534900  0.37452700  1
  O  O27  1  0.51201900  0.27465100  0.62547300  1
  O  O28  1  0.78465500  0.06459300  0.58393900  1
  O  O29  1  0.21534500  0.93540700  0.41606100  1
  O  O30  1  0.81217500  0.75561200  0.69146700  1
  O  O31  1  0.18782500  0.24438800  0.30853300  1
  O  O32  1  0.86582900  0.19762300  0.19479000  1
  O  O33  1  0.13417100  0.80237700  0.80521000  1
  O  O34  1  0.09098900  0.92489900  0.21286200  1
  O  O35  1  0.90901100  0.07510100  0.78713800  1
  O  O36  1  0.46175400  0.27372000  0.04089900  1
  O  O37  1  0.53824600  0.72628000  0.95910100  1
  O  O38  1  0.43940300  0.02907800  0.26774400  1
  O  O39  1  0.56059700  0.97092200  0.73225600  1
  O  O40  1  0.80020000  0.89394900  0.08340900  1
  O  O41  1  0.19980000  0.10605100  0.91659100  1
  O  O42  1  0.95851400  0.51137200  0.28596300  1
  O  O43  1  0.04148600  0.48862800  0.71403700  1
  O  O44  1  0.76770200  0.89837400  0.29570800  1
  O  O45  1  0.23229800  0.10162600  0.70429200  1
  O  O46  1  0.12571200  0.41233800  0.11886400  1
  O  O47  1  0.87428800  0.58766200  0.88113600  1
