# generated using pymatgen
data_ErSi2Ni
_symmetry_space_group_name_H-M   'P 1'
_cell_length_a   8.49276983
_cell_length_b   8.49276983
_cell_length_c   3.94250700
_cell_angle_alpha   90.00000000
_cell_angle_beta   90.00000000
_cell_angle_gamma   153.10226723
_symmetry_Int_Tables_number   1
_chemical_formula_structural   ErSi2Ni
_chemical_formula_sum   'Er2 Si4 Ni2'
_cell_volume   128.64509148
_cell_formula_units_Z   2
loop_
 _symmetry_equiv_pos_site_id
 _symmetry_equiv_pos_as_xyz
  1  'x, y, z'
loop_
 _atom_site_type_symbol
 _atom_site_label
 _atom_site_symmetry_multiplicity
 _atom_site_fract_x
 _atom_site_fract_y
 _atom_site_fract_z
 _atom_site_occupancy
  Er  Er0  1  0.10541900  0.89458100  0.25000000  1
  Er  Er1  1  0.89458100  0.10541900  0.75000000  1
  Si  Si2  1  0.74922900  0.25077100  0.25000000  1
  Si  Si3  1  0.25077100  0.74922900  0.75000000  1
  Si  Si4  1  0.53976200  0.46023800  0.75000000  1
  Si  Si5  1  0.46023800  0.53976200  0.25000000  1
  Ni  Ni6  1  0.67610800  0.32389200  0.75000000  1
  Ni  Ni7  1  0.32389200  0.67610800  0.25000000  1
