# generated using pymatgen
data_NdV2IO9
_symmetry_space_group_name_H-M   'P 1'
_cell_length_a   7.10460300
_cell_length_b   7.31132300
_cell_length_c   14.69715300
_cell_angle_alpha   90.00000000
_cell_angle_beta   90.00000000
_cell_angle_gamma   90.00000000
_symmetry_Int_Tables_number   1
_chemical_formula_structural   NdV2IO9
_chemical_formula_sum   'Nd4 V8 I4 O36'
_cell_volume   763.42961090
_cell_formula_units_Z   4
loop_
 _symmetry_equiv_pos_site_id
 _symmetry_equiv_pos_as_xyz
  1  'x, y, z'
loop_
 _atom_site_type_symbol
 _atom_site_label
 _atom_site_symmetry_multiplicity
 _atom_site_fract_x
 _atom_site_fract_y
 _atom_site_fract_z
 _atom_site_occupancy
  Nd  Nd0  1  0.85099900  0.25000000  0.95164400  1
  Nd  Nd1  1  0.14900100  0.75000000  0.04835600  1
  Nd  Nd2  1  0.85099900  0.75000000  0.54835600  1
  Nd  Nd3  1  0.14900100  0.25000000  0.45164400  1
  V  V4  1  0.46260500  0.00000000  0.25000000  1
  V  V5  1  0.53739500  0.50000000  0.75000000  1
  V  V6  1  0.53739500  0.00000000  0.75000000  1
  V  V7  1  0.46260500  0.50000000  0.25000000  1
  V  V8  1  0.81800100  0.25000000  0.22845000  1
  V  V9  1  0.18199900  0.75000000  0.77155000  1
  V  V10  1  0.81800100  0.75000000  0.27155000  1
  V  V11  1  0.18199900  0.25000000  0.72845000  1
  I  I12  1  0.29832800  0.25000000  0.05540200  1
  I  I13  1  0.70167200  0.75000000  0.94459800  1
  I  I14  1  0.29832800  0.75000000  0.44459800  1
  I  I15  1  0.70167200  0.25000000  0.55540200  1
  O  O16  1  0.17314200  0.07005800  0.99046900  1
  O  O17  1  0.82685800  0.57005800  0.00953100  1
  O  O18  1  0.17314200  0.92994200  0.50953100  1
  O  O19  1  0.82685800  0.42994200  0.49046900  1
  O  O20  1  0.82685800  0.92994200  0.00953100  1
  O  O21  1  0.17314200  0.42994200  0.99046900  1
  O  O22  1  0.82685800  0.07005800  0.49046900  1
  O  O23  1  0.17314200  0.57005800  0.50953100  1
  O  O24  1  0.52620900  0.25000000  0.00012100  1
  O  O25  1  0.47379100  0.75000000  0.99987900  1
  O  O26  1  0.52620900  0.75000000  0.49987900  1
  O  O27  1  0.47379100  0.25000000  0.50012100  1
  O  O28  1  0.32812700  0.95433300  0.15766800  1
  O  O29  1  0.67187300  0.45433300  0.84233200  1
  O  O30  1  0.32812700  0.04566700  0.34233200  1
  O  O31  1  0.67187300  0.54566700  0.65766800  1
  O  O32  1  0.67187300  0.04566700  0.84233200  1
  O  O33  1  0.32812700  0.54566700  0.15766800  1
  O  O34  1  0.67187300  0.95433300  0.65766800  1
  O  O35  1  0.32812700  0.45433300  0.34233200  1
  O  O36  1  0.52969800  0.75000000  0.28017000  1
  O  O37  1  0.47030200  0.25000000  0.71983000  1
  O  O38  1  0.52969800  0.25000000  0.21983000  1
  O  O39  1  0.47030200  0.75000000  0.78017000  1
  O  O40  1  0.73809200  0.00000000  0.25000000  1
  O  O41  1  0.26190800  0.50000000  0.75000000  1
  O  O42  1  0.26190800  0.00000000  0.75000000  1
  O  O43  1  0.73809200  0.50000000  0.25000000  1
  O  O44  1  0.98765300  0.25000000  0.30772000  1
  O  O45  1  0.01234700  0.75000000  0.69228000  1
  O  O46  1  0.98765300  0.75000000  0.19228000  1
  O  O47  1  0.01234700  0.25000000  0.80772000  1
  O  O48  1  0.91664800  0.25000000  0.12428900  1
  O  O49  1  0.08335200  0.75000000  0.87571100  1
  O  O50  1  0.91664800  0.75000000  0.37571100  1
  O  O51  1  0.08335200  0.25000000  0.62428900  1
