# generated using pymatgen
data_AlSb2Te2BrCl4
_symmetry_space_group_name_H-M   'P 1'
_cell_length_a   8.49849600
_cell_length_b   11.60350725
_cell_length_c   13.65243789
_cell_angle_alpha   97.94857940
_cell_angle_beta   90.00000000
_cell_angle_gamma   111.48168302
_symmetry_Int_Tables_number   1
_chemical_formula_structural   AlSb2Te2BrCl4
_chemical_formula_sum   'Al4 Sb8 Te8 Br4 Cl16'
_cell_volume   1238.86753083
_cell_formula_units_Z   4
loop_
 _symmetry_equiv_pos_site_id
 _symmetry_equiv_pos_as_xyz
  1  'x, y, z'
loop_
 _atom_site_type_symbol
 _atom_site_label
 _atom_site_symmetry_multiplicity
 _atom_site_fract_x
 _atom_site_fract_y
 _atom_site_fract_z
 _atom_site_occupancy
  Al  Al0  1  0.10697100  0.46249400  0.67168400  1
  Al  Al1  1  0.64447800  0.53750600  0.82831600  1
  Al  Al2  1  0.89302900  0.53750600  0.32831600  1
  Al  Al3  1  0.35552200  0.46249400  0.17168400  1
  Sb  Sb4  1  0.18602800  0.12833000  0.60839600  1
  Sb  Sb5  1  0.05769800  0.87167000  0.89160400  1
  Sb  Sb6  1  0.81397200  0.87167000  0.39160400  1
  Sb  Sb7  1  0.94230200  0.12833000  0.10839600  1
  Sb  Sb8  1  0.31243900  0.88112400  0.39122400  1
  Sb  Sb9  1  0.43131600  0.11887600  0.10877600  1
  Sb  Sb10  1  0.68756100  0.11887600  0.60877600  1
  Sb  Sb11  1  0.56868400  0.88112400  0.89122400  1
  Te  Te12  1  0.05579800  0.85840100  0.54035900  1
  Te  Te13  1  0.19739700  0.14159900  0.95964100  1
  Te  Te14  1  0.94420200  0.14159900  0.45964100  1
  Te  Te15  1  0.80260300  0.85840100  0.04035900  1
  Te  Te16  1  0.45203000  0.15121300  0.46421200  1
  Te  Te17  1  0.30081700  0.84878700  0.03578800  1
  Te  Te18  1  0.54797000  0.84878700  0.53578800  1
  Te  Te19  1  0.69918300  0.15121300  0.96421200  1
  Br  Br20  1  0.37517300  0.00000000  0.75000000  1
  Br  Br21  1  0.62482700  0.00000000  0.25000000  1
  Br  Br22  1  0.12484900  0.00000000  0.25000000  1
  Br  Br23  1  0.87515100  0.00000000  0.75000000  1
  Cl  Cl24  1  0.86621900  0.40678800  0.58659600  1
  Cl  Cl25  1  0.45943200  0.59321200  0.91340400  1
  Cl  Cl26  1  0.13378100  0.59321200  0.41340400  1
  Cl  Cl27  1  0.54056800  0.40678800  0.08659600  1
  Cl  Cl28  1  0.29180900  0.41950500  0.57840100  1
  Cl  Cl29  1  0.87230400  0.58049500  0.92159900  1
  Cl  Cl30  1  0.70819100  0.58049500  0.42159900  1
  Cl  Cl31  1  0.12769600  0.41950500  0.07840100  1
  Cl  Cl32  1  0.05516800  0.34409500  0.78446000  1
  Cl  Cl33  1  0.71107300  0.65590500  0.71554000  1
  Cl  Cl34  1  0.94483200  0.65590500  0.21554000  1
  Cl  Cl35  1  0.28892700  0.34409500  0.28446000  1
  Cl  Cl36  1  0.20060900  0.66056600  0.72212000  1
  Cl  Cl37  1  0.54004300  0.33943400  0.77788000  1
  Cl  Cl38  1  0.79939100  0.33943400  0.27788000  1
  Cl  Cl39  1  0.45995700  0.66056600  0.22212000  1
