# generated using pymatgen
data_Zr3Sb
_symmetry_space_group_name_H-M   'P 1'
_cell_length_a   8.57911840
_cell_length_b   8.57911840
_cell_length_c   8.57911840
_cell_angle_alpha   96.37502021
_cell_angle_beta   96.37502021
_cell_angle_gamma   141.07131673
_symmetry_Int_Tables_number   1
_chemical_formula_structural   Zr3Sb
_chemical_formula_sum   'Zr12 Sb4'
_cell_volume   374.08781084
_cell_formula_units_Z   4
loop_
 _symmetry_equiv_pos_site_id
 _symmetry_equiv_pos_as_xyz
  1  'x, y, z'
loop_
 _atom_site_type_symbol
 _atom_site_label
 _atom_site_symmetry_multiplicity
 _atom_site_fract_x
 _atom_site_fract_y
 _atom_site_fract_z
 _atom_site_occupancy
  Zr  Zr0  1  0.31999100  0.13325500  0.02431400  1
  Zr  Zr1  1  0.10894100  0.29567700  0.97568600  1
  Zr  Zr2  1  0.70432300  0.68000900  0.81326400  1
  Zr  Zr3  1  0.86674500  0.89105900  0.18673600  1
  Zr  Zr4  1  0.66547200  0.99876500  0.61839200  1
  Zr  Zr5  1  0.38037300  0.04708000  0.38160800  1
  Zr  Zr6  1  0.95292000  0.33452800  0.33329300  1
  Zr  Zr7  1  0.00123500  0.61962700  0.66670700  1
  Zr  Zr8  1  0.54547100  0.94748600  0.96900500  1
  Zr  Zr9  1  0.97848100  0.57646500  0.03099500  1
  Zr  Zr10  1  0.42353500  0.45452900  0.40201500  1
  Zr  Zr11  1  0.05251400  0.02151900  0.59798500  1
  Sb  Sb12  1  0.23540000  0.49114100  0.67556500  1
  Sb  Sb13  1  0.81557700  0.55983600  0.32443500  1
  Sb  Sb14  1  0.44016400  0.76460000  0.25574100  1
  Sb  Sb15  1  0.50885900  0.18442300  0.74425900  1
