# generated using pymatgen
data_Tb2O3
_symmetry_space_group_name_H-M   'P 1'
_cell_length_a   9.30467393
_cell_length_b   9.30467393
_cell_length_c   9.30467393
_cell_angle_alpha   109.47122063
_cell_angle_beta   109.47122063
_cell_angle_gamma   109.47122063
_symmetry_Int_Tables_number   1
_chemical_formula_structural   Tb2O3
_chemical_formula_sum   'Tb16 O24'
_cell_volume   620.12834843
_cell_formula_units_Z   8
loop_
 _symmetry_equiv_pos_site_id
 _symmetry_equiv_pos_as_xyz
  1  'x, y, z'
loop_
 _atom_site_type_symbol
 _atom_site_label
 _atom_site_symmetry_multiplicity
 _atom_site_fract_x
 _atom_site_fract_y
 _atom_site_fract_z
 _atom_site_occupancy
  Tb  Tb0  1  0.78223300  0.03223300  0.75000000  1
  Tb  Tb1  1  0.25000000  0.71776700  0.46776700  1
  Tb  Tb2  1  0.46776700  0.25000000  0.71776700  1
  Tb  Tb3  1  0.75000000  0.78223300  0.03223300  1
  Tb  Tb4  1  0.03223300  0.75000000  0.78223300  1
  Tb  Tb5  1  0.71776700  0.46776700  0.25000000  1
  Tb  Tb6  1  0.28223300  0.53223300  0.75000000  1
  Tb  Tb7  1  0.25000000  0.21776700  0.96776700  1
  Tb  Tb8  1  0.96776700  0.25000000  0.21776700  1
  Tb  Tb9  1  0.75000000  0.28223300  0.53223300  1
  Tb  Tb10  1  0.53223300  0.75000000  0.28223300  1
  Tb  Tb11  1  0.21776700  0.96776700  0.25000000  1
  Tb  Tb12  1  0.50000000  0.00000000  0.00000000  1
  Tb  Tb13  1  0.00000000  0.00000000  0.50000000  1
  Tb  Tb14  1  0.00000000  0.50000000  0.00000000  1
  Tb  Tb15  1  0.50000000  0.50000000  0.50000000  1
  O  O16  1  0.26011300  0.77174500  0.72966100  1
  O  O17  1  0.95791500  0.72825500  0.98836800  1
  O  O18  1  0.23988700  0.96954800  0.51163200  1
  O  O19  1  0.53045200  0.77033900  0.54208500  1
  O  O20  1  0.77033900  0.54208500  0.53045200  1
  O  O21  1  0.72966100  0.26011300  0.77174500  1
  O  O22  1  0.72825500  0.98836800  0.95791500  1
  O  O23  1  0.51163200  0.23988700  0.96954800  1
  O  O24  1  0.77174500  0.72966100  0.26011300  1
  O  O25  1  0.98836800  0.95791500  0.72825500  1
  O  O26  1  0.96954800  0.51163200  0.23988700  1
  O  O27  1  0.54208500  0.53045200  0.77033900  1
  O  O28  1  0.27174500  0.01163200  0.04208500  1
  O  O29  1  0.03045200  0.48836800  0.76011300  1
  O  O30  1  0.22825500  0.27033900  0.73988700  1
  O  O31  1  0.22966100  0.45791500  0.46954800  1
  O  O32  1  0.46954800  0.22966100  0.45791500  1
  O  O33  1  0.27033900  0.73988700  0.22825500  1
  O  O34  1  0.76011300  0.03045200  0.48836800  1
  O  O35  1  0.01163200  0.04208500  0.27174500  1
  O  O36  1  0.73988700  0.22825500  0.27033900  1
  O  O37  1  0.48836800  0.76011300  0.03045200  1
  O  O38  1  0.04208500  0.27174500  0.01163200  1
  O  O39  1  0.45791500  0.46954800  0.22966100  1
