# generated using pymatgen
data_Cs3BrO
_symmetry_space_group_name_H-M   'P 1'
_cell_length_a   8.04884814
_cell_length_b   8.04884814
_cell_length_c   7.29463400
_cell_angle_alpha   90.00000000
_cell_angle_beta   90.00000000
_cell_angle_gamma   120.00000114
_symmetry_Int_Tables_number   1
_chemical_formula_structural   Cs3BrO
_chemical_formula_sum   'Cs6 Br2 O2'
_cell_volume   409.26216766
_cell_formula_units_Z   2
loop_
 _symmetry_equiv_pos_site_id
 _symmetry_equiv_pos_as_xyz
  1  'x, y, z'
loop_
 _atom_site_type_symbol
 _atom_site_label
 _atom_site_symmetry_multiplicity
 _atom_site_fract_x
 _atom_site_fract_y
 _atom_site_fract_z
 _atom_site_occupancy
  Cs  Cs0  1  0.15656900  0.31313700  0.25000000  1
  Cs  Cs1  1  0.84343100  0.68686300  0.75000000  1
  Cs  Cs2  1  0.68686300  0.84343100  0.25000000  1
  Cs  Cs3  1  0.31313700  0.15656900  0.75000000  1
  Cs  Cs4  1  0.15656900  0.84343100  0.25000000  1
  Cs  Cs5  1  0.84343100  0.15656900  0.75000000  1
  Br  Br6  1  0.33333300  0.66666700  0.75000000  1
  Br  Br7  1  0.66666700  0.33333300  0.25000000  1
  O  O8  1  0.00000000  0.00000000  0.00000000  1
  O  O9  1  0.00000000  0.00000000  0.50000000  1
