# generated using pymatgen
data_U2AsSe
_symmetry_space_group_name_H-M   'P 1'
_cell_length_a   7.05997431
_cell_length_b   7.05997431
_cell_length_c   7.05997431
_cell_angle_alpha   131.63847142
_cell_angle_beta   131.63847142
_cell_angle_gamma   70.80062480
_symmetry_Int_Tables_number   1
_chemical_formula_structural   U2AsSe
_chemical_formula_sum   'U4 As2 Se2'
_cell_volume   192.50803853
_cell_formula_units_Z   2
loop_
 _symmetry_equiv_pos_site_id
 _symmetry_equiv_pos_as_xyz
  1  'x, y, z'
loop_
 _atom_site_type_symbol
 _atom_site_label
 _atom_site_symmetry_multiplicity
 _atom_site_fract_x
 _atom_site_fract_y
 _atom_site_fract_z
 _atom_site_occupancy
  U  U0  1  0.74933800  0.74933800  0.00000000  1
  U  U1  1  0.25066200  0.25066200  0.00000000  1
  U  U2  1  0.00066200  0.50066200  0.50000000  1
  U  U3  1  0.49933800  0.99933800  0.50000000  1
  As  As4  1  0.50000000  0.50000000  0.00000000  1
  As  As5  1  0.25000000  0.75000000  0.50000000  1
  Se  Se6  1  0.00000000  0.00000000  0.00000000  1
  Se  Se7  1  0.75000000  0.25000000  0.50000000  1
