# generated using pymatgen
data_TiMo(PO4)3
_symmetry_space_group_name_H-M   'P 1'
_cell_length_a   8.84463495
_cell_length_b   8.84463472
_cell_length_c   8.84463552
_cell_angle_alpha   59.03042776
_cell_angle_beta   59.03042982
_cell_angle_gamma   59.03043343
_symmetry_Int_Tables_number   1
_chemical_formula_structural   TiMo(PO4)3
_chemical_formula_sum   'Ti2 Mo2 P6 O24'
_cell_volume   478.42481070
_cell_formula_units_Z   2
loop_
 _symmetry_equiv_pos_site_id
 _symmetry_equiv_pos_as_xyz
  1  'x, y, z'
loop_
 _atom_site_type_symbol
 _atom_site_label
 _atom_site_symmetry_multiplicity
 _atom_site_fract_x
 _atom_site_fract_y
 _atom_site_fract_z
 _atom_site_occupancy
  Ti  Ti0  1  0.13943300  0.13943300  0.13943300  1
  Ti  Ti1  1  0.63943300  0.63943300  0.63943300  1
  Mo  Mo2  1  0.35865300  0.35865300  0.35865300  1
  Mo  Mo3  1  0.85865300  0.85865300  0.85865300  1
  P  P4  1  0.03168300  0.46480000  0.75051600  1
  P  P5  1  0.46480000  0.75051600  0.03168300  1
  P  P6  1  0.75051600  0.03168300  0.46480000  1
  P  P7  1  0.25051600  0.96480000  0.53168300  1
  P  P8  1  0.53168300  0.25051600  0.96480000  1
  P  P9  1  0.96480000  0.53168300  0.25051600  1
  O  O10  1  0.13382700  0.50758100  0.28266800  1
  O  O11  1  0.28266800  0.13382700  0.50758100  1
  O  O12  1  0.06239400  0.28794500  0.92047900  1
  O  O13  1  0.50758100  0.28266800  0.13382700  1
  O  O14  1  0.00758100  0.63382700  0.78266700  1
  O  O15  1  0.21344300  0.44126300  0.57855700  1
  O  O16  1  0.28794500  0.92047900  0.06239400  1
  O  O17  1  0.44126300  0.57855700  0.21344300  1
  O  O18  1  0.21258100  0.00128900  0.36463100  1
  O  O19  1  0.57855700  0.21344300  0.44126300  1
  O  O20  1  0.07855700  0.94126300  0.71344300  1
  O  O21  1  0.36463100  0.21258100  0.00128900  1
  O  O22  1  0.63382700  0.78266700  0.00758100  1
  O  O23  1  0.92047900  0.06239400  0.28794500  1
  O  O24  1  0.42047900  0.78794500  0.56239400  1
  O  O25  1  0.78266700  0.00758100  0.63382700  1
  O  O26  1  0.56239400  0.42047900  0.78794500  1
  O  O27  1  0.71344300  0.07855700  0.94126300  1
  O  O28  1  0.78794500  0.56239400  0.42047900  1
  O  O29  1  0.00128900  0.36463100  0.21258100  1
  O  O30  1  0.50128900  0.71258100  0.86463100  1
  O  O31  1  0.94126300  0.71344300  0.07855700  1
  O  O32  1  0.71258100  0.86463100  0.50128900  1
  O  O33  1  0.86463100  0.50128900  0.71258100  1
