# generated using pymatgen
data_SrVPO6
_symmetry_space_group_name_H-M   'P 1'
_cell_length_a   9.88749900
_cell_length_b   5.61900000
_cell_length_c   8.58974085
_cell_angle_alpha   88.26855130
_cell_angle_beta   90.00000000
_cell_angle_gamma   90.00000000
_symmetry_Int_Tables_number   1
_chemical_formula_structural   SrVPO6
_chemical_formula_sum   'Sr4 V4 P4 O24'
_cell_volume   477.00970321
_cell_formula_units_Z   4
loop_
 _symmetry_equiv_pos_site_id
 _symmetry_equiv_pos_as_xyz
  1  'x, y, z'
loop_
 _atom_site_type_symbol
 _atom_site_label
 _atom_site_symmetry_multiplicity
 _atom_site_fract_x
 _atom_site_fract_y
 _atom_site_fract_z
 _atom_site_occupancy
  Sr  Sr0  1  0.18777100  0.86242900  0.42887600  1
  Sr  Sr1  1  0.68777100  0.13757100  0.07112400  1
  Sr  Sr2  1  0.81222900  0.13757100  0.57112400  1
  Sr  Sr3  1  0.31222900  0.86242900  0.92887600  1
  V  V4  1  0.09129000  0.34485800  0.08805300  1
  V  V5  1  0.59129000  0.65514200  0.41194700  1
  V  V6  1  0.90871000  0.65514200  0.91194700  1
  V  V7  1  0.40871000  0.34485800  0.58805300  1
  P  P8  1  0.89397600  0.66395100  0.28614600  1
  P  P9  1  0.39397600  0.33604900  0.21385400  1
  P  P10  1  0.10602400  0.33604900  0.71385400  1
  P  P11  1  0.60602400  0.66395100  0.78614600  1
  O  O12  1  0.92482800  0.87622000  0.38627800  1
  O  O13  1  0.42482800  0.12378000  0.11372200  1
  O  O14  1  0.07517200  0.12378000  0.61372200  1
  O  O15  1  0.57517200  0.87622000  0.88627800  1
  O  O16  1  0.07660500  0.68192300  0.96636600  1
  O  O17  1  0.57660500  0.31807700  0.53363400  1
  O  O18  1  0.92339500  0.31807700  0.03363400  1
  O  O19  1  0.42339500  0.68192300  0.46636600  1
  O  O20  1  0.13689500  0.08625400  0.17183300  1
  O  O21  1  0.63689500  0.91374600  0.32816700  1
  O  O22  1  0.86310500  0.91374600  0.82816700  1
  O  O23  1  0.36310500  0.08625400  0.67183300  1
  O  O24  1  0.34107000  0.25327700  0.38013300  1
  O  O25  1  0.84107000  0.74672300  0.11986700  1
  O  O26  1  0.65893000  0.74672300  0.61986700  1
  O  O27  1  0.15893000  0.25327700  0.88013300  1
  O  O28  1  0.46778800  0.52632500  0.77130100  1
  O  O29  1  0.96778800  0.47367500  0.72869900  1
  O  O30  1  0.53221200  0.47367500  0.22869900  1
  O  O31  1  0.03221200  0.52632500  0.27130100  1
  O  O32  1  0.21519300  0.50499500  0.63883000  1
  O  O33  1  0.71519300  0.49500500  0.86117000  1
  O  O34  1  0.78480700  0.49500500  0.36117000  1
  O  O35  1  0.28480700  0.50499500  0.13883000  1
