# generated using pymatgen
data_BaCo2Si2O7
_symmetry_space_group_name_H-M   'P 1'
_cell_length_a   7.43319371
_cell_length_b   7.43319371
_cell_length_c   13.92592104
_cell_angle_alpha   89.94113982
_cell_angle_beta   89.94113982
_cell_angle_gamma   120.71169522
_symmetry_Int_Tables_number   1
_chemical_formula_structural   BaCo2Si2O7
_chemical_formula_sum   'Ba4 Co8 Si8 O28'
_cell_volume   661.52321356
_cell_formula_units_Z   4
loop_
 _symmetry_equiv_pos_site_id
 _symmetry_equiv_pos_as_xyz
  1  'x, y, z'
loop_
 _atom_site_type_symbol
 _atom_site_label
 _atom_site_symmetry_multiplicity
 _atom_site_fract_x
 _atom_site_fract_y
 _atom_site_fract_z
 _atom_site_occupancy
  Ba  Ba0  1  0.22025300  0.18171400  0.87681700  1
  Ba  Ba1  1  0.81828600  0.77974700  0.62318300  1
  Ba  Ba2  1  0.77974700  0.81828600  0.12318300  1
  Ba  Ba3  1  0.18171400  0.22025300  0.37681700  1
  Co  Co4  1  0.26210600  0.80084200  0.48996500  1
  Co  Co5  1  0.19915800  0.73789400  0.01003500  1
  Co  Co6  1  0.22801700  0.77198300  0.25000000  1
  Co  Co7  1  0.80084200  0.26210600  0.98996500  1
  Co  Co8  1  0.23252400  0.76747600  0.75000000  1
  Co  Co9  1  0.76747600  0.23252400  0.25000000  1
  Co  Co10  1  0.77198300  0.22801700  0.75000000  1
  Co  Co11  1  0.73789400  0.19915800  0.51003500  1
  Si  Si12  1  0.42604800  0.21175900  0.61858400  1
  Si  Si13  1  0.78824100  0.57395200  0.88141600  1
  Si  Si14  1  0.57395200  0.78824100  0.38141600  1
  Si  Si15  1  0.21175900  0.42604800  0.11858400  1
  Si  Si16  1  0.16625500  0.41163200  0.63257500  1
  Si  Si17  1  0.58836800  0.83374600  0.86742500  1
  Si  Si18  1  0.83374500  0.58836800  0.36742500  1
  Si  Si19  1  0.41163200  0.16625400  0.13257500  1
  O  O20  1  0.01301000  0.23829300  0.55371200  1
  O  O21  1  0.76170700  0.98699000  0.94628800  1
  O  O22  1  0.98699000  0.76170700  0.44628800  1
  O  O23  1  0.23829300  0.01301000  0.05371200  1
  O  O24  1  0.08074700  0.35210900  0.74360600  1
  O  O25  1  0.64789100  0.91925300  0.75639400  1
  O  O26  1  0.91925300  0.64789100  0.25639400  1
  O  O27  1  0.35210900  0.08074700  0.24360600  1
  O  O28  1  0.39643500  0.42141300  0.62188700  1
  O  O29  1  0.57858700  0.60356500  0.87811300  1
  O  O30  1  0.60356500  0.57858700  0.37811300  1
  O  O31  1  0.42141300  0.39643500  0.12188700  1
  O  O32  1  0.68207300  0.31744200  0.63357700  1
  O  O33  1  0.68255800  0.31792700  0.86642300  1
  O  O34  1  0.31792700  0.68255800  0.36642300  1
  O  O35  1  0.31744200  0.68207300  0.13357700  1
  O  O36  1  0.38383600  0.11055000  0.51072600  1
  O  O37  1  0.88945000  0.61616400  0.98927400  1
  O  O38  1  0.61616400  0.88945000  0.48927400  1
  O  O39  1  0.11055000  0.38383600  0.01072600  1
  O  O40  1  0.65019200  0.20793700  0.11517700  1
  O  O41  1  0.79206300  0.34980800  0.38482300  1
  O  O42  1  0.34980800  0.79206300  0.88482300  1
  O  O43  1  0.20793700  0.65019200  0.61517700  1
  O  O44  1  0.28095300  0.05021000  0.70206700  1
  O  O45  1  0.71904700  0.94979000  0.29793300  1
  O  O46  1  0.94979000  0.71904700  0.79793300  1
  O  O47  1  0.05021000  0.28095300  0.20206700  1
