# generated using pymatgen
data_Yb2CuTe2(SO7)2
_symmetry_space_group_name_H-M   'P 1'
_cell_length_a   5.35168100
_cell_length_b   8.24567058
_cell_length_c   8.38385237
_cell_angle_alpha   115.93966368
_cell_angle_beta   106.05652902
_cell_angle_gamma   95.08006866
_symmetry_Int_Tables_number   1
_chemical_formula_structural   Yb2CuTe2(SO7)2
_chemical_formula_sum   'Yb2 Cu1 Te2 S2 O14'
_cell_volume   310.17344657
_cell_formula_units_Z   1
loop_
 _symmetry_equiv_pos_site_id
 _symmetry_equiv_pos_as_xyz
  1  'x, y, z'
loop_
 _atom_site_type_symbol
 _atom_site_label
 _atom_site_symmetry_multiplicity
 _atom_site_fract_x
 _atom_site_fract_y
 _atom_site_fract_z
 _atom_site_occupancy
  Yb  Yb0  1  0.16616700  0.23187100  0.52731300  1
  Yb  Yb1  1  0.83383300  0.76812900  0.47268700  1
  Cu  Cu2  1  0.50000000  0.50000000  0.00000000  1
  Te  Te3  1  0.11309600  0.76250400  0.13700000  1
  Te  Te4  1  0.88690400  0.23749600  0.86300000  1
  S  S5  1  0.58614400  0.26889700  0.26705300  1
  S  S6  1  0.41385600  0.73110300  0.73294700  1
  O  O7  1  0.38114500  0.17498300  0.30732400  1
  O  O8  1  0.61885500  0.82501700  0.69267600  1
  O  O9  1  0.30343500  0.53390800  0.58742400  1
  O  O10  1  0.69656500  0.46609200  0.41257600  1
  O  O11  1  0.80815800  0.17329200  0.26095300  1
  O  O12  1  0.19184200  0.82670800  0.73904700  1
  O  O13  1  0.45319400  0.25693500  0.07705200  1
  O  O14  1  0.54680600  0.74306500  0.92294800  1
  O  O15  1  0.86878700  0.56847800  0.13916500  1
  O  O16  1  0.13121300  0.43152200  0.86083500  1
  O  O17  1  0.43188400  0.67743100  0.21034000  1
  O  O18  1  0.56811600  0.32256900  0.78966000  1
  O  O19  1  0.13901600  0.91401100  0.38594700  1
  O  O20  1  0.86098400  0.08598900  0.61405300  1
