# generated using pymatgen
data_BaHo4Si5O17
_symmetry_space_group_name_H-M   'P 1'
_cell_length_a   19.94370100
_cell_length_b   5.57047700
_cell_length_c   6.92317714
_cell_angle_alpha   73.34380840
_cell_angle_beta   90.00000000
_cell_angle_gamma   90.00000000
_symmetry_Int_Tables_number   1
_chemical_formula_structural   BaHo4Si5O17
_chemical_formula_sum   'Ba2 Ho8 Si10 O34'
_cell_volume   736.86529318
_cell_formula_units_Z   2
loop_
 _symmetry_equiv_pos_site_id
 _symmetry_equiv_pos_as_xyz
  1  'x, y, z'
loop_
 _atom_site_type_symbol
 _atom_site_label
 _atom_site_symmetry_multiplicity
 _atom_site_fract_x
 _atom_site_fract_y
 _atom_site_fract_z
 _atom_site_occupancy
  Ba  Ba0  1  0.25000000  0.75638300  0.81271900  1
  Ba  Ba1  1  0.75000000  0.24361700  0.18728100  1
  Ho  Ho2  1  0.03891300  0.69859800  0.11700000  1
  Ho  Ho3  1  0.53891300  0.30140200  0.88300000  1
  Ho  Ho4  1  0.96108700  0.30140200  0.88300000  1
  Ho  Ho5  1  0.46108700  0.69859800  0.11700000  1
  Ho  Ho6  1  0.15832700  0.35201600  0.48139000  1
  Ho  Ho7  1  0.65832700  0.64798400  0.51861000  1
  Ho  Ho8  1  0.84167300  0.64798400  0.51861000  1
  Ho  Ho9  1  0.34167300  0.35201600  0.48139000  1
  Si  Si10  1  0.25000000  0.93535500  0.28195000  1
  Si  Si11  1  0.75000000  0.06464500  0.71805000  1
  Si  Si12  1  0.13565300  0.22939200  0.00717200  1
  Si  Si13  1  0.63565300  0.77060800  0.99282800  1
  Si  Si14  1  0.86434700  0.77060800  0.99282800  1
  Si  Si15  1  0.36434700  0.22939200  0.00717200  1
  Si  Si16  1  0.06082700  0.80260300  0.59523400  1
  Si  Si17  1  0.56082700  0.19739700  0.40476600  1
  Si  Si18  1  0.93917300  0.19739700  0.40476600  1
  Si  Si19  1  0.43917300  0.80260300  0.59523400  1
  O  O20  1  0.25000000  0.13426600  0.41614500  1
  O  O21  1  0.75000000  0.86573400  0.58385500  1
  O  O22  1  0.25000000  0.64128100  0.41861100  1
  O  O23  1  0.75000000  0.35871900  0.58138900  1
  O  O24  1  0.18361900  0.98141800  0.13070100  1
  O  O25  1  0.68361900  0.01858200  0.86929900  1
  O  O26  1  0.81638100  0.01858200  0.86929900  1
  O  O27  1  0.31638100  0.98141800  0.13070100  1
  O  O28  1  0.17349600  0.36153900  0.79522300  1
  O  O29  1  0.67349600  0.63846100  0.20477700  1
  O  O30  1  0.82650400  0.63846100  0.20477700  1
  O  O31  1  0.32650400  0.36153900  0.79522300  1
  O  O32  1  0.12987700  0.42241900  0.14774600  1
  O  O33  1  0.62987700  0.57758100  0.85225400  1
  O  O34  1  0.87012300  0.57758100  0.85225400  1
  O  O35  1  0.37012300  0.42241900  0.14774600  1
  O  O36  1  0.06308600  0.10253600  0.98177300  1
  O  O37  1  0.56308600  0.89746400  0.01822700  1
  O  O38  1  0.93691400  0.89746400  0.01822700  1
  O  O39  1  0.43691400  0.10253600  0.98177300  1
  O  O40  1  0.12817200  0.95858700  0.61486100  1
  O  O41  1  0.62817200  0.04141300  0.38513900  1
  O  O42  1  0.87182800  0.04141300  0.38513900  1
  O  O43  1  0.37182800  0.95858700  0.61486100  1
  O  O44  1  0.03357000  0.62532900  0.81369900  1
  O  O45  1  0.53357000  0.37467100  0.18630100  1
  O  O46  1  0.96643000  0.37467100  0.18630100  1
  O  O47  1  0.46643000  0.62532900  0.81369900  1
  O  O48  1  0.00000000  0.00000000  0.50000000  1
  O  O49  1  0.50000000  0.00000000  0.50000000  1
  O  O50  1  0.07342100  0.62971600  0.43987200  1
  O  O51  1  0.57342100  0.37028400  0.56012800  1
  O  O52  1  0.92657900  0.37028400  0.56012800  1
  O  O53  1  0.42657900  0.62971600  0.43987200  1
