# generated using pymatgen
data_Nd3(SnPd)5
_symmetry_space_group_name_H-M   'P 1'
_cell_length_a   9.06427303
_cell_length_b   9.06427303
_cell_length_c   14.51452811
_cell_angle_alpha   80.69385191
_cell_angle_beta   80.69385191
_cell_angle_gamma   29.41220364
_symmetry_Int_Tables_number   1
_chemical_formula_structural   Nd3(SnPd)5
_chemical_formula_sum   'Nd6 Sn10 Pd10'
_cell_volume   577.39544247
_cell_formula_units_Z   2
loop_
 _symmetry_equiv_pos_site_id
 _symmetry_equiv_pos_as_xyz
  1  'x, y, z'
loop_
 _atom_site_type_symbol
 _atom_site_label
 _atom_site_symmetry_multiplicity
 _atom_site_fract_x
 _atom_site_fract_y
 _atom_site_fract_z
 _atom_site_occupancy
  Nd  Nd0  1  0.36304100  0.36304100  0.37089300  1
  Nd  Nd1  1  0.63695900  0.63695900  0.62910700  1
  Nd  Nd2  1  0.39832700  0.39832700  0.71495000  1
  Nd  Nd3  1  0.60167300  0.60167300  0.28505000  1
  Nd  Nd4  1  0.63576000  0.63576000  0.91410200  1
  Nd  Nd5  1  0.36424000  0.36424000  0.08589800  1
  Sn  Sn6  1  0.03059100  0.03059100  0.78015000  1
  Sn  Sn7  1  0.96940900  0.96940900  0.21985000  1
  Sn  Sn8  1  0.14941800  0.14941800  0.44854000  1
  Sn  Sn9  1  0.85058200  0.85058200  0.55146000  1
  Sn  Sn10  1  0.20354800  0.20354800  0.76005700  1
  Sn  Sn11  1  0.79645200  0.79645200  0.23994300  1
  Sn  Sn12  1  0.84792100  0.84792100  0.90585600  1
  Sn  Sn13  1  0.15207900  0.15207900  0.09414400  1
  Sn  Sn14  1  0.50000000  0.50000000  0.50000000  1
  Sn  Sn15  1  0.00000000  0.00000000  0.00000000  1
  Pd  Pd16  1  0.46457400  0.46457400  0.88626800  1
  Pd  Pd17  1  0.53542600  0.53542600  0.11373200  1
  Pd  Pd18  1  0.21656400  0.21656400  0.25908700  1
  Pd  Pd19  1  0.78343600  0.78343600  0.74091300  1
  Pd  Pd20  1  0.26080900  0.26080900  0.56802900  1
  Pd  Pd21  1  0.73919100  0.73919100  0.43197100  1
  Pd  Pd22  1  0.26517900  0.26517900  0.92627500  1
  Pd  Pd23  1  0.73482100  0.73482100  0.07372500  1
  Pd  Pd24  1  0.00816400  0.00816400  0.59807400  1
  Pd  Pd25  1  0.99183600  0.99183600  0.40192600  1
