# generated using pymatgen
data_K4Mg(MoO4)3
_symmetry_space_group_name_H-M   'P 1'
_cell_length_a   7.99771200
_cell_length_b   10.07718340
_cell_length_c   10.15661755
_cell_angle_alpha   92.96926581
_cell_angle_beta   106.52466387
_cell_angle_gamma   106.77480513
_symmetry_Int_Tables_number   1
_chemical_formula_structural   K4Mg(MoO4)3
_chemical_formula_sum   'K8 Mg2 Mo6 O24'
_cell_volume   743.32732712
_cell_formula_units_Z   2
loop_
 _symmetry_equiv_pos_site_id
 _symmetry_equiv_pos_as_xyz
  1  'x, y, z'
loop_
 _atom_site_type_symbol
 _atom_site_label
 _atom_site_symmetry_multiplicity
 _atom_site_fract_x
 _atom_site_fract_y
 _atom_site_fract_z
 _atom_site_occupancy
  K  K0  1  0.00000000  0.50000000  0.50000000  1
  K  K1  1  0.78282100  0.73935600  0.27530600  1
  K  K2  1  0.21717900  0.26064400  0.72469400  1
  K  K3  1  0.74858000  0.02779400  0.97499600  1
  K  K4  1  0.25142000  0.97220600  0.02500400  1
  K  K5  1  0.35600700  0.93221700  0.61319900  1
  K  K6  1  0.64399300  0.06778300  0.38680100  1
  K  K7  1  0.50000000  0.50000000  0.50000000  1
  Mg  Mg8  1  0.83156800  0.62688200  0.94530200  1
  Mg  Mg9  1  0.16843200  0.37311800  0.05469800  1
  Mo  Mo10  1  0.76895500  0.31751800  0.76049100  1
  Mo  Mo11  1  0.23104500  0.68248200  0.23950900  1
  Mo  Mo12  1  0.87661000  0.85967600  0.68379400  1
  Mo  Mo13  1  0.12339000  0.14032400  0.31620600  1
  Mo  Mo14  1  0.38372100  0.65062500  0.88980800  1
  Mo  Mo15  1  0.61627900  0.34937500  0.11019200  1
  O  O16  1  0.78703800  0.28449800  0.59213900  1
  O  O17  1  0.21296200  0.71550200  0.40786100  1
  O  O18  1  0.83346100  0.71524400  0.55378600  1
  O  O19  1  0.16653900  0.28475600  0.44621400  1
  O  O20  1  0.55814600  0.19872900  0.76688000  1
  O  O21  1  0.44185400  0.80127100  0.23312000  1
  O  O22  1  0.88238100  0.80726700  0.85461800  1
  O  O23  1  0.11761900  0.19273300  0.14538200  1
  O  O24  1  0.76473200  0.49756600  0.76802700  1
  O  O25  1  0.23526800  0.50243400  0.23197300  1
  O  O26  1  0.70137400  0.94012200  0.63093900  1
  O  O27  1  0.29862600  0.05987800  0.36906100  1
  O  O28  1  0.09494500  0.98681700  0.70508200  1
  O  O29  1  0.90505500  0.01318300  0.29491800  1
  O  O30  1  0.61260400  0.65407700  0.99151800  1
  O  O31  1  0.38739600  0.34592300  0.00848200  1
  O  O32  1  0.21469300  0.57378000  0.97407400  1
  O  O33  1  0.78530700  0.42622000  0.02592600  1
  O  O34  1  0.39282100  0.82753800  0.86995500  1
  O  O35  1  0.60717900  0.17246200  0.13004500  1
  O  O36  1  0.31959900  0.55165700  0.72192500  1
  O  O37  1  0.68040100  0.44834300  0.27807500  1
  O  O38  1  0.96430000  0.28013200  0.87859600  1
  O  O39  1  0.03570000  0.71986800  0.12140400  1
