# generated using pymatgen
data_Sc6MnTe2
_symmetry_space_group_name_H-M   'P 1'
_cell_length_a   7.71940763
_cell_length_b   7.71940763
_cell_length_c   3.87378800
_cell_angle_alpha   90.00000000
_cell_angle_beta   90.00000000
_cell_angle_gamma   119.99999681
_symmetry_Int_Tables_number   1
_chemical_formula_structural   Sc6MnTe2
_chemical_formula_sum   'Sc6 Mn1 Te2'
_cell_volume   199.90996565
_cell_formula_units_Z   1
loop_
 _symmetry_equiv_pos_site_id
 _symmetry_equiv_pos_as_xyz
  1  'x, y, z'
loop_
 _atom_site_type_symbol
 _atom_site_label
 _atom_site_symmetry_multiplicity
 _atom_site_fract_x
 _atom_site_fract_y
 _atom_site_fract_z
 _atom_site_occupancy
  Sc  Sc0  1  0.23426800  0.00000000  0.50000000  1
  Sc  Sc1  1  0.00000000  0.23426800  0.50000000  1
  Sc  Sc2  1  0.76573200  0.76573200  0.50000000  1
  Sc  Sc3  1  0.61947300  0.00000000  0.00000000  1
  Sc  Sc4  1  0.00000000  0.61947300  0.00000000  1
  Sc  Sc5  1  0.38052700  0.38052700  0.00000000  1
  Mn  Mn6  1  0.00000000  0.00000000  0.00000000  1
  Te  Te7  1  0.33333300  0.66666700  0.50000000  1
  Te  Te8  1  0.66666700  0.33333300  0.50000000  1
