# generated using pymatgen
data_EuSi2Ni
_symmetry_space_group_name_H-M   'P 1'
_cell_length_a   8.55806152
_cell_length_b   8.55806152
_cell_length_c   4.03478400
_cell_angle_alpha   90.00000000
_cell_angle_beta   90.00000000
_cell_angle_gamma   151.80679597
_symmetry_Int_Tables_number   1
_chemical_formula_structural   EuSi2Ni
_chemical_formula_sum   'Eu2 Si4 Ni2'
_cell_volume   139.61223640
_cell_formula_units_Z   2
loop_
 _symmetry_equiv_pos_site_id
 _symmetry_equiv_pos_as_xyz
  1  'x, y, z'
loop_
 _atom_site_type_symbol
 _atom_site_label
 _atom_site_symmetry_multiplicity
 _atom_site_fract_x
 _atom_site_fract_y
 _atom_site_fract_z
 _atom_site_occupancy
  Eu  Eu0  1  0.60701900  0.39298100  0.25000000  1
  Eu  Eu1  1  0.39298100  0.60701900  0.75000000  1
  Si  Si2  1  0.95858400  0.04141600  0.25000000  1
  Si  Si3  1  0.04141600  0.95858400  0.75000000  1
  Si  Si4  1  0.25051200  0.74948800  0.25000000  1
  Si  Si5  1  0.74948800  0.25051200  0.75000000  1
  Ni  Ni6  1  0.81943900  0.18056100  0.25000000  1
  Ni  Ni7  1  0.18056100  0.81943900  0.75000000  1
