# generated using pymatgen
data_Ho3(Al3Ru)4
_symmetry_space_group_name_H-M   'P 1'
_cell_length_a   8.81221830
_cell_length_b   8.81221830
_cell_length_c   9.58082000
_cell_angle_alpha   90.00000000
_cell_angle_beta   90.00000000
_cell_angle_gamma   120.00000226
_symmetry_Int_Tables_number   1
_chemical_formula_structural   Ho3(Al3Ru)4
_chemical_formula_sum   'Ho6 Al24 Ru8'
_cell_volume   644.32324150
_cell_formula_units_Z   2
loop_
 _symmetry_equiv_pos_site_id
 _symmetry_equiv_pos_as_xyz
  1  'x, y, z'
loop_
 _atom_site_type_symbol
 _atom_site_label
 _atom_site_symmetry_multiplicity
 _atom_site_fract_x
 _atom_site_fract_y
 _atom_site_fract_z
 _atom_site_occupancy
  Ho  Ho0  1  0.19372400  0.38744900  0.25000000  1
  Ho  Ho1  1  0.80627600  0.61255100  0.75000000  1
  Ho  Ho2  1  0.61255100  0.80627600  0.25000000  1
  Ho  Ho3  1  0.38744900  0.19372400  0.75000000  1
  Ho  Ho4  1  0.19372400  0.80627600  0.25000000  1
  Ho  Ho5  1  0.80627600  0.19372400  0.75000000  1
  Al  Al6  1  0.33333300  0.66666700  0.01500900  1
  Al  Al7  1  0.66666700  0.33333300  0.98499100  1
  Al  Al8  1  0.66666700  0.33333300  0.51500900  1
  Al  Al9  1  0.33333300  0.66666700  0.48499100  1
  Al  Al10  1  0.16193700  0.32387500  0.57749400  1
  Al  Al11  1  0.83806300  0.67612500  0.42250600  1
  Al  Al12  1  0.67612500  0.83806300  0.57749400  1
  Al  Al13  1  0.83806300  0.67612500  0.07749400  1
  Al  Al14  1  0.32387500  0.16193700  0.42250600  1
  Al  Al15  1  0.16193700  0.32387500  0.92250600  1
  Al  Al16  1  0.16193700  0.83806300  0.57749400  1
  Al  Al17  1  0.32387500  0.16193700  0.07749400  1
  Al  Al18  1  0.83806300  0.16193700  0.42250600  1
  Al  Al19  1  0.67612500  0.83806300  0.92250600  1
  Al  Al20  1  0.83806300  0.16193700  0.07749400  1
  Al  Al21  1  0.16193700  0.83806300  0.92250600  1
  Al  Al22  1  0.56083700  0.12167400  0.25000000  1
  Al  Al23  1  0.43916300  0.87832600  0.75000000  1
  Al  Al24  1  0.87832600  0.43916300  0.25000000  1
  Al  Al25  1  0.12167400  0.56083700  0.75000000  1
  Al  Al26  1  0.56083700  0.43916300  0.25000000  1
  Al  Al27  1  0.43916300  0.56083700  0.75000000  1
  Al  Al28  1  0.00000000  0.00000000  0.25000000  1
  Al  Al29  1  0.00000000  0.00000000  0.75000000  1
  Ru  Ru30  1  0.50000000  0.00000000  0.00000000  1
  Ru  Ru31  1  0.00000000  0.50000000  0.00000000  1
  Ru  Ru32  1  0.50000000  0.00000000  0.50000000  1
  Ru  Ru33  1  0.50000000  0.50000000  0.00000000  1
  Ru  Ru34  1  0.00000000  0.50000000  0.50000000  1
  Ru  Ru35  1  0.50000000  0.50000000  0.50000000  1
  Ru  Ru36  1  0.00000000  0.00000000  0.00000000  1
  Ru  Ru37  1  0.00000000  0.00000000  0.50000000  1
