# generated using pymatgen
data_K2NdBr5
_symmetry_space_group_name_H-M   'P 1'
_cell_length_a   8.59915000
_cell_length_b   9.29579100
_cell_length_c   13.64104300
_cell_angle_alpha   90.00000000
_cell_angle_beta   90.00000000
_cell_angle_gamma   90.00000000
_symmetry_Int_Tables_number   1
_chemical_formula_structural   K2NdBr5
_chemical_formula_sum   'K8 Nd4 Br20'
_cell_volume   1090.40906521
_cell_formula_units_Z   4
loop_
 _symmetry_equiv_pos_site_id
 _symmetry_equiv_pos_as_xyz
  1  'x, y, z'
loop_
 _atom_site_type_symbol
 _atom_site_label
 _atom_site_symmetry_multiplicity
 _atom_site_fract_x
 _atom_site_fract_y
 _atom_site_fract_z
 _atom_site_occupancy
  K  K0  1  0.95007000  0.00550700  0.82900300  1
  K  K1  1  0.04993000  0.99449300  0.17099700  1
  K  K2  1  0.45007000  0.99449300  0.67099700  1
  K  K3  1  0.04993000  0.50550700  0.17099700  1
  K  K4  1  0.54993000  0.00550700  0.32900300  1
  K  K5  1  0.95007000  0.49449300  0.82900300  1
  K  K6  1  0.54993000  0.49449300  0.32900300  1
  K  K7  1  0.45007000  0.50550700  0.67099700  1
  Nd  Nd8  1  0.92257700  0.75000000  0.50569200  1
  Nd  Nd9  1  0.07742300  0.25000000  0.49430800  1
  Nd  Nd10  1  0.42257700  0.25000000  0.99430800  1
  Nd  Nd11  1  0.57742300  0.75000000  0.00569200  1
  Br  Br12  1  0.12663400  0.75000000  0.68032900  1
  Br  Br13  1  0.87336600  0.25000000  0.31967100  1
  Br  Br14  1  0.62663400  0.25000000  0.81967100  1
  Br  Br15  1  0.37336600  0.75000000  0.18032900  1
  Br  Br16  1  0.83539300  0.04335000  0.57735800  1
  Br  Br17  1  0.16460700  0.95665000  0.42264200  1
  Br  Br18  1  0.33539300  0.95665000  0.92264200  1
  Br  Br19  1  0.16460700  0.54335000  0.42264200  1
  Br  Br20  1  0.66460700  0.04335000  0.07735800  1
  Br  Br21  1  0.83539300  0.45665000  0.57735800  1
  Br  Br22  1  0.66460700  0.45665000  0.07735800  1
  Br  Br23  1  0.33539300  0.54335000  0.92264200  1
  Br  Br24  1  0.57526900  0.75000000  0.50719800  1
  Br  Br25  1  0.42473100  0.25000000  0.49280200  1
  Br  Br26  1  0.07526900  0.25000000  0.99280200  1
  Br  Br27  1  0.92473100  0.75000000  0.00719800  1
  Br  Br28  1  0.66460300  0.75000000  0.79510800  1
  Br  Br29  1  0.33539700  0.25000000  0.20489200  1
  Br  Br30  1  0.16460300  0.25000000  0.70489200  1
  Br  Br31  1  0.83539700  0.75000000  0.29510800  1
