# generated using pymatgen
data_TbSiNi
_symmetry_space_group_name_H-M   'P 1'
_cell_length_a   4.19746500
_cell_length_b   6.94098400
_cell_length_c   7.18721100
_cell_angle_alpha   90.00000000
_cell_angle_beta   90.00000000
_cell_angle_gamma   90.00000000
_symmetry_Int_Tables_number   1
_chemical_formula_structural   TbSiNi
_chemical_formula_sum   'Tb4 Si4 Ni4'
_cell_volume   209.39606772
_cell_formula_units_Z   4
loop_
 _symmetry_equiv_pos_site_id
 _symmetry_equiv_pos_as_xyz
  1  'x, y, z'
loop_
 _atom_site_type_symbol
 _atom_site_label
 _atom_site_symmetry_multiplicity
 _atom_site_fract_x
 _atom_site_fract_y
 _atom_site_fract_z
 _atom_site_occupancy
  Tb  Tb0  1  0.25000000  0.48746800  0.19572400  1
  Tb  Tb1  1  0.75000000  0.51253200  0.80427600  1
  Tb  Tb2  1  0.75000000  0.01253200  0.69572400  1
  Tb  Tb3  1  0.25000000  0.98746800  0.30427600  1
  Si  Si4  1  0.25000000  0.80356800  0.90353700  1
  Si  Si5  1  0.75000000  0.19643200  0.09646300  1
  Si  Si6  1  0.75000000  0.69643200  0.40353700  1
  Si  Si7  1  0.25000000  0.30356800  0.59646300  1
  Ni  Ni8  1  0.25000000  0.65916900  0.57540900  1
  Ni  Ni9  1  0.75000000  0.34083100  0.42459100  1
  Ni  Ni10  1  0.75000000  0.84083100  0.07540900  1
  Ni  Ni11  1  0.25000000  0.15916900  0.92459100  1
