# generated using pymatgen
data_Pr2B5
_symmetry_space_group_name_H-M   'P 1'
_cell_length_a   8.48855354
_cell_length_b   8.48855354
_cell_length_c   7.36122192
_cell_angle_alpha   72.49904943
_cell_angle_beta   72.49904943
_cell_angle_gamma   51.20848741
_symmetry_Int_Tables_number   1
_chemical_formula_structural   Pr2B5
_chemical_formula_sum   'Pr8 B20'
_cell_volume   389.75944256
_cell_formula_units_Z   4
loop_
 _symmetry_equiv_pos_site_id
 _symmetry_equiv_pos_as_xyz
  1  'x, y, z'
loop_
 _atom_site_type_symbol
 _atom_site_label
 _atom_site_symmetry_multiplicity
 _atom_site_fract_x
 _atom_site_fract_y
 _atom_site_fract_z
 _atom_site_occupancy
  Pr  Pr0  1  0.94371700  0.81906300  0.22229600  1
  Pr  Pr1  1  0.18093700  0.05628300  0.27770400  1
  Pr  Pr2  1  0.05628300  0.18093700  0.77770400  1
  Pr  Pr3  1  0.81906300  0.94371700  0.72229600  1
  Pr  Pr4  1  0.45179800  0.31032800  0.09596000  1
  Pr  Pr5  1  0.68967200  0.54820200  0.40404000  1
  Pr  Pr6  1  0.54820200  0.68967200  0.90404000  1
  Pr  Pr7  1  0.31032800  0.45179800  0.59596000  1
  B  B8  1  0.79702000  0.28944400  0.15000200  1
  B  B9  1  0.71055600  0.20298000  0.34999800  1
  B  B10  1  0.20298000  0.71055600  0.84999800  1
  B  B11  1  0.28944400  0.79702000  0.65000200  1
  B  B12  1  0.40826800  0.09314700  0.90722000  1
  B  B13  1  0.90685300  0.59173200  0.59278000  1
  B  B14  1  0.59173200  0.90685300  0.09278000  1
  B  B15  1  0.09314700  0.40826800  0.40722000  1
  B  B16  1  0.95909300  0.53866100  0.82976600  1
  B  B17  1  0.46133900  0.04090700  0.67023400  1
  B  B18  1  0.04090700  0.46133900  0.17023400  1
  B  B19  1  0.53866100  0.95909300  0.32976600  1
  B  B20  1  0.82873000  0.67104000  0.04010600  1
  B  B21  1  0.32896000  0.17127000  0.45989400  1
  B  B22  1  0.17127000  0.32896000  0.95989400  1
  B  B23  1  0.67104000  0.82873000  0.54010600  1
  B  B24  1  0.08933400  0.59013800  0.93842800  1
  B  B25  1  0.40986200  0.91066600  0.56157200  1
  B  B26  1  0.91066600  0.40986200  0.06157200  1
  B  B27  1  0.59013800  0.08933400  0.43842800  1
