# generated using pymatgen
data_Sc13Os3Br16
_symmetry_space_group_name_H-M   'P 1'
_cell_length_a   9.02664900
_cell_length_b   10.75920200
_cell_length_c   19.32272500
_cell_angle_alpha   90.00000000
_cell_angle_beta   90.00000000
_cell_angle_gamma   90.00000000
_symmetry_Int_Tables_number   1
_chemical_formula_structural   Sc13Os3Br16
_chemical_formula_sum   'Sc26 Os6 Br32'
_cell_volume   1876.61416305
_cell_formula_units_Z   2
loop_
 _symmetry_equiv_pos_site_id
 _symmetry_equiv_pos_as_xyz
  1  'x, y, z'
loop_
 _atom_site_type_symbol
 _atom_site_label
 _atom_site_symmetry_multiplicity
 _atom_site_fract_x
 _atom_site_fract_y
 _atom_site_fract_z
 _atom_site_occupancy
  Sc  Sc0  1  0.82066300  0.60390100  0.39690000  1
  Sc  Sc1  1  0.82066300  0.39609900  0.60310000  1
  Sc  Sc2  1  0.67933700  0.10390100  0.10310000  1
  Sc  Sc3  1  0.67933700  0.89609900  0.89690000  1
  Sc  Sc4  1  0.17933700  0.39609900  0.60310000  1
  Sc  Sc5  1  0.17933700  0.60390100  0.39690000  1
  Sc  Sc6  1  0.32066300  0.89609900  0.89690000  1
  Sc  Sc7  1  0.32066300  0.10390100  0.10310000  1
  Sc  Sc8  1  0.81796200  0.32249400  0.43993900  1
  Sc  Sc9  1  0.81796200  0.67750600  0.56006100  1
  Sc  Sc10  1  0.68203800  0.82249400  0.06006100  1
  Sc  Sc11  1  0.68203800  0.17750600  0.93993900  1
  Sc  Sc12  1  0.18203800  0.67750600  0.56006100  1
  Sc  Sc13  1  0.18203800  0.32249400  0.43993900  1
  Sc  Sc14  1  0.31796200  0.17750600  0.93993900  1
  Sc  Sc15  1  0.31796200  0.82249400  0.06006100  1
  Sc  Sc16  1  0.50000000  0.29838900  0.52944500  1
  Sc  Sc17  1  0.50000000  0.70161100  0.47055500  1
  Sc  Sc18  1  0.00000000  0.79838900  0.97055500  1
  Sc  Sc19  1  0.00000000  0.20161100  0.02944500  1
  Sc  Sc20  1  0.50000000  0.44687100  0.38249200  1
  Sc  Sc21  1  0.50000000  0.55312900  0.61750800  1
  Sc  Sc22  1  0.00000000  0.94687100  0.11750800  1
  Sc  Sc23  1  0.00000000  0.05312900  0.88249200  1
  Sc  Sc24  1  0.00000000  0.00000000  0.50000000  1
  Sc  Sc25  1  0.50000000  0.50000000  0.00000000  1
  Os  Os26  1  0.66256900  0.50000000  0.50000000  1
  Os  Os27  1  0.83743100  0.00000000  0.00000000  1
  Os  Os28  1  0.33743100  0.50000000  0.50000000  1
  Os  Os29  1  0.16256900  0.00000000  0.00000000  1
  Os  Os30  1  0.00000000  0.50000000  0.50000000  1
  Os  Os31  1  0.50000000  0.00000000  0.00000000  1
  Br  Br32  1  0.00000000  0.13135700  0.38149400  1
  Br  Br33  1  0.00000000  0.86864300  0.61850600  1
  Br  Br34  1  0.50000000  0.63135700  0.11850600  1
  Br  Br35  1  0.50000000  0.36864300  0.88149400  1
  Br  Br36  1  0.76465200  0.40990700  0.30567500  1
  Br  Br37  1  0.76465200  0.59009300  0.69432500  1
  Br  Br38  1  0.73534800  0.90990700  0.19432500  1
  Br  Br39  1  0.73534800  0.09009300  0.80567500  1
  Br  Br40  1  0.23534800  0.59009300  0.69432500  1
  Br  Br41  1  0.23534800  0.40990700  0.30567500  1
  Br  Br42  1  0.26465200  0.09009300  0.80567500  1
  Br  Br43  1  0.26465200  0.90990700  0.19432500  1
  Br  Br44  1  0.77367200  0.14112000  0.55132900  1
  Br  Br45  1  0.77367200  0.85888000  0.44867100  1
  Br  Br46  1  0.72632800  0.64112000  0.94867100  1
  Br  Br47  1  0.72632800  0.35888000  0.05132900  1
  Br  Br48  1  0.22632800  0.85888000  0.44867100  1
  Br  Br49  1  0.22632800  0.14112000  0.55132900  1
  Br  Br50  1  0.27367200  0.35888000  0.05132900  1
  Br  Br51  1  0.27367200  0.64112000  0.94867100  1
  Br  Br52  1  0.00000000  0.71113000  0.30213500  1
  Br  Br53  1  0.00000000  0.28887000  0.69786500  1
  Br  Br54  1  0.50000000  0.21113000  0.19786500  1
  Br  Br55  1  0.50000000  0.78887000  0.80213500  1
  Br  Br56  1  0.50000000  0.18680300  0.40094000  1
  Br  Br57  1  0.50000000  0.81319700  0.59906000  1
  Br  Br58  1  0.00000000  0.68680300  0.09906000  1
  Br  Br59  1  0.00000000  0.31319700  0.90094000  1
  Br  Br60  1  0.50000000  0.31147800  0.67172600  1
  Br  Br61  1  0.50000000  0.68852200  0.32827400  1
  Br  Br62  1  0.00000000  0.81147800  0.82827400  1
  Br  Br63  1  0.00000000  0.18852200  0.17172600  1
