# generated using pymatgen
data_CsFe2F6
_symmetry_space_group_name_H-M   'P 1'
_cell_length_a   7.37055300
_cell_length_b   7.61124600
_cell_length_c   10.60913100
_cell_angle_alpha   90.00000000
_cell_angle_beta   90.00000000
_cell_angle_gamma   90.00000000
_symmetry_Int_Tables_number   1
_chemical_formula_structural   CsFe2F6
_chemical_formula_sum   'Cs4 Fe8 F24'
_cell_volume   595.16261642
_cell_formula_units_Z   4
loop_
 _symmetry_equiv_pos_site_id
 _symmetry_equiv_pos_as_xyz
  1  'x, y, z'
loop_
 _atom_site_type_symbol
 _atom_site_label
 _atom_site_symmetry_multiplicity
 _atom_site_fract_x
 _atom_site_fract_y
 _atom_site_fract_z
 _atom_site_occupancy
  Cs  Cs0  1  0.48840900  0.25000000  0.12587800  1
  Cs  Cs1  1  0.98840900  0.25000000  0.37412200  1
  Cs  Cs2  1  0.51159100  0.75000000  0.87412200  1
  Cs  Cs3  1  0.01159100  0.75000000  0.62587800  1
  Fe  Fe4  1  0.27885300  0.25000000  0.76232100  1
  Fe  Fe5  1  0.77885300  0.25000000  0.73767900  1
  Fe  Fe6  1  0.72114700  0.75000000  0.23767900  1
  Fe  Fe7  1  0.22114700  0.75000000  0.26232100  1
  Fe  Fe8  1  0.50000000  0.00000000  0.50000000  1
  Fe  Fe9  1  0.00000000  0.50000000  0.00000000  1
  Fe  Fe10  1  0.50000000  0.50000000  0.50000000  1
  Fe  Fe11  1  0.00000000  0.00000000  0.00000000  1
  F  F12  1  0.65064600  0.97429600  0.35076200  1
  F  F13  1  0.15064600  0.52570400  0.14923800  1
  F  F14  1  0.34935400  0.47429600  0.64923800  1
  F  F15  1  0.84935400  0.02570400  0.85076200  1
  F  F16  1  0.34935400  0.02570400  0.64923800  1
  F  F17  1  0.84935400  0.47429600  0.85076200  1
  F  F18  1  0.65064600  0.52570400  0.35076200  1
  F  F19  1  0.15064600  0.97429600  0.14923800  1
  F  F20  1  0.21885100  0.44190200  0.90486900  1
  F  F21  1  0.71885100  0.05809800  0.59513100  1
  F  F22  1  0.78114900  0.94190200  0.09513100  1
  F  F23  1  0.28114900  0.55809800  0.40486900  1
  F  F24  1  0.78114900  0.55809800  0.09513100  1
  F  F25  1  0.28114900  0.94190200  0.40486900  1
  F  F26  1  0.21885100  0.05809800  0.90486900  1
  F  F27  1  0.71885100  0.44190200  0.59513100  1
  F  F28  1  0.95903900  0.25000000  0.05019000  1
  F  F29  1  0.45903900  0.25000000  0.44981000  1
  F  F30  1  0.04096100  0.75000000  0.94981000  1
  F  F31  1  0.54096100  0.75000000  0.55019000  1
  F  F32  1  0.03824600  0.25000000  0.67412200  1
  F  F33  1  0.53824600  0.25000000  0.82587800  1
  F  F34  1  0.96175400  0.75000000  0.32587800  1
  F  F35  1  0.46175400  0.75000000  0.17412200  1
