# generated using pymatgen
data_CsCoF4
_symmetry_space_group_name_H-M   'P 1'
_cell_length_a   11.08279347
_cell_length_b   11.08279347
_cell_length_c   11.08279347
_cell_angle_alpha   111.04555308
_cell_angle_beta   111.04555308
_cell_angle_gamma   106.36645983
_symmetry_Int_Tables_number   1
_chemical_formula_structural   CsCoF4
_chemical_formula_sum   'Cs10 Co10 F40'
_cell_volume   1045.62258401
_cell_formula_units_Z   10
loop_
 _symmetry_equiv_pos_site_id
 _symmetry_equiv_pos_as_xyz
  1  'x, y, z'
loop_
 _atom_site_type_symbol
 _atom_site_label
 _atom_site_symmetry_multiplicity
 _atom_site_fract_x
 _atom_site_fract_y
 _atom_site_fract_z
 _atom_site_occupancy
  Cs  Cs0  1  0.75000000  0.75000000  0.00000000  1
  Cs  Cs1  1  0.25000000  0.25000000  0.00000000  1
  Cs  Cs2  1  0.83196300  0.00800800  0.49317400  1
  Cs  Cs3  1  0.51483400  0.33878900  0.50682600  1
  Cs  Cs4  1  0.01483400  0.50800800  0.17604500  1
  Cs  Cs5  1  0.33196300  0.83878900  0.82395500  1
  Cs  Cs6  1  0.66121100  0.16803700  0.17604500  1
  Cs  Cs7  1  0.99199200  0.48516600  0.82395500  1
  Cs  Cs8  1  0.16121100  0.98516600  0.49317400  1
  Cs  Cs9  1  0.49199200  0.66803700  0.50682600  1
  Co  Co10  1  0.00000000  0.50000000  0.50000000  1
  Co  Co11  1  0.50000000  0.00000000  0.50000000  1
  Co  Co12  1  0.70892900  0.57652400  0.28695600  1
  Co  Co13  1  0.28956800  0.42197300  0.71304400  1
  Co  Co14  1  0.78956800  0.07652400  0.86759500  1
  Co  Co15  1  0.20892900  0.92197300  0.13240500  1
  Co  Co16  1  0.57802700  0.29107100  0.86759500  1
  Co  Co17  1  0.42347600  0.71043200  0.13240500  1
  Co  Co18  1  0.07802700  0.21043200  0.28695600  1
  Co  Co19  1  0.92347600  0.79107100  0.71304400  1
  F  F20  1  0.15340000  0.50243100  0.65806200  1
  F  F21  1  0.84437000  0.49533800  0.34193800  1
  F  F22  1  0.34437000  0.00243100  0.34903200  1
  F  F23  1  0.65340000  0.99533800  0.65096800  1
  F  F24  1  0.50466200  0.84660000  0.34903200  1
  F  F25  1  0.49756900  0.15563000  0.65096800  1
  F  F26  1  0.00466200  0.65563000  0.65806200  1
  F  F27  1  0.99756900  0.34660000  0.34193800  1
  F  F28  1  0.35066600  0.56381400  0.91954300  1
  F  F29  1  0.64427100  0.43112300  0.08045700  1
  F  F30  1  0.14427100  0.06381400  0.21314800  1
  F  F31  1  0.85066600  0.93112300  0.78685200  1
  F  F32  1  0.56887700  0.64933400  0.21314800  1
  F  F33  1  0.43618600  0.35572900  0.78685200  1
  F  F34  1  0.06887700  0.85572900  0.91954300  1
  F  F35  1  0.93618600  0.14933400  0.08045700  1
  F  F36  1  0.55787400  0.84687200  0.12866900  1
  F  F37  1  0.71820300  0.42920400  0.87133100  1
  F  F38  1  0.21820300  0.34687200  0.28899800  1
  F  F39  1  0.05787400  0.92920400  0.71100200  1
  F  F40  1  0.57079600  0.44212600  0.28899800  1
  F  F41  1  0.15312800  0.28179700  0.71100200  1
  F  F42  1  0.07079600  0.78179700  0.12866900  1
  F  F43  1  0.65312800  0.94212600  0.87133100  1
  F  F44  1  0.43928300  0.15108100  0.86428000  1
  F  F45  1  0.28680100  0.57500400  0.13572000  1
  F  F46  1  0.78680100  0.65108100  0.71179800  1
  F  F47  1  0.93928300  0.07500400  0.28820200  1
  F  F48  1  0.42499600  0.56071700  0.71179800  1
  F  F49  1  0.84891900  0.71319900  0.28820200  1
  F  F50  1  0.92499600  0.21319900  0.86428000  1
  F  F51  1  0.34891900  0.06071700  0.13572000  1
  F  F52  1  0.77923100  0.72076900  0.50000000  1
  F  F53  1  0.22076900  0.27923100  0.50000000  1
  F  F54  1  0.72076900  0.22076900  0.94153700  1
  F  F55  1  0.27923100  0.77923100  0.05846300  1
  F  F56  1  0.63744900  0.13744900  0.50000000  1
  F  F57  1  0.13744900  0.63744900  0.50000000  1
  F  F58  1  0.86255100  0.36255100  0.50000000  1
  F  F59  1  0.36255100  0.86255100  0.50000000  1
