# generated using pymatgen
data_Sc5Re24
_symmetry_space_group_name_H-M   'P 1'
_cell_length_a   8.45460765
_cell_length_b   8.45460765
_cell_length_c   8.45460765
_cell_angle_alpha   109.47122063
_cell_angle_beta   109.47122063
_cell_angle_gamma   109.47122063
_symmetry_Int_Tables_number   1
_chemical_formula_structural   Sc5Re24
_chemical_formula_sum   'Sc5 Re24'
_cell_volume   465.22011392
_cell_formula_units_Z   1
loop_
 _symmetry_equiv_pos_site_id
 _symmetry_equiv_pos_as_xyz
  1  'x, y, z'
loop_
 _atom_site_type_symbol
 _atom_site_label
 _atom_site_symmetry_multiplicity
 _atom_site_fract_x
 _atom_site_fract_y
 _atom_site_fract_z
 _atom_site_occupancy
  Sc  Sc0  1  0.36647000  0.36647000  0.36647000  1
  Sc  Sc1  1  0.00000000  0.63353000  0.00000000  1
  Sc  Sc2  1  0.63353000  0.00000000  0.00000000  1
  Sc  Sc3  1  0.00000000  0.00000000  0.63353000  1
  Sc  Sc4  1  0.00000000  0.00000000  0.00000000  1
  Re  Re5  1  0.00000000  0.39790200  0.67754900  1
  Re  Re6  1  0.27964800  0.60209800  0.60209800  1
  Re  Re7  1  0.72035200  0.32245100  0.32245100  1
  Re  Re8  1  0.32245100  0.72035200  0.32245100  1
  Re  Re9  1  0.67754900  0.00000000  0.39790200  1
  Re  Re10  1  0.00000000  0.67754900  0.39790200  1
  Re  Re11  1  0.60209800  0.60209800  0.27964800  1
  Re  Re12  1  0.80773000  0.80773000  0.18541500  1
  Re  Re13  1  0.37768500  0.19227000  0.00000000  1
  Re  Re14  1  0.19227000  0.37768500  0.00000000  1
  Re  Re15  1  0.62231500  0.81458500  0.62231500  1
  Re  Re16  1  0.37768500  0.00000000  0.19227000  1
  Re  Re17  1  0.00000000  0.37768500  0.19227000  1
  Re  Re18  1  0.81458500  0.62231500  0.62231500  1
  Re  Re19  1  0.18541500  0.80773000  0.80773000  1
  Re  Re20  1  0.80773000  0.18541500  0.80773000  1
  Re  Re21  1  0.19227000  0.00000000  0.37768500  1
  Re  Re22  1  0.00000000  0.19227000  0.37768500  1
  Re  Re23  1  0.62231500  0.62231500  0.81458500  1
  Re  Re24  1  0.39790200  0.00000000  0.67754900  1
  Re  Re25  1  0.60209800  0.27964800  0.60209800  1
  Re  Re26  1  0.67754900  0.39790200  0.00000000  1
  Re  Re27  1  0.39790200  0.67754900  0.00000000  1
  Re  Re28  1  0.32245100  0.32245100  0.72035200  1
