# generated using pymatgen
data_CaS3O10
_symmetry_space_group_name_H-M   'P 1'
_cell_length_a   9.20999400
_cell_length_b   8.61753000
_cell_length_c   13.22469638
_cell_angle_alpha   50.83283563
_cell_angle_beta   90.00000000
_cell_angle_gamma   90.00000000
_symmetry_Int_Tables_number   1
_chemical_formula_structural   CaS3O10
_chemical_formula_sum   'Ca4 S12 O40'
_cell_volume   813.76934532
_cell_formula_units_Z   4
loop_
 _symmetry_equiv_pos_site_id
 _symmetry_equiv_pos_as_xyz
  1  'x, y, z'
loop_
 _atom_site_type_symbol
 _atom_site_label
 _atom_site_symmetry_multiplicity
 _atom_site_fract_x
 _atom_site_fract_y
 _atom_site_fract_z
 _atom_site_occupancy
  Ca  Ca0  1  0.22551800  0.22591300  0.47655200  1
  Ca  Ca1  1  0.27448200  0.22591300  0.97655200  1
  Ca  Ca2  1  0.77448200  0.77408700  0.52344800  1
  Ca  Ca3  1  0.72551800  0.77408700  0.02344800  1
  S  S4  1  0.83326000  0.35076800  0.49915700  1
  S  S5  1  0.66674000  0.35076800  0.99915700  1
  S  S6  1  0.16674000  0.64923200  0.50084300  1
  S  S7  1  0.33326000  0.64923200  0.00084300  1
  S  S8  1  0.92337500  0.94420200  0.71245600  1
  S  S9  1  0.57662500  0.94420200  0.21245600  1
  S  S10  1  0.07662500  0.05579800  0.28754400  1
  S  S11  1  0.42337500  0.05579800  0.78754400  1
  S  S12  1  0.61364700  0.29500400  0.36115900  1
  S  S13  1  0.88635300  0.29500400  0.86115900  1
  S  S14  1  0.38635300  0.70499600  0.63884100  1
  S  S15  1  0.11364700  0.70499600  0.13884100  1
  O  O16  1  0.07390200  0.99755100  0.67232200  1
  O  O17  1  0.42609800  0.99755100  0.17232200  1
  O  O18  1  0.92609800  0.00244900  0.32767800  1
  O  O19  1  0.57390200  0.00244900  0.82767800  1
  O  O20  1  0.93461500  0.32047900  0.43041100  1
  O  O21  1  0.56538500  0.32047900  0.93041100  1
  O  O22  1  0.06538500  0.67952100  0.56958900  1
  O  O23  1  0.43461500  0.67952100  0.06958900  1
  O  O24  1  0.83847500  0.53034500  0.48456500  1
  O  O25  1  0.66152500  0.53034500  0.98456500  1
  O  O26  1  0.16152500  0.46965500  0.51543500  1
  O  O27  1  0.33847500  0.46965500  0.01543500  1
  O  O28  1  0.89421200  0.83943700  0.84853100  1
  O  O29  1  0.60578800  0.83943700  0.34853100  1
  O  O30  1  0.10578800  0.16056300  0.15146900  1
  O  O31  1  0.39421200  0.16056300  0.65146900  1
  O  O32  1  0.67153100  0.33229700  0.46990900  1
  O  O33  1  0.82846900  0.33229700  0.96990900  1
  O  O34  1  0.32846900  0.66770300  0.53009100  1
  O  O35  1  0.17153100  0.66770300  0.03009100  1
  O  O36  1  0.84438400  0.17333300  0.65066700  1
  O  O37  1  0.65561600  0.17333300  0.15066700  1
  O  O38  1  0.15561600  0.82666700  0.34933300  1
  O  O39  1  0.34438400  0.82666700  0.84933300  1
  O  O40  1  0.84368000  0.87668000  0.65211100  1
  O  O41  1  0.65632000  0.87668000  0.15211100  1
  O  O42  1  0.15632000  0.12332000  0.34788900  1
  O  O43  1  0.34368000  0.12332000  0.84788900  1
  O  O44  1  0.46031600  0.32385300  0.36725000  1
  O  O45  1  0.03968400  0.32385300  0.86725000  1
  O  O46  1  0.53968400  0.67614700  0.63275000  1
  O  O47  1  0.96031600  0.67614700  0.13275000  1
  O  O48  1  0.68579600  0.45086300  0.24047400  1
  O  O49  1  0.81420400  0.45086300  0.74047400  1
  O  O50  1  0.31420400  0.54913700  0.75952600  1
  O  O51  1  0.18579600  0.54913700  0.25952600  1
  O  O52  1  0.65869600  0.09335900  0.42153400  1
  O  O53  1  0.84130400  0.09335900  0.92153400  1
  O  O54  1  0.34130400  0.90664100  0.57846600  1
  O  O55  1  0.15869600  0.90664100  0.07846600  1
