# generated using pymatgen
data_BaSi9Rh2
_symmetry_space_group_name_H-M   'P 1'
_cell_length_a   11.21513019
_cell_length_b   11.21513019
_cell_length_c   6.27844951
_cell_angle_alpha   89.91948667
_cell_angle_beta   89.91948667
_cell_angle_gamma   147.57229843
_symmetry_Int_Tables_number   1
_chemical_formula_structural   BaSi9Rh2
_chemical_formula_sum   'Ba2 Si18 Rh4'
_cell_volume   423.45831231
_cell_formula_units_Z   2
loop_
 _symmetry_equiv_pos_site_id
 _symmetry_equiv_pos_as_xyz
  1  'x, y, z'
loop_
 _atom_site_type_symbol
 _atom_site_label
 _atom_site_symmetry_multiplicity
 _atom_site_fract_x
 _atom_site_fract_y
 _atom_site_fract_z
 _atom_site_occupancy
  Ba  Ba0  1  0.68693700  0.31306300  0.75000000  1
  Ba  Ba1  1  0.31306300  0.68693700  0.25000000  1
  Si  Si2  1  0.16011700  0.83949700  0.52407300  1
  Si  Si3  1  0.16050300  0.83988300  0.97592700  1
  Si  Si4  1  0.83988300  0.16050300  0.47592700  1
  Si  Si5  1  0.83949700  0.16011700  0.02407300  1
  Si  Si6  1  0.11401100  0.43217900  0.75287400  1
  Si  Si7  1  0.56782100  0.88598900  0.74712600  1
  Si  Si8  1  0.88598900  0.56782100  0.24712600  1
  Si  Si9  1  0.43217900  0.11401100  0.25287400  1
  Si  Si10  1  0.08391300  0.17284400  0.61102300  1
  Si  Si11  1  0.82715600  0.91608700  0.88897700  1
  Si  Si12  1  0.91608700  0.82715600  0.38897700  1
  Si  Si13  1  0.17284400  0.08391300  0.11102300  1
  Si  Si14  1  0.67203900  0.58349200  0.88857600  1
  Si  Si15  1  0.41650800  0.32796100  0.61142400  1
  Si  Si16  1  0.32796100  0.41650800  0.11142400  1
  Si  Si17  1  0.58349200  0.67203900  0.38857600  1
  Si  Si18  1  0.25050700  0.74949300  0.75000000  1
  Si  Si19  1  0.74949300  0.25050700  0.25000000  1
  Rh  Rh20  1  0.06960700  0.93039300  0.75000000  1
  Rh  Rh21  1  0.93039300  0.06960700  0.25000000  1
  Rh  Rh22  1  0.43180100  0.56819900  0.75000000  1
  Rh  Rh23  1  0.56819900  0.43180100  0.25000000  1
