# generated using pymatgen
data_Ho4Zr3O12
_symmetry_space_group_name_H-M   'P 1'
_cell_length_a   6.36468927
_cell_length_b   6.40438227
_cell_length_c   6.57656115
_cell_angle_alpha   99.85718150
_cell_angle_beta   98.52723842
_cell_angle_gamma   99.58451329
_symmetry_Int_Tables_number   1
_chemical_formula_structural   Ho4Zr3O12
_chemical_formula_sum   'Ho4 Zr3 O12'
_cell_volume   256.08073331
_cell_formula_units_Z   1
loop_
 _symmetry_equiv_pos_site_id
 _symmetry_equiv_pos_as_xyz
  1  'x, y, z'
loop_
 _atom_site_type_symbol
 _atom_site_label
 _atom_site_symmetry_multiplicity
 _atom_site_fract_x
 _atom_site_fract_y
 _atom_site_fract_z
 _atom_site_occupancy
  Ho  Ho0  1  0.38897900  0.69948800  0.86529200  1
  Ho  Ho1  1  0.69463100  0.86496600  0.39059600  1
  Ho  Ho2  1  0.61102100  0.30051200  0.13470800  1
  Ho  Ho3  1  0.30536900  0.13503400  0.60940400  1
  Zr  Zr4  1  0.00000000  0.00000000  0.00000000  1
  Zr  Zr5  1  0.84910900  0.39651000  0.67169400  1
  Zr  Zr6  1  0.15089100  0.60349000  0.32830600  1
  O  O7  1  0.03058700  0.67779400  0.88769400  1
  O  O8  1  0.68500200  0.93098900  0.06119300  1
  O  O9  1  0.91956900  0.08358700  0.69262900  1
  O  O10  1  0.96941300  0.32220600  0.11230600  1
  O  O11  1  0.31499800  0.06901100  0.93880700  1
  O  O12  1  0.08043100  0.91641300  0.30737100  1
  O  O13  1  0.58656200  0.18745200  0.43313100  1
  O  O14  1  0.17320100  0.42893900  0.57255700  1
  O  O15  1  0.41443300  0.58095000  0.17897300  1
  O  O16  1  0.41343800  0.81254800  0.56686900  1
  O  O17  1  0.82679900  0.57106100  0.42744300  1
  O  O18  1  0.58556700  0.41905000  0.82102700  1
