# generated using pymatgen
data_P2Pb4SO12
_symmetry_space_group_name_H-M   'P 1'
_cell_length_a   9.24493930
_cell_length_b   9.24493930
_cell_length_c   9.24493930
_cell_angle_alpha   109.66213099
_cell_angle_beta   109.66213099
_cell_angle_gamma   109.09007093
_symmetry_Int_Tables_number   1
_chemical_formula_structural   P2Pb4SO12
_chemical_formula_sum   'P4 Pb8 S2 O24'
_cell_volume   608.24128921
_cell_formula_units_Z   2
loop_
 _symmetry_equiv_pos_site_id
 _symmetry_equiv_pos_as_xyz
  1  'x, y, z'
loop_
 _atom_site_type_symbol
 _atom_site_label
 _atom_site_symmetry_multiplicity
 _atom_site_fract_x
 _atom_site_fract_y
 _atom_site_fract_z
 _atom_site_occupancy
  P  P0  1  0.37500000  0.50059100  0.62559100  1
  P  P1  1  0.87500000  0.74940900  0.37440900  1
  P  P2  1  0.49940900  0.12500000  0.87440900  1
  P  P3  1  0.25059100  0.62500000  0.12559100  1
  Pb  Pb4  1  0.98158200  0.38864200  0.25039100  1
  Pb  Pb5  1  0.13825100  0.73119100  0.74960900  1
  Pb  Pb6  1  0.61174900  0.86135800  0.09294000  1
  Pb  Pb7  1  0.76841800  0.51880900  0.90706000  1
  Pb  Pb8  1  0.13864200  0.23158200  0.75039100  1
  Pb  Pb9  1  0.48119100  0.38825100  0.24960900  1
  Pb  Pb10  1  0.61135800  0.86174900  0.59294000  1
  Pb  Pb11  1  0.26880900  0.01841800  0.40706000  1
  S  S12  1  0.75000000  0.25000000  0.50000000  1
  S  S13  1  0.00000000  0.00000000  0.00000000  1
  O  O14  1  0.69017700  0.28649100  0.00921100  1
  O  O15  1  0.27728000  0.68096500  0.99078900  1
  O  O16  1  0.47272000  0.96350900  0.90368500  1
  O  O17  1  0.05982300  0.56903500  0.09631500  1
  O  O18  1  0.03649100  0.94017700  0.50921100  1
  O  O19  1  0.43096500  0.52728000  0.49078900  1
  O  O20  1  0.71350900  0.72272000  0.40368500  1
  O  O21  1  0.31903500  0.30982300  0.59631500  1
  O  O22  1  0.88044700  0.43290100  0.65475000  1
  O  O23  1  0.86955300  0.02430300  0.05245400  1
  O  O24  1  0.77815000  0.22569700  0.34525000  1
  O  O25  1  0.97185000  0.81709900  0.94754600  1
  O  O26  1  0.38494600  0.78638000  0.31727500  1
  O  O27  1  0.36505400  0.18232800  0.90143400  1
  O  O28  1  0.28089400  0.46362000  0.09856600  1
  O  O29  1  0.46910600  0.06767200  0.68272500  1
  O  O30  1  0.53638000  0.63494600  0.81727500  1
  O  O31  1  0.93232800  0.61505400  0.40143400  1
  O  O32  1  0.21362000  0.53089400  0.59856600  1
  O  O33  1  0.81767200  0.71910600  0.18272500  1
  O  O34  1  0.18290100  0.13044700  0.15475000  1
  O  O35  1  0.77430300  0.11955300  0.55245400  1
  O  O36  1  0.97569700  0.02815000  0.84525000  1
  O  O37  1  0.56709900  0.22185000  0.44754600  1
