# generated using pymatgen
data_DyPtF7
_symmetry_space_group_name_H-M   'P 1'
_cell_length_a   5.54934200
_cell_length_b   8.89106100
_cell_length_c   12.00019032
_cell_angle_alpha   62.42952366
_cell_angle_beta   90.00000000
_cell_angle_gamma   90.00000000
_symmetry_Int_Tables_number   1
_chemical_formula_structural   DyPtF7
_chemical_formula_sum   'Dy4 Pt4 F28'
_cell_volume   524.84810445
_cell_formula_units_Z   4
loop_
 _symmetry_equiv_pos_site_id
 _symmetry_equiv_pos_as_xyz
  1  'x, y, z'
loop_
 _atom_site_type_symbol
 _atom_site_label
 _atom_site_symmetry_multiplicity
 _atom_site_fract_x
 _atom_site_fract_y
 _atom_site_fract_z
 _atom_site_occupancy
  Dy  Dy0  1  0.76089900  0.81386300  0.76433200  1
  Dy  Dy1  1  0.26089900  0.18613700  0.73566800  1
  Dy  Dy2  1  0.23910100  0.18613700  0.23566800  1
  Dy  Dy3  1  0.73910100  0.81386300  0.26433200  1
  Pt  Pt4  1  0.75877700  0.27238700  0.95699600  1
  Pt  Pt5  1  0.25877700  0.72761300  0.54300400  1
  Pt  Pt6  1  0.24122300  0.72761300  0.04300400  1
  Pt  Pt7  1  0.74122300  0.27238700  0.45699600  1
  F  F8  1  0.43609000  0.70353400  0.91532200  1
  F  F9  1  0.93609000  0.29646600  0.58467800  1
  F  F10  1  0.56391000  0.29646600  0.08467800  1
  F  F11  1  0.06391000  0.70353400  0.41532200  1
  F  F12  1  0.44028700  0.27785600  0.54267700  1
  F  F13  1  0.94028700  0.72214400  0.95732300  1
  F  F14  1  0.55971300  0.72214400  0.45732300  1
  F  F15  1  0.05971300  0.27785600  0.04267700  1
  F  F16  1  0.77426300  0.52140600  0.85870900  1
  F  F17  1  0.27426300  0.47859400  0.64129100  1
  F  F18  1  0.22573700  0.47859400  0.14129100  1
  F  F19  1  0.72573700  0.52140600  0.35870900  1
  F  F20  1  0.75441400  0.02347700  0.05042100  1
  F  F21  1  0.25441400  0.97652300  0.44957900  1
  F  F22  1  0.24558600  0.97652300  0.94957900  1
  F  F23  1  0.74558600  0.02347700  0.55042100  1
  F  F24  1  0.96579400  0.72526300  0.63602900  1
  F  F25  1  0.46579400  0.27473700  0.86397100  1
  F  F26  1  0.03420600  0.27473700  0.36397100  1
  F  F27  1  0.53420600  0.72526300  0.13602900  1
  F  F28  1  0.05194200  0.74570000  0.17532500  1
  F  F29  1  0.55194200  0.25430000  0.32467500  1
  F  F30  1  0.94805800  0.25430000  0.82467500  1
  F  F31  1  0.44805800  0.74570000  0.67532500  1
  F  F32  1  0.41496500  0.96983100  0.23254700  1
  F  F33  1  0.91496500  0.03016900  0.26745300  1
  F  F34  1  0.58503500  0.03016900  0.76745300  1
  F  F35  1  0.08503500  0.96983100  0.73254700  1
