# generated using pymatgen
data_KB6
_symmetry_space_group_name_H-M   'P 1'
_cell_length_a   4.22514300
_cell_length_b   4.22514300
_cell_length_c   4.22514300
_cell_angle_alpha   90.00000000
_cell_angle_beta   90.00000000
_cell_angle_gamma   90.00000000
_symmetry_Int_Tables_number   1
_chemical_formula_structural   KB6
_chemical_formula_sum   'K1 B6'
_cell_volume   75.42654880
_cell_formula_units_Z   1
loop_
 _symmetry_equiv_pos_site_id
 _symmetry_equiv_pos_as_xyz
  1  'x, y, z'
loop_
 _atom_site_type_symbol
 _atom_site_label
 _atom_site_symmetry_multiplicity
 _atom_site_fract_x
 _atom_site_fract_y
 _atom_site_fract_z
 _atom_site_occupancy
  K  K0  1  0.50000000  0.50000000  0.50000000  1
  B  B1  1  0.69905500  0.00000000  0.00000000  1
  B  B2  1  0.30094500  0.00000000  0.00000000  1
  B  B3  1  0.00000000  0.00000000  0.69905500  1
  B  B4  1  0.00000000  0.00000000  0.30094500  1
  B  B5  1  0.00000000  0.30094500  0.00000000  1
  B  B6  1  0.00000000  0.69905500  0.00000000  1
