# generated using pymatgen
data_Sr2LiB10H3O19
_symmetry_space_group_name_H-M   'P 1'
_cell_length_a   6.70814367
_cell_length_b   11.18071505
_cell_length_c   11.46880556
_cell_angle_alpha   72.29970303
_cell_angle_beta   107.16467381
_cell_angle_gamma   72.63982305
_symmetry_Int_Tables_number   1
_chemical_formula_structural   Sr2LiB10H3O19
_chemical_formula_sum   'Sr4 Li2 B20 H6 O38'
_cell_volume   708.22319750
_cell_formula_units_Z   2
loop_
 _symmetry_equiv_pos_site_id
 _symmetry_equiv_pos_as_xyz
  1  'x, y, z'
loop_
 _atom_site_type_symbol
 _atom_site_label
 _atom_site_symmetry_multiplicity
 _atom_site_fract_x
 _atom_site_fract_y
 _atom_site_fract_z
 _atom_site_occupancy
  Sr  Sr0  1  0.68985600  0.98944100  0.37633700  1
  Sr  Sr1  1  0.31343800  0.01364900  0.62374900  1
  Sr  Sr2  1  0.73290000  0.45595800  0.90486200  1
  Sr  Sr3  1  0.26440600  0.53563000  0.09052700  1
  Li  Li4  1  0.50005500  0.01133300  0.99158100  1
  Li  Li5  1  0.23600600  0.87562400  0.08537800  1
  B  B6  1  0.20149200  0.50216000  0.81191500  1
  B  B7  1  0.79782100  0.49895200  0.18649800  1
  B  B8  1  0.37793000  0.26393100  0.99557100  1
  B  B9  1  0.62077400  0.73634800  0.00262300  1
  B  B10  1  0.24562600  0.30253700  0.75725400  1
  B  B11  1  0.74828300  0.70005000  0.24124000  1
  B  B12  1  0.33948100  0.70157500  0.35512700  1
  B  B13  1  0.66887500  0.29391200  0.64864600  1
  B  B14  1  0.13952300  0.14770100  0.07669900  1
  B  B15  1  0.85751700  0.85721700  0.92585000  1
  B  B16  1  0.22063500  0.95903900  0.29867300  1
  B  B17  1  0.78320700  0.04159000  0.70279200  1
  B  B18  1  0.81563600  0.69022700  0.69905200  1
  B  B19  1  0.18314400  0.30976200  0.30094100  1
  B  B20  1  0.39236300  0.77808600  0.53790500  1
  B  B21  1  0.60556200  0.22222000  0.46327900  1
  B  B22  1  0.12724400  0.72556200  0.64619100  1
  B  B23  1  0.87030700  0.27572200  0.35335300  1
  B  B24  1  0.81775100  0.13235400  0.14184900  1
  B  B25  1  0.18481200  0.86552500  0.85441800  1
  H  H26  1  0.11149900  0.32709200  0.57051000  1
  H  H27  1  0.88983300  0.67496300  0.42764100  1
  H  H28  1  0.43830800  0.50361700  0.38488700  1
  H  H29  1  0.56305900  0.49281800  0.61518300  1
  H  H30  1  0.04320900  0.10907200  0.90891400  1
  H  H31  1  0.90039100  0.87783500  0.10020500  1
  O  O32  1  0.58931700  0.72332600  0.67035600  1
  O  O33  1  0.40966500  0.27625000  0.33000000  1
  O  O34  1  0.35658400  0.59900100  0.30870000  1
  O  O35  1  0.64877500  0.39868000  0.69255900  1
  O  O36  1  0.97968800  0.57796100  0.81887000  1
  O  O37  1  0.02000900  0.42295100  0.18181800  1
  O  O38  1  0.41629300  0.66665900  0.49122000  1
  O  O39  1  0.57960800  0.33259500  0.51027500  1
  O  O40  1  0.88931800  0.76187000  0.60984100  1
  O  O41  1  0.10846000  0.23807400  0.38925200  1
  O  O42  1  0.17487500  0.06288300  0.99841000  1
  O  O43  1  0.82633000  0.94034300  0.00380000  1
  O  O44  1  0.28627800  0.60681700  0.75745800  1
  O  O45  1  0.71204800  0.39554600  0.24246400  1
  O  O46  1  0.59121900  0.16295900  0.11892100  1
  O  O47  1  0.41149600  0.83522500  0.87787800  1
  O  O48  1  0.20437900  0.24968400  0.66027400  1
  O  O49  1  0.79392500  0.75240800  0.33795900  1
  O  O50  1  0.17518100  0.81560500  0.56056800  1
  O  O51  1  0.82238300  0.18567400  0.43886200  1
  O  O52  1  0.88876200  0.20203400  0.05391200  1
  O  O53  1  0.11939100  0.80273400  0.95191400  1
  O  O54  1  0.14724500  0.44271600  0.71554500  1
  O  O55  1  0.85095800  0.56126100  0.28107700  1
  O  O56  1  0.37958500  0.21153800  0.88870300  1
  O  O57  1  0.60104500  0.79318400  0.10923100  1
  O  O58  1  0.97280400  0.02560200  0.26822000  1
  O  O59  1  0.02905500  0.96703900  0.72822800  1
  O  O60  1  0.17715100  0.27159700  0.02377000  1
  O  O61  1  0.82689300  0.73102400  0.98213000  1
  O  O62  1  0.37582000  0.40426000  0.94702300  1
  O  O63  1  0.62469400  0.59666500  0.05117900  1
  O  O64  1  0.37307200  0.90575700  0.44232400  1
  O  O65  1  0.62643400  0.09398000  0.55895000  1
  O  O66  1  0.24698200  0.83596500  0.26099300  1
  O  O67  1  0.77406600  0.15935500  0.74098700  1
  O  O68  1  0.28877900  0.05440500  0.22003400  1
  O  O69  1  0.71599000  0.94536800  0.78304900  1
