# generated using pymatgen
data_EuInO3
_symmetry_space_group_name_H-M   'P 1'
_cell_length_a   6.48276733
_cell_length_b   6.48276733
_cell_length_c   12.45952000
_cell_angle_alpha   90.00000000
_cell_angle_beta   90.00000000
_cell_angle_gamma   119.99999315
_symmetry_Int_Tables_number   1
_chemical_formula_structural   EuInO3
_chemical_formula_sum   'Eu6 In6 O18'
_cell_volume   453.47447087
_cell_formula_units_Z   6
loop_
 _symmetry_equiv_pos_site_id
 _symmetry_equiv_pos_as_xyz
  1  'x, y, z'
loop_
 _atom_site_type_symbol
 _atom_site_label
 _atom_site_symmetry_multiplicity
 _atom_site_fract_x
 _atom_site_fract_y
 _atom_site_fract_z
 _atom_site_occupancy
  Eu  Eu0  1  0.66666700  0.33333300  0.96741400  1
  Eu  Eu1  1  0.33333300  0.66666700  0.46741400  1
  Eu  Eu2  1  0.66666700  0.33333300  0.46741400  1
  Eu  Eu3  1  0.33333300  0.66666700  0.96741400  1
  Eu  Eu4  1  0.00000000  0.00000000  0.99150100  1
  Eu  Eu5  1  0.00000000  0.00000000  0.49150100  1
  In  In6  1  0.66688400  0.66688400  0.72676700  1
  In  In7  1  0.00000000  0.33311600  0.72676700  1
  In  In8  1  0.33311600  0.33311600  0.22676700  1
  In  In9  1  0.00000000  0.66688400  0.22676700  1
  In  In10  1  0.33311600  0.00000000  0.72676700  1
  In  In11  1  0.66688400  0.00000000  0.22676700  1
  O  O12  1  0.68464400  0.68464400  0.89749100  1
  O  O13  1  0.00000000  0.31535600  0.89749100  1
  O  O14  1  0.31535600  0.31535600  0.39749100  1
  O  O15  1  0.00000000  0.68464400  0.39749100  1
  O  O16  1  0.31535600  0.00000000  0.89749100  1
  O  O17  1  0.68464400  0.00000000  0.39749100  1
  O  O18  1  0.64857400  0.64857400  0.55735400  1
  O  O19  1  0.00000000  0.35142600  0.55735400  1
  O  O20  1  0.35142600  0.35142600  0.05735400  1
  O  O21  1  0.00000000  0.64857400  0.05735400  1
  O  O22  1  0.35142600  0.00000000  0.55735400  1
  O  O23  1  0.64857400  0.00000000  0.05735400  1
  O  O24  1  0.00000000  0.00000000  0.70326500  1
  O  O25  1  0.00000000  0.00000000  0.20326500  1
  O  O26  1  0.66666700  0.33333300  0.74572800  1
  O  O27  1  0.33333300  0.66666700  0.24572800  1
  O  O28  1  0.66666700  0.33333300  0.24572800  1
  O  O29  1  0.33333300  0.66666700  0.74572800  1
