# generated using pymatgen
data_Sr2N
_symmetry_space_group_name_H-M   'P 1'
_cell_length_a   7.33126725
_cell_length_b   7.33126725
_cell_length_c   7.33126711
_cell_angle_alpha   30.49784373
_cell_angle_beta   30.49784373
_cell_angle_gamma   30.49784321
_symmetry_Int_Tables_number   1
_chemical_formula_structural   Sr2N
_chemical_formula_sum   'Sr2 N1'
_cell_volume   89.96409807
_cell_formula_units_Z   1
loop_
 _symmetry_equiv_pos_site_id
 _symmetry_equiv_pos_as_xyz
  1  'x, y, z'
loop_
 _atom_site_type_symbol
 _atom_site_label
 _atom_site_symmetry_multiplicity
 _atom_site_fract_x
 _atom_site_fract_y
 _atom_site_fract_z
 _atom_site_occupancy
  Sr  Sr0  1  0.26776900  0.26776900  0.26776900  1
  Sr  Sr1  1  0.73223100  0.73223100  0.73223100  1
  N  N2  1  0.00000000  0.00000000  0.00000000  1
