# generated using pymatgen
data_TmGe2Os
_symmetry_space_group_name_H-M   'P 1'
_cell_length_a   8.35964200
_cell_length_b   9.62669200
_cell_length_c   10.56767200
_cell_angle_alpha   90.00000000
_cell_angle_beta   90.00000000
_cell_angle_gamma   90.00000000
_symmetry_Int_Tables_number   1
_chemical_formula_structural   TmGe2Os
_chemical_formula_sum   'Tm12 Ge24 Os12'
_cell_volume   850.44078851
_cell_formula_units_Z   12
loop_
 _symmetry_equiv_pos_site_id
 _symmetry_equiv_pos_as_xyz
  1  'x, y, z'
loop_
 _atom_site_type_symbol
 _atom_site_label
 _atom_site_symmetry_multiplicity
 _atom_site_fract_x
 _atom_site_fract_y
 _atom_site_fract_z
 _atom_site_occupancy
  Tm  Tm0  1  0.24524000  0.82310800  0.44942900  1
  Tm  Tm1  1  0.24524000  0.17689200  0.55057100  1
  Tm  Tm2  1  0.75476000  0.32310800  0.05057100  1
  Tm  Tm3  1  0.75476000  0.67689200  0.94942900  1
  Tm  Tm4  1  0.75476000  0.17689200  0.55057100  1
  Tm  Tm5  1  0.75476000  0.82310800  0.44942900  1
  Tm  Tm6  1  0.24524000  0.67689200  0.94942900  1
  Tm  Tm7  1  0.24524000  0.32310800  0.05057100  1
  Tm  Tm8  1  0.00000000  0.83560100  0.17693100  1
  Tm  Tm9  1  0.00000000  0.16439900  0.82306900  1
  Tm  Tm10  1  0.00000000  0.33560100  0.32306900  1
  Tm  Tm11  1  0.00000000  0.66439900  0.67693100  1
  Ge  Ge12  1  0.34819600  0.84162100  0.17960100  1
  Ge  Ge13  1  0.34819600  0.15837900  0.82039900  1
  Ge  Ge14  1  0.65180400  0.34162100  0.32039900  1
  Ge  Ge15  1  0.65180400  0.65837900  0.67960100  1
  Ge  Ge16  1  0.65180400  0.15837900  0.82039900  1
  Ge  Ge17  1  0.65180400  0.84162100  0.17960100  1
  Ge  Ge18  1  0.34819600  0.65837900  0.67960100  1
  Ge  Ge19  1  0.34819600  0.34162100  0.32039900  1
  Ge  Ge20  1  0.50000000  0.54496900  0.11757800  1
  Ge  Ge21  1  0.50000000  0.45503100  0.88242200  1
  Ge  Ge22  1  0.50000000  0.04496900  0.38242200  1
  Ge  Ge23  1  0.50000000  0.95503100  0.61757800  1
  Ge  Ge24  1  0.00000000  0.53634700  0.11831800  1
  Ge  Ge25  1  0.00000000  0.46365300  0.88168200  1
  Ge  Ge26  1  0.00000000  0.03634700  0.38168200  1
  Ge  Ge27  1  0.00000000  0.96365300  0.61831800  1
  Ge  Ge28  1  0.50000000  0.62783300  0.40354100  1
  Ge  Ge29  1  0.50000000  0.37216700  0.59645900  1
  Ge  Ge30  1  0.50000000  0.12783300  0.09645900  1
  Ge  Ge31  1  0.50000000  0.87216700  0.90354100  1
  Ge  Ge32  1  0.00000000  0.63043900  0.39918700  1
  Ge  Ge33  1  0.00000000  0.36956100  0.60081300  1
  Ge  Ge34  1  0.00000000  0.13043900  0.10081300  1
  Ge  Ge35  1  0.00000000  0.86956100  0.89918700  1
  Os  Os36  1  0.25051400  0.58881000  0.23741500  1
  Os  Os37  1  0.25051400  0.41119000  0.76258500  1
  Os  Os38  1  0.74948600  0.08881000  0.26258500  1
  Os  Os39  1  0.74948600  0.91119000  0.73741500  1
  Os  Os40  1  0.74948600  0.41119000  0.76258500  1
  Os  Os41  1  0.74948600  0.58881000  0.23741500  1
  Os  Os42  1  0.25051400  0.91119000  0.73741500  1
  Os  Os43  1  0.25051400  0.08881000  0.26258500  1
  Os  Os44  1  0.24888900  0.50000000  0.50000000  1
  Os  Os45  1  0.75111100  0.00000000  0.00000000  1
  Os  Os46  1  0.75111100  0.50000000  0.50000000  1
  Os  Os47  1  0.24888900  0.00000000  0.00000000  1
