# generated using pymatgen
data_Ce2(Ga3Ru)3
_symmetry_space_group_name_H-M   'P 1'
_cell_length_a   7.59702816
_cell_length_b   7.59702816
_cell_length_c   9.69186000
_cell_angle_alpha   90.00000000
_cell_angle_beta   90.00000000
_cell_angle_gamma   119.60215884
_symmetry_Int_Tables_number   1
_chemical_formula_structural   Ce2(Ga3Ru)3
_chemical_formula_sum   'Ce4 Ga18 Ru6'
_cell_volume   486.35385410
_cell_formula_units_Z   2
loop_
 _symmetry_equiv_pos_site_id
 _symmetry_equiv_pos_as_xyz
  1  'x, y, z'
loop_
 _atom_site_type_symbol
 _atom_site_label
 _atom_site_symmetry_multiplicity
 _atom_site_fract_x
 _atom_site_fract_y
 _atom_site_fract_z
 _atom_site_occupancy
  Ce  Ce0  1  0.99735800  0.66861400  0.25000000  1
  Ce  Ce1  1  0.00264200  0.33138600  0.75000000  1
  Ce  Ce2  1  0.66861400  0.99735800  0.25000000  1
  Ce  Ce3  1  0.33138600  0.00264200  0.75000000  1
  Ga  Ga4  1  0.12572900  0.12572900  0.25000000  1
  Ga  Ga5  1  0.87427100  0.87427100  0.75000000  1
  Ga  Ga6  1  0.00485500  0.33486500  0.07421900  1
  Ga  Ga7  1  0.99514500  0.66513500  0.92578100  1
  Ga  Ga8  1  0.99514500  0.66513500  0.57421900  1
  Ga  Ga9  1  0.33486500  0.00485500  0.42578100  1
  Ga  Ga10  1  0.00485500  0.33486500  0.42578100  1
  Ga  Ga11  1  0.66513500  0.99514500  0.57421900  1
  Ga  Ga12  1  0.66513500  0.99514500  0.92578100  1
  Ga  Ga13  1  0.33486500  0.00485500  0.07421900  1
  Ga  Ga14  1  0.33684100  0.33684100  0.55705500  1
  Ga  Ga15  1  0.66315900  0.66315900  0.44294500  1
  Ga  Ga16  1  0.66315900  0.66315900  0.05705500  1
  Ga  Ga17  1  0.33684100  0.33684100  0.94294500  1
  Ga  Ga18  1  0.33557300  0.54674300  0.25000000  1
  Ga  Ga19  1  0.66442700  0.45325700  0.75000000  1
  Ga  Ga20  1  0.54674300  0.33557300  0.25000000  1
  Ga  Ga21  1  0.45325700  0.66442700  0.75000000  1
  Ru  Ru22  1  0.67233800  0.32766200  0.00000000  1
  Ru  Ru23  1  0.32766200  0.67233800  0.00000000  1
  Ru  Ru24  1  0.32766200  0.67233800  0.50000000  1
  Ru  Ru25  1  0.67233800  0.32766200  0.50000000  1
  Ru  Ru26  1  0.00000000  0.00000000  0.00000000  1
  Ru  Ru27  1  0.00000000  0.00000000  0.50000000  1
