# generated using pymatgen
data_La3AuI3
_symmetry_space_group_name_H-M   'P 1'
_cell_length_a   11.09924831
_cell_length_b   11.09924831
_cell_length_c   11.09924831
_cell_angle_alpha   109.47122063
_cell_angle_beta   109.47122063
_cell_angle_gamma   109.47122063
_symmetry_Int_Tables_number   1
_chemical_formula_structural   La3AuI3
_chemical_formula_sum   'La12 Au4 I12'
_cell_volume   1052.58896251
_cell_formula_units_Z   4
loop_
 _symmetry_equiv_pos_site_id
 _symmetry_equiv_pos_as_xyz
  1  'x, y, z'
loop_
 _atom_site_type_symbol
 _atom_site_label
 _atom_site_symmetry_multiplicity
 _atom_site_fract_x
 _atom_site_fract_y
 _atom_site_fract_z
 _atom_site_occupancy
  La  La0  1  0.47193100  0.48596600  0.23596600  1
  La  La1  1  0.75000000  0.23596600  0.26403400  1
  La  La2  1  0.75000000  0.01403400  0.48596600  1
  La  La3  1  0.23596600  0.47193100  0.48596600  1
  La  La4  1  0.26403400  0.75000000  0.23596600  1
  La  La5  1  0.02806900  0.26403400  0.01403400  1
  La  La6  1  0.01403400  0.02806900  0.26403400  1
  La  La7  1  0.48596600  0.75000000  0.01403400  1
  La  La8  1  0.48596600  0.23596600  0.47193100  1
  La  La9  1  0.01403400  0.48596600  0.75000000  1
  La  La10  1  0.26403400  0.01403400  0.02806900  1
  La  La11  1  0.23596600  0.26403400  0.75000000  1
  Au  Au12  1  0.25000000  0.25000000  0.25000000  1
  Au  Au13  1  0.50000000  0.00000000  0.25000000  1
  Au  Au14  1  0.00000000  0.25000000  0.50000000  1
  Au  Au15  1  0.25000000  0.50000000  0.00000000  1
  I  I16  1  0.25000000  0.76022800  0.73977200  1
  I  I17  1  0.52045700  0.51022800  0.76022800  1
  I  I18  1  0.97954300  0.73977200  0.98977200  1
  I  I19  1  0.73977200  0.25000000  0.76022800  1
  I  I20  1  0.98977200  0.97954300  0.73977200  1
  I  I21  1  0.25000000  0.98977200  0.51022800  1
  I  I22  1  0.76022800  0.52045700  0.51022800  1
  I  I23  1  0.51022800  0.25000000  0.98977200  1
  I  I24  1  0.76022800  0.73977200  0.25000000  1
  I  I25  1  0.73977200  0.98977200  0.97954300  1
  I  I26  1  0.98977200  0.51022800  0.25000000  1
  I  I27  1  0.51022800  0.76022800  0.52045700  1
