# generated using pymatgen
data_K2Hg6S7
_symmetry_space_group_name_H-M   'P 1'
_cell_length_a   4.16871500
_cell_length_b   14.15092000
_cell_length_c   14.15110000
_cell_angle_alpha   89.99967608
_cell_angle_beta   90.00093292
_cell_angle_gamma   90.00112631
_symmetry_Int_Tables_number   1
_chemical_formula_structural   K2Hg6S7
_chemical_formula_sum   'K4 Hg12 S14'
_cell_volume   834.78969754
_cell_formula_units_Z   2
loop_
 _symmetry_equiv_pos_site_id
 _symmetry_equiv_pos_as_xyz
  1  'x, y, z'
loop_
 _atom_site_type_symbol
 _atom_site_label
 _atom_site_symmetry_multiplicity
 _atom_site_fract_x
 _atom_site_fract_y
 _atom_site_fract_z
 _atom_site_occupancy
  K  K0  1  0.23595800  0.17129800  0.67100000  1
  K  K1  1  0.23595300  0.82870800  0.32900400  1
  K  K2  1  0.76403800  0.67101200  0.82871000  1
  K  K3  1  0.76403600  0.32870300  0.17099500  1
  Hg  Hg4  1  0.27546100  0.59808700  0.09844300  1
  Hg  Hg5  1  0.27546500  0.40191700  0.90156200  1
  Hg  Hg6  1  0.72453900  0.09844200  0.40191900  1
  Hg  Hg7  1  0.72453700  0.90192500  0.59845200  1
  Hg  Hg8  1  0.23883900  0.06773800  0.15887100  1
  Hg  Hg9  1  0.23881600  0.93224500  0.84115500  1
  Hg  Hg10  1  0.76116400  0.15886100  0.93224300  1
  Hg  Hg11  1  0.76117700  0.43223900  0.65886400  1
  Hg  Hg12  1  0.76116600  0.84113700  0.06774600  1
  Hg  Hg13  1  0.76118000  0.56775000  0.34113600  1
  Hg  Hg14  1  0.23882100  0.34114300  0.43223400  1
  Hg  Hg15  1  0.23884000  0.65888000  0.56775100  1
  S  S16  1  0.25464400  0.19587700  0.03493800  1
  S  S17  1  0.25463800  0.80411600  0.96507100  1
  S  S18  1  0.74535500  0.03496000  0.80412200  1
  S  S19  1  0.74536100  0.30413300  0.53493700  1
  S  S20  1  0.74535800  0.96506100  0.19588300  1
  S  S21  1  0.74535400  0.69587300  0.46508400  1
  S  S22  1  0.25464000  0.46506100  0.30412600  1
  S  S23  1  0.25465000  0.53494500  0.69587000  1
  S  S24  1  0.66886300  0.68538100  0.18548600  1
  S  S25  1  0.66885800  0.31462600  0.81451700  1
  S  S26  1  0.33114600  0.18548400  0.31461800  1
  S  S27  1  0.33114400  0.81461600  0.68547800  1
  S  S28  1  0.05656300  0.00002600  0.50002500  1
  S  S29  1  0.94343800  0.49999800  0.00000000  1
