# generated using pymatgen
data_Ti2NiS4
_symmetry_space_group_name_H-M   'P 1'
_cell_length_a   6.58984053
_cell_length_b   6.58984053
_cell_length_c   5.86851234
_cell_angle_alpha   63.63324343
_cell_angle_beta   63.63324343
_cell_angle_gamma   29.96734045
_symmetry_Int_Tables_number   1
_chemical_formula_structural   Ti2NiS4
_chemical_formula_sum   'Ti2 Ni1 S4'
_cell_volume   113.04625048
_cell_formula_units_Z   1
loop_
 _symmetry_equiv_pos_site_id
 _symmetry_equiv_pos_as_xyz
  1  'x, y, z'
loop_
 _atom_site_type_symbol
 _atom_site_label
 _atom_site_symmetry_multiplicity
 _atom_site_fract_x
 _atom_site_fract_y
 _atom_site_fract_z
 _atom_site_occupancy
  Ti  Ti0  1  0.25601700  0.25601700  0.73783100  1
  Ti  Ti1  1  0.74398300  0.74398300  0.26216900  1
  Ni  Ni2  1  0.00000000  0.00000000  0.00000000  1
  S  S3  1  0.37687200  0.37687200  0.96039900  1
  S  S4  1  0.62312800  0.62312800  0.03960100  1
  S  S5  1  0.11850800  0.11850800  0.55282700  1
  S  S6  1  0.88149200  0.88149200  0.44717300  1
