# generated using pymatgen
data_ZrGeRh
_symmetry_space_group_name_H-M   'P 1'
_cell_length_a   4.03474900
_cell_length_b   6.66570300
_cell_length_c   7.63396300
_cell_angle_alpha   90.00000000
_cell_angle_beta   90.00000000
_cell_angle_gamma   90.00000000
_symmetry_Int_Tables_number   1
_chemical_formula_structural   ZrGeRh
_chemical_formula_sum   'Zr4 Ge4 Rh4'
_cell_volume   205.31114852
_cell_formula_units_Z   4
loop_
 _symmetry_equiv_pos_site_id
 _symmetry_equiv_pos_as_xyz
  1  'x, y, z'
loop_
 _atom_site_type_symbol
 _atom_site_label
 _atom_site_symmetry_multiplicity
 _atom_site_fract_x
 _atom_site_fract_y
 _atom_site_fract_z
 _atom_site_occupancy
  Zr  Zr0  1  0.25000000  0.02219100  0.81249100  1
  Zr  Zr1  1  0.25000000  0.52219100  0.68750900  1
  Zr  Zr2  1  0.75000000  0.97780900  0.18750900  1
  Zr  Zr3  1  0.75000000  0.47780900  0.31249100  1
  Ge  Ge4  1  0.25000000  0.76801200  0.37952600  1
  Ge  Ge5  1  0.25000000  0.26801200  0.12047400  1
  Ge  Ge6  1  0.75000000  0.23198800  0.62047400  1
  Ge  Ge7  1  0.75000000  0.73198800  0.87952600  1
  Rh  Rh8  1  0.25000000  0.14681200  0.43784200  1
  Rh  Rh9  1  0.25000000  0.64681200  0.06215800  1
  Rh  Rh10  1  0.75000000  0.85318800  0.56215800  1
  Rh  Rh11  1  0.75000000  0.35318800  0.93784200  1
