# generated using pymatgen
data_Er2(Al3Rh)3
_symmetry_space_group_name_H-M   'P 1'
_cell_length_a   7.54026554
_cell_length_b   7.54026554
_cell_length_c   9.43917200
_cell_angle_alpha   90.00000000
_cell_angle_beta   90.00000000
_cell_angle_gamma   119.56407233
_symmetry_Int_Tables_number   1
_chemical_formula_structural   Er2(Al3Rh)3
_chemical_formula_sum   'Er4 Al18 Rh6'
_cell_volume   466.79782539
_cell_formula_units_Z   2
loop_
 _symmetry_equiv_pos_site_id
 _symmetry_equiv_pos_as_xyz
  1  'x, y, z'
loop_
 _atom_site_type_symbol
 _atom_site_label
 _atom_site_symmetry_multiplicity
 _atom_site_fract_x
 _atom_site_fract_y
 _atom_site_fract_z
 _atom_site_occupancy
  Er  Er0  1  0.99525800  0.66938100  0.75000000  1
  Er  Er1  1  0.00474200  0.33061900  0.25000000  1
  Er  Er2  1  0.66938100  0.99525800  0.75000000  1
  Er  Er3  1  0.33061900  0.00474200  0.25000000  1
  Al  Al4  1  0.12569800  0.12569800  0.75000000  1
  Al  Al5  1  0.87430200  0.87430200  0.25000000  1
  Al  Al6  1  0.00099600  0.33469200  0.57400700  1
  Al  Al7  1  0.99900400  0.66530800  0.42599300  1
  Al  Al8  1  0.99900400  0.66530800  0.07400700  1
  Al  Al9  1  0.33469200  0.00099600  0.92599300  1
  Al  Al10  1  0.00099600  0.33469200  0.92599300  1
  Al  Al11  1  0.66530800  0.99900400  0.07400700  1
  Al  Al12  1  0.66530800  0.99900400  0.42599300  1
  Al  Al13  1  0.33469200  0.00099600  0.57400700  1
  Al  Al14  1  0.33332700  0.33332700  0.05383300  1
  Al  Al15  1  0.66667300  0.66667300  0.94616700  1
  Al  Al16  1  0.66667300  0.66667300  0.55383300  1
  Al  Al17  1  0.33332700  0.33332700  0.44616700  1
  Al  Al18  1  0.33764000  0.54792100  0.75000000  1
  Al  Al19  1  0.66236000  0.45207900  0.25000000  1
  Al  Al20  1  0.54792100  0.33764000  0.75000000  1
  Al  Al21  1  0.45207900  0.66236000  0.25000000  1
  Rh  Rh22  1  0.67199500  0.32800500  0.50000000  1
  Rh  Rh23  1  0.32800500  0.67199500  0.50000000  1
  Rh  Rh24  1  0.32800500  0.67199500  0.00000000  1
  Rh  Rh25  1  0.67199500  0.32800500  0.00000000  1
  Rh  Rh26  1  0.00000000  0.00000000  0.50000000  1
  Rh  Rh27  1  0.00000000  0.00000000  0.00000000  1
