# generated using pymatgen
data_Ba5GaRu2O11
_symmetry_space_group_name_H-M   'P 1'
_cell_length_a   5.91770000
_cell_length_b   11.23289100
_cell_length_c   19.02670100
_cell_angle_alpha   90.00000000
_cell_angle_beta   90.00000000
_cell_angle_gamma   90.00000000
_symmetry_Int_Tables_number   1
_chemical_formula_structural   Ba5GaRu2O11
_chemical_formula_sum   'Ba20 Ga4 Ru8 O44'
_cell_volume   1264.75959469
_cell_formula_units_Z   4
loop_
 _symmetry_equiv_pos_site_id
 _symmetry_equiv_pos_as_xyz
  1  'x, y, z'
loop_
 _atom_site_type_symbol
 _atom_site_label
 _atom_site_symmetry_multiplicity
 _atom_site_fract_x
 _atom_site_fract_y
 _atom_site_fract_z
 _atom_site_occupancy
  Ba  Ba0  1  0.25000000  0.60671000  0.52654500  1
  Ba  Ba1  1  0.75000000  0.39329000  0.47345500  1
  Ba  Ba2  1  0.75000000  0.10671000  0.97345500  1
  Ba  Ba3  1  0.25000000  0.89329000  0.02654500  1
  Ba  Ba4  1  0.25000000  0.80861600  0.36200500  1
  Ba  Ba5  1  0.75000000  0.19138400  0.63799500  1
  Ba  Ba6  1  0.75000000  0.30861600  0.13799500  1
  Ba  Ba7  1  0.25000000  0.69138400  0.86200500  1
  Ba  Ba8  1  0.25000000  0.13130900  0.24995300  1
  Ba  Ba9  1  0.75000000  0.86869100  0.75004700  1
  Ba  Ba10  1  0.75000000  0.63130900  0.25004700  1
  Ba  Ba11  1  0.25000000  0.36869100  0.74995300  1
  Ba  Ba12  1  0.25000000  0.45254000  0.33072000  1
  Ba  Ba13  1  0.75000000  0.54746000  0.66928000  1
  Ba  Ba14  1  0.75000000  0.95254000  0.16928000  1
  Ba  Ba15  1  0.25000000  0.04746000  0.83072000  1
  Ba  Ba16  1  0.25000000  0.52878500  0.06758500  1
  Ba  Ba17  1  0.75000000  0.47121500  0.93241500  1
  Ba  Ba18  1  0.75000000  0.02878500  0.43241500  1
  Ba  Ba19  1  0.25000000  0.97121500  0.56758500  1
  Ga  Ga20  1  0.25000000  0.76165500  0.18840300  1
  Ga  Ga21  1  0.75000000  0.23834500  0.81159700  1
  Ga  Ga22  1  0.75000000  0.26165500  0.31159700  1
  Ga  Ga23  1  0.25000000  0.73834500  0.68840300  1
  Ru  Ru24  1  0.25000000  0.20454600  0.44085800  1
  Ru  Ru25  1  0.75000000  0.79545400  0.55914200  1
  Ru  Ru26  1  0.75000000  0.70454600  0.05914200  1
  Ru  Ru27  1  0.25000000  0.29545400  0.94085800  1
  Ru  Ru28  1  0.25000000  0.20932200  0.06423500  1
  Ru  Ru29  1  0.75000000  0.79067800  0.93576500  1
  Ru  Ru30  1  0.75000000  0.70932200  0.43576500  1
  Ru  Ru31  1  0.25000000  0.29067800  0.56423500  1
  O  O32  1  0.25000000  0.04293100  0.41032400  1
  O  O33  1  0.75000000  0.95706900  0.58967600  1
  O  O34  1  0.75000000  0.54293100  0.08967600  1
  O  O35  1  0.25000000  0.45706900  0.91032400  1
  O  O36  1  0.25000000  0.30820400  0.14885100  1
  O  O37  1  0.75000000  0.69179600  0.85114900  1
  O  O38  1  0.75000000  0.80820400  0.35114900  1
  O  O39  1  0.25000000  0.19179600  0.64885100  1
  O  O40  1  0.25000000  0.63859500  0.25149600  1
  O  O41  1  0.75000000  0.36140500  0.74850400  1
  O  O42  1  0.75000000  0.13859500  0.24850400  1
  O  O43  1  0.25000000  0.86140500  0.75149600  1
  O  O44  1  0.01600600  0.10600700  0.09865900  1
  O  O45  1  0.98399400  0.89399300  0.90134100  1
  O  O46  1  0.98399400  0.60600700  0.40134100  1
  O  O47  1  0.51600600  0.89399300  0.90134100  1
  O  O48  1  0.01600600  0.39399300  0.59865900  1
  O  O49  1  0.48399400  0.10600700  0.09865900  1
  O  O50  1  0.48399400  0.39399300  0.59865900  1
  O  O51  1  0.51600600  0.60600700  0.40134100  1
  O  O52  1  0.01442700  0.32441900  0.01716500  1
  O  O53  1  0.98557300  0.67558100  0.98283500  1
  O  O54  1  0.98557300  0.82441900  0.48283500  1
  O  O55  1  0.51442700  0.67558100  0.98283500  1
  O  O56  1  0.01442700  0.17558100  0.51716500  1
  O  O57  1  0.48557300  0.32441900  0.01716500  1
  O  O58  1  0.48557300  0.17558100  0.51716500  1
  O  O59  1  0.51442700  0.82441900  0.48283500  1
  O  O60  1  0.25000000  0.38284600  0.46978800  1
  O  O61  1  0.75000000  0.61715400  0.53021200  1
  O  O62  1  0.75000000  0.88284600  0.03021200  1
  O  O63  1  0.25000000  0.11715400  0.96978800  1
  O  O64  1  0.25000000  0.91006200  0.22935000  1
  O  O65  1  0.75000000  0.08993800  0.77065000  1
  O  O66  1  0.75000000  0.41006200  0.27065000  1
  O  O67  1  0.25000000  0.58993800  0.72935000  1
  O  O68  1  0.49098400  0.24760400  0.36735900  1
  O  O69  1  0.50901600  0.75239600  0.63264100  1
  O  O70  1  0.50901600  0.74760400  0.13264100  1
  O  O71  1  0.99098400  0.75239600  0.63264100  1
  O  O72  1  0.49098400  0.25239600  0.86735900  1
  O  O73  1  0.00901600  0.24760400  0.36735900  1
  O  O74  1  0.00901600  0.25239600  0.86735900  1
  O  O75  1  0.99098400  0.74760400  0.13264100  1
