# generated using pymatgen
data_Ba9Ca3La4(Fe4O15)2
_symmetry_space_group_name_H-M   'P 1'
_cell_length_a   7.05238700
_cell_length_b   11.81285005
_cell_length_c   11.82451551
_cell_angle_alpha   119.96157004
_cell_angle_beta   90.00193336
_cell_angle_gamma   90.00533047
_symmetry_Int_Tables_number   1
_chemical_formula_structural   Ba9Ca3La4(Fe4O15)2
_chemical_formula_sum   'Ba9 Ca3 La4 Fe8 O30'
_cell_volume   853.43973522
_cell_formula_units_Z   1
loop_
 _symmetry_equiv_pos_site_id
 _symmetry_equiv_pos_as_xyz
  1  'x, y, z'
loop_
 _atom_site_type_symbol
 _atom_site_label
 _atom_site_symmetry_multiplicity
 _atom_site_fract_x
 _atom_site_fract_y
 _atom_site_fract_z
 _atom_site_occupancy
  Ba  Ba0  1  0.68393500  0.34759700  0.17939000  1
  Ba  Ba1  1  0.67849200  0.83077900  0.17591200  1
  Ba  Ba2  1  0.68143700  0.82406600  0.65245900  1
  Ba  Ba3  1  0.16830200  0.66234900  0.82784900  1
  Ba  Ba4  1  0.17383400  0.16487400  0.82464200  1
  Ba  Ba5  1  0.17133800  0.16840400  0.34041500  1
  Ba  Ba6  1  0.99478300  0.66796200  0.33856600  1
  Ba  Ba7  1  0.49376900  0.32924700  0.66124800  1
  Ba  Ba8  1  0.49967700  0.99991400  0.99970700  1
  Ca  Ca9  1  0.99608900  0.00045200  0.00026600  1
  Ca  Ca10  1  0.35099400  0.96072700  0.48040900  1
  Ca  Ca11  1  0.85160200  0.47991200  0.52027100  1
  La  La12  1  0.34428000  0.52040700  0.47952800  1
  La  La13  1  0.34510300  0.52164500  0.04308800  1
  La  La14  1  0.84505900  0.04250200  0.52135800  1
  La  La15  1  0.84540300  0.47794500  0.95560200  1
  Fe  Fe16  1  0.53490200  0.67028700  0.33613800  1
  Fe  Fe17  1  0.03703700  0.33413700  0.66377800  1
  Fe  Fe18  1  0.16654900  0.35282200  0.17766000  1
  Fe  Fe19  1  0.16959300  0.82435900  0.17967100  1
  Fe  Fe20  1  0.16935600  0.82289600  0.64443800  1
  Fe  Fe21  1  0.67806000  0.64745000  0.82166700  1
  Fe  Fe22  1  0.67522200  0.17382500  0.82388900  1
  Fe  Fe23  1  0.67794200  0.17727300  0.35275800  1
  O  O24  1  0.34904300  0.49454300  0.24615500  1
  O  O25  1  0.35010300  0.75063700  0.24769500  1
  O  O26  1  0.34918000  0.75128600  0.50162900  1
  O  O27  1  0.84940500  0.50166900  0.75143400  1
  O  O28  1  0.84848100  0.24906300  0.75314300  1
  O  O29  1  0.84853700  0.25053700  0.49964400  1
  O  O30  1  0.53812700  0.61034700  0.93757700  1
  O  O31  1  0.53634400  0.06162500  0.67202200  1
  O  O32  1  0.53064300  0.32519500  0.38733300  1
  O  O33  1  0.53704600  0.32788700  0.93816200  1
  O  O34  1  0.53017700  0.61298000  0.67486800  1
  O  O35  1  0.53808500  0.06244300  0.38981500  1
  O  O36  1  0.03496100  0.39567600  0.06390400  1
  O  O37  1  0.02761300  0.93594700  0.32900600  1
  O  O38  1  0.03552900  0.66859600  0.60399800  1
  O  O39  1  0.03585600  0.66890200  0.06459700  1
  O  O40  1  0.03392000  0.39568100  0.33192600  1
  O  O41  1  0.02824400  0.93563900  0.60659900  1
  O  O42  1  0.79167900  0.81360900  0.90694500  1
  O  O43  1  0.79137000  0.09319400  0.90797100  1
  O  O44  1  0.79116300  0.09363100  0.18640000  1
  O  O45  1  0.24043300  0.17868700  0.08864900  1
  O  O46  1  0.24075600  0.90963600  0.08986000  1
  O  O47  1  0.23983500  0.91033600  0.81986100  1
  O  O48  1  0.68518100  0.83163700  0.41509300  1
  O  O49  1  0.67648800  0.58356700  0.41612300  1
  O  O50  1  0.67715800  0.58362400  0.16628800  1
  O  O51  1  0.17655000  0.16709600  0.58367200  1
  O  O52  1  0.18587700  0.41682700  0.58456200  1
  O  O53  1  0.17746000  0.41767500  0.83436000  1
