# generated using pymatgen
data_Sc50In3Rh13
_symmetry_space_group_name_H-M   'P 1'
_cell_length_a   12.59164420
_cell_length_b   12.59164420
_cell_length_c   12.59164420
_cell_angle_alpha   60.00000000
_cell_angle_beta   60.00000000
_cell_angle_gamma   60.00000000
_symmetry_Int_Tables_number   1
_chemical_formula_structural   Sc50In3Rh13
_chemical_formula_sum   'Sc50 In3 Rh13'
_cell_volume   1411.66722708
_cell_formula_units_Z   1
loop_
 _symmetry_equiv_pos_site_id
 _symmetry_equiv_pos_as_xyz
  1  'x, y, z'
loop_
 _atom_site_type_symbol
 _atom_site_label
 _atom_site_symmetry_multiplicity
 _atom_site_fract_x
 _atom_site_fract_y
 _atom_site_fract_z
 _atom_site_occupancy
  Sc  Sc0  1  0.78793300  0.21206700  0.21206700  1
  Sc  Sc1  1  0.21206700  0.78793300  0.78793300  1
  Sc  Sc2  1  0.21206700  0.78793300  0.21206700  1
  Sc  Sc3  1  0.78793300  0.21206700  0.78793300  1
  Sc  Sc4  1  0.21206700  0.21206700  0.78793300  1
  Sc  Sc5  1  0.78793300  0.78793300  0.21206700  1
  Sc  Sc6  1  0.32125300  0.99325200  0.19233400  1
  Sc  Sc7  1  0.67874700  0.00674800  0.80766600  1
  Sc  Sc8  1  0.99325200  0.32125300  0.49316100  1
  Sc  Sc9  1  0.19233400  0.49316100  0.32125300  1
  Sc  Sc10  1  0.19233400  0.32125300  0.99325200  1
  Sc  Sc11  1  0.00674800  0.67874700  0.50683900  1
  Sc  Sc12  1  0.80766600  0.50683900  0.67874700  1
  Sc  Sc13  1  0.80766600  0.67874700  0.00674800  1
  Sc  Sc14  1  0.49316100  0.19233400  0.99325200  1
  Sc  Sc15  1  0.49316100  0.99325200  0.32125300  1
  Sc  Sc16  1  0.50683900  0.80766600  0.00674800  1
  Sc  Sc17  1  0.50683900  0.00674800  0.67874700  1
  Sc  Sc18  1  0.32125300  0.19233400  0.49316100  1
  Sc  Sc19  1  0.67874700  0.80766600  0.50683900  1
  Sc  Sc20  1  0.99325200  0.49316100  0.19233400  1
  Sc  Sc21  1  0.00674800  0.50683900  0.80766600  1
  Sc  Sc22  1  0.99325200  0.19233400  0.32125300  1
  Sc  Sc23  1  0.00674800  0.80766600  0.67874700  1
  Sc  Sc24  1  0.49316100  0.32125300  0.19233400  1
  Sc  Sc25  1  0.50683900  0.67874700  0.80766600  1
  Sc  Sc26  1  0.19233400  0.99325200  0.49316100  1
  Sc  Sc27  1  0.80766600  0.00674800  0.50683900  1
  Sc  Sc28  1  0.32125300  0.49316100  0.99325200  1
  Sc  Sc29  1  0.67874700  0.50683900  0.00674800  1
  Sc  Sc30  1  0.44763100  0.26064800  0.73935200  1
  Sc  Sc31  1  0.55236900  0.73935200  0.26064800  1
  Sc  Sc32  1  0.26064800  0.44763100  0.55236900  1
  Sc  Sc33  1  0.73935200  0.55236900  0.44763100  1
  Sc  Sc34  1  0.73935200  0.44763100  0.26064800  1
  Sc  Sc35  1  0.26064800  0.55236900  0.73935200  1
  Sc  Sc36  1  0.55236900  0.26064800  0.44763100  1
  Sc  Sc37  1  0.44763100  0.73935200  0.55236900  1
  Sc  Sc38  1  0.26064800  0.73935200  0.44763100  1
  Sc  Sc39  1  0.73935200  0.26064800  0.55236900  1
  Sc  Sc40  1  0.55236900  0.44763100  0.73935200  1
  Sc  Sc41  1  0.44763100  0.55236900  0.26064800  1
  Sc  Sc42  1  0.08997200  0.08997200  0.08997200  1
  Sc  Sc43  1  0.91002800  0.91002800  0.91002800  1
  Sc  Sc44  1  0.08997200  0.08997200  0.73008500  1
  Sc  Sc45  1  0.08997200  0.73008500  0.08997200  1
  Sc  Sc46  1  0.91002800  0.91002800  0.26991500  1
  Sc  Sc47  1  0.91002800  0.26991500  0.91002800  1
  Sc  Sc48  1  0.73008500  0.08997200  0.08997200  1
  Sc  Sc49  1  0.26991500  0.91002800  0.91002800  1
  In  In50  1  0.25000000  0.25000000  0.25000000  1
  In  In51  1  0.75000000  0.75000000  0.75000000  1
  In  In52  1  0.50000000  0.50000000  0.50000000  1
  Rh  Rh53  1  0.00000000  0.00000000  0.00000000  1
  Rh  Rh54  1  0.37010100  0.06276200  0.93723800  1
  Rh  Rh55  1  0.62989900  0.93723800  0.06276200  1
  Rh  Rh56  1  0.06276200  0.37010100  0.62989900  1
  Rh  Rh57  1  0.93723800  0.62989900  0.37010100  1
  Rh  Rh58  1  0.93723800  0.37010100  0.06276200  1
  Rh  Rh59  1  0.06276200  0.62989900  0.93723800  1
  Rh  Rh60  1  0.62989900  0.06276200  0.37010100  1
  Rh  Rh61  1  0.37010100  0.93723800  0.62989900  1
  Rh  Rh62  1  0.06276200  0.93723800  0.37010100  1
  Rh  Rh63  1  0.93723800  0.06276200  0.62989900  1
  Rh  Rh64  1  0.62989900  0.37010100  0.93723800  1
  Rh  Rh65  1  0.37010100  0.62989900  0.06276200  1
