# generated using pymatgen
data_KNaMg3Zn2(Si2O5)6
_symmetry_space_group_name_H-M   'P 1'
_cell_length_a   10.29481546
_cell_length_b   10.29481546
_cell_length_c   14.44018105
_cell_angle_alpha   89.99588693
_cell_angle_beta   89.99588693
_cell_angle_gamma   60.00400076
_symmetry_Int_Tables_number   1
_chemical_formula_structural   KNaMg3Zn2(Si2O5)6
_chemical_formula_sum   'K2 Na2 Mg6 Zn4 Si24 O60'
_cell_volume   1325.43339260
_cell_formula_units_Z   2
loop_
 _symmetry_equiv_pos_site_id
 _symmetry_equiv_pos_as_xyz
  1  'x, y, z'
loop_
 _atom_site_type_symbol
 _atom_site_label
 _atom_site_symmetry_multiplicity
 _atom_site_fract_x
 _atom_site_fract_y
 _atom_site_fract_z
 _atom_site_occupancy
  K  K0  1  0.00011800  0.99988200  0.50000000  1
  K  K1  1  0.00003100  0.99996900  0.00000000  1
  Na  Na2  1  0.33340100  0.33328000  0.25000800  1
  Na  Na3  1  0.66672000  0.66659900  0.74999200  1
  Mg  Mg4  1  0.33328100  0.33366700  0.50380900  1
  Mg  Mg5  1  0.33334000  0.33331100  0.99643700  1
  Mg  Mg6  1  0.66668900  0.66666000  0.00356300  1
  Mg  Mg7  1  0.66633300  0.66671900  0.49619100  1
  Mg  Mg8  1  0.50045900  0.00003800  0.50001300  1
  Mg  Mg9  1  0.99996200  0.49954100  0.49998700  1
  Zn  Zn10  1  0.50022200  0.49977800  0.50000000  1
  Zn  Zn11  1  0.49968100  0.99999600  0.00000600  1
  Zn  Zn12  1  0.00000400  0.50031900  0.99999400  1
  Zn  Zn13  1  0.50028900  0.49971100  0.00000000  1
  Si  Si14  1  0.35232800  0.88544600  0.35982600  1
  Si  Si15  1  0.88536600  0.76216700  0.35986000  1
  Si  Si16  1  0.76241000  0.35140700  0.35973700  1
  Si  Si17  1  0.35148000  0.88627500  0.14028800  1
  Si  Si18  1  0.88628800  0.76227500  0.14029100  1
  Si  Si19  1  0.76223000  0.35149600  0.14028600  1
  Si  Si20  1  0.23772500  0.11371200  0.85970900  1
  Si  Si21  1  0.64850400  0.23777000  0.85971400  1
  Si  Si22  1  0.11372500  0.64852000  0.85971200  1
  Si  Si23  1  0.23783300  0.11463400  0.64014000  1
  Si  Si24  1  0.64859300  0.23759000  0.64026300  1
  Si  Si25  1  0.11455400  0.64767200  0.64017400  1
  Si  Si26  1  0.65008400  0.11319000  0.13940900  1
  Si  Si27  1  0.11323400  0.23665400  0.13938100  1
  Si  Si28  1  0.23671700  0.65005900  0.13943800  1
  Si  Si29  1  0.64943800  0.11387600  0.36054700  1
  Si  Si30  1  0.11403500  0.23660000  0.36056800  1
  Si  Si31  1  0.23640800  0.65016400  0.36054400  1
  Si  Si32  1  0.76340000  0.88596500  0.63943200  1
  Si  Si33  1  0.34983600  0.76359200  0.63945600  1
  Si  Si34  1  0.88612400  0.35056200  0.63945300  1
  Si  Si35  1  0.76334600  0.88676600  0.86061900  1
  Si  Si36  1  0.34994100  0.76328300  0.86056200  1
  Si  Si37  1  0.88681000  0.34991600  0.86059100  1
  O  O38  1  0.27451400  0.78330500  0.38329700  1
  O  O39  1  0.78223500  0.94204600  0.38363700  1
  O  O40  1  0.94218100  0.27571600  0.38367100  1
  O  O41  1  0.27493200  0.78314100  0.11657600  1
  O  O42  1  0.78316200  0.94195300  0.11653600  1
  O  O43  1  0.94190500  0.27493700  0.11660200  1
  O  O44  1  0.05804700  0.21683800  0.88346400  1
  O  O45  1  0.72506300  0.05809500  0.88339800  1
  O  O46  1  0.21685900  0.72506800  0.88342400  1
  O  O47  1  0.05795400  0.21776500  0.61636300  1
  O  O48  1  0.72428400  0.05781900  0.61632900  1
  O  O49  1  0.21669500  0.72548600  0.61670300  1
  O  O50  1  0.72606300  0.21618000  0.11624600  1
  O  O51  1  0.21616300  0.05774100  0.11619000  1
  O  O52  1  0.05780900  0.72602700  0.11623400  1
  O  O53  1  0.72634800  0.21604800  0.38366500  1
  O  O54  1  0.21700200  0.05774200  0.38390500  1
  O  O55  1  0.05756700  0.72529700  0.38392200  1
  O  O56  1  0.94225800  0.78299800  0.61609500  1
  O  O57  1  0.27470300  0.94243300  0.61607800  1
  O  O58  1  0.78395200  0.27365200  0.61633500  1
  O  O59  1  0.94225900  0.78383700  0.88381000  1
  O  O60  1  0.27397300  0.94219100  0.88376600  1
  O  O61  1  0.78382000  0.27393700  0.88375400  1
  O  O62  1  0.49472900  0.84558000  0.42353200  1
  O  O63  1  0.84541300  0.65971000  0.42358100  1
  O  O64  1  0.66039500  0.49543600  0.42312000  1
  O  O65  1  0.49563100  0.84412900  0.07685600  1
  O  O66  1  0.84416200  0.66020200  0.07686800  1
  O  O67  1  0.66019600  0.49564400  0.07690700  1
  O  O68  1  0.33979800  0.15583800  0.92313200  1
  O  O69  1  0.50435600  0.33980400  0.92309300  1
  O  O70  1  0.15587100  0.50436900  0.92314400  1
  O  O71  1  0.34029000  0.15458700  0.57641900  1
  O  O72  1  0.50456400  0.33960500  0.57688000  1
  O  O73  1  0.15442000  0.50527100  0.57646800  1
  O  O74  1  0.50140700  0.15774400  0.07983100  1
  O  O75  1  0.15773900  0.34085200  0.07984600  1
  O  O76  1  0.34089100  0.50137500  0.07989700  1
  O  O77  1  0.50226200  0.15623100  0.42047300  1
  O  O78  1  0.15618500  0.34157100  0.42043700  1
  O  O79  1  0.34075300  0.50146200  0.42011700  1
  O  O80  1  0.65842900  0.84381500  0.57956300  1
  O  O81  1  0.49853800  0.65924700  0.57988300  1
  O  O82  1  0.84376900  0.49773800  0.57952700  1
  O  O83  1  0.65914800  0.84226100  0.92015400  1
  O  O84  1  0.49862500  0.65910900  0.92010300  1
  O  O85  1  0.84225600  0.49859300  0.92016900  1
  O  O86  1  0.39250900  0.87190000  0.24990000  1
  O  O87  1  0.87187900  0.73573600  0.24990900  1
  O  O88  1  0.73560300  0.39238400  0.24993100  1
  O  O89  1  0.26426400  0.12812100  0.75009100  1
  O  O90  1  0.60761600  0.26439700  0.75006900  1
  O  O91  1  0.12810000  0.60749100  0.75010000  1
  O  O92  1  0.60106900  0.13537000  0.24987800  1
  O  O93  1  0.13532100  0.26348000  0.24990400  1
  O  O94  1  0.26358200  0.60121400  0.24997800  1
  O  O95  1  0.73652000  0.86467900  0.75009600  1
  O  O96  1  0.39878600  0.73641800  0.75002200  1
  O  O97  1  0.86463000  0.39893100  0.75012200  1
