# generated using pymatgen
data_Cs3LaBr6
_symmetry_space_group_name_H-M   'P 1'
_cell_length_a   8.89269400
_cell_length_b   14.26947800
_cell_length_c   14.97965907
_cell_angle_alpha   72.12003732
_cell_angle_beta   90.00000000
_cell_angle_gamma   90.00000000
_symmetry_Int_Tables_number   1
_chemical_formula_structural   Cs3LaBr6
_chemical_formula_sum   'Cs12 La4 Br24'
_cell_volume   1809.02375457
_cell_formula_units_Z   4
loop_
 _symmetry_equiv_pos_site_id
 _symmetry_equiv_pos_as_xyz
  1  'x, y, z'
loop_
 _atom_site_type_symbol
 _atom_site_label
 _atom_site_symmetry_multiplicity
 _atom_site_fract_x
 _atom_site_fract_y
 _atom_site_fract_z
 _atom_site_occupancy
  Cs  Cs0  1  0.43472700  0.73436200  0.31535800  1
  Cs  Cs1  1  0.56527300  0.26563800  0.68464200  1
  Cs  Cs2  1  0.93472700  0.76563800  0.68464200  1
  Cs  Cs3  1  0.06527300  0.23436200  0.31535800  1
  Cs  Cs4  1  0.96542500  0.64110600  0.09792200  1
  Cs  Cs5  1  0.03457500  0.35889400  0.90207800  1
  Cs  Cs6  1  0.46542500  0.85889400  0.90207800  1
  Cs  Cs7  1  0.53457500  0.14110600  0.09792200  1
  Cs  Cs8  1  0.93290500  0.88723700  0.32077600  1
  Cs  Cs9  1  0.06709500  0.11276300  0.67922400  1
  Cs  Cs10  1  0.43290500  0.61276300  0.67922400  1
  Cs  Cs11  1  0.56709500  0.38723700  0.32077600  1
  La  La12  1  0.00000000  0.50000000  0.50000000  1
  La  La13  1  0.50000000  0.00000000  0.50000000  1
  La  La14  1  0.00000000  0.00000000  0.00000000  1
  La  La15  1  0.50000000  0.50000000  0.00000000  1
  Br  Br16  1  0.49926400  0.62789000  0.11921700  1
  Br  Br17  1  0.50073600  0.37211000  0.88078300  1
  Br  Br18  1  0.99926400  0.87211000  0.88078300  1
  Br  Br19  1  0.00073600  0.12789000  0.11921700  1
  Br  Br20  1  0.29602600  0.99454200  0.34695700  1
  Br  Br21  1  0.70397400  0.00545800  0.65304300  1
  Br  Br22  1  0.79602600  0.50545800  0.65304300  1
  Br  Br23  1  0.20397400  0.49454200  0.34695700  1
  Br  Br24  1  0.78959000  0.60520100  0.34979900  1
  Br  Br25  1  0.21041000  0.39479900  0.65020100  1
  Br  Br26  1  0.28959000  0.89479900  0.65020100  1
  Br  Br27  1  0.71041000  0.10520100  0.34979900  1
  Br  Br28  1  0.63930400  0.81089200  0.50005000  1
  Br  Br29  1  0.36069600  0.18910800  0.49995000  1
  Br  Br30  1  0.13930400  0.68910800  0.49995000  1
  Br  Br31  1  0.86069600  0.31089200  0.50005000  1
  Br  Br32  1  0.18190400  0.84959100  0.13341700  1
  Br  Br33  1  0.81809600  0.15040900  0.86658300  1
  Br  Br34  1  0.68190400  0.65040900  0.86658300  1
  Br  Br35  1  0.31809600  0.34959100  0.13341700  1
  Br  Br36  1  0.72304500  0.90319700  0.09923900  1
  Br  Br37  1  0.27695500  0.09680300  0.90076100  1
  Br  Br38  1  0.22304500  0.59680300  0.90076100  1
  Br  Br39  1  0.77695500  0.40319700  0.09923900  1
