# generated using pymatgen
data_Mg149Be
_symmetry_space_group_name_H-M   'P 1'
_cell_length_a   15.88929390
_cell_length_b   15.88929821
_cell_length_c   15.57181665
_cell_angle_alpha   90.00000000
_cell_angle_beta   90.00000000
_cell_angle_gamma   120.00001328
_symmetry_Int_Tables_number   1
_chemical_formula_structural   Mg149Be
_chemical_formula_sum   'Mg149 Be1'
_cell_volume   3404.70249649
_cell_formula_units_Z   1
loop_
 _symmetry_equiv_pos_site_id
 _symmetry_equiv_pos_as_xyz
  1  'x, y, z'
loop_
 _atom_site_type_symbol
 _atom_site_label
 _atom_site_symmetry_multiplicity
 _atom_site_fract_x
 _atom_site_fract_y
 _atom_site_fract_z
 _atom_site_occupancy
  Mg  Mg0  1  0.19479586  0.00118634  -0.00000000  1
  Mg  Mg1  1  0.80639048  0.00118634  -0.00000000  1
  Mg  Mg2  1  0.99881266  0.19360952  -0.00000000  1
  Mg  Mg3  1  0.19479586  0.19360952  -0.00000000  1
  Mg  Mg4  1  0.80077144  0.19922856  -0.00000000  1
  Mg  Mg5  1  0.39845712  0.19922856  -0.00000000  1
  Mg  Mg6  1  0.59982904  0.19965808  -0.00000000  1
  Mg  Mg7  1  0.19888144  0.39776188  -0.00000000  1
  Mg  Mg8  1  0.39894489  0.39897292  -0.00000000  1
  Mg  Mg9  1  0.00002803  0.39897292  -0.00000000  1
  Mg  Mg10  1  0.80034092  0.40017096  -0.00000000  1
  Mg  Mg11  1  0.59982904  0.40017096  -0.00000000  1
  Mg  Mg12  1  0.40014061  0.59985939  -0.00000000  1
  Mg  Mg13  1  0.19971878  0.59985939  -0.00000000  1
  Mg  Mg14  1  0.00002803  0.60105511  -0.00000000  1
  Mg  Mg15  1  0.60102708  0.60105511  -0.00000000  1
  Mg  Mg16  1  0.80077144  0.60154388  -0.00000000  1
  Mg  Mg17  1  0.40014061  0.80028122  -0.00000000  1
  Mg  Mg18  1  0.19888144  0.80111956  -0.00000000  1
  Mg  Mg19  1  0.60223812  0.80111956  -0.00000000  1
  Mg  Mg20  1  0.99881266  0.80520314  -0.00000000  1
  Mg  Mg21  1  0.80639048  0.80520314  -0.00000000  1
  Mg  Mg22  1  0.60102708  0.99997197  -0.00000000  1
  Mg  Mg23  1  0.39894489  0.99997197  -0.00000000  1
  Mg  Mg24  1  0.06471267  0.12942435  0.16168505  1
  Mg  Mg25  1  0.06471267  0.93528733  0.16168505  1
  Mg  Mg26  1  0.87057465  0.93528733  0.16168505  1
  Mg  Mg27  1  0.26555593  0.33163421  0.16581762  1
  Mg  Mg28  1  0.06607828  0.33163421  0.16581762  1
  Mg  Mg29  1  0.06607828  0.73444407  0.16581762  1
  Mg  Mg30  1  0.66836579  0.73444407  0.16581762  1
  Mg  Mg31  1  0.26555593  0.93392172  0.16581762  1
  Mg  Mg32  1  0.66836579  0.93392172  0.16581762  1
  Mg  Mg33  1  0.26635633  0.53271166  0.16629555  1
  Mg  Mg34  1  0.26635633  0.73364367  0.16629555  1
  Mg  Mg35  1  0.46728734  0.73364367  0.16629555  1
  Mg  Mg36  1  0.46671036  0.53328964  0.16624887  1
  Mg  Mg37  1  0.06658028  0.53329064  0.16624887  1
  Mg  Mg38  1  0.46671036  0.93341972  0.16624887  1
  Mg  Mg39  1  0.46678831  0.13336973  0.16649759  1
  Mg  Mg40  1  0.66658142  0.13336973  0.16649759  1
  Mg  Mg41  1  0.46678831  0.33341858  0.16649759  1
  Mg  Mg42  1  0.86663027  0.33341858  0.16649759  1
  Mg  Mg43  1  0.66658142  0.53321069  0.16649759  1
  Mg  Mg44  1  0.86663027  0.53321169  0.16649759  1
  Mg  Mg45  1  0.66666700  0.33333300  0.16657034  1
  Mg  Mg46  1  0.26746960  0.13373430  0.16711305  1
  Mg  Mg47  1  0.86626470  0.13373530  0.16711305  1
  Mg  Mg48  1  0.86626470  0.73253040  0.16711305  1
  Mg  Mg49  1  0.00000000  0.00000000  0.33179652  1
  Mg  Mg50  1  0.19909818  0.99971799  0.33254454  1
  Mg  Mg51  1  0.80062082  0.99971899  0.33254454  1
  Mg  Mg52  1  0.00028101  0.19937918  0.33254454  1
  Mg  Mg53  1  0.19909818  0.19937918  0.33254454  1
  Mg  Mg54  1  0.80062082  0.80090182  0.33254454  1
  Mg  Mg55  1  0.00028101  0.80090182  0.33254454  1
  Mg  Mg56  1  0.60032395  0.99990173  0.33295509  1
  Mg  Mg57  1  0.39957778  0.99990173  0.33295509  1
  Mg  Mg58  1  0.39957778  0.39967605  0.33295509  1
  Mg  Mg59  1  0.00009827  0.39967705  0.33295509  1
  Mg  Mg60  1  0.60032395  0.60042122  0.33295509  1
  Mg  Mg61  1  0.00009827  0.60042222  0.33295509  1
  Mg  Mg62  1  0.19986807  0.39973514  0.33295668  1
  Mg  Mg63  1  0.19986807  0.80013293  0.33295668  1
  Mg  Mg64  1  0.60026486  0.80013293  0.33295668  1
  Mg  Mg65  1  0.40000709  0.59999291  0.33310063  1
  Mg  Mg66  1  0.19998583  0.59999291  0.33310063  1
  Mg  Mg67  1  0.40000709  0.80001517  0.33310063  1
  Mg  Mg68  1  0.59995538  0.19991075  0.33314697  1
  Mg  Mg69  1  0.80008925  0.40004462  0.33314697  1
  Mg  Mg70  1  0.59995538  0.40004462  0.33314697  1
  Mg  Mg71  1  0.80012965  0.19987035  0.33338137  1
  Mg  Mg72  1  0.39974069  0.19987035  0.33338137  1
  Mg  Mg73  1  0.80012965  0.60025931  0.33338137  1
  Mg  Mg74  1  0.06647232  0.13294363  0.50000000  1
  Mg  Mg75  1  0.86683724  0.13316176  0.50000000  1
  Mg  Mg76  1  0.26632453  0.13316276  0.50000000  1
  Mg  Mg77  1  0.46661189  0.13321493  0.50000000  1
  Mg  Mg78  1  0.66660404  0.13321593  0.50000000  1
  Mg  Mg79  1  0.26649124  0.33285790  0.50000000  1
  Mg  Mg80  1  0.06636666  0.33285790  0.50000000  1
  Mg  Mg81  1  0.66666700  0.33333300  0.50000000  1
  Mg  Mg82  1  0.86678407  0.33339596  0.50000000  1
  Mg  Mg83  1  0.46661189  0.33339696  0.50000000  1
  Mg  Mg84  1  0.26651827  0.53303553  0.50000000  1
  Mg  Mg85  1  0.46677796  0.53322204  0.50000000  1
  Mg  Mg86  1  0.06644509  0.53322304  0.50000000  1
  Mg  Mg87  1  0.86678407  0.53338811  0.50000000  1
  Mg  Mg88  1  0.66660404  0.53338811  0.50000000  1
  Mg  Mg89  1  0.26651827  0.73348173  0.50000000  1
  Mg  Mg90  1  0.46696447  0.73348273  0.50000000  1
  Mg  Mg91  1  0.06636666  0.73350776  0.50000000  1
  Mg  Mg92  1  0.66714110  0.73350776  0.50000000  1
  Mg  Mg93  1  0.86683724  0.73367547  0.50000000  1
  Mg  Mg94  1  0.06647232  0.93352768  0.50000000  1
  Mg  Mg95  1  0.86705637  0.93352868  0.50000000  1
  Mg  Mg96  1  0.46677796  0.93355491  0.50000000  1
  Mg  Mg97  1  0.66714110  0.93363334  0.50000000  1
  Mg  Mg98  1  0.26649124  0.93363334  0.50000000  1
  Mg  Mg99  1  0.80012965  0.19987035  0.66661863  1
  Mg  Mg100  1  0.39974069  0.19987035  0.66661863  1
  Mg  Mg101  1  0.80012965  0.60025931  0.66661863  1
  Mg  Mg102  1  0.59995538  0.19991075  0.66685303  1
  Mg  Mg103  1  0.80008925  0.40004462  0.66685303  1
  Mg  Mg104  1  0.59995538  0.40004462  0.66685303  1
  Mg  Mg105  1  0.40000709  0.59999291  0.66690037  1
  Mg  Mg106  1  0.19998583  0.59999291  0.66690037  1
  Mg  Mg107  1  0.40000709  0.80001517  0.66690037  1
  Mg  Mg108  1  0.19986807  0.39973514  0.66704332  1
  Mg  Mg109  1  0.19986807  0.80013293  0.66704332  1
  Mg  Mg110  1  0.60026486  0.80013293  0.66704332  1
  Mg  Mg111  1  0.60032395  0.99990173  0.66704391  1
  Mg  Mg112  1  0.39957778  0.99990173  0.66704391  1
  Mg  Mg113  1  0.39957778  0.39967605  0.66704391  1
  Mg  Mg114  1  0.00009827  0.39967705  0.66704391  1
  Mg  Mg115  1  0.60032395  0.60042122  0.66704391  1
  Mg  Mg116  1  0.00009827  0.60042222  0.66704391  1
  Mg  Mg117  1  0.19909818  0.99971799  0.66745546  1
  Mg  Mg118  1  0.80062082  0.99971899  0.66745546  1
  Mg  Mg119  1  0.00028101  0.19937918  0.66745546  1
  Mg  Mg120  1  0.19909818  0.19937918  0.66745546  1
  Mg  Mg121  1  0.80062082  0.80090182  0.66745546  1
  Mg  Mg122  1  0.00028101  0.80090182  0.66745546  1
  Mg  Mg123  1  0.00000000  0.00000000  0.66820348  1
  Mg  Mg124  1  0.26746960  0.13373430  0.83288695  1
  Mg  Mg125  1  0.86626470  0.13373530  0.83288695  1
  Mg  Mg126  1  0.86626470  0.73253040  0.83288695  1
  Mg  Mg127  1  0.66666700  0.33333300  0.83342966  1
  Mg  Mg128  1  0.46678831  0.13336973  0.83350241  1
  Mg  Mg129  1  0.66658142  0.13336973  0.83350241  1
  Mg  Mg130  1  0.46678831  0.33341858  0.83350241  1
  Mg  Mg131  1  0.86663027  0.33341858  0.83350241  1
  Mg  Mg132  1  0.66658142  0.53321069  0.83350241  1
  Mg  Mg133  1  0.86663027  0.53321169  0.83350241  1
  Mg  Mg134  1  0.46671036  0.53328964  0.83375013  1
  Mg  Mg135  1  0.06658028  0.53329064  0.83375013  1
  Mg  Mg136  1  0.46671036  0.93341972  0.83375013  1
  Mg  Mg137  1  0.26635633  0.53271166  0.83370445  1
  Mg  Mg138  1  0.26635633  0.73364367  0.83370445  1
  Mg  Mg139  1  0.46728734  0.73364367  0.83370445  1
  Mg  Mg140  1  0.26555593  0.33163421  0.83418338  1
  Mg  Mg141  1  0.06607828  0.33163421  0.83418338  1
  Mg  Mg142  1  0.06607828  0.73444407  0.83418338  1
  Mg  Mg143  1  0.66836579  0.73444407  0.83418338  1
  Mg  Mg144  1  0.26555593  0.93392172  0.83418338  1
  Mg  Mg145  1  0.66836579  0.93392172  0.83418338  1
  Mg  Mg146  1  0.06471267  0.12942435  0.83831495  1
  Mg  Mg147  1  0.06471267  0.93528733  0.83831495  1
  Mg  Mg148  1  0.87057465  0.93528733  0.83831495  1
  Be  Be149  1  0.00000000  0.00000000  -0.00000000  1
