# generated using pymatgen
data_TbSbPd
_symmetry_space_group_name_H-M   'P 1'
_cell_length_a   4.60163318
_cell_length_b   4.60163318
_cell_length_c   7.44785600
_cell_angle_alpha   90.00000000
_cell_angle_beta   90.00000000
_cell_angle_gamma   119.99998826
_symmetry_Int_Tables_number   1
_chemical_formula_structural   TbSbPd
_chemical_formula_sum   'Tb2 Sb2 Pd2'
_cell_volume   136.57963465
_cell_formula_units_Z   2
loop_
 _symmetry_equiv_pos_site_id
 _symmetry_equiv_pos_as_xyz
  1  'x, y, z'
loop_
 _atom_site_type_symbol
 _atom_site_label
 _atom_site_symmetry_multiplicity
 _atom_site_fract_x
 _atom_site_fract_y
 _atom_site_fract_z
 _atom_site_occupancy
  Tb  Tb0  1  0.00000000  0.00000000  0.98529000  1
  Tb  Tb1  1  0.00000000  0.00000000  0.48529000  1
  Sb  Sb2  1  0.66666700  0.33333300  0.71007300  1
  Sb  Sb3  1  0.33333300  0.66666700  0.21007300  1
  Pd  Pd4  1  0.66666700  0.33333300  0.31363700  1
  Pd  Pd5  1  0.33333300  0.66666700  0.81363700  1
