# generated using pymatgen
data_Ce4In21Pd10
_symmetry_space_group_name_H-M   'P 1'
_cell_length_a   12.04161643
_cell_length_b   12.04161643
_cell_length_c   17.59147592
_cell_angle_alpha   56.02368859
_cell_angle_beta   56.02368859
_cell_angle_gamma   21.20183363
_symmetry_Int_Tables_number   1
_chemical_formula_structural   Ce4In21Pd10
_chemical_formula_sum   'Ce4 In21 Pd10'
_cell_volume   758.88959655
_cell_formula_units_Z   1
loop_
 _symmetry_equiv_pos_site_id
 _symmetry_equiv_pos_as_xyz
  1  'x, y, z'
loop_
 _atom_site_type_symbol
 _atom_site_label
 _atom_site_symmetry_multiplicity
 _atom_site_fract_x
 _atom_site_fract_y
 _atom_site_fract_z
 _atom_site_occupancy
  Ce  Ce0  1  0.22925600  0.22925600  0.67494500  1
  Ce  Ce1  1  0.77074400  0.77074400  0.32505500  1
  Ce  Ce2  1  0.87756100  0.87756100  0.83347900  1
  Ce  Ce3  1  0.12243900  0.12243900  0.16652100  1
  In  In4  1  0.50000000  0.50000000  0.00000000  1
  In  In5  1  0.11617400  0.11617400  0.94749500  1
  In  In6  1  0.88382600  0.88382600  0.05250500  1
  In  In7  1  0.45762500  0.45762500  0.86771900  1
  In  In8  1  0.54237500  0.54237500  0.13228100  1
  In  In9  1  0.06508900  0.06508900  0.70190400  1
  In  In10  1  0.93491100  0.93491100  0.29809600  1
  In  In11  1  0.36861600  0.36861600  0.70099000  1
  In  In12  1  0.63138400  0.63138400  0.29901000  1
  In  In13  1  0.98958500  0.98958500  0.59160500  1
  In  In14  1  0.01041500  0.01041500  0.40839500  1
  In  In15  1  0.74893600  0.74893600  0.79270100  1
  In  In16  1  0.25106400  0.25106400  0.20729900  1
  In  In17  1  0.61611700  0.61611700  0.79513300  1
  In  In18  1  0.38388300  0.38388300  0.20486700  1
  In  In19  1  0.60242600  0.60242600  0.50393700  1
  In  In20  1  0.39757400  0.39757400  0.49606300  1
  In  In21  1  0.20236200  0.20236200  0.49335700  1
  In  In22  1  0.79763800  0.79763800  0.50664300  1
  In  In23  1  0.70099400  0.70099400  0.00111800  1
  In  In24  1  0.29900600  0.29900600  0.99888200  1
  Pd  Pd25  1  0.24922500  0.24922500  0.88587500  1
  Pd  Pd26  1  0.75077500  0.75077500  0.11412500  1
  Pd  Pd27  1  0.02426300  0.02426300  0.88910700  1
  Pd  Pd28  1  0.97573700  0.97573700  0.11089300  1
  Pd  Pd29  1  0.65402800  0.65402800  0.61308400  1
  Pd  Pd30  1  0.34597200  0.34597200  0.38691600  1
  Pd  Pd31  1  0.86359500  0.86359500  0.60673800  1
  Pd  Pd32  1  0.13640500  0.13640500  0.39326200  1
  Pd  Pd33  1  0.49482400  0.49482400  0.68689900  1
  Pd  Pd34  1  0.50517600  0.50517600  0.31310100  1
