# generated using pymatgen
data_Tb3Ga15Ru4
_symmetry_space_group_name_H-M   'P 1'
_cell_length_a   8.80910800
_cell_length_b   9.68202600
_cell_length_c   17.82422300
_cell_angle_alpha   90.00000000
_cell_angle_beta   90.00000000
_cell_angle_gamma   90.00000000
_symmetry_Int_Tables_number   1
_chemical_formula_structural   Tb3Ga15Ru4
_chemical_formula_sum   'Tb12 Ga60 Ru16'
_cell_volume   1520.22820591
_cell_formula_units_Z   4
loop_
 _symmetry_equiv_pos_site_id
 _symmetry_equiv_pos_as_xyz
  1  'x, y, z'
loop_
 _atom_site_type_symbol
 _atom_site_label
 _atom_site_symmetry_multiplicity
 _atom_site_fract_x
 _atom_site_fract_y
 _atom_site_fract_z
 _atom_site_occupancy
  Tb  Tb0  1  0.37567100  0.25000000  0.16805800  1
  Tb  Tb1  1  0.62432900  0.75000000  0.83194200  1
  Tb  Tb2  1  0.12432900  0.75000000  0.66805800  1
  Tb  Tb3  1  0.87567100  0.25000000  0.33194200  1
  Tb  Tb4  1  0.37532300  0.25000000  0.74833500  1
  Tb  Tb5  1  0.62467700  0.75000000  0.25166500  1
  Tb  Tb6  1  0.12467700  0.75000000  0.24833500  1
  Tb  Tb7  1  0.87532300  0.25000000  0.75166500  1
  Tb  Tb8  1  0.12576500  0.25000000  0.52459300  1
  Tb  Tb9  1  0.87423500  0.75000000  0.47540700  1
  Tb  Tb10  1  0.37423500  0.75000000  0.02459300  1
  Tb  Tb11  1  0.62576500  0.25000000  0.97540700  1
  Ga  Ga12  1  0.12647400  0.06049600  0.25280000  1
  Ga  Ga13  1  0.87352600  0.93950400  0.74720000  1
  Ga  Ga14  1  0.37352600  0.93950400  0.75280000  1
  Ga  Ga15  1  0.87352600  0.56049600  0.74720000  1
  Ga  Ga16  1  0.62647400  0.06049600  0.24720000  1
  Ga  Ga17  1  0.12647400  0.43950400  0.25280000  1
  Ga  Ga18  1  0.62647400  0.43950400  0.24720000  1
  Ga  Ga19  1  0.37352600  0.56049600  0.75280000  1
  Ga  Ga20  1  0.00751800  0.25000000  0.16837900  1
  Ga  Ga21  1  0.99248200  0.75000000  0.83162100  1
  Ga  Ga22  1  0.49248200  0.75000000  0.66837900  1
  Ga  Ga23  1  0.50751800  0.25000000  0.33162100  1
  Ga  Ga24  1  0.13282500  0.25000000  0.04178800  1
  Ga  Ga25  1  0.86717500  0.75000000  0.95821200  1
  Ga  Ga26  1  0.36717500  0.75000000  0.54178800  1
  Ga  Ga27  1  0.63282500  0.25000000  0.45821200  1
  Ga  Ga28  1  0.37446500  0.57728900  0.33157300  1
  Ga  Ga29  1  0.62553500  0.42271100  0.66842700  1
  Ga  Ga30  1  0.12553500  0.42271100  0.83157300  1
  Ga  Ga31  1  0.62553500  0.07728900  0.66842700  1
  Ga  Ga32  1  0.87446500  0.57728900  0.16842700  1
  Ga  Ga33  1  0.37446500  0.92271100  0.33157300  1
  Ga  Ga34  1  0.87446500  0.92271100  0.16842700  1
  Ga  Ga35  1  0.12553500  0.07728900  0.83157300  1
  Ga  Ga36  1  0.22134300  0.25000000  0.35916100  1
  Ga  Ga37  1  0.77865700  0.75000000  0.64083900  1
  Ga  Ga38  1  0.27865700  0.75000000  0.85916100  1
  Ga  Ga39  1  0.72134300  0.25000000  0.14083900  1
  Ga  Ga40  1  0.12413300  0.08685200  0.67178800  1
  Ga  Ga41  1  0.87586700  0.91314800  0.32821200  1
  Ga  Ga42  1  0.37586700  0.91314800  0.17178800  1
  Ga  Ga43  1  0.87586700  0.58685200  0.32821200  1
  Ga  Ga44  1  0.62413300  0.08685200  0.82821200  1
  Ga  Ga45  1  0.12413300  0.41314800  0.67178800  1
  Ga  Ga46  1  0.62413300  0.41314800  0.82821200  1
  Ga  Ga47  1  0.37586700  0.58685200  0.17178800  1
  Ga  Ga48  1  0.37751800  0.06121800  0.46526400  1
  Ga  Ga49  1  0.62248200  0.93878200  0.53473600  1
  Ga  Ga50  1  0.12248200  0.93878200  0.96526400  1
  Ga  Ga51  1  0.62248200  0.56121800  0.53473600  1
  Ga  Ga52  1  0.87751800  0.06121800  0.03473600  1
  Ga  Ga53  1  0.37751800  0.43878200  0.46526400  1
  Ga  Ga54  1  0.87751800  0.43878200  0.03473600  1
  Ga  Ga55  1  0.12248200  0.56121800  0.96526400  1
  Ga  Ga56  1  0.45103900  0.25000000  0.57762700  1
  Ga  Ga57  1  0.54896100  0.75000000  0.42237300  1
  Ga  Ga58  1  0.04896100  0.75000000  0.07762700  1
  Ga  Ga59  1  0.95103900  0.25000000  0.92237300  1
  Ga  Ga60  1  0.30452200  0.25000000  0.91812900  1
  Ga  Ga61  1  0.69547800  0.75000000  0.08187100  1
  Ga  Ga62  1  0.19547800  0.75000000  0.41812900  1
  Ga  Ga63  1  0.80452200  0.25000000  0.58187100  1
  Ga  Ga64  1  0.37370700  0.06864100  0.03291200  1
  Ga  Ga65  1  0.62629300  0.93135900  0.96708800  1
  Ga  Ga66  1  0.12629300  0.93135900  0.53291200  1
  Ga  Ga67  1  0.62629300  0.56864100  0.96708800  1
  Ga  Ga68  1  0.87370700  0.06864100  0.46708800  1
  Ga  Ga69  1  0.37370700  0.43135900  0.03291200  1
  Ga  Ga70  1  0.87370700  0.43135900  0.46708800  1
  Ga  Ga71  1  0.12629300  0.56864100  0.53291200  1
  Ru  Ru72  1  0.11782300  0.00378100  0.39022000  1
  Ru  Ru73  1  0.88217700  0.99621900  0.60978000  1
  Ru  Ru74  1  0.38217700  0.99621900  0.89022000  1
  Ru  Ru75  1  0.88217700  0.50378100  0.60978000  1
  Ru  Ru76  1  0.61782300  0.00378100  0.10978000  1
  Ru  Ru77  1  0.11782300  0.49621900  0.39022000  1
  Ru  Ru78  1  0.61782300  0.49621900  0.10978000  1
  Ru  Ru79  1  0.38217700  0.50378100  0.89022000  1
  Ru  Ru80  1  0.13018500  0.00480800  0.11335300  1
  Ru  Ru81  1  0.86981500  0.99519200  0.88664700  1
  Ru  Ru82  1  0.36981500  0.99519200  0.61335300  1
  Ru  Ru83  1  0.86981500  0.50480800  0.88664700  1
  Ru  Ru84  1  0.63018500  0.00480800  0.38664700  1
  Ru  Ru85  1  0.13018500  0.49519200  0.11335300  1
  Ru  Ru86  1  0.63018500  0.49519200  0.38664700  1
  Ru  Ru87  1  0.36981500  0.50480800  0.61335300  1
