# generated using pymatgen
data_CaV4(AgO6)2
_symmetry_space_group_name_H-M   'P 1'
_cell_length_a   10.52054200
_cell_length_b   10.52054200
_cell_length_c   5.08292200
_cell_angle_alpha   90.00000000
_cell_angle_beta   90.00000000
_cell_angle_gamma   90.00000000
_symmetry_Int_Tables_number   1
_chemical_formula_structural   CaV4(AgO6)2
_chemical_formula_sum   'Ca2 V8 Ag4 O24'
_cell_volume   562.58697642
_cell_formula_units_Z   2
loop_
 _symmetry_equiv_pos_site_id
 _symmetry_equiv_pos_as_xyz
  1  'x, y, z'
loop_
 _atom_site_type_symbol
 _atom_site_label
 _atom_site_symmetry_multiplicity
 _atom_site_fract_x
 _atom_site_fract_y
 _atom_site_fract_z
 _atom_site_occupancy
  Ca  Ca0  1  0.50000000  0.50000000  0.50000000  1
  Ca  Ca1  1  0.00000000  0.00000000  0.50000000  1
  V  V2  1  0.22369500  0.50000000  0.00000000  1
  V  V3  1  0.50000000  0.22369500  0.00000000  1
  V  V4  1  0.00000000  0.72369500  0.00000000  1
  V  V5  1  0.72369500  0.00000000  0.00000000  1
  V  V6  1  0.27630500  0.00000000  0.00000000  1
  V  V7  1  0.00000000  0.27630500  0.00000000  1
  V  V8  1  0.50000000  0.77630500  0.00000000  1
  V  V9  1  0.77630500  0.50000000  0.00000000  1
  Ag  Ag10  1  0.25000000  0.25000000  0.50000000  1
  Ag  Ag11  1  0.25000000  0.75000000  0.50000000  1
  Ag  Ag12  1  0.75000000  0.25000000  0.50000000  1
  Ag  Ag13  1  0.75000000  0.75000000  0.50000000  1
  O  O14  1  0.43165400  0.31091800  0.24158900  1
  O  O15  1  0.56834600  0.68908200  0.24158900  1
  O  O16  1  0.68908200  0.43165400  0.24158900  1
  O  O17  1  0.31091800  0.56834600  0.24158900  1
  O  O18  1  0.31091800  0.43165400  0.75841100  1
  O  O19  1  0.43165400  0.68908200  0.75841100  1
  O  O20  1  0.56834600  0.31091800  0.75841100  1
  O  O21  1  0.68908200  0.56834600  0.75841100  1
  O  O22  1  0.06834600  0.18908200  0.75841100  1
  O  O23  1  0.93165400  0.81091800  0.75841100  1
  O  O24  1  0.81091800  0.06834600  0.75841100  1
  O  O25  1  0.18908200  0.93165400  0.75841100  1
  O  O26  1  0.18908200  0.06834600  0.24158900  1
  O  O27  1  0.06834600  0.81091800  0.24158900  1
  O  O28  1  0.12055600  0.37944400  0.14471400  1
  O  O29  1  0.37944400  0.87944400  0.14471400  1
  O  O30  1  0.62055600  0.12055600  0.14471400  1
  O  O31  1  0.87944400  0.62055600  0.14471400  1
  O  O32  1  0.87944400  0.37944400  0.85528600  1
  O  O33  1  0.12055600  0.62055600  0.85528600  1
  O  O34  1  0.37944400  0.12055600  0.85528600  1
  O  O35  1  0.62055600  0.87944400  0.85528600  1
  O  O36  1  0.81091800  0.93165400  0.24158900  1
  O  O37  1  0.93165400  0.18908200  0.24158900  1
