# generated using pymatgen
data_Co2Si(P2O7)2
_symmetry_space_group_name_H-M   'P 1'
_cell_length_a   8.91388473
_cell_length_b   8.91388473
_cell_length_c   12.42307966
_cell_angle_alpha   77.47348314
_cell_angle_beta   77.47348314
_cell_angle_gamma   32.73675154
_symmetry_Int_Tables_number   1
_chemical_formula_structural   Co2Si(P2O7)2
_chemical_formula_sum   'Co4 Si2 P8 O28'
_cell_volume   519.98892276
_cell_formula_units_Z   2
loop_
 _symmetry_equiv_pos_site_id
 _symmetry_equiv_pos_as_xyz
  1  'x, y, z'
loop_
 _atom_site_type_symbol
 _atom_site_label
 _atom_site_symmetry_multiplicity
 _atom_site_fract_x
 _atom_site_fract_y
 _atom_site_fract_z
 _atom_site_occupancy
  Co  Co0  1  0.90443700  0.60217000  0.12991300  1
  Co  Co1  1  0.39783000  0.09556300  0.37008700  1
  Co  Co2  1  0.09556300  0.39783000  0.87008700  1
  Co  Co3  1  0.60217000  0.90443700  0.62991300  1
  Si  Si4  1  0.84934200  0.15065800  0.25000000  1
  Si  Si5  1  0.15065800  0.84934200  0.75000000  1
  P  P6  1  0.30232800  0.96903700  0.08460900  1
  P  P7  1  0.03096300  0.69767200  0.41539100  1
  P  P8  1  0.51326500  0.23478700  0.13554200  1
  P  P9  1  0.76521300  0.48673500  0.36445800  1
  P  P10  1  0.48673500  0.76521300  0.86445800  1
  P  P11  1  0.23478700  0.51326500  0.63554200  1
  P  P12  1  0.69767200  0.03096300  0.91539100  1
  P  P13  1  0.96903700  0.30232800  0.58460900  1
  O  O14  1  0.89806200  0.97633100  0.83185200  1
  O  O15  1  0.02366900  0.10193800  0.66814800  1
  O  O16  1  0.10193800  0.02366900  0.16814800  1
  O  O17  1  0.97633100  0.89806200  0.33185200  1
  O  O18  1  0.83211200  0.76274400  0.95349300  1
  O  O19  1  0.23725600  0.16788800  0.54650700  1
  O  O20  1  0.16788800  0.23725600  0.04650700  1
  O  O21  1  0.76274400  0.83211200  0.45349300  1
  O  O22  1  0.58218300  0.72921300  0.13105300  1
  O  O23  1  0.27078700  0.41781700  0.36894700  1
  O  O24  1  0.41781700  0.27078700  0.86894700  1
  O  O25  1  0.72921300  0.58218300  0.63105300  1
  O  O26  1  0.68686300  0.12504200  0.01744200  1
  O  O27  1  0.87495800  0.31313700  0.48255800  1
  O  O28  1  0.29679200  0.61153800  0.67867700  1
  O  O29  1  0.38846200  0.70320800  0.82132300  1
  O  O30  1  0.70320800  0.38846200  0.32132300  1
  O  O31  1  0.61153800  0.29679200  0.17867700  1
  O  O32  1  0.50458000  0.20740900  0.62090800  1
  O  O33  1  0.79259100  0.49542000  0.87909200  1
  O  O34  1  0.49542000  0.79259100  0.37909200  1
  O  O35  1  0.20740900  0.50458000  0.12090800  1
  O  O36  1  0.38254500  0.00324700  0.79553200  1
  O  O37  1  0.99675300  0.61745500  0.70446800  1
  O  O38  1  0.61745500  0.99675300  0.20446800  1
  O  O39  1  0.00324700  0.38254500  0.29553200  1
  O  O40  1  0.12504200  0.68686300  0.51744200  1
  O  O41  1  0.31313700  0.87495800  0.98255800  1
