# generated using pymatgen
data_K6Zn4Sn5S17
_symmetry_space_group_name_H-M   'P 1'
_cell_length_a   11.07256427
_cell_length_b   11.07256427
_cell_length_c   11.02569873
_cell_angle_alpha   78.61180081
_cell_angle_beta   78.61180081
_cell_angle_gamma   126.99769831
_symmetry_Int_Tables_number   1
_chemical_formula_structural   K6Zn4Sn5S17
_chemical_formula_sum   'K6 Zn4 Sn5 S17'
_cell_volume   968.14855097
_cell_formula_units_Z   1
loop_
 _symmetry_equiv_pos_site_id
 _symmetry_equiv_pos_as_xyz
  1  'x, y, z'
loop_
 _atom_site_type_symbol
 _atom_site_label
 _atom_site_symmetry_multiplicity
 _atom_site_fract_x
 _atom_site_fract_y
 _atom_site_fract_z
 _atom_site_occupancy
  K  K0  1  0.25030500  0.74969500  0.50000000  1
  K  K1  1  0.58350400  0.41649600  0.00000000  1
  K  K2  1  0.50840800  0.00404400  0.98179100  1
  K  K3  1  0.99595600  0.49159200  0.01820900  1
  K  K4  1  0.99064100  0.00935900  0.50000000  1
  K  K5  1  0.50837900  0.49162100  0.50000000  1
  Zn  Zn6  1  0.02505900  0.38680700  0.36209800  1
  Zn  Zn7  1  0.75042100  0.38762300  0.63653700  1
  Zn  Zn8  1  0.61319300  0.97494100  0.63790200  1
  Zn  Zn9  1  0.61237700  0.24957900  0.36346300  1
  Sn  Sn10  1  0.99885500  0.00114500  0.00000000  1
  Sn  Sn11  1  0.97411400  0.69620800  0.27657100  1
  Sn  Sn12  1  0.97180500  0.24879600  0.72305200  1
  Sn  Sn13  1  0.75120400  0.02819500  0.27694800  1
  Sn  Sn14  1  0.30379200  0.02588600  0.72342900  1
  S  S15  1  0.17131200  0.66450000  0.22239700  1
  S  S16  1  0.88624900  0.39491600  0.77854200  1
  S  S17  1  0.88625700  0.66427200  0.50686600  1
  S  S18  1  0.17133500  0.39498000  0.49362100  1
  S  S19  1  0.60502000  0.82866500  0.50637900  1
  S  S20  1  0.33572800  0.11374300  0.49313400  1
  S  S21  1  0.60508400  0.11375100  0.22145800  1
  S  S22  1  0.33550000  0.82868800  0.77760300  1
  S  S23  1  0.13969800  0.99605300  0.14355700  1
  S  S24  1  0.13950400  0.28317800  0.85605400  1
  S  S25  1  0.71682200  0.86049600  0.14394600  1
  S  S26  1  0.00394700  0.86030200  0.85644300  1
  S  S27  1  0.74186300  0.52098200  0.22099500  1
  S  S28  1  0.74307800  0.96460600  0.77925600  1
  S  S29  1  0.03539400  0.25692200  0.22074400  1
  S  S30  1  0.47901800  0.25813700  0.77900500  1
  S  S31  1  0.74997600  0.25002400  0.50000000  1
