# generated using pymatgen
data_Rb2Th7Se15
_symmetry_space_group_name_H-M   'P 1'
_cell_length_a   7.96062300
_cell_length_b   15.47572000
_cell_length_c   22.02638252
_cell_angle_alpha   89.51518659
_cell_angle_beta   90.00000000
_cell_angle_gamma   90.00000000
_symmetry_Int_Tables_number   1
_chemical_formula_structural   Rb2Th7Se15
_chemical_formula_sum   'Rb8 Th28 Se60'
_cell_volume   2713.47328458
_cell_formula_units_Z   4
loop_
 _symmetry_equiv_pos_site_id
 _symmetry_equiv_pos_as_xyz
  1  'x, y, z'
loop_
 _atom_site_type_symbol
 _atom_site_label
 _atom_site_symmetry_multiplicity
 _atom_site_fract_x
 _atom_site_fract_y
 _atom_site_fract_z
 _atom_site_occupancy
  Rb  Rb0  1  0.05237300  0.95525500  0.26752900  1
  Rb  Rb1  1  0.55237300  0.04474500  0.23247100  1
  Rb  Rb2  1  0.94762700  0.04474500  0.73247100  1
  Rb  Rb3  1  0.44762700  0.95525500  0.76752900  1
  Rb  Rb4  1  0.45317300  0.60762500  0.44128500  1
  Rb  Rb5  1  0.95317300  0.39237500  0.05871500  1
  Rb  Rb6  1  0.54682700  0.39237500  0.55871500  1
  Rb  Rb7  1  0.04682700  0.60762500  0.94128500  1
  Th  Th8  1  0.41888600  0.90503400  0.42277500  1
  Th  Th9  1  0.91888600  0.09496600  0.07722500  1
  Th  Th10  1  0.58111400  0.09496600  0.57722500  1
  Th  Th11  1  0.08111400  0.90503400  0.92277500  1
  Th  Th12  1  0.52318200  0.88137900  0.06080300  1
  Th  Th13  1  0.02318200  0.11862100  0.43919700  1
  Th  Th14  1  0.47681800  0.11862100  0.93919700  1
  Th  Th15  1  0.97681800  0.88137900  0.56080300  1
  Th  Th16  1  0.02554900  0.78804400  0.10502100  1
  Th  Th17  1  0.52554900  0.21195600  0.39497900  1
  Th  Th18  1  0.97445100  0.21195600  0.89497900  1
  Th  Th19  1  0.47445100  0.78804400  0.60502100  1
  Th  Th20  1  0.57044600  0.74927200  0.24434900  1
  Th  Th21  1  0.07044600  0.25072800  0.25565100  1
  Th  Th22  1  0.42955400  0.25072800  0.75565100  1
  Th  Th23  1  0.92955400  0.74927200  0.74434900  1
  Th  Th24  1  0.42590700  0.57932300  0.08580600  1
  Th  Th25  1  0.92590700  0.42067700  0.41419400  1
  Th  Th26  1  0.57409300  0.42067700  0.91419400  1
  Th  Th27  1  0.07409300  0.57932300  0.58580600  1
  Th  Th28  1  0.47940600  0.45384900  0.27390500  1
  Th  Th29  1  0.97940600  0.54615100  0.22609500  1
  Th  Th30  1  0.52059400  0.54615100  0.72609500  1
  Th  Th31  1  0.02059400  0.45384900  0.77390500  1
  Th  Th32  1  0.44636400  0.25906300  0.11314300  1
  Th  Th33  1  0.94636400  0.74093700  0.38685700  1
  Th  Th34  1  0.55363600  0.74093700  0.88685700  1
  Th  Th35  1  0.05363600  0.25906300  0.61314300  1
  Se  Se36  1  0.16286900  0.95294100  0.04712600  1
  Se  Se37  1  0.66286900  0.04705900  0.45287400  1
  Se  Se38  1  0.83713100  0.04705900  0.95287400  1
  Se  Se39  1  0.33713100  0.95294100  0.54712600  1
  Se  Se40  1  0.80834300  0.93231200  0.14292500  1
  Se  Se41  1  0.30834300  0.06768800  0.35707500  1
  Se  Se42  1  0.19165700  0.06768800  0.85707500  1
  Se  Se43  1  0.69165700  0.93231200  0.64292500  1
  Se  Se44  1  0.03788100  0.92259100  0.42898000  1
  Se  Se45  1  0.53788100  0.07740900  0.07102000  1
  Se  Se46  1  0.96211900  0.07740900  0.57102000  1
  Se  Se47  1  0.46211900  0.92259100  0.92898000  1
  Se  Se48  1  0.69796700  0.86912500  0.33343900  1
  Se  Se49  1  0.19796700  0.13087500  0.16656100  1
  Se  Se50  1  0.30203300  0.13087500  0.66656100  1
  Se  Se51  1  0.80203300  0.86912500  0.83343900  1
  Se  Se52  1  0.33161100  0.85693500  0.17386400  1
  Se  Se53  1  0.83161100  0.14306500  0.32613600  1
  Se  Se54  1  0.66838900  0.14306500  0.82613600  1
  Se  Se55  1  0.16838900  0.85693500  0.67386400  1
  Se  Se56  1  0.29074000  0.77063400  0.34291000  1
  Se  Se57  1  0.79074000  0.22936600  0.15709000  1
  Se  Se58  1  0.70926000  0.22936600  0.65709000  1
  Se  Se59  1  0.20926000  0.77063400  0.84291000  1
  Se  Se60  1  0.31363800  0.74026600  0.01086600  1
  Se  Se61  1  0.81363800  0.25973400  0.48913400  1
  Se  Se62  1  0.68636200  0.25973400  0.98913400  1
  Se  Se63  1  0.18636200  0.74026600  0.51086600  1
  Se  Se64  1  0.66631400  0.71606200  0.11785700  1
  Se  Se65  1  0.16631400  0.28393800  0.38214300  1
  Se  Se66  1  0.33368600  0.28393800  0.88214300  1
  Se  Se67  1  0.83368600  0.71606200  0.61785700  1
  Se  Se68  1  0.33723900  0.61307600  0.21470900  1
  Se  Se69  1  0.83723900  0.38692400  0.28529100  1
  Se  Se70  1  0.66276100  0.38692400  0.78529100  1
  Se  Se71  1  0.16276100  0.61307600  0.71470900  1
  Se  Se72  1  0.05406900  0.59862100  0.09656700  1
  Se  Se73  1  0.55406900  0.40137900  0.40343300  1
  Se  Se74  1  0.94593100  0.40137900  0.90343300  1
  Se  Se75  1  0.44593100  0.59862100  0.59656700  1
  Se  Se76  1  0.16539500  0.52745700  0.34180600  1
  Se  Se77  1  0.66539500  0.47254300  0.15819400  1
  Se  Se78  1  0.83460500  0.47254300  0.65819400  1
  Se  Se79  1  0.33460500  0.52745700  0.84180600  1
  Se  Se80  1  0.37537000  0.41105900  0.02984200  1
  Se  Se81  1  0.87537000  0.58894100  0.47015800  1
  Se  Se82  1  0.62463000  0.58894100  0.97015800  1
  Se  Se83  1  0.12463000  0.41105900  0.52984200  1
  Se  Se84  1  0.20535100  0.39726500  0.18180400  1
  Se  Se85  1  0.70535100  0.60273500  0.31819600  1
  Se  Se86  1  0.79464900  0.60273500  0.81819600  1
  Se  Se87  1  0.29464900  0.39726500  0.68180400  1
  Se  Se88  1  0.45300000  0.26254700  0.26104600  1
  Se  Se89  1  0.95300000  0.73745300  0.23895400  1
  Se  Se90  1  0.54700000  0.73745300  0.73895400  1
  Se  Se91  1  0.04700000  0.26254700  0.76104600  1
  Se  Se92  1  0.17654500  0.19972800  0.01227100  1
  Se  Se93  1  0.67654500  0.80027200  0.48772900  1
  Se  Se94  1  0.82345500  0.80027200  0.98772900  1
  Se  Se95  1  0.32345500  0.19972800  0.51227100  1
