# generated using pymatgen
data_Hf(TlS)4
_symmetry_space_group_name_H-M   'P 1'
_cell_length_a   9.25197300
_cell_length_b   9.25560184
_cell_length_c   15.70928796
_cell_angle_alpha   103.91859364
_cell_angle_beta   104.51882732
_cell_angle_gamma   89.92543674
_symmetry_Int_Tables_number   1
_chemical_formula_structural   Hf(TlS)4
_chemical_formula_sum   'Hf5 Tl20 S20'
_cell_volume   1261.53644824
_cell_formula_units_Z   5
loop_
 _symmetry_equiv_pos_site_id
 _symmetry_equiv_pos_as_xyz
  1  'x, y, z'
loop_
 _atom_site_type_symbol
 _atom_site_label
 _atom_site_symmetry_multiplicity
 _atom_site_fract_x
 _atom_site_fract_y
 _atom_site_fract_z
 _atom_site_occupancy
  Hf  Hf0  1  0.98439300  0.32020300  0.40054900  1
  Hf  Hf1  1  0.01560700  0.67979700  0.59945100  1
  Hf  Hf2  1  0.82947500  0.68841900  0.80120800  1
  Hf  Hf3  1  0.17052500  0.31158100  0.19879200  1
  Hf  Hf4  1  0.00000000  0.50000000  0.00000000  1
  Tl  Tl5  1  0.95546900  0.92417700  0.20067300  1
  Tl  Tl6  1  0.04453100  0.07582300  0.79932700  1
  Tl  Tl7  1  0.78680000  0.28211800  0.59888700  1
  Tl  Tl8  1  0.21320000  0.71788200  0.40111300  1
  Tl  Tl9  1  0.78496500  0.91535300  0.40453500  1
  Tl  Tl10  1  0.21503500  0.08464700  0.59546500  1
  Tl  Tl11  1  0.77832300  0.54560100  0.20370200  1
  Tl  Tl12  1  0.22167700  0.45439900  0.79629800  1
  Tl  Tl13  1  0.62798800  0.89954300  0.61218500  1
  Tl  Tl14  1  0.37201200  0.10045700  0.38781500  1
  Tl  Tl15  1  0.61668300  0.30102300  0.80922200  1
  Tl  Tl16  1  0.38331700  0.69897700  0.19077800  1
  Tl  Tl17  1  0.58826700  0.53143100  0.40111700  1
  Tl  Tl18  1  0.41173300  0.46856900  0.59888300  1
  Tl  Tl19  1  0.42069100  0.89209300  0.79768300  1
  Tl  Tl20  1  0.57930900  0.10790700  0.20231700  1
  Tl  Tl21  1  0.39026400  0.28541300  0.00295300  1
  Tl  Tl22  1  0.60973600  0.71458700  0.99704700  1
  Tl  Tl23  1  0.22053400  0.89590000  0.99243600  1
  Tl  Tl24  1  0.77946600  0.10410000  0.00756400  1
  S  S25  1  0.93809900  0.94101000  0.59651200  1
  S  S26  1  0.06190100  0.05899000  0.40348800  1
  S  S27  1  0.93105100  0.60192300  0.42409800  1
  S  S28  1  0.06894900  0.39807700  0.57590200  1
  S  S29  1  0.92611100  0.76065200  0.97774400  1
  S  S30  1  0.07388900  0.23934800  0.02225600  1
  S  S31  1  0.91514100  0.42289900  0.82400200  1
  S  S32  1  0.08485900  0.57710100  0.17599800  1
  S  S33  1  0.76345200  0.95344900  0.80712800  1
  S  S34  1  0.23654800  0.04655100  0.19287200  1
  S  S35  1  0.75579000  0.61272100  0.62527700  1
  S  S36  1  0.24421000  0.38727900  0.37472300  1
  S  S37  1  0.56607200  0.61639400  0.80106500  1
  S  S38  1  0.43392800  0.38360600  0.19893500  1
  S  S39  1  0.28015200  0.75177100  0.60323600  1
  S  S40  1  0.71984800  0.24822900  0.39676400  1
  S  S41  1  0.26625400  0.57036400  0.99648000  1
  S  S42  1  0.73374600  0.42963600  0.00352000  1
  S  S43  1  0.09111600  0.73526200  0.77473100  1
  S  S44  1  0.90888400  0.26473800  0.22526900  1
