# generated using pymatgen
data_Na4Mn2O5
_symmetry_space_group_name_H-M   'P 1'
_cell_length_a   11.04990931
_cell_length_b   10.36493943
_cell_length_c   5.63490480
_cell_angle_alpha   81.59031326
_cell_angle_beta   68.11370027
_cell_angle_gamma   30.29598646
_symmetry_Int_Tables_number   1
_chemical_formula_structural   Na4Mn2O5
_chemical_formula_sum   'Na8 Mn4 O10'
_cell_volume   280.04143799
_cell_formula_units_Z   2
loop_
 _symmetry_equiv_pos_site_id
 _symmetry_equiv_pos_as_xyz
  1  'x, y, z'
loop_
 _atom_site_type_symbol
 _atom_site_label
 _atom_site_symmetry_multiplicity
 _atom_site_fract_x
 _atom_site_fract_y
 _atom_site_fract_z
 _atom_site_occupancy
  Na  Na0  1  0.65378100  0.16602900  0.34447600  1
  Na  Na1  1  0.08397100  0.59621900  0.41428600  1
  Na  Na2  1  0.34447600  0.83571400  0.65378100  1
  Na  Na3  1  0.16602900  0.65378100  0.83571400  1
  Na  Na4  1  0.59621900  0.08397100  0.90552400  1
  Na  Na5  1  0.41428600  0.90552400  0.08397100  1
  Na  Na6  1  0.90552400  0.41428600  0.59621900  1
  Na  Na7  1  0.83571400  0.34447600  0.16602900  1
  Mn  Mn8  1  0.96973100  0.53026900  0.96973100  1
  Mn  Mn9  1  0.71973100  0.28026900  0.71973100  1
  Mn  Mn10  1  0.28026900  0.71973100  0.28026900  1
  Mn  Mn11  1  0.53026900  0.96973100  0.53026900  1
  O  O12  1  0.75000000  0.75000000  0.75000000  1
  O  O13  1  0.31546800  0.31546800  0.68453200  1
  O  O14  1  0.06686100  0.06686100  0.43313900  1
  O  O15  1  0.43313900  0.43313900  0.06686100  1
  O  O16  1  0.18313900  0.18313900  0.81686100  1
  O  O17  1  0.81686100  0.81686100  0.18313900  1
  O  O18  1  0.68453200  0.68453200  0.31546800  1
  O  O19  1  0.93453200  0.93453200  0.56546800  1
  O  O20  1  0.50000000  0.50000000  0.50000000  1
  O  O21  1  0.56546800  0.56546800  0.93453200  1
