# generated using pymatgen
data_AgRhF6
_symmetry_space_group_name_H-M   'P 1'
_cell_length_a   5.23686800
_cell_length_b   5.25949532
_cell_length_c   10.40963128
_cell_angle_alpha   75.70655987
_cell_angle_beta   75.78429205
_cell_angle_gamma   60.19828287
_symmetry_Int_Tables_number   1
_chemical_formula_structural   AgRhF6
_chemical_formula_sum   'Ag2 Rh2 F12'
_cell_volume   238.50801482
_cell_formula_units_Z   2
loop_
 _symmetry_equiv_pos_site_id
 _symmetry_equiv_pos_as_xyz
  1  'x, y, z'
loop_
 _atom_site_type_symbol
 _atom_site_label
 _atom_site_symmetry_multiplicity
 _atom_site_fract_x
 _atom_site_fract_y
 _atom_site_fract_z
 _atom_site_occupancy
  Ag  Ag0  1  0.50000000  0.50000000  0.50000000  1
  Ag  Ag1  1  0.00000000  0.00000000  0.00000000  1
  Rh  Rh2  1  0.72675400  0.76587700  0.74974400  1
  Rh  Rh3  1  0.27324600  0.23412300  0.25025600  1
  F  F4  1  0.46334600  0.80278000  0.63637300  1
  F  F5  1  0.53665400  0.19722000  0.36362700  1
  F  F6  1  0.76678000  0.10235200  0.63929400  1
  F  F7  1  0.23322000  0.89764800  0.36070600  1
  F  F8  1  0.69236600  0.42896900  0.86326800  1
  F  F9  1  0.30763400  0.57103100  0.13673200  1
  F  F10  1  0.99077700  0.72842200  0.86279500  1
  F  F11  1  0.00922300  0.27157800  0.13720500  1
  F  F12  1  0.60975300  0.96950600  0.13843400  1
  F  F13  1  0.39024700  0.03049400  0.86156600  1
  F  F14  1  0.93631900  0.49136400  0.36374500  1
  F  F15  1  0.06368100  0.50863600  0.63625500  1
