# generated using pymatgen
data_Pr(Mo3S4)2
_symmetry_space_group_name_H-M   'P 1'
_cell_length_a   6.55990667
_cell_length_b   6.55990667
_cell_length_c   6.55990697
_cell_angle_alpha   88.87260502
_cell_angle_beta   88.87260502
_cell_angle_gamma   88.87260780
_symmetry_Int_Tables_number   1
_chemical_formula_structural   Pr(Mo3S4)2
_chemical_formula_sum   'Pr1 Mo6 S8'
_cell_volume   282.12656285
_cell_formula_units_Z   1
loop_
 _symmetry_equiv_pos_site_id
 _symmetry_equiv_pos_as_xyz
  1  'x, y, z'
loop_
 _atom_site_type_symbol
 _atom_site_label
 _atom_site_symmetry_multiplicity
 _atom_site_fract_x
 _atom_site_fract_y
 _atom_site_fract_z
 _atom_site_occupancy
  Pr  Pr0  1  0.00000000  0.00000000  0.00000000  1
  Mo  Mo1  1  0.77339700  0.58081600  0.43690300  1
  Mo  Mo2  1  0.43690300  0.77339700  0.58081600  1
  Mo  Mo3  1  0.58081600  0.43690300  0.77339700  1
  Mo  Mo4  1  0.22660300  0.41918400  0.56309700  1
  Mo  Mo5  1  0.56309700  0.22660300  0.41918400  1
  Mo  Mo6  1  0.41918400  0.56309700  0.22660300  1
  S  S7  1  0.75596100  0.75596100  0.75596100  1
  S  S8  1  0.24403900  0.24403900  0.24403900  1
  S  S9  1  0.25135800  0.62399000  0.87360400  1
  S  S10  1  0.87360400  0.25135800  0.62399000  1
  S  S11  1  0.62399000  0.87360400  0.25135800  1
  S  S12  1  0.74864200  0.37601000  0.12639600  1
  S  S13  1  0.12639600  0.74864200  0.37601000  1
  S  S14  1  0.37601000  0.12639600  0.74864200  1
