# generated using pymatgen
data_BaAl2Si3(NO)4
_symmetry_space_group_name_H-M   'P 1'
_cell_length_a   7.41806058
_cell_length_b   7.41806058
_cell_length_c   9.57923100
_cell_angle_alpha   90.00000000
_cell_angle_beta   90.00000000
_cell_angle_gamma   134.17459390
_symmetry_Int_Tables_number   1
_chemical_formula_structural   BaAl2Si3(NO)4
_chemical_formula_sum   'Ba2 Al4 Si6 N8 O8'
_cell_volume   378.06249138
_cell_formula_units_Z   2
loop_
 _symmetry_equiv_pos_site_id
 _symmetry_equiv_pos_as_xyz
  1  'x, y, z'
loop_
 _atom_site_type_symbol
 _atom_site_label
 _atom_site_symmetry_multiplicity
 _atom_site_fract_x
 _atom_site_fract_y
 _atom_site_fract_z
 _atom_site_occupancy
  Ba  Ba0  1  0.98329000  0.01671000  0.00099700  1
  Ba  Ba1  1  0.01671000  0.98329000  0.50099700  1
  Al  Al2  1  0.47345400  0.52654600  0.75493400  1
  Al  Al3  1  0.52654600  0.47345400  0.25493400  1
  Al  Al4  1  0.28718700  0.71281300  0.53903400  1
  Al  Al5  1  0.71281300  0.28718700  0.03903400  1
  Si  Si6  1  0.29761800  0.70238200  0.98617600  1
  Si  Si7  1  0.70238200  0.29761800  0.48617600  1
  Si  Si8  1  0.42911100  0.08259100  0.76146000  1
  Si  Si9  1  0.91740900  0.57088900  0.76146000  1
  Si  Si10  1  0.57088900  0.91740900  0.26146000  1
  Si  Si11  1  0.08259100  0.42911100  0.26146000  1
  N  N12  1  0.20758100  0.79241900  0.85108700  1
  N  N13  1  0.79241900  0.20758100  0.35108700  1
  N  N14  1  0.71194600  0.28805400  0.84586800  1
  N  N15  1  0.28805400  0.71194600  0.34586800  1
  N  N16  1  0.46507500  0.04318100  0.58915300  1
  N  N17  1  0.95681900  0.53492500  0.58915300  1
  N  N18  1  0.53492500  0.95681900  0.08915300  1
  N  N19  1  0.04318100  0.46507500  0.08915300  1
  O  O20  1  0.29897000  0.19898400  0.75948500  1
  O  O21  1  0.80101600  0.70103000  0.75948500  1
  O  O22  1  0.70103000  0.80101600  0.25948500  1
  O  O23  1  0.19898400  0.29897000  0.25948500  1
  O  O24  1  0.40647200  0.59352800  0.91120900  1
  O  O25  1  0.59352800  0.40647200  0.41120900  1
  O  O26  1  0.40631500  0.59368500  0.60279800  1
  O  O27  1  0.59368500  0.40631500  0.10279800  1
