# generated using pymatgen
data_Pr3VGeO9
_symmetry_space_group_name_H-M   'P 1'
_cell_length_a   7.17744993
_cell_length_b   9.48119727
_cell_length_c   12.74371000
_cell_angle_alpha   90.00000000
_cell_angle_beta   90.00000000
_cell_angle_gamma   107.55557556
_symmetry_Int_Tables_number   1
_chemical_formula_structural   Pr3VGeO9
_chemical_formula_sum   'Pr12 V4 Ge4 O36'
_cell_volume   826.82897887
_cell_formula_units_Z   4
loop_
 _symmetry_equiv_pos_site_id
 _symmetry_equiv_pos_as_xyz
  1  'x, y, z'
loop_
 _atom_site_type_symbol
 _atom_site_label
 _atom_site_symmetry_multiplicity
 _atom_site_fract_x
 _atom_site_fract_y
 _atom_site_fract_z
 _atom_site_occupancy
  Pr  Pr0  1  0.66908300  0.62332900  0.36939300  1
  Pr  Pr1  1  0.33091700  0.37667100  0.63060700  1
  Pr  Pr2  1  0.83091700  0.87667100  0.86939300  1
  Pr  Pr3  1  0.16908300  0.12332900  0.13060700  1
  Pr  Pr4  1  0.24019400  0.84689200  0.36582200  1
  Pr  Pr5  1  0.75980600  0.15310800  0.63417800  1
  Pr  Pr6  1  0.25980600  0.65310800  0.86582200  1
  Pr  Pr7  1  0.74019400  0.34689200  0.13417800  1
  Pr  Pr8  1  0.50699000  0.87449700  0.10752700  1
  Pr  Pr9  1  0.49301000  0.12550300  0.89247300  1
  Pr  Pr10  1  0.99301000  0.62550300  0.60752700  1
  Pr  Pr11  1  0.00699000  0.37449700  0.39247300  1
  V  V12  1  0.19705000  0.97786100  0.66331500  1
  V  V13  1  0.80295000  0.02213900  0.33668500  1
  V  V14  1  0.30295000  0.52213900  0.16331500  1
  V  V15  1  0.69705000  0.47786100  0.83668500  1
  Ge  Ge16  1  0.95276900  0.76052400  0.10172500  1
  Ge  Ge17  1  0.04723100  0.23947600  0.89827500  1
  Ge  Ge18  1  0.54723100  0.73947600  0.60172500  1
  Ge  Ge19  1  0.45276900  0.26052400  0.39827500  1
  O  O20  1  0.89917700  0.87439600  0.34097500  1
  O  O21  1  0.10082300  0.12560400  0.65902500  1
  O  O22  1  0.60082300  0.62560400  0.84097500  1
  O  O23  1  0.39917600  0.37439600  0.15902500  1
  O  O24  1  0.65396600  0.59118800  0.57554200  1
  O  O25  1  0.34603400  0.40881200  0.42445800  1
  O  O26  1  0.84603400  0.90881200  0.07554200  1
  O  O27  1  0.15396600  0.09118800  0.92445800  1
  O  O28  1  0.16818100  0.88052700  0.54595600  1
  O  O29  1  0.83181900  0.11947300  0.45404400  1
  O  O30  1  0.33181900  0.61947300  0.04595600  1
  O  O31  1  0.66818100  0.38052700  0.95404400  1
  O  O32  1  0.79055600  0.61614900  0.17293900  1
  O  O33  1  0.20944400  0.38385100  0.82706100  1
  O  O34  1  0.70944400  0.88385100  0.67293900  1
  O  O35  1  0.29055600  0.11614900  0.32706100  1
  O  O36  1  0.08215900  0.83635700  0.75163300  1
  O  O37  1  0.91784100  0.16364300  0.24836700  1
  O  O38  1  0.41784100  0.66364300  0.25163300  1
  O  O39  1  0.58215900  0.33635700  0.74836700  1
  O  O40  1  0.99447900  0.61697700  0.42067900  1
  O  O41  1  0.00552100  0.38302300  0.57932100  1
  O  O42  1  0.50552100  0.88302300  0.92067900  1
  O  O43  1  0.49447900  0.11697700  0.07932100  1
  O  O44  1  0.17349100  0.86230100  0.16992300  1
  O  O45  1  0.82650900  0.13769900  0.83007700  1
  O  O46  1  0.32650900  0.63769900  0.66992300  1
  O  O47  1  0.67349100  0.36230100  0.33007700  1
  O  O48  1  0.56648100  0.96031800  0.29095000  1
  O  O49  1  0.43351900  0.03968200  0.70905000  1
  O  O50  1  0.93351900  0.53968200  0.79095000  1
  O  O51  1  0.06648100  0.46031800  0.20905000  1
  O  O52  1  0.49332800  0.77576000  0.47036400  1
  O  O53  1  0.50667200  0.22424000  0.52963600  1
  O  O54  1  0.00667200  0.72424000  0.97036400  1
  O  O55  1  0.99332800  0.27576000  0.02963600  1
