# generated using pymatgen
data_Ca2Hg
_symmetry_space_group_name_H-M   'P 1'
_cell_length_a   5.13032700
_cell_length_b   7.44145700
_cell_length_c   9.91867700
_cell_angle_alpha   90.00000000
_cell_angle_beta   90.00000000
_cell_angle_gamma   90.00000000
_symmetry_Int_Tables_number   1
_chemical_formula_structural   Ca2Hg
_chemical_formula_sum   'Ca8 Hg4'
_cell_volume   378.66640073
_cell_formula_units_Z   4
loop_
 _symmetry_equiv_pos_site_id
 _symmetry_equiv_pos_as_xyz
  1  'x, y, z'
loop_
 _atom_site_type_symbol
 _atom_site_label
 _atom_site_symmetry_multiplicity
 _atom_site_fract_x
 _atom_site_fract_y
 _atom_site_fract_z
 _atom_site_occupancy
  Ca  Ca0  1  0.25000000  0.02943000  0.81135300  1
  Ca  Ca1  1  0.25000000  0.52943000  0.68864700  1
  Ca  Ca2  1  0.75000000  0.97057000  0.18864700  1
  Ca  Ca3  1  0.75000000  0.47057000  0.31135300  1
  Ca  Ca4  1  0.25000000  0.15916900  0.43210500  1
  Ca  Ca5  1  0.25000000  0.65916900  0.06789500  1
  Ca  Ca6  1  0.75000000  0.84083100  0.56789500  1
  Ca  Ca7  1  0.75000000  0.34083100  0.93210500  1
  Hg  Hg8  1  0.25000000  0.73112200  0.38615000  1
  Hg  Hg9  1  0.25000000  0.23112200  0.11385000  1
  Hg  Hg10  1  0.75000000  0.26887800  0.61385000  1
  Hg  Hg11  1  0.75000000  0.76887800  0.88615000  1
