# generated using pymatgen
data_Y2CoTe2(SO7)2
_symmetry_space_group_name_H-M   'P 1'
_cell_length_a   8.17951263
_cell_length_b   14.83744211
_cell_length_c   10.63842005
_cell_angle_alpha   106.08570909
_cell_angle_beta   106.94901850
_cell_angle_gamma   88.91786049
_symmetry_Int_Tables_number   1
_chemical_formula_structural   Y2CoTe2(SO7)2
_chemical_formula_sum   'Y8 Co4 Te8 S8 O56'
_cell_volume   1183.98430916
_cell_formula_units_Z   4
loop_
 _symmetry_equiv_pos_site_id
 _symmetry_equiv_pos_as_xyz
  1  'x, y, z'
loop_
 _atom_site_type_symbol
 _atom_site_label
 _atom_site_symmetry_multiplicity
 _atom_site_fract_x
 _atom_site_fract_y
 _atom_site_fract_z
 _atom_site_occupancy
  Y  Y0  1  0.10667600  0.12385600  0.35262800  1
  Y  Y1  1  0.60661400  0.62380900  0.60263800  1
  Y  Y2  1  0.10666200  0.12391600  0.85264500  1
  Y  Y3  1  0.60674700  0.62390400  0.10261000  1
  Y  Y4  1  0.39332000  0.37607500  0.39737700  1
  Y  Y5  1  0.89338500  0.87617400  0.64736500  1
  Y  Y6  1  0.39334400  0.37615600  0.89735100  1
  Y  Y7  1  0.89325500  0.87610900  0.14738800  1
  Co  Co8  1  0.75001200  0.24999800  0.37499100  1
  Co  Co9  1  0.24999900  0.75000000  0.12500200  1
  Co  Co10  1  0.25000200  0.75000100  0.62500000  1
  Co  Co11  1  0.74998700  0.25000200  0.87500700  1
  Te  Te12  1  0.77487200  0.11454600  0.06550000  1
  Te  Te13  1  0.27503800  0.61446300  0.31548400  1
  Te  Te14  1  0.77489400  0.11456000  0.56552800  1
  Te  Te15  1  0.27489200  0.61457200  0.81552100  1
  Te  Te16  1  0.72515700  0.38542600  0.68450100  1
  Te  Te17  1  0.22496700  0.88553500  0.93452300  1
  Te  Te18  1  0.72507600  0.38546500  0.18446400  1
  Te  Te19  1  0.22510100  0.88543300  0.43448000  1
  S  S20  1  0.37580600  0.12780600  0.19563400  1
  S  S21  1  0.87604800  0.62791300  0.44573700  1
  S  S22  1  0.37587900  0.12786100  0.69568800  1
  S  S23  1  0.87578900  0.62780300  0.94563300  1
  S  S24  1  0.12417600  0.37217700  0.55433800  1
  S  S25  1  0.62394100  0.87208300  0.80425800  1
  S  S26  1  0.12413900  0.37215800  0.05434100  1
  S  S27  1  0.62422800  0.87219900  0.30437300  1
  O  O28  1  0.92582900  0.03081700  0.14151500  1
  O  O29  1  0.42602900  0.53078400  0.39146900  1
  O  O30  1  0.92586300  0.03089600  0.64157500  1
  O  O31  1  0.42582600  0.53085000  0.89160400  1
  O  O32  1  0.57416300  0.46911300  0.60841300  1
  O  O33  1  0.07397900  0.96920400  0.85852200  1
  O  O34  1  0.57414200  0.46917200  0.10849400  1
  O  O35  1  0.07416900  0.96916600  0.35841200  1
  O  O36  1  0.88091500  0.21232700  0.23074100  1
  O  O37  1  0.38087300  0.71231200  0.48060700  1
  O  O38  1  0.88083200  0.21239500  0.73068600  1
  O  O39  1  0.38097700  0.71233800  0.98079300  1
  O  O40  1  0.61911900  0.28763100  0.51926600  1
  O  O41  1  0.11913600  0.78768200  0.76940500  1
  O  O42  1  0.61912400  0.28764900  0.01929700  1
  O  O43  1  0.11902500  0.78766600  0.26920500  1
  O  O44  1  0.32818600  0.11560100  0.54594500  1
  O  O45  1  0.82810600  0.61558100  0.79589800  1
  O  O46  1  0.32813300  0.11559300  0.04589300  1
  O  O47  1  0.82837900  0.61563200  0.29599200  1
  O  O48  1  0.17181700  0.38439900  0.20408500  1
  O  O49  1  0.67189800  0.88442100  0.45411300  1
  O  O50  1  0.17186800  0.38440800  0.70407400  1
  O  O51  1  0.67161200  0.88436500  0.95399600  1
  O  O52  1  0.56510700  0.13697400  0.25082900  1
  O  O53  1  0.06544300  0.63710000  0.50091600  1
  O  O54  1  0.56519100  0.13702500  0.75086100  1
  O  O55  1  0.06505100  0.63696700  0.00083400  1
  O  O56  1  0.93488200  0.36301300  0.49916800  1
  O  O57  1  0.43455700  0.86289500  0.74907900  1
  O  O58  1  0.93481900  0.36299000  0.99914400  1
  O  O59  1  0.43495000  0.86303500  0.24916800  1
  O  O60  1  0.90324000  0.15398500  0.46452000  1
  O  O61  1  0.40325800  0.65375800  0.71440800  1
  O  O62  1  0.90320800  0.15392600  0.96448200  1
  O  O63  1  0.40328000  0.65400200  0.21450600  1
  O  O64  1  0.59676600  0.34601300  0.28548500  1
  O  O65  1  0.09674100  0.84624200  0.53559600  1
  O  O66  1  0.59678900  0.34607700  0.78551100  1
  O  O67  1  0.09671300  0.84599500  0.03549200  1
  O  O68  1  0.30139000  0.04764700  0.22394000  1
  O  O69  1  0.80177600  0.54773000  0.47411600  1
  O  O70  1  0.30148400  0.04770000  0.72404700  1
  O  O71  1  0.80133500  0.54765600  0.97395500  1
  O  O72  1  0.19859600  0.45231600  0.52598300  1
  O  O73  1  0.69822100  0.95226400  0.77586700  1
  O  O74  1  0.19853200  0.45233900  0.02603300  1
  O  O75  1  0.69866700  0.95234900  0.27605900  1
  O  O76  1  0.29834800  0.21277000  0.26692000  1
  O  O77  1  0.79856900  0.71284400  0.51698100  1
  O  O78  1  0.29839600  0.21281800  0.76693800  1
  O  O79  1  0.79830500  0.71278100  0.01690700  1
  O  O80  1  0.20162900  0.28719300  0.48306600  1
  O  O81  1  0.70143900  0.78714700  0.73301900  1
  O  O82  1  0.20161900  0.28722000  0.98307000  1
  O  O83  1  0.70169400  0.78722900  0.23309800  1
