# generated using pymatgen
data_ScGaPt
_symmetry_space_group_name_H-M   'P 1'
_cell_length_a   4.34670900
_cell_length_b   6.50739600
_cell_length_c   7.53189500
_cell_angle_alpha   90.00000000
_cell_angle_beta   90.00000000
_cell_angle_gamma   90.00000000
_symmetry_Int_Tables_number   1
_chemical_formula_structural   ScGaPt
_chemical_formula_sum   'Sc4 Ga4 Pt4'
_cell_volume   213.04534991
_cell_formula_units_Z   4
loop_
 _symmetry_equiv_pos_site_id
 _symmetry_equiv_pos_as_xyz
  1  'x, y, z'
loop_
 _atom_site_type_symbol
 _atom_site_label
 _atom_site_symmetry_multiplicity
 _atom_site_fract_x
 _atom_site_fract_y
 _atom_site_fract_z
 _atom_site_occupancy
  Sc  Sc0  1  0.25000000  0.02299500  0.31281600  1
  Sc  Sc1  1  0.25000000  0.52299500  0.18718400  1
  Sc  Sc2  1  0.75000000  0.97700500  0.68718400  1
  Sc  Sc3  1  0.75000000  0.47700500  0.81281600  1
  Ga  Ga4  1  0.25000000  0.16062500  0.93675600  1
  Ga  Ga5  1  0.25000000  0.66062500  0.56324400  1
  Ga  Ga6  1  0.75000000  0.83937500  0.06324400  1
  Ga  Ga7  1  0.75000000  0.33937500  0.43675600  1
  Pt  Pt8  1  0.25000000  0.26218600  0.61167600  1
  Pt  Pt9  1  0.25000000  0.76218600  0.88832400  1
  Pt  Pt10  1  0.75000000  0.73781400  0.38832400  1
  Pt  Pt11  1  0.75000000  0.23781400  0.11167600  1
