# generated using pymatgen
data_Ga40SnMo8
_symmetry_space_group_name_H-M   'P 1'
_cell_length_a   9.61870336
_cell_length_b   9.61870336
_cell_length_c   9.61870374
_cell_angle_alpha   93.97899714
_cell_angle_beta   93.97899714
_cell_angle_gamma   93.97899967
_symmetry_Int_Tables_number   1
_chemical_formula_structural   Ga40SnMo8
_chemical_formula_sum   'Ga40 Sn1 Mo8'
_cell_volume   883.16673760
_cell_formula_units_Z   1
loop_
 _symmetry_equiv_pos_site_id
 _symmetry_equiv_pos_as_xyz
  1  'x, y, z'
loop_
 _atom_site_type_symbol
 _atom_site_label
 _atom_site_symmetry_multiplicity
 _atom_site_fract_x
 _atom_site_fract_y
 _atom_site_fract_z
 _atom_site_occupancy
  Ga  Ga0  1  0.50000000  0.50000000  0.50000000  1
  Ga  Ga1  1  0.00000000  0.50000000  0.50000000  1
  Ga  Ga2  1  0.50000000  0.00000000  0.50000000  1
  Ga  Ga3  1  0.50000000  0.50000000  0.00000000  1
  Ga  Ga4  1  0.26633800  0.63408300  0.61046100  1
  Ga  Ga5  1  0.61046100  0.26633800  0.63408300  1
  Ga  Ga6  1  0.63408300  0.61046100  0.26633800  1
  Ga  Ga7  1  0.73366200  0.36591700  0.38953900  1
  Ga  Ga8  1  0.38953900  0.73366200  0.36591700  1
  Ga  Ga9  1  0.36591700  0.38953900  0.73366200  1
  Ga  Ga10  1  0.67385300  0.77837800  0.53165900  1
  Ga  Ga11  1  0.53165900  0.67385300  0.77837800  1
  Ga  Ga12  1  0.77837800  0.53165900  0.67385300  1
  Ga  Ga13  1  0.32614700  0.22162200  0.46834100  1
  Ga  Ga14  1  0.46834100  0.32614700  0.22162200  1
  Ga  Ga15  1  0.22162200  0.46834100  0.32614700  1
  Ga  Ga16  1  0.77790000  0.07538300  0.44768900  1
  Ga  Ga17  1  0.44768900  0.77790000  0.07538300  1
  Ga  Ga18  1  0.07538300  0.44768900  0.77790000  1
  Ga  Ga19  1  0.22210000  0.92461700  0.55231100  1
  Ga  Ga20  1  0.55231100  0.22210000  0.92461700  1
  Ga  Ga21  1  0.92461700  0.55231100  0.22210000  1
  Ga  Ga22  1  0.96563600  0.78485500  0.59801200  1
  Ga  Ga23  1  0.59801200  0.96563600  0.78485500  1
  Ga  Ga24  1  0.78485500  0.59801200  0.96563600  1
  Ga  Ga25  1  0.03436400  0.21514500  0.40198800  1
  Ga  Ga26  1  0.40198800  0.03436400  0.21514500  1
  Ga  Ga27  1  0.21514500  0.40198800  0.03436400  1
  Ga  Ga28  1  0.04947400  0.73485100  0.86850200  1
  Ga  Ga29  1  0.86850200  0.04947400  0.73485100  1
  Ga  Ga30  1  0.73485100  0.86850200  0.04947400  1
  Ga  Ga31  1  0.95052600  0.26514900  0.13149800  1
  Ga  Ga32  1  0.13149800  0.95052600  0.26514900  1
  Ga  Ga33  1  0.26514900  0.13149800  0.95052600  1
  Ga  Ga34  1  0.12424300  0.17409200  0.68291600  1
  Ga  Ga35  1  0.68291600  0.12424300  0.17409200  1
  Ga  Ga36  1  0.17409200  0.68291600  0.12424300  1
  Ga  Ga37  1  0.87575700  0.82590800  0.31708400  1
  Ga  Ga38  1  0.31708400  0.87575700  0.82590800  1
  Ga  Ga39  1  0.82590800  0.31708400  0.87575700  1
  Sn  Sn40  1  0.00000000  0.00000000  0.00000000  1
  Mo  Mo41  1  0.78684700  0.78684700  0.78684700  1
  Mo  Mo42  1  0.21315300  0.21315300  0.21315300  1
  Mo  Mo43  1  0.28844900  0.61227800  0.88870700  1
  Mo  Mo44  1  0.88870700  0.28844900  0.61227800  1
  Mo  Mo45  1  0.61227800  0.88870700  0.28844900  1
  Mo  Mo46  1  0.71155100  0.38772200  0.11129300  1
  Mo  Mo47  1  0.11129300  0.71155100  0.38772200  1
  Mo  Mo48  1  0.38772200  0.11129300  0.71155100  1
