# generated using pymatgen
data_CsDy2Cu3Se5
_symmetry_space_group_name_H-M   'P 1'
_cell_length_a   7.63432858
_cell_length_b   7.63432858
_cell_length_c   17.43124500
_cell_angle_alpha   90.00000000
_cell_angle_beta   90.00000000
_cell_angle_gamma   148.53848155
_symmetry_Int_Tables_number   1
_chemical_formula_structural   CsDy2Cu3Se5
_chemical_formula_sum   'Cs2 Dy4 Cu6 Se10'
_cell_volume   530.24777968
_cell_formula_units_Z   2
loop_
 _symmetry_equiv_pos_site_id
 _symmetry_equiv_pos_as_xyz
  1  'x, y, z'
loop_
 _atom_site_type_symbol
 _atom_site_label
 _atom_site_symmetry_multiplicity
 _atom_site_fract_x
 _atom_site_fract_y
 _atom_site_fract_z
 _atom_site_occupancy
  Cs  Cs0  1  0.93923000  0.06077000  0.25000000  1
  Cs  Cs1  1  0.06077000  0.93923000  0.75000000  1
  Dy  Dy2  1  0.19211400  0.80788600  0.40885600  1
  Dy  Dy3  1  0.19211400  0.80788600  0.09114400  1
  Dy  Dy4  1  0.80788600  0.19211400  0.59114400  1
  Dy  Dy5  1  0.80788600  0.19211400  0.90885600  1
  Cu  Cu6  1  0.58433800  0.41566200  0.53020300  1
  Cu  Cu7  1  0.41566200  0.58433800  0.46979700  1
  Cu  Cu8  1  0.34170500  0.65829500  0.75000000  1
  Cu  Cu9  1  0.65829500  0.34170500  0.25000000  1
  Cu  Cu10  1  0.58433800  0.41566200  0.96979700  1
  Cu  Cu11  1  0.41566200  0.58433800  0.03020300  1
  Se  Se12  1  0.43931900  0.56068100  0.88795500  1
  Se  Se13  1  0.83231000  0.16769000  0.07010400  1
  Se  Se14  1  0.43931900  0.56068100  0.61204500  1
  Se  Se15  1  0.16769000  0.83231000  0.57010400  1
  Se  Se16  1  0.83231000  0.16769000  0.42989600  1
  Se  Se17  1  0.16769000  0.83231000  0.92989600  1
  Se  Se18  1  0.76211500  0.23788500  0.75000000  1
  Se  Se19  1  0.23788500  0.76211500  0.25000000  1
  Se  Se20  1  0.56068100  0.43931900  0.38795500  1
  Se  Se21  1  0.56068100  0.43931900  0.11204500  1
