# generated using pymatgen
data_Rb5Ti6AgSe27
_symmetry_space_group_name_H-M   'P 1'
_cell_length_a   13.74126066
_cell_length_b   13.74126066
_cell_length_c   14.06205800
_cell_angle_alpha   90.00000000
_cell_angle_beta   90.00000000
_cell_angle_gamma   120.00000317
_symmetry_Int_Tables_number   1
_chemical_formula_structural   Rb5Ti6AgSe27
_chemical_formula_sum   'Rb10 Ti12 Ag2 Se54'
_cell_volume   2299.49599959
_cell_formula_units_Z   2
loop_
 _symmetry_equiv_pos_site_id
 _symmetry_equiv_pos_as_xyz
  1  'x, y, z'
loop_
 _atom_site_type_symbol
 _atom_site_label
 _atom_site_symmetry_multiplicity
 _atom_site_fract_x
 _atom_site_fract_y
 _atom_site_fract_z
 _atom_site_occupancy
  Rb  Rb0  1  0.66138400  0.62492100  0.73844900  1
  Rb  Rb1  1  0.37507900  0.03646300  0.73844900  1
  Rb  Rb2  1  0.33333300  0.66666700  0.06370000  1
  Rb  Rb3  1  0.66666700  0.33333300  0.56370000  1
  Rb  Rb4  1  0.33333300  0.66666700  0.42511600  1
  Rb  Rb5  1  0.66666700  0.33333300  0.92511600  1
  Rb  Rb6  1  0.96353700  0.33861600  0.73844900  1
  Rb  Rb7  1  0.03646300  0.37507900  0.23844900  1
  Rb  Rb8  1  0.62492100  0.66138400  0.23844900  1
  Rb  Rb9  1  0.33861600  0.96353700  0.23844900  1
  Ti  Ti10  1  0.98657700  0.66666800  0.61519600  1
  Ti  Ti11  1  0.01621800  0.67074800  0.37436500  1
  Ti  Ti12  1  0.32925200  0.34547000  0.37436500  1
  Ti  Ti13  1  0.65453000  0.98378200  0.37436500  1
  Ti  Ti14  1  0.67074800  0.01621800  0.87436500  1
  Ti  Ti15  1  0.34547000  0.32925200  0.87436500  1
  Ti  Ti16  1  0.98378200  0.65453000  0.87436500  1
  Ti  Ti17  1  0.01342300  0.68009100  0.11519600  1
  Ti  Ti18  1  0.31990900  0.33333200  0.11519600  1
  Ti  Ti19  1  0.66666800  0.98657700  0.11519600  1
  Ti  Ti20  1  0.68009100  0.01342300  0.61519600  1
  Ti  Ti21  1  0.33333200  0.31990900  0.61519600  1
  Ag  Ag22  1  0.00000000  0.00000000  0.98819400  1
  Ag  Ag23  1  0.00000000  0.00000000  0.48819400  1
  Se  Se24  1  0.84623000  0.66082600  0.99027000  1
  Se  Se25  1  0.50834200  0.81616400  0.65737500  1
  Se  Se26  1  0.18383600  0.69217800  0.65737500  1
  Se  Se27  1  0.30782200  0.49165800  0.65737500  1
  Se  Se28  1  0.81616400  0.50834200  0.15737500  1
  Se  Se29  1  0.69217800  0.18383600  0.15737500  1
  Se  Se30  1  0.49165800  0.30782200  0.15737500  1
  Se  Se31  1  0.46069000  0.87238700  0.88044600  1
  Se  Se32  1  0.12761300  0.58830300  0.88044600  1
  Se  Se33  1  0.41169700  0.53931000  0.88044600  1
  Se  Se34  1  0.87238700  0.46069000  0.38044600  1
  Se  Se35  1  0.58830300  0.12761300  0.38044600  1
  Se  Se36  1  0.98501200  0.51319400  0.00112400  1
  Se  Se37  1  0.48680600  0.47181800  0.00112400  1
  Se  Se38  1  0.52818200  0.01498800  0.00112400  1
  Se  Se39  1  0.51319400  0.98501200  0.50112400  1
  Se  Se40  1  0.47181800  0.48680600  0.50112400  1
  Se  Se41  1  0.01498800  0.52818200  0.50112400  1
  Se  Se42  1  0.92279400  0.80463800  0.86937900  1
  Se  Se43  1  0.19536200  0.11815600  0.86937900  1
  Se  Se44  1  0.88184400  0.07720600  0.86937900  1
  Se  Se45  1  0.80463800  0.92279400  0.36937900  1
  Se  Se46  1  0.11815600  0.19536200  0.36937900  1
  Se  Se47  1  0.07720600  0.88184400  0.36937900  1
  Se  Se48  1  0.90276300  0.79389100  0.59935700  1
  Se  Se49  1  0.20610900  0.10887200  0.59935700  1
  Se  Se50  1  0.89112800  0.09723700  0.59935700  1
  Se  Se51  1  0.79389100  0.90276300  0.09935700  1
  Se  Se52  1  0.10887200  0.20610900  0.09935700  1
  Se  Se53  1  0.09723700  0.89112800  0.09935700  1
  Se  Se54  1  0.86183100  0.52657700  0.74101700  1
  Se  Se55  1  0.47342300  0.33525400  0.74101700  1
  Se  Se56  1  0.66474600  0.13816900  0.74101700  1
  Se  Se57  1  0.52657700  0.86183100  0.24101700  1
  Se  Se58  1  0.33525400  0.47342300  0.24101700  1
  Se  Se59  1  0.13816900  0.66474600  0.24101700  1
  Se  Se60  1  0.53931000  0.41169700  0.38044600  1
  Se  Se61  1  0.33917400  0.18540400  0.99027000  1
  Se  Se62  1  0.81459600  0.15377000  0.99027000  1
  Se  Se63  1  0.66082600  0.84623000  0.49027000  1
  Se  Se64  1  0.18540400  0.33917400  0.49027000  1
  Se  Se65  1  0.15377000  0.81459600  0.49027000  1
  Se  Se66  1  0.68132000  0.88534700  0.74570000  1
  Se  Se67  1  0.11465300  0.79597300  0.74570000  1
  Se  Se68  1  0.20402700  0.31868000  0.74570000  1
  Se  Se69  1  0.88534700  0.68132000  0.24570000  1
  Se  Se70  1  0.35896600  0.20078400  0.49057800  1
  Se  Se71  1  0.31868000  0.20402700  0.24570000  1
  Se  Se72  1  0.64103400  0.84181800  0.99057800  1
  Se  Se73  1  0.15818200  0.79921600  0.99057800  1
  Se  Se74  1  0.20078400  0.35896600  0.99057800  1
  Se  Se75  1  0.84181800  0.64103400  0.49057800  1
  Se  Se76  1  0.79921600  0.15818200  0.49057800  1
  Se  Se77  1  0.79597300  0.11465300  0.24570000  1
