# generated using pymatgen
data_Yb6Al43Mo4
_symmetry_space_group_name_H-M   'P 1'
_cell_length_a   11.05365162
_cell_length_b   11.05365162
_cell_length_c   17.66079000
_cell_angle_alpha   90.00000000
_cell_angle_beta   90.00000000
_cell_angle_gamma   119.99999774
_symmetry_Int_Tables_number   1
_chemical_formula_structural   Yb6Al43Mo4
_chemical_formula_sum   'Yb12 Al86 Mo8'
_cell_volume   1868.75476768
_cell_formula_units_Z   2
loop_
 _symmetry_equiv_pos_site_id
 _symmetry_equiv_pos_as_xyz
  1  'x, y, z'
loop_
 _atom_site_type_symbol
 _atom_site_label
 _atom_site_symmetry_multiplicity
 _atom_site_fract_x
 _atom_site_fract_y
 _atom_site_fract_z
 _atom_site_occupancy
  Yb  Yb0  1  0.46702700  0.46702700  0.90558700  1
  Yb  Yb1  1  0.53297300  0.00000000  0.90558700  1
  Yb  Yb2  1  0.00000000  0.53297300  0.90558700  1
  Yb  Yb3  1  0.53297300  0.53297300  0.09441300  1
  Yb  Yb4  1  0.46702700  0.00000000  0.09441300  1
  Yb  Yb5  1  0.00000000  0.46702700  0.09441300  1
  Yb  Yb6  1  0.53297300  0.53297300  0.40558700  1
  Yb  Yb7  1  0.46702700  0.00000000  0.40558700  1
  Yb  Yb8  1  0.00000000  0.46702700  0.40558700  1
  Yb  Yb9  1  0.46702700  0.46702700  0.59441300  1
  Yb  Yb10  1  0.53297300  0.00000000  0.59441300  1
  Yb  Yb11  1  0.00000000  0.53297300  0.59441300  1
  Al  Al12  1  0.84413900  0.23658400  0.83506500  1
  Al  Al13  1  0.76341600  0.60755500  0.83506500  1
  Al  Al14  1  0.39244500  0.15586100  0.83506500  1
  Al  Al15  1  0.23658400  0.84413900  0.83506500  1
  Al  Al16  1  0.60755500  0.76341600  0.83506500  1
  Al  Al17  1  0.15586100  0.39244500  0.83506500  1
  Al  Al18  1  0.15586100  0.76341600  0.16493500  1
  Al  Al19  1  0.23658400  0.39244500  0.16493500  1
  Al  Al20  1  0.60755500  0.84413900  0.16493500  1
  Al  Al21  1  0.76341600  0.15586100  0.16493500  1
  Al  Al22  1  0.39244500  0.23658400  0.16493500  1
  Al  Al23  1  0.84413900  0.60755500  0.16493500  1
  Al  Al24  1  0.15586100  0.76341600  0.33506500  1
  Al  Al25  1  0.23658400  0.39244500  0.33506500  1
  Al  Al26  1  0.60755500  0.84413900  0.33506500  1
  Al  Al27  1  0.76341600  0.15586100  0.33506500  1
  Al  Al28  1  0.39244500  0.23658400  0.33506500  1
  Al  Al29  1  0.84413900  0.60755500  0.33506500  1
  Al  Al30  1  0.84413900  0.23658400  0.66493500  1
  Al  Al31  1  0.76341600  0.60755500  0.66493500  1
  Al  Al32  1  0.39244500  0.15586100  0.66493500  1
  Al  Al33  1  0.23658400  0.84413900  0.66493500  1
  Al  Al34  1  0.60755500  0.76341600  0.66493500  1
  Al  Al35  1  0.15586100  0.39244500  0.66493500  1
  Al  Al36  1  0.84125500  0.84125500  0.38471000  1
  Al  Al37  1  0.15874500  0.00000000  0.38471000  1
  Al  Al38  1  0.00000000  0.15874500  0.38471000  1
  Al  Al39  1  0.15874500  0.15874500  0.61529000  1
  Al  Al40  1  0.84125500  0.00000000  0.61529000  1
  Al  Al41  1  0.00000000  0.84125500  0.61529000  1
  Al  Al42  1  0.15874500  0.15874500  0.88471000  1
  Al  Al43  1  0.84125500  0.00000000  0.88471000  1
  Al  Al44  1  0.00000000  0.84125500  0.88471000  1
  Al  Al45  1  0.84125500  0.84125500  0.11529000  1
  Al  Al46  1  0.15874500  0.00000000  0.11529000  1
  Al  Al47  1  0.00000000  0.15874500  0.11529000  1
  Al  Al48  1  0.74794200  0.74794200  0.96835900  1
  Al  Al49  1  0.25205800  0.00000000  0.96835900  1
  Al  Al50  1  0.00000000  0.25205800  0.96835900  1
  Al  Al51  1  0.25205800  0.25205800  0.03164100  1
  Al  Al52  1  0.74794200  0.00000000  0.03164100  1
  Al  Al53  1  0.00000000  0.74794200  0.03164100  1
  Al  Al54  1  0.25205800  0.25205800  0.46835900  1
  Al  Al55  1  0.74794200  0.00000000  0.46835900  1
  Al  Al56  1  0.00000000  0.74794200  0.46835900  1
  Al  Al57  1  0.74794200  0.74794200  0.53164100  1
  Al  Al58  1  0.25205800  0.00000000  0.53164100  1
  Al  Al59  1  0.00000000  0.25205800  0.53164100  1
  Al  Al60  1  0.85155500  0.45003700  0.75000000  1
  Al  Al61  1  0.54996300  0.40151800  0.75000000  1
  Al  Al62  1  0.59848200  0.14844500  0.75000000  1
  Al  Al63  1  0.45003700  0.85155500  0.75000000  1
  Al  Al64  1  0.40151800  0.54996300  0.75000000  1
  Al  Al65  1  0.14844500  0.59848200  0.75000000  1
  Al  Al66  1  0.14844500  0.54996300  0.25000000  1
  Al  Al67  1  0.45003700  0.59848200  0.25000000  1
  Al  Al68  1  0.40151800  0.85155500  0.25000000  1
  Al  Al69  1  0.54996300  0.14844500  0.25000000  1
  Al  Al70  1  0.59848200  0.45003700  0.25000000  1
  Al  Al71  1  0.85155500  0.40151800  0.25000000  1
  Al  Al72  1  0.75293900  0.24706100  0.00000000  1
  Al  Al73  1  0.75293900  0.50587800  0.00000000  1
  Al  Al74  1  0.49412200  0.24706100  0.00000000  1
  Al  Al75  1  0.24706100  0.75293900  0.00000000  1
  Al  Al76  1  0.50587800  0.75293900  0.00000000  1
  Al  Al77  1  0.24706100  0.49412200  0.00000000  1
  Al  Al78  1  0.24706100  0.75293900  0.50000000  1
  Al  Al79  1  0.24706100  0.49412200  0.50000000  1
  Al  Al80  1  0.50587800  0.75293900  0.50000000  1
  Al  Al81  1  0.75293900  0.24706100  0.50000000  1
  Al  Al82  1  0.49412200  0.24706100  0.50000000  1
  Al  Al83  1  0.75293900  0.50587800  0.50000000  1
  Al  Al84  1  0.66666700  0.33333300  0.87352600  1
  Al  Al85  1  0.33333300  0.66666700  0.87352600  1
  Al  Al86  1  0.33333300  0.66666700  0.12647400  1
  Al  Al87  1  0.66666700  0.33333300  0.12647400  1
  Al  Al88  1  0.33333300  0.66666700  0.37352600  1
  Al  Al89  1  0.66666700  0.33333300  0.37352600  1
  Al  Al90  1  0.66666700  0.33333300  0.62647400  1
  Al  Al91  1  0.33333300  0.66666700  0.62647400  1
  Al  Al92  1  0.85320900  0.85320900  0.75000000  1
  Al  Al93  1  0.14679100  0.00000000  0.75000000  1
  Al  Al94  1  0.00000000  0.14679100  0.75000000  1
  Al  Al95  1  0.14679100  0.14679100  0.25000000  1
  Al  Al96  1  0.85320900  0.00000000  0.25000000  1
  Al  Al97  1  0.00000000  0.85320900  0.25000000  1
  Mo  Mo98  1  0.27051200  0.27051200  0.75000000  1
  Mo  Mo99  1  0.72948800  0.00000000  0.75000000  1
  Mo  Mo100  1  0.00000000  0.72948800  0.75000000  1
  Mo  Mo101  1  0.72948800  0.72948800  0.25000000  1
  Mo  Mo102  1  0.27051200  0.00000000  0.25000000  1
  Mo  Mo103  1  0.00000000  0.27051200  0.25000000  1
  Mo  Mo104  1  0.00000000  0.00000000  0.00000000  1
  Mo  Mo105  1  0.00000000  0.00000000  0.50000000  1
