# generated using pymatgen
data_YWC2
_symmetry_space_group_name_H-M   'P 1'
_cell_length_a   3.39053500
_cell_length_b   5.73763900
_cell_length_c   10.81983800
_cell_angle_alpha   90.00000000
_cell_angle_beta   90.00000000
_cell_angle_gamma   90.00000000
_symmetry_Int_Tables_number   1
_chemical_formula_structural   YWC2
_chemical_formula_sum   'Y4 W4 C8'
_cell_volume   210.48551297
_cell_formula_units_Z   4
loop_
 _symmetry_equiv_pos_site_id
 _symmetry_equiv_pos_as_xyz
  1  'x, y, z'
loop_
 _atom_site_type_symbol
 _atom_site_label
 _atom_site_symmetry_multiplicity
 _atom_site_fract_x
 _atom_site_fract_y
 _atom_site_fract_z
 _atom_site_occupancy
  Y  Y0  1  0.25000000  0.08532300  0.86320500  1
  Y  Y1  1  0.25000000  0.58532300  0.63679500  1
  Y  Y2  1  0.75000000  0.91467700  0.13679500  1
  Y  Y3  1  0.75000000  0.41467700  0.36320500  1
  W  W4  1  0.25000000  0.40334200  0.11060500  1
  W  W5  1  0.25000000  0.90334200  0.38939500  1
  W  W6  1  0.75000000  0.59665800  0.88939500  1
  W  W7  1  0.75000000  0.09665800  0.61060500  1
  C  C8  1  0.25000000  0.16050000  0.24725000  1
  C  C9  1  0.25000000  0.66050000  0.25275000  1
  C  C10  1  0.75000000  0.83950000  0.75275000  1
  C  C11  1  0.75000000  0.33950000  0.74725000  1
  C  C12  1  0.25000000  0.72179600  0.98442700  1
  C  C13  1  0.25000000  0.22179600  0.51557300  1
  C  C14  1  0.75000000  0.27820400  0.01557300  1
  C  C15  1  0.75000000  0.77820400  0.48442700  1
