# generated using pymatgen
data_Hf9CoW4
_symmetry_space_group_name_H-M   'P 1'
_cell_length_a   8.69210188
_cell_length_b   8.69210188
_cell_length_c   8.47162300
_cell_angle_alpha   90.00000000
_cell_angle_beta   90.00000000
_cell_angle_gamma   119.99999905
_symmetry_Int_Tables_number   1
_chemical_formula_structural   Hf9CoW4
_chemical_formula_sum   'Hf18 Co2 W8'
_cell_volume   554.30254450
_cell_formula_units_Z   2
loop_
 _symmetry_equiv_pos_site_id
 _symmetry_equiv_pos_as_xyz
  1  'x, y, z'
loop_
 _atom_site_type_symbol
 _atom_site_label
 _atom_site_symmetry_multiplicity
 _atom_site_fract_x
 _atom_site_fract_y
 _atom_site_fract_z
 _atom_site_occupancy
  Hf  Hf0  1  0.20125300  0.79874700  0.44062900  1
  Hf  Hf1  1  0.20125300  0.40250600  0.44062900  1
  Hf  Hf2  1  0.59749400  0.79874700  0.44062900  1
  Hf  Hf3  1  0.79874700  0.20125300  0.55937100  1
  Hf  Hf4  1  0.79874700  0.59749400  0.55937100  1
  Hf  Hf5  1  0.40250600  0.20125300  0.55937100  1
  Hf  Hf6  1  0.79874700  0.20125300  0.94062900  1
  Hf  Hf7  1  0.79874700  0.59749400  0.94062900  1
  Hf  Hf8  1  0.40250600  0.20125300  0.94062900  1
  Hf  Hf9  1  0.20125300  0.79874700  0.05937100  1
  Hf  Hf10  1  0.20125300  0.40250600  0.05937100  1
  Hf  Hf11  1  0.59749400  0.79874700  0.05937100  1
  Hf  Hf12  1  0.54189600  0.45810400  0.25000000  1
  Hf  Hf13  1  0.54189600  0.08379100  0.25000000  1
  Hf  Hf14  1  0.91620900  0.45810400  0.25000000  1
  Hf  Hf15  1  0.45810400  0.54189600  0.75000000  1
  Hf  Hf16  1  0.45810400  0.91620900  0.75000000  1
  Hf  Hf17  1  0.08379100  0.54189600  0.75000000  1
  Co  Co18  1  0.33333300  0.66666700  0.25000000  1
  Co  Co19  1  0.66666700  0.33333300  0.75000000  1
  W  W20  1  0.88765800  0.11234200  0.25000000  1
  W  W21  1  0.88765800  0.77531700  0.25000000  1
  W  W22  1  0.22468300  0.11234200  0.25000000  1
  W  W23  1  0.11234200  0.88765800  0.75000000  1
  W  W24  1  0.11234200  0.22468300  0.75000000  1
  W  W25  1  0.77531700  0.88765800  0.75000000  1
  W  W26  1  0.00000000  0.00000000  0.50000000  1
  W  W27  1  0.00000000  0.00000000  0.00000000  1
