# generated using pymatgen
data_CeBi2Au
_symmetry_space_group_name_H-M   'P 1'
_cell_length_a   4.70449400
_cell_length_b   4.70449400
_cell_length_c   9.92499700
_cell_angle_alpha   90.00000000
_cell_angle_beta   90.00000000
_cell_angle_gamma   90.00000000
_symmetry_Int_Tables_number   1
_chemical_formula_structural   CeBi2Au
_chemical_formula_sum   'Ce2 Bi4 Au2'
_cell_volume   219.66265178
_cell_formula_units_Z   2
loop_
 _symmetry_equiv_pos_site_id
 _symmetry_equiv_pos_as_xyz
  1  'x, y, z'
loop_
 _atom_site_type_symbol
 _atom_site_label
 _atom_site_symmetry_multiplicity
 _atom_site_fract_x
 _atom_site_fract_y
 _atom_site_fract_z
 _atom_site_occupancy
  Ce  Ce0  1  0.50000000  0.00000000  0.23119200  1
  Ce  Ce1  1  0.00000000  0.50000000  0.76880800  1
  Bi  Bi2  1  0.00000000  0.50000000  0.19697300  1
  Bi  Bi3  1  0.50000000  0.00000000  0.80302700  1
  Bi  Bi4  1  0.00000000  0.00000000  0.50000000  1
  Bi  Bi5  1  0.50000000  0.50000000  0.50000000  1
  Au  Au6  1  0.00000000  0.00000000  0.00000000  1
  Au  Au7  1  0.50000000  0.50000000  0.00000000  1
