# generated using pymatgen
data_NdSm(MnGe)4
_symmetry_space_group_name_H-M   'P 1'
_cell_length_a   3.99808700
_cell_length_b   3.99808700
_cell_length_c   10.92930700
_cell_angle_alpha   90.00000000
_cell_angle_beta   90.00000000
_cell_angle_gamma   90.00000000
_symmetry_Int_Tables_number   1
_chemical_formula_structural   NdSm(MnGe)4
_chemical_formula_sum   'Nd1 Sm1 Mn4 Ge4'
_cell_volume   174.70168988
_cell_formula_units_Z   1
loop_
 _symmetry_equiv_pos_site_id
 _symmetry_equiv_pos_as_xyz
  1  'x, y, z'
loop_
 _atom_site_type_symbol
 _atom_site_label
 _atom_site_symmetry_multiplicity
 _atom_site_fract_x
 _atom_site_fract_y
 _atom_site_fract_z
 _atom_site_occupancy
  Nd  Nd0  1  0.00000000  0.00000000  0.00000000  1
  Sm  Sm1  1  0.50000000  0.50000000  0.50000000  1
  Mn  Mn2  1  0.00000000  0.50000000  0.25093900  1
  Mn  Mn3  1  0.50000000  0.00000000  0.74906100  1
  Mn  Mn4  1  0.50000000  0.00000000  0.25093900  1
  Mn  Mn5  1  0.00000000  0.50000000  0.74906100  1
  Ge  Ge6  1  0.50000000  0.50000000  0.12379100  1
  Ge  Ge7  1  0.00000000  0.00000000  0.62212200  1
  Ge  Ge8  1  0.00000000  0.00000000  0.37787800  1
  Ge  Ge9  1  0.50000000  0.50000000  0.87620900  1
