# generated using pymatgen
data_Rb3W2N5
_symmetry_space_group_name_H-M   'P 1'
_cell_length_a   10.68722660
_cell_length_b   10.68722660
_cell_length_c   10.68722660
_cell_angle_alpha   102.17738224
_cell_angle_beta   102.17738224
_cell_angle_gamma   125.31857057
_symmetry_Int_Tables_number   1
_chemical_formula_structural   Rb3W2N5
_chemical_formula_sum   'Rb12 W8 N20'
_cell_volume   884.73669535
_cell_formula_units_Z   4
loop_
 _symmetry_equiv_pos_site_id
 _symmetry_equiv_pos_as_xyz
  1  'x, y, z'
loop_
 _atom_site_type_symbol
 _atom_site_label
 _atom_site_symmetry_multiplicity
 _atom_site_fract_x
 _atom_site_fract_y
 _atom_site_fract_z
 _atom_site_occupancy
  Rb  Rb0  1  0.85234200  0.55284800  0.87771300  1
  Rb  Rb1  1  0.67513500  0.97462900  0.12228700  1
  Rb  Rb2  1  0.80284800  0.42513500  0.20050600  1
  Rb  Rb3  1  0.22462900  0.60234200  0.79949400  1
  Rb  Rb4  1  0.51665700  0.69810100  0.35132100  1
  Rb  Rb5  1  0.34678000  0.16533600  0.64867900  1
  Rb  Rb6  1  0.94810100  0.09678000  0.68144400  1
  Rb  Rb7  1  0.41533600  0.26665700  0.31855600  1
  Rb  Rb8  1  0.96266600  0.96266600  0.00000000  1
  Rb  Rb9  1  0.21266600  0.71266600  0.50000000  1
  Rb  Rb10  1  0.73083600  0.23083600  0.50000000  1
  Rb  Rb11  1  0.48083600  0.48083600  0.00000000  1
  W  W12  1  0.62597800  0.05895500  0.80465400  1
  W  W13  1  0.25430100  0.82132300  0.19534600  1
  W  W14  1  0.30895500  0.00430100  0.93297700  1
  W  W15  1  0.07132300  0.37597800  0.06702300  1
  W  W16  1  0.93570200  0.75782700  0.62728100  1
  W  W17  1  0.13054600  0.30842100  0.37271900  1
  W  W18  1  0.00782700  0.88054600  0.32212500  1
  W  W19  1  0.55842100  0.68570200  0.67787500  1
  N  N20  1  0.63384400  0.19230300  0.72558000  1
  N  N21  1  0.46672300  0.90826400  0.27442000  1
  N  N22  1  0.44230300  0.21672300  0.05845900  1
  N  N23  1  0.15826400  0.38384400  0.94154100  1
  N  N24  1  0.84492800  0.72337400  0.15120900  1
  N  N25  1  0.57216500  0.69371900  0.84879100  1
  N  N26  1  0.97337400  0.32216500  0.37844600  1
  N  N27  1  0.94371900  0.59492800  0.62155400  1
  N  N28  1  0.83336200  0.18927000  0.96749100  1
  N  N29  1  0.22177900  0.86587100  0.03250900  1
  N  N30  1  0.43927000  0.97177900  0.85590800  1
  N  N31  1  0.11587100  0.58336200  0.14409200  1
  N  N32  1  0.95024800  0.80169600  0.46290400  1
  N  N33  1  0.33879200  0.48734400  0.53709600  1
  N  N34  1  0.05169600  0.08879200  0.35144800  1
  N  N35  1  0.73734400  0.70024800  0.64855200  1
  N  N36  1  0.12844800  0.96448600  0.78861800  1
  N  N37  1  0.17586800  0.33983100  0.21138200  1
  N  N38  1  0.21448600  0.92586800  0.33603800  1
  N  N39  1  0.58983100  0.87844800  0.66396200  1
