# generated using pymatgen
data_Ba3Sr2Re3ClO15
_symmetry_space_group_name_H-M   'P 1'
_cell_length_a   10.90359366
_cell_length_b   10.90359366
_cell_length_c   7.82034600
_cell_angle_alpha   90.00000000
_cell_angle_beta   90.00000000
_cell_angle_gamma   119.99999792
_symmetry_Int_Tables_number   1
_chemical_formula_structural   Ba3Sr2Re3ClO15
_chemical_formula_sum   'Ba6 Sr4 Re6 Cl2 O30'
_cell_volume   805.18546340
_cell_formula_units_Z   2
loop_
 _symmetry_equiv_pos_site_id
 _symmetry_equiv_pos_as_xyz
  1  'x, y, z'
loop_
 _atom_site_type_symbol
 _atom_site_label
 _atom_site_symmetry_multiplicity
 _atom_site_fract_x
 _atom_site_fract_y
 _atom_site_fract_z
 _atom_site_occupancy
  Ba  Ba0  1  0.73682600  0.00000000  0.22672600  1
  Ba  Ba1  1  0.00000000  0.73682600  0.22672600  1
  Ba  Ba2  1  0.26317400  0.00000000  0.72672600  1
  Ba  Ba3  1  0.00000000  0.26317400  0.72672600  1
  Ba  Ba4  1  0.26317400  0.26317400  0.22672600  1
  Ba  Ba5  1  0.73682600  0.73682600  0.72672600  1
  Sr  Sr6  1  0.33333300  0.66666700  0.47171600  1
  Sr  Sr7  1  0.66666700  0.33333300  0.97171600  1
  Sr  Sr8  1  0.33333300  0.66666700  0.97171600  1
  Sr  Sr9  1  0.66666700  0.33333300  0.47171600  1
  Re  Re10  1  0.39175400  0.00000000  0.17022000  1
  Re  Re11  1  0.00000000  0.39175400  0.17022000  1
  Re  Re12  1  0.60824600  0.00000000  0.67022000  1
  Re  Re13  1  0.00000000  0.60824600  0.67022000  1
  Re  Re14  1  0.60824600  0.60824600  0.17022000  1
  Re  Re15  1  0.39175400  0.39175400  0.67022000  1
  Cl  Cl16  1  0.00000000  0.00000000  0.00187300  1
  Cl  Cl17  1  0.00000000  0.00000000  0.50187300  1
  O  O18  1  0.13553400  0.57998500  0.21384100  1
  O  O19  1  0.42001500  0.55554900  0.21384100  1
  O  O20  1  0.86446600  0.42001500  0.71384100  1
  O  O21  1  0.42001500  0.86446600  0.71384100  1
  O  O22  1  0.44445100  0.86446600  0.21384100  1
  O  O23  1  0.57998500  0.44445100  0.71384100  1
  O  O24  1  0.44445100  0.57998500  0.71384100  1
  O  O25  1  0.57998500  0.13553400  0.21384100  1
  O  O26  1  0.55554900  0.13553400  0.71384100  1
  O  O27  1  0.55554900  0.42001500  0.21384100  1
  O  O28  1  0.13553400  0.55554900  0.71384100  1
  O  O29  1  0.86446600  0.44445100  0.21384100  1
  O  O30  1  0.13474700  0.39231400  0.02613400  1
  O  O31  1  0.60768600  0.74243300  0.02613400  1
  O  O32  1  0.86525300  0.60768600  0.52613400  1
  O  O33  1  0.60768600  0.86525300  0.52613400  1
  O  O34  1  0.25756700  0.86525300  0.02613400  1
  O  O35  1  0.39231400  0.25756700  0.52613400  1
  O  O36  1  0.25756700  0.39231400  0.52613400  1
  O  O37  1  0.39231400  0.13474700  0.02613400  1
  O  O38  1  0.74243300  0.13474700  0.52613400  1
  O  O39  1  0.74243300  0.60768600  0.02613400  1
  O  O40  1  0.13474700  0.74243300  0.52613400  1
  O  O41  1  0.86525300  0.25756700  0.02613400  1
  O  O42  1  0.29195500  0.00000000  0.34753600  1
  O  O43  1  0.00000000  0.29195500  0.34753600  1
  O  O44  1  0.70804500  0.00000000  0.84753600  1
  O  O45  1  0.00000000  0.70804500  0.84753600  1
  O  O46  1  0.70804500  0.70804500  0.34753600  1
  O  O47  1  0.29195500  0.29195500  0.84753600  1
