# generated using pymatgen
data_CsTm(WO4)2
_symmetry_space_group_name_H-M   'P 1'
_cell_length_a   6.08727990
_cell_length_b   6.08727990
_cell_length_c   8.27232000
_cell_angle_alpha   90.00000000
_cell_angle_beta   90.00000000
_cell_angle_gamma   119.99999887
_symmetry_Int_Tables_number   1
_chemical_formula_structural   CsTm(WO4)2
_chemical_formula_sum   'Cs1 Tm1 W2 O8'
_cell_volume   265.46330999
_cell_formula_units_Z   1
loop_
 _symmetry_equiv_pos_site_id
 _symmetry_equiv_pos_as_xyz
  1  'x, y, z'
loop_
 _atom_site_type_symbol
 _atom_site_label
 _atom_site_symmetry_multiplicity
 _atom_site_fract_x
 _atom_site_fract_y
 _atom_site_fract_z
 _atom_site_occupancy
  Cs  Cs0  1  0.00000000  0.00000000  0.00000000  1
  Tm  Tm1  1  0.00000000  0.00000000  0.50000000  1
  W  W2  1  0.33333300  0.66666700  0.27039000  1
  W  W3  1  0.66666700  0.33333300  0.72961000  1
  O  O4  1  0.16859800  0.83140200  0.33934600  1
  O  O5  1  0.83140200  0.16859800  0.66065400  1
  O  O6  1  0.16859800  0.33719500  0.33934600  1
  O  O7  1  0.83140200  0.66280500  0.66065400  1
  O  O8  1  0.66280500  0.83140200  0.33934600  1
  O  O9  1  0.33719500  0.16859800  0.66065400  1
  O  O10  1  0.33333300  0.66666700  0.05580900  1
  O  O11  1  0.66666700  0.33333300  0.94419100  1
