# generated using pymatgen
data_ErRhO3
_symmetry_space_group_name_H-M   'P 1'
_cell_length_a   5.27961400
_cell_length_b   5.76799500
_cell_length_c   7.64664200
_cell_angle_alpha   90.00000000
_cell_angle_beta   90.00000000
_cell_angle_gamma   90.00000000
_symmetry_Int_Tables_number   1
_chemical_formula_structural   ErRhO3
_chemical_formula_sum   'Er4 Rh4 O12'
_cell_volume   232.86156127
_cell_formula_units_Z   4
loop_
 _symmetry_equiv_pos_site_id
 _symmetry_equiv_pos_as_xyz
  1  'x, y, z'
loop_
 _atom_site_type_symbol
 _atom_site_label
 _atom_site_symmetry_multiplicity
 _atom_site_fract_x
 _atom_site_fract_y
 _atom_site_fract_z
 _atom_site_occupancy
  Er  Er0  1  0.02944400  0.41643900  0.25000000  1
  Er  Er1  1  0.97055600  0.58356100  0.75000000  1
  Er  Er2  1  0.52944400  0.08356100  0.75000000  1
  Er  Er3  1  0.47055600  0.91643900  0.25000000  1
  Rh  Rh4  1  0.00000000  0.00000000  0.00000000  1
  Rh  Rh5  1  0.50000000  0.50000000  0.00000000  1
  Rh  Rh6  1  0.00000000  0.00000000  0.50000000  1
  Rh  Rh7  1  0.50000000  0.50000000  0.50000000  1
  O  O8  1  0.32261000  0.18950500  0.06575200  1
  O  O9  1  0.67739000  0.81049500  0.93424800  1
  O  O10  1  0.82261000  0.31049500  0.93424800  1
  O  O11  1  0.67739000  0.81049500  0.56575200  1
  O  O12  1  0.17739000  0.68950500  0.06575200  1
  O  O13  1  0.32261000  0.18950500  0.43424800  1
  O  O14  1  0.17739000  0.68950500  0.43424800  1
  O  O15  1  0.82261000  0.31049500  0.56575200  1
  O  O16  1  0.63870400  0.55572600  0.25000000  1
  O  O17  1  0.36129600  0.44427400  0.75000000  1
  O  O18  1  0.13870400  0.94427400  0.75000000  1
  O  O19  1  0.86129600  0.05572600  0.25000000  1
