# generated using pymatgen
data_Sr2B5HO10
_symmetry_space_group_name_H-M   'P 1'
_cell_length_a   8.52703900
_cell_length_b   6.55962200
_cell_length_c   14.37114505
_cell_angle_alpha   85.56538403
_cell_angle_beta   90.00000000
_cell_angle_gamma   90.00000000
_symmetry_Int_Tables_number   1
_chemical_formula_structural   Sr2B5HO10
_chemical_formula_sum   'Sr8 B20 H4 O40'
_cell_volume   801.43130676
_cell_formula_units_Z   4
loop_
 _symmetry_equiv_pos_site_id
 _symmetry_equiv_pos_as_xyz
  1  'x, y, z'
loop_
 _atom_site_type_symbol
 _atom_site_label
 _atom_site_symmetry_multiplicity
 _atom_site_fract_x
 _atom_site_fract_y
 _atom_site_fract_z
 _atom_site_occupancy
  Sr  Sr0  1  0.65810800  0.47871200  0.10947500  1
  Sr  Sr1  1  0.15810800  0.52128800  0.39052500  1
  Sr  Sr2  1  0.34189200  0.52128800  0.89052500  1
  Sr  Sr3  1  0.84189200  0.47871200  0.60947500  1
  Sr  Sr4  1  0.49994900  0.95364000  0.27241500  1
  Sr  Sr5  1  0.99994900  0.04636000  0.22758500  1
  Sr  Sr6  1  0.50005100  0.04636000  0.72758500  1
  Sr  Sr7  1  0.00005100  0.95364000  0.77241500  1
  B  B8  1  0.77446200  0.19582700  0.39313700  1
  B  B9  1  0.27446200  0.80417300  0.10686300  1
  B  B10  1  0.22553800  0.80417300  0.60686300  1
  B  B11  1  0.72553800  0.19582700  0.89313700  1
  B  B12  1  0.34031500  0.46496200  0.18514400  1
  B  B13  1  0.84031500  0.53503800  0.31485600  1
  B  B14  1  0.65968500  0.53503800  0.81485600  1
  B  B15  1  0.15968500  0.46496200  0.68514400  1
  B  B16  1  0.68323300  0.81664200  0.93314500  1
  B  B17  1  0.18323300  0.18335800  0.56685500  1
  B  B18  1  0.31676700  0.18335800  0.06685500  1
  B  B19  1  0.81676700  0.81664200  0.43314500  1
  B  B20  1  0.79666900  0.04100600  0.56150300  1
  B  B21  1  0.29666900  0.95899400  0.93849700  1
  B  B22  1  0.20333100  0.95899400  0.43849700  1
  B  B23  1  0.70333100  0.04100600  0.06150300  1
  B  B24  1  0.55435200  0.42714400  0.32032400  1
  B  B25  1  0.05435200  0.57285600  0.17967600  1
  B  B26  1  0.44564800  0.57285600  0.67967600  1
  B  B27  1  0.94564800  0.42714400  0.82032400  1
  H  H28  1  0.00902600  0.40864600  0.06389900  1
  H  H29  1  0.50902600  0.59135400  0.43610100  1
  H  H30  1  0.99097400  0.59135400  0.93610100  1
  H  H31  1  0.49097400  0.40864600  0.56389900  1
  O  O32  1  0.38580300  0.68065300  0.16491900  1
  O  O33  1  0.88580300  0.31934700  0.33508100  1
  O  O34  1  0.61419700  0.31934700  0.83508100  1
  O  O35  1  0.11419700  0.68065300  0.66491900  1
  O  O36  1  0.95327800  0.43879400  0.12031700  1
  O  O37  1  0.45327800  0.56120600  0.37968300  1
  O  O38  1  0.04672200  0.56120600  0.87968300  1
  O  O39  1  0.54672200  0.43879400  0.62031700  1
  O  O40  1  0.61111400  0.24553500  0.37478800  1
  O  O41  1  0.11111400  0.75446500  0.12521200  1
  O  O42  1  0.38888600  0.75446500  0.62521200  1
  O  O43  1  0.88888600  0.24553500  0.87478800  1
  O  O44  1  0.45466900  0.35538400  0.24545300  1
  O  O45  1  0.95466900  0.64461600  0.25454700  1
  O  O46  1  0.54533100  0.64461600  0.75454700  1
  O  O47  1  0.04533100  0.35538400  0.74545300  1
  O  O48  1  0.64664300  0.62335400  0.91272600  1
  O  O49  1  0.14664300  0.37664600  0.58727400  1
  O  O50  1  0.35335700  0.37664600  0.08727400  1
  O  O51  1  0.85335700  0.62335400  0.41272600  1
  O  O52  1  0.18154500  0.43983200  0.22108200  1
  O  O53  1  0.68154500  0.56016800  0.27891800  1
  O  O54  1  0.81845500  0.56016800  0.77891800  1
  O  O55  1  0.31845500  0.43983200  0.72108200  1
  O  O56  1  0.79934800  0.97632000  0.36713900  1
  O  O57  1  0.29934800  0.02368000  0.13286100  1
  O  O58  1  0.20065200  0.02368000  0.63286100  1
  O  O59  1  0.70065200  0.97632000  0.86713900  1
  O  O60  1  0.71139500  0.06907700  0.15294700  1
  O  O61  1  0.21139500  0.93092300  0.34705300  1
  O  O62  1  0.28860500  0.93092300  0.84705300  1
  O  O63  1  0.78860500  0.06907700  0.65294700  1
  O  O64  1  0.81146300  0.20368300  0.49475000  1
  O  O65  1  0.31146300  0.79631700  0.00525000  1
  O  O66  1  0.18853700  0.79631700  0.50525000  1
  O  O67  1  0.68853700  0.20368300  0.99475000  1
  O  O68  1  0.70438600  0.84176200  0.02849900  1
  O  O69  1  0.20438600  0.15823800  0.47150100  1
  O  O70  1  0.29561400  0.15823800  0.97150100  1
  O  O71  1  0.79561400  0.84176200  0.52849900  1
