# generated using pymatgen
data_Yb9Zn4Bi9
_symmetry_space_group_name_H-M   'P 1'
_cell_length_a   4.72654700
_cell_length_b   12.53332800
_cell_length_c   22.07659700
_cell_angle_alpha   90.00000000
_cell_angle_beta   90.00000000
_cell_angle_gamma   90.00000000
_symmetry_Int_Tables_number   1
_chemical_formula_structural   Yb9Zn4Bi9
_chemical_formula_sum   'Yb18 Zn8 Bi18'
_cell_volume   1307.80356244
_cell_formula_units_Z   2
loop_
 _symmetry_equiv_pos_site_id
 _symmetry_equiv_pos_as_xyz
  1  'x, y, z'
loop_
 _atom_site_type_symbol
 _atom_site_label
 _atom_site_symmetry_multiplicity
 _atom_site_fract_x
 _atom_site_fract_y
 _atom_site_fract_z
 _atom_site_occupancy
  Yb  Yb0  1  0.00000000  0.63114300  0.36061100  1
  Yb  Yb1  1  0.00000000  0.36885700  0.63938900  1
  Yb  Yb2  1  0.00000000  0.86885700  0.86061100  1
  Yb  Yb3  1  0.00000000  0.13114300  0.13938900  1
  Yb  Yb4  1  0.50000000  0.50000000  0.50000000  1
  Yb  Yb5  1  0.50000000  0.00000000  0.00000000  1
  Yb  Yb6  1  0.00000000  0.87346100  0.23477200  1
  Yb  Yb7  1  0.00000000  0.12653900  0.76522800  1
  Yb  Yb8  1  0.00000000  0.62653900  0.73477200  1
  Yb  Yb9  1  0.00000000  0.37346100  0.26522800  1
  Yb  Yb10  1  0.00000000  0.92637300  0.41139100  1
  Yb  Yb11  1  0.00000000  0.07362700  0.58860900  1
  Yb  Yb12  1  0.00000000  0.57362700  0.91139100  1
  Yb  Yb13  1  0.00000000  0.42637300  0.08860900  1
  Yb  Yb14  1  0.50000000  0.70530900  0.09994600  1
  Yb  Yb15  1  0.50000000  0.29469100  0.90005400  1
  Yb  Yb16  1  0.50000000  0.79469100  0.59994600  1
  Yb  Yb17  1  0.50000000  0.20530900  0.40005400  1
  Zn  Zn18  1  0.50000000  0.61030100  0.26244400  1
  Zn  Zn19  1  0.50000000  0.38969900  0.73755600  1
  Zn  Zn20  1  0.50000000  0.88969900  0.76244400  1
  Zn  Zn21  1  0.50000000  0.11030100  0.23755600  1
  Zn  Zn22  1  0.50000000  0.77053600  0.45232300  1
  Zn  Zn23  1  0.50000000  0.22946400  0.54767700  1
  Zn  Zn24  1  0.50000000  0.72946400  0.95232300  1
  Zn  Zn25  1  0.50000000  0.27053600  0.04767700  1
  Bi  Bi26  1  0.50000000  0.95295900  0.14505000  1
  Bi  Bi27  1  0.50000000  0.04704100  0.85495000  1
  Bi  Bi28  1  0.50000000  0.54704100  0.64505000  1
  Bi  Bi29  1  0.50000000  0.45295900  0.35495000  1
  Bi  Bi30  1  0.00000000  0.80914500  0.00840200  1
  Bi  Bi31  1  0.00000000  0.19085500  0.99159800  1
  Bi  Bi32  1  0.00000000  0.69085500  0.50840200  1
  Bi  Bi33  1  0.00000000  0.30914500  0.49159800  1
  Bi  Bi34  1  0.00000000  0.61438700  0.19277600  1
  Bi  Bi35  1  0.00000000  0.38561300  0.80722400  1
  Bi  Bi36  1  0.00000000  0.88561300  0.69277600  1
  Bi  Bi37  1  0.00000000  0.11438700  0.30722400  1
  Bi  Bi38  1  0.50000000  0.00000000  0.50000000  1
  Bi  Bi39  1  0.50000000  0.50000000  0.00000000  1
  Bi  Bi40  1  0.50000000  0.80927400  0.32910700  1
  Bi  Bi41  1  0.50000000  0.19072600  0.67089300  1
  Bi  Bi42  1  0.50000000  0.69072600  0.82910700  1
  Bi  Bi43  1  0.50000000  0.30927400  0.17089300  1
