# generated using pymatgen
data_HfTe7SeCl6
_symmetry_space_group_name_H-M   'P 1'
_cell_length_a   11.99101900
_cell_length_b   11.70991700
_cell_length_c   15.66532278
_cell_angle_alpha   69.62271958
_cell_angle_beta   90.00000000
_cell_angle_gamma   90.00000000
_symmetry_Int_Tables_number   1
_chemical_formula_structural   HfTe7SeCl6
_chemical_formula_sum   'Hf4 Te28 Se4 Cl24'
_cell_volume   2061.97565525
_cell_formula_units_Z   4
loop_
 _symmetry_equiv_pos_site_id
 _symmetry_equiv_pos_as_xyz
  1  'x, y, z'
loop_
 _atom_site_type_symbol
 _atom_site_label
 _atom_site_symmetry_multiplicity
 _atom_site_fract_x
 _atom_site_fract_y
 _atom_site_fract_z
 _atom_site_occupancy
  Hf  Hf0  1  0.71577200  0.79428600  0.09820300  1
  Hf  Hf1  1  0.28422800  0.20571400  0.90179700  1
  Hf  Hf2  1  0.21577200  0.20571400  0.40179700  1
  Hf  Hf3  1  0.78422800  0.79428600  0.59820300  1
  Te  Te4  1  0.63372400  0.37908300  0.23110900  1
  Te  Te5  1  0.36627600  0.62091700  0.76889100  1
  Te  Te6  1  0.13372400  0.62091700  0.26889100  1
  Te  Te7  1  0.86627600  0.37908300  0.73110900  1
  Te  Te8  1  0.21478900  0.84577000  0.16349800  1
  Te  Te9  1  0.78521100  0.15423000  0.83650200  1
  Te  Te10  1  0.71478900  0.15423000  0.33650200  1
  Te  Te11  1  0.28521100  0.84577000  0.66349800  1
  Te  Te12  1  0.64816100  0.19681500  0.04998200  1
  Te  Te13  1  0.35183900  0.80318500  0.95001800  1
  Te  Te14  1  0.14816100  0.80318500  0.45001800  1
  Te  Te15  1  0.85183900  0.19681500  0.54998200  1
  Te  Te16  1  0.43751600  0.64693400  0.53739200  1
  Te  Te17  1  0.56248400  0.35306600  0.46260800  1
  Te  Te18  1  0.93751600  0.35306600  0.96260800  1
  Te  Te19  1  0.06248400  0.64693400  0.03739200  1
  Te  Te20  1  0.95075400  0.34600900  0.14133500  1
  Te  Te21  1  0.04924600  0.65399100  0.85866500  1
  Te  Te22  1  0.45075400  0.65399100  0.35866500  1
  Te  Te23  1  0.54924600  0.34600900  0.64133500  1
  Te  Te24  1  0.33929100  0.87578800  0.30315300  1
  Te  Te25  1  0.66070900  0.12421200  0.69684700  1
  Te  Te26  1  0.83929100  0.12421200  0.19684700  1
  Te  Te27  1  0.16070900  0.87578800  0.80315300  1
  Te  Te28  1  0.98598300  0.73114200  0.35096900  1
  Te  Te29  1  0.01401700  0.26885800  0.64903100  1
  Te  Te30  1  0.48598300  0.26885800  0.14903100  1
  Te  Te31  1  0.51401700  0.73114200  0.85096900  1
  Se  Se32  1  0.77133600  0.40716700  0.46459500  1
  Se  Se33  1  0.22866400  0.59283300  0.53540500  1
  Se  Se34  1  0.27133600  0.59283300  0.03540500  1
  Se  Se35  1  0.72866400  0.40716700  0.96459500  1
  Cl  Cl36  1  0.64031000  0.91237000  0.18960500  1
  Cl  Cl37  1  0.35969000  0.08763000  0.81039500  1
  Cl  Cl38  1  0.14031000  0.08763000  0.31039500  1
  Cl  Cl39  1  0.85969000  0.91237000  0.68960500  1
  Cl  Cl40  1  0.88183800  0.92831300  0.45985600  1
  Cl  Cl41  1  0.11816200  0.07168700  0.54014400  1
  Cl  Cl42  1  0.38183800  0.07168700  0.04014400  1
  Cl  Cl43  1  0.61816200  0.92831300  0.95985600  1
  Cl  Cl44  1  0.70529900  0.68710200  0.50305600  1
  Cl  Cl45  1  0.29470100  0.31289800  0.49694400  1
  Cl  Cl46  1  0.20529900  0.31289800  0.99694400  1
  Cl  Cl47  1  0.79470100  0.68710200  0.00305600  1
  Cl  Cl48  1  0.54431000  0.66656400  0.13346600  1
  Cl  Cl49  1  0.45569000  0.33343600  0.86653400  1
  Cl  Cl50  1  0.04431000  0.33343600  0.36653400  1
  Cl  Cl51  1  0.95569000  0.66656400  0.63346600  1
  Cl  Cl52  1  0.87745800  0.92732000  0.06825900  1
  Cl  Cl53  1  0.12254200  0.07268000  0.93174100  1
  Cl  Cl54  1  0.37745800  0.07268000  0.43174100  1
  Cl  Cl55  1  0.62254200  0.92732000  0.56825900  1
  Cl  Cl56  1  0.80247800  0.64393600  0.23329600  1
  Cl  Cl57  1  0.19752200  0.35606400  0.76670400  1
  Cl  Cl58  1  0.30247800  0.35606400  0.26670400  1
  Cl  Cl59  1  0.69752200  0.64393600  0.73329600  1
