# generated using pymatgen
data_Zn9Ga3Mo2
_symmetry_space_group_name_H-M   'P 1'
_cell_length_a   5.49533550
_cell_length_b   5.49533550
_cell_length_c   8.82428700
_cell_angle_alpha   90.00000000
_cell_angle_beta   90.00000000
_cell_angle_gamma   119.99999397
_symmetry_Int_Tables_number   1
_chemical_formula_structural   Zn9Ga3Mo2
_chemical_formula_sum   'Zn9 Ga3 Mo2'
_cell_volume   230.78028566
_cell_formula_units_Z   1
loop_
 _symmetry_equiv_pos_site_id
 _symmetry_equiv_pos_as_xyz
  1  'x, y, z'
loop_
 _atom_site_type_symbol
 _atom_site_label
 _atom_site_symmetry_multiplicity
 _atom_site_fract_x
 _atom_site_fract_y
 _atom_site_fract_z
 _atom_site_occupancy
  Zn  Zn0  1  0.00000000  0.50000000  0.00000000  1
  Zn  Zn1  1  0.50000000  0.50000000  0.00000000  1
  Zn  Zn2  1  0.50000000  0.00000000  0.00000000  1
  Zn  Zn3  1  0.31971300  0.15985700  0.24474600  1
  Zn  Zn4  1  0.84014300  0.15985700  0.24474600  1
  Zn  Zn5  1  0.84014300  0.68028700  0.24474600  1
  Zn  Zn6  1  0.68028700  0.84014300  0.75525400  1
  Zn  Zn7  1  0.15985700  0.84014300  0.75525400  1
  Zn  Zn8  1  0.15985700  0.31971300  0.75525400  1
  Ga  Ga9  1  0.00000000  0.50000000  0.50000000  1
  Ga  Ga10  1  0.50000000  0.50000000  0.50000000  1
  Ga  Ga11  1  0.50000000  0.00000000  0.50000000  1
  Mo  Mo12  1  0.66666700  0.33333300  0.74006400  1
  Mo  Mo13  1  0.33333300  0.66666700  0.25993600  1
