# generated using pymatgen
data_La9In(SiS7)3
_symmetry_space_group_name_H-M   'P 1'
_cell_length_a   11.92812263
_cell_length_b   11.92812263
_cell_length_c   11.92812316
_cell_angle_alpha   98.27430445
_cell_angle_beta   98.27430445
_cell_angle_gamma   98.27430314
_symmetry_Int_Tables_number   1
_chemical_formula_structural   La9In(SiS7)3
_chemical_formula_sum   'La18 In2 Si6 S42'
_cell_volume   1638.33419212
_cell_formula_units_Z   2
loop_
 _symmetry_equiv_pos_site_id
 _symmetry_equiv_pos_as_xyz
  1  'x, y, z'
loop_
 _atom_site_type_symbol
 _atom_site_label
 _atom_site_symmetry_multiplicity
 _atom_site_fract_x
 _atom_site_fract_y
 _atom_site_fract_z
 _atom_site_occupancy
  La  La0  1  0.21016800  0.44751600  0.08440100  1
  La  La1  1  0.54849000  0.77566000  0.43030100  1
  La  La2  1  0.88387100  0.12190300  0.75979000  1
  La  La3  1  0.43030100  0.54849000  0.77566000  1
  La  La4  1  0.75979000  0.88387100  0.12190300  1
  La  La5  1  0.08440100  0.21016800  0.44751600  1
  La  La6  1  0.12190300  0.75979000  0.88387100  1
  La  La7  1  0.44751600  0.08440100  0.21016800  1
  La  La8  1  0.77566000  0.43030100  0.54849000  1
  La  La9  1  0.12061700  0.89421000  0.23946400  1
  La  La10  1  0.45954500  0.22161200  0.58402300  1
  La  La11  1  0.78510200  0.54720800  0.91033800  1
  La  La12  1  0.91033800  0.78510200  0.54720800  1
  La  La13  1  0.23946400  0.12061700  0.89421000  1
  La  La14  1  0.58402300  0.45954500  0.22161200  1
  La  La15  1  0.22161200  0.58402300  0.45954500  1
  La  La16  1  0.54720800  0.91033800  0.78510200  1
  La  La17  1  0.89421000  0.23946400  0.12061700  1
  In  In18  1  0.83866300  0.83866300  0.83866300  1
  In  In19  1  0.33865100  0.33865100  0.33865100  1
  Si  Si20  1  0.88899000  0.55519000  0.22315200  1
  Si  Si21  1  0.22315200  0.88899000  0.55519000  1
  Si  Si22  1  0.55519000  0.22315200  0.88899000  1
  Si  Si23  1  0.72211400  0.05595100  0.38927200  1
  Si  Si24  1  0.05595100  0.38927200  0.72211400  1
  Si  Si25  1  0.38927200  0.72211400  0.05595100  1
  S  S26  1  0.73457900  0.89687400  0.64931500  1
  S  S27  1  0.06201400  0.23169800  0.97477000  1
  S  S28  1  0.39184500  0.55630800  0.30901700  1
  S  S29  1  0.97477000  0.06201400  0.23169800  1
  S  S30  1  0.30901700  0.39184500  0.55630800  1
  S  S31  1  0.64931500  0.73457900  0.89687400  1
  S  S32  1  0.55630800  0.30901700  0.39184500  1
  S  S33  1  0.89687400  0.64931500  0.73457900  1
  S  S34  1  0.23169800  0.97477000  0.06201400  1
  S  S35  1  0.94652200  0.78184300  0.02895700  1
  S  S36  1  0.28575400  0.12356600  0.37130300  1
  S  S37  1  0.61681400  0.44738100  0.70441500  1
  S  S38  1  0.70441500  0.61681400  0.44738100  1
  S  S39  1  0.02895700  0.94652200  0.78184300  1
  S  S40  1  0.37130300  0.28575400  0.12356600  1
  S  S41  1  0.12356600  0.37130300  0.28575400  1
  S  S42  1  0.44738100  0.70441500  0.61681400  1
  S  S43  1  0.78184300  0.02895700  0.94652200  1
  S  S44  1  0.67837500  0.34227500  0.01124000  1
  S  S45  1  0.01124000  0.67837500  0.34227500  1
  S  S46  1  0.34227500  0.01124000  0.67837500  1
  S  S47  1  0.84230200  0.17868400  0.51088400  1
  S  S48  1  0.17868400  0.51088400  0.84230200  1
  S  S49  1  0.51088400  0.84230200  0.17868400  1
  S  S50  1  0.77132700  0.88867200  0.36720500  1
  S  S51  1  0.10658900  0.22236500  0.69701100  1
  S  S52  1  0.44049200  0.55642500  0.02909900  1
  S  S53  1  0.69701100  0.10658900  0.22236500  1
  S  S54  1  0.02909900  0.44049200  0.55642500  1
  S  S55  1  0.36720500  0.77132700  0.88867200  1
  S  S56  1  0.55642500  0.02909900  0.44049200  1
  S  S57  1  0.88867200  0.36720500  0.77132700  1
  S  S58  1  0.22236500  0.69701100  0.10658900  1
  S  S59  1  0.74612000  0.62916300  0.15175200  1
  S  S60  1  0.07914900  0.96182100  0.48560500  1
  S  S61  1  0.40906800  0.29435100  0.82212000  1
  S  S62  1  0.82212000  0.40906800  0.29435100  1
  S  S63  1  0.15175200  0.74612000  0.62916300  1
  S  S64  1  0.48560500  0.07914900  0.96182100  1
  S  S65  1  0.96182100  0.48560500  0.07914900  1
  S  S66  1  0.29435100  0.82212000  0.40906800  1
  S  S67  1  0.62916300  0.15175200  0.74612000  1
