# generated using pymatgen
data_Sc25InIr7
_symmetry_space_group_name_H-M   'P 1'
_cell_length_a   12.51977245
_cell_length_b   12.51977245
_cell_length_c   12.51977245
_cell_angle_alpha   60.00000000
_cell_angle_beta   60.00000000
_cell_angle_gamma   60.00000000
_symmetry_Int_Tables_number   1
_chemical_formula_structural   Sc25InIr7
_chemical_formula_sum   'Sc50 In2 Ir14'
_cell_volume   1387.63200808
_cell_formula_units_Z   2
loop_
 _symmetry_equiv_pos_site_id
 _symmetry_equiv_pos_as_xyz
  1  'x, y, z'
loop_
 _atom_site_type_symbol
 _atom_site_label
 _atom_site_symmetry_multiplicity
 _atom_site_fract_x
 _atom_site_fract_y
 _atom_site_fract_z
 _atom_site_occupancy
  Sc  Sc0  1  0.78753900  0.21246100  0.21246100  1
  Sc  Sc1  1  0.21246100  0.78753900  0.78753900  1
  Sc  Sc2  1  0.21246100  0.78753900  0.21246100  1
  Sc  Sc3  1  0.78753900  0.21246100  0.78753900  1
  Sc  Sc4  1  0.21246100  0.21246100  0.78753900  1
  Sc  Sc5  1  0.78753900  0.78753900  0.21246100  1
  Sc  Sc6  1  0.44839700  0.26757600  0.73242400  1
  Sc  Sc7  1  0.55160300  0.73242400  0.26757600  1
  Sc  Sc8  1  0.26757600  0.44839700  0.55160300  1
  Sc  Sc9  1  0.73242400  0.55160300  0.44839700  1
  Sc  Sc10  1  0.73242400  0.44839700  0.26757600  1
  Sc  Sc11  1  0.26757600  0.55160300  0.73242400  1
  Sc  Sc12  1  0.55160300  0.26757600  0.44839700  1
  Sc  Sc13  1  0.44839700  0.73242400  0.55160300  1
  Sc  Sc14  1  0.26757600  0.73242400  0.44839700  1
  Sc  Sc15  1  0.73242400  0.26757600  0.55160300  1
  Sc  Sc16  1  0.55160300  0.44839700  0.73242400  1
  Sc  Sc17  1  0.44839700  0.55160300  0.26757600  1
  Sc  Sc18  1  0.32265700  0.99069600  0.19405100  1
  Sc  Sc19  1  0.67734300  0.00930400  0.80594900  1
  Sc  Sc20  1  0.99069600  0.32265700  0.49259600  1
  Sc  Sc21  1  0.19405100  0.49259600  0.32265700  1
  Sc  Sc22  1  0.19405100  0.32265700  0.99069600  1
  Sc  Sc23  1  0.00930400  0.67734300  0.50740400  1
  Sc  Sc24  1  0.80594900  0.50740400  0.67734300  1
  Sc  Sc25  1  0.80594900  0.67734300  0.00930400  1
  Sc  Sc26  1  0.49259600  0.19405100  0.99069600  1
  Sc  Sc27  1  0.49259600  0.99069600  0.32265700  1
  Sc  Sc28  1  0.50740400  0.80594900  0.00930400  1
  Sc  Sc29  1  0.50740400  0.00930400  0.67734300  1
  Sc  Sc30  1  0.32265700  0.19405100  0.49259600  1
  Sc  Sc31  1  0.67734300  0.80594900  0.50740400  1
  Sc  Sc32  1  0.99069600  0.49259600  0.19405100  1
  Sc  Sc33  1  0.00930400  0.50740400  0.80594900  1
  Sc  Sc34  1  0.99069600  0.19405100  0.32265700  1
  Sc  Sc35  1  0.00930400  0.80594900  0.67734300  1
  Sc  Sc36  1  0.49259600  0.32265700  0.19405100  1
  Sc  Sc37  1  0.50740400  0.67734300  0.80594900  1
  Sc  Sc38  1  0.19405100  0.99069600  0.49259600  1
  Sc  Sc39  1  0.80594900  0.00930400  0.50740400  1
  Sc  Sc40  1  0.32265700  0.49259600  0.99069600  1
  Sc  Sc41  1  0.67734300  0.50740400  0.00930400  1
  Sc  Sc42  1  0.09048300  0.09048300  0.09048300  1
  Sc  Sc43  1  0.90951700  0.90951700  0.90951700  1
  Sc  Sc44  1  0.09048300  0.09048300  0.72855200  1
  Sc  Sc45  1  0.09048300  0.72855200  0.09048300  1
  Sc  Sc46  1  0.90951700  0.90951700  0.27144800  1
  Sc  Sc47  1  0.90951700  0.27144800  0.90951700  1
  Sc  Sc48  1  0.72855200  0.09048300  0.09048300  1
  Sc  Sc49  1  0.27144800  0.90951700  0.90951700  1
  In  In50  1  0.25000000  0.25000000  0.25000000  1
  In  In51  1  0.75000000  0.75000000  0.75000000  1
  Ir  Ir52  1  0.36800400  0.06248400  0.93751600  1
  Ir  Ir53  1  0.63199600  0.93751600  0.06248400  1
  Ir  Ir54  1  0.06248400  0.36800400  0.63199600  1
  Ir  Ir55  1  0.93751600  0.63199600  0.36800400  1
  Ir  Ir56  1  0.93751600  0.36800400  0.06248400  1
  Ir  Ir57  1  0.06248400  0.63199600  0.93751600  1
  Ir  Ir58  1  0.63199600  0.06248400  0.36800400  1
  Ir  Ir59  1  0.36800400  0.93751600  0.63199600  1
  Ir  Ir60  1  0.06248400  0.93751600  0.36800400  1
  Ir  Ir61  1  0.93751600  0.06248400  0.63199600  1
  Ir  Ir62  1  0.63199600  0.36800400  0.93751600  1
  Ir  Ir63  1  0.36800400  0.63199600  0.06248400  1
  Ir  Ir64  1  0.00000000  0.00000000  0.00000000  1
  Ir  Ir65  1  0.50000000  0.50000000  0.50000000  1
