# generated using pymatgen
data_Ca3(Si4P7)2
_symmetry_space_group_name_H-M   'P 1'
_cell_length_a   13.53349600
_cell_length_b   6.25772200
_cell_length_c   12.21674779
_cell_angle_alpha   89.04280496
_cell_angle_beta   90.00000000
_cell_angle_gamma   90.00000000
_symmetry_Int_Tables_number   1
_chemical_formula_structural   Ca3(Si4P7)2
_chemical_formula_sum   'Ca6 Si16 P28'
_cell_volume   1034.47801346
_cell_formula_units_Z   2
loop_
 _symmetry_equiv_pos_site_id
 _symmetry_equiv_pos_as_xyz
  1  'x, y, z'
loop_
 _atom_site_type_symbol
 _atom_site_label
 _atom_site_symmetry_multiplicity
 _atom_site_fract_x
 _atom_site_fract_y
 _atom_site_fract_z
 _atom_site_occupancy
  Ca  Ca0  1  0.50000000  0.50000000  0.50000000  1
  Ca  Ca1  1  0.00000000  0.00000000  0.50000000  1
  Ca  Ca2  1  0.34349600  0.32162300  0.16745400  1
  Ca  Ca3  1  0.84349600  0.17837700  0.83254600  1
  Ca  Ca4  1  0.65650400  0.67837700  0.83254600  1
  Ca  Ca5  1  0.15650400  0.82162300  0.16745400  1
  Si  Si6  1  0.68713800  0.03658600  0.58382200  1
  Si  Si7  1  0.18713800  0.46341400  0.41617800  1
  Si  Si8  1  0.31286200  0.96341400  0.41617800  1
  Si  Si9  1  0.81286200  0.53658600  0.58382200  1
  Si  Si10  1  0.68602900  0.04223800  0.38890700  1
  Si  Si11  1  0.18602900  0.45776200  0.61109300  1
  Si  Si12  1  0.31397100  0.95776200  0.61109300  1
  Si  Si13  1  0.81397100  0.54223800  0.38890700  1
  Si  Si14  1  0.68774600  0.38309700  0.15024500  1
  Si  Si15  1  0.18774600  0.11690300  0.84975500  1
  Si  Si16  1  0.31225400  0.61690300  0.84975500  1
  Si  Si17  1  0.81225400  0.88309700  0.15024500  1
  Si  Si18  1  0.95415600  0.38247100  0.15288900  1
  Si  Si19  1  0.45415600  0.11752900  0.84711100  1
  Si  Si20  1  0.04584400  0.61752900  0.84711100  1
  Si  Si21  1  0.54584400  0.88247100  0.15288900  1
  P  P22  1  0.95294800  0.37075800  0.33832000  1
  P  P23  1  0.45294800  0.12924200  0.66168000  1
  P  P24  1  0.04705200  0.62924200  0.66168000  1
  P  P25  1  0.54705200  0.87075800  0.33832000  1
  P  P26  1  0.55256100  0.22451100  0.08171900  1
  P  P27  1  0.05256100  0.27548900  0.91828100  1
  P  P28  1  0.44743900  0.77548900  0.91828100  1
  P  P29  1  0.94743900  0.72451100  0.08171900  1
  P  P30  1  0.94726100  0.35750900  0.64126000  1
  P  P31  1  0.44726100  0.14249100  0.35874000  1
  P  P32  1  0.05273900  0.64249100  0.35874000  1
  P  P33  1  0.55273900  0.85750900  0.64126000  1
  P  P34  1  0.10562400  0.28825400  0.09126700  1
  P  P35  1  0.60562400  0.21174600  0.90873300  1
  P  P36  1  0.89437600  0.71174600  0.90873300  1
  P  P37  1  0.39437600  0.78825400  0.09126700  1
  P  P38  1  0.82093100  0.21713100  0.07469600  1
  P  P39  1  0.32093100  0.28286900  0.92530400  1
  P  P40  1  0.17906900  0.78286900  0.92530400  1
  P  P41  1  0.67906900  0.71713100  0.07469600  1
  P  P42  1  0.67161600  0.38941000  0.33353400  1
  P  P43  1  0.17161600  0.11059000  0.66646600  1
  P  P44  1  0.32838400  0.61059000  0.66646600  1
  P  P45  1  0.82838400  0.88941000  0.33353400  1
  P  P46  1  0.67727000  0.37165300  0.64679200  1
  P  P47  1  0.17727000  0.12834700  0.35320800  1
  P  P48  1  0.32273000  0.62834700  0.35320800  1
  P  P49  1  0.82273000  0.87165300  0.64679200  1
