# generated using pymatgen
data_PrSn3Ru
_symmetry_space_group_name_H-M   'P 1'
_cell_length_a   9.85884200
_cell_length_b   9.85884200
_cell_length_c   9.85884200
_cell_angle_alpha   90.00000000
_cell_angle_beta   90.00000000
_cell_angle_gamma   90.00000000
_symmetry_Int_Tables_number   1
_chemical_formula_structural   PrSn3Ru
_chemical_formula_sum   'Pr8 Sn24 Ru8'
_cell_volume   958.24755477
_cell_formula_units_Z   8
loop_
 _symmetry_equiv_pos_site_id
 _symmetry_equiv_pos_as_xyz
  1  'x, y, z'
loop_
 _atom_site_type_symbol
 _atom_site_label
 _atom_site_symmetry_multiplicity
 _atom_site_fract_x
 _atom_site_fract_y
 _atom_site_fract_z
 _atom_site_occupancy
  Pr  Pr0  1  0.00000000  0.50000000  0.75000000  1
  Pr  Pr1  1  0.50000000  0.25000000  0.00000000  1
  Pr  Pr2  1  0.75000000  0.00000000  0.50000000  1
  Pr  Pr3  1  0.00000000  0.50000000  0.25000000  1
  Pr  Pr4  1  0.50000000  0.75000000  0.00000000  1
  Pr  Pr5  1  0.25000000  0.00000000  0.50000000  1
  Pr  Pr6  1  0.50000000  0.50000000  0.50000000  1
  Pr  Pr7  1  0.00000000  0.00000000  0.00000000  1
  Sn  Sn8  1  0.81261500  0.34283600  0.50000000  1
  Sn  Sn9  1  0.65716400  0.50000000  0.81261500  1
  Sn  Sn10  1  0.50000000  0.18738500  0.65716400  1
  Sn  Sn11  1  0.18738500  0.65716400  0.50000000  1
  Sn  Sn12  1  0.34283600  0.50000000  0.18738500  1
  Sn  Sn13  1  0.50000000  0.81261500  0.34283600  1
  Sn  Sn14  1  0.81261500  0.65716400  0.50000000  1
  Sn  Sn15  1  0.65716400  0.50000000  0.18738500  1
  Sn  Sn16  1  0.18738500  0.34283600  0.50000000  1
  Sn  Sn17  1  0.34283600  0.50000000  0.81261500  1
  Sn  Sn18  1  0.50000000  0.81261500  0.65716400  1
  Sn  Sn19  1  0.50000000  0.18738500  0.34283600  1
  Sn  Sn20  1  0.31261500  0.00000000  0.84283600  1
  Sn  Sn21  1  0.15716400  0.31261500  0.00000000  1
  Sn  Sn22  1  0.00000000  0.15716400  0.68738500  1
  Sn  Sn23  1  0.68738500  0.00000000  0.15716400  1
  Sn  Sn24  1  0.84283600  0.68738500  0.00000000  1
  Sn  Sn25  1  0.00000000  0.84283600  0.31261500  1
  Sn  Sn26  1  0.31261500  0.00000000  0.15716400  1
  Sn  Sn27  1  0.15716400  0.68738500  0.00000000  1
  Sn  Sn28  1  0.68738500  0.00000000  0.84283600  1
  Sn  Sn29  1  0.84283600  0.31261500  0.00000000  1
  Sn  Sn30  1  0.00000000  0.15716400  0.31261500  1
  Sn  Sn31  1  0.00000000  0.84283600  0.68738500  1
  Ru  Ru32  1  0.75000000  0.25000000  0.75000000  1
  Ru  Ru33  1  0.25000000  0.75000000  0.25000000  1
  Ru  Ru34  1  0.75000000  0.75000000  0.25000000  1
  Ru  Ru35  1  0.25000000  0.25000000  0.75000000  1
  Ru  Ru36  1  0.25000000  0.75000000  0.75000000  1
  Ru  Ru37  1  0.75000000  0.25000000  0.25000000  1
  Ru  Ru38  1  0.25000000  0.25000000  0.25000000  1
  Ru  Ru39  1  0.75000000  0.75000000  0.75000000  1
