# generated using pymatgen
data_Li3YBi2
_symmetry_space_group_name_H-M   'P 1'
_cell_length_a   4.67901264
_cell_length_b   4.67901264
_cell_length_c   7.30871600
_cell_angle_alpha   90.00000000
_cell_angle_beta   90.00000000
_cell_angle_gamma   120.00000910
_symmetry_Int_Tables_number   1
_chemical_formula_structural   Li3YBi2
_chemical_formula_sum   'Li3 Y1 Bi2'
_cell_volume   138.57347756
_cell_formula_units_Z   1
loop_
 _symmetry_equiv_pos_site_id
 _symmetry_equiv_pos_as_xyz
  1  'x, y, z'
loop_
 _atom_site_type_symbol
 _atom_site_label
 _atom_site_symmetry_multiplicity
 _atom_site_fract_x
 _atom_site_fract_y
 _atom_site_fract_z
 _atom_site_occupancy
  Li  Li0  1  0.66666700  0.33333300  0.34493400  1
  Li  Li1  1  0.33333300  0.66666700  0.65506600  1
  Li  Li2  1  0.00000000  0.00000000  0.50000000  1
  Y  Y3  1  0.00000000  0.00000000  0.00000000  1
  Bi  Bi4  1  0.66666700  0.33333300  0.75290600  1
  Bi  Bi5  1  0.33333300  0.66666700  0.24709400  1
