# generated using pymatgen
data_U2CN
_symmetry_space_group_name_H-M   'P 1'
_cell_length_a   5.91436710
_cell_length_b   5.91436710
_cell_length_c   5.91436643
_cell_angle_alpha   34.53001740
_cell_angle_beta   34.53001740
_cell_angle_gamma   34.53001206
_symmetry_Int_Tables_number   1
_chemical_formula_structural   U2CN
_chemical_formula_sum   'U2 C1 N1'
_cell_volume   59.30473048
_cell_formula_units_Z   1
loop_
 _symmetry_equiv_pos_site_id
 _symmetry_equiv_pos_as_xyz
  1  'x, y, z'
loop_
 _atom_site_type_symbol
 _atom_site_label
 _atom_site_symmetry_multiplicity
 _atom_site_fract_x
 _atom_site_fract_y
 _atom_site_fract_z
 _atom_site_occupancy
  U  U0  1  0.24872800  0.24872800  0.24872800  1
  U  U1  1  0.75127200  0.75127200  0.75127200  1
  C  C2  1  0.00000000  0.00000000  0.00000000  1
  N  N3  1  0.50000000  0.50000000  0.50000000  1
