# generated using pymatgen
data_Gd2SeOF2
_symmetry_space_group_name_H-M   'P 1'
_cell_length_a   3.81023730
_cell_length_b   13.60613301
_cell_length_c   13.60613302
_cell_angle_alpha   119.99999886
_cell_angle_beta   90.00000000
_cell_angle_gamma   90.00000000
_symmetry_Int_Tables_number   1
_chemical_formula_structural   Gd2SeOF2
_chemical_formula_sum   'Gd12 Se6 O6 F12'
_cell_volume   610.87462522
_cell_formula_units_Z   6
loop_
 _symmetry_equiv_pos_site_id
 _symmetry_equiv_pos_as_xyz
  1  'x, y, z'
loop_
 _atom_site_type_symbol
 _atom_site_label
 _atom_site_symmetry_multiplicity
 _atom_site_fract_x
 _atom_site_fract_y
 _atom_site_fract_z
 _atom_site_occupancy
  Gd  Gd0  1  0.75000000  0.60228449  0.48439496  1
  Gd  Gd1  1  0.75000000  0.51560504  0.11788953  1
  Gd  Gd2  1  0.75000000  0.88211047  0.39771551  1
  Gd  Gd3  1  0.25000000  0.39771551  0.51560504  1
  Gd  Gd4  1  0.25000000  0.48439496  0.88211047  1
  Gd  Gd5  1  0.25000000  0.11788953  0.60228449  1
  Gd  Gd6  1  0.75000000  0.94453228  0.71106137  1
  Gd  Gd7  1  0.75000000  0.28893863  0.23347092  1
  Gd  Gd8  1  0.75000000  0.76652908  0.05546772  1
  Gd  Gd9  1  0.25000000  0.05546772  0.28893863  1
  Gd  Gd10  1  0.25000000  0.71106137  0.76652908  1
  Gd  Gd11  1  0.25000000  0.23347092  0.94453228  1
  Se  Se12  1  0.75000000  0.28151262  0.79411048  1
  Se  Se13  1  0.75000000  0.20588952  0.48740214  1
  Se  Se14  1  0.75000000  0.51259786  0.71848738  1
  Se  Se15  1  0.25000000  0.71848738  0.20588952  1
  Se  Se16  1  0.25000000  0.79411048  0.51259786  1
  Se  Se17  1  0.25000000  0.48740214  0.28151262  1
  O  O18  1  0.75000000  0.01456893  0.58719842  1
  O  O19  1  0.75000000  0.41280158  0.42737050  1
  O  O20  1  0.75000000  0.57262950  0.98543107  1
  O  O21  1  0.25000000  0.98543107  0.41280158  1
  O  O22  1  0.25000000  0.58719842  0.57262950  1
  O  O23  1  0.25000000  0.42737050  0.01456893  1
  F  F24  1  0.75000000  0.10615732  0.89898419  1
  F  F25  1  0.75000000  0.10101581  0.20717313  1
  F  F26  1  0.75000000  0.79282687  0.89384268  1
  F  F27  1  0.25000000  0.89384268  0.10101581  1
  F  F28  1  0.25000000  0.89898419  0.79282687  1
  F  F29  1  0.25000000  0.20717313  0.10615732  1
  F  F30  1  0.75000000  0.75167439  0.68456190  1
  F  F31  1  0.75000000  0.31543810  0.06711249  1
  F  F32  1  0.75000000  0.93288751  0.24832561  1
  F  F33  1  0.25000000  0.24832561  0.31543810  1
  F  F34  1  0.25000000  0.68456190  0.93288751  1
  F  F35  1  0.25000000  0.06711249  0.75167439  1
