# generated using pymatgen
data_Hg3Pd8Se9
_symmetry_space_group_name_H-M   'P 1'
_cell_length_a   6.57388700
_cell_length_b   7.38179900
_cell_length_c   17.09448800
_cell_angle_alpha   90.00000000
_cell_angle_beta   90.00000000
_cell_angle_gamma   90.00000000
_symmetry_Int_Tables_number   1
_chemical_formula_structural   Hg3Pd8Se9
_chemical_formula_sum   'Hg6 Pd16 Se18'
_cell_volume   829.54614201
_cell_formula_units_Z   2
loop_
 _symmetry_equiv_pos_site_id
 _symmetry_equiv_pos_as_xyz
  1  'x, y, z'
loop_
 _atom_site_type_symbol
 _atom_site_label
 _atom_site_symmetry_multiplicity
 _atom_site_fract_x
 _atom_site_fract_y
 _atom_site_fract_z
 _atom_site_occupancy
  Hg  Hg0  1  0.12073800  0.50000000  0.29465300  1
  Hg  Hg1  1  0.12073800  0.50000000  0.70534700  1
  Hg  Hg2  1  0.87926200  0.00000000  0.20534700  1
  Hg  Hg3  1  0.87926200  0.00000000  0.79465300  1
  Hg  Hg4  1  0.29382400  0.50000000  0.00000000  1
  Hg  Hg5  1  0.70617600  0.00000000  0.50000000  1
  Pd  Pd6  1  0.53375800  0.50000000  0.76398600  1
  Pd  Pd7  1  0.53375800  0.50000000  0.23601400  1
  Pd  Pd8  1  0.46624200  0.00000000  0.73601400  1
  Pd  Pd9  1  0.46624200  0.00000000  0.26398600  1
  Pd  Pd10  1  0.96307400  0.26170100  0.41132300  1
  Pd  Pd11  1  0.96307400  0.73829900  0.41132300  1
  Pd  Pd12  1  0.96307400  0.26170100  0.58867700  1
  Pd  Pd13  1  0.96307400  0.73829900  0.58867700  1
  Pd  Pd14  1  0.03692600  0.23829900  0.08867700  1
  Pd  Pd15  1  0.03692600  0.76170100  0.08867700  1
  Pd  Pd16  1  0.03692600  0.23829900  0.91132300  1
  Pd  Pd17  1  0.03692600  0.76170100  0.91132300  1
  Pd  Pd18  1  0.40102400  0.50000000  0.41492300  1
  Pd  Pd19  1  0.40102400  0.50000000  0.58507700  1
  Pd  Pd20  1  0.59897600  0.00000000  0.08507700  1
  Pd  Pd21  1  0.59897600  0.00000000  0.91492300  1
  Se  Se22  1  0.61669300  0.26528400  0.34041700  1
  Se  Se23  1  0.61669300  0.73471600  0.34041700  1
  Se  Se24  1  0.61669300  0.26528400  0.65958300  1
  Se  Se25  1  0.61669300  0.73471600  0.65958300  1
  Se  Se26  1  0.38330700  0.23471600  0.15958300  1
  Se  Se27  1  0.38330700  0.76528400  0.15958300  1
  Se  Se28  1  0.38330700  0.23471600  0.84041700  1
  Se  Se29  1  0.38330700  0.76528400  0.84041700  1
  Se  Se30  1  0.89410100  0.50000000  0.83324700  1
  Se  Se31  1  0.89410100  0.50000000  0.16675300  1
  Se  Se32  1  0.10589900  0.00000000  0.66675300  1
  Se  Se33  1  0.10589900  0.00000000  0.33324700  1
  Se  Se34  1  0.27071600  0.75604200  0.50000000  1
  Se  Se35  1  0.27071600  0.24395800  0.50000000  1
  Se  Se36  1  0.72928400  0.74395800  0.00000000  1
  Se  Se37  1  0.72928400  0.25604200  0.00000000  1
  Se  Se38  1  0.80644500  0.50000000  0.50000000  1
  Se  Se39  1  0.19355500  0.00000000  0.00000000  1
