# generated using pymatgen
data_Ba(Cr5S8)2
_symmetry_space_group_name_H-M   'P 1'
_cell_length_a   6.94751000
_cell_length_b   9.15290790
_cell_length_c   9.31252727
_cell_angle_alpha   72.41982066
_cell_angle_beta   68.22577513
_cell_angle_gamma   79.11919518
_symmetry_Int_Tables_number   1
_chemical_formula_structural   Ba(Cr5S8)2
_chemical_formula_sum   'Ba1 Cr10 S16'
_cell_volume   522.27522471
_cell_formula_units_Z   1
loop_
 _symmetry_equiv_pos_site_id
 _symmetry_equiv_pos_as_xyz
  1  'x, y, z'
loop_
 _atom_site_type_symbol
 _atom_site_label
 _atom_site_symmetry_multiplicity
 _atom_site_fract_x
 _atom_site_fract_y
 _atom_site_fract_z
 _atom_site_occupancy
  Ba  Ba0  1  0.00000000  0.00000000  0.00000000  1
  Cr  Cr1  1  0.84051100  0.68334500  0.47595100  1
  Cr  Cr2  1  0.34242200  0.68220400  0.47339300  1
  Cr  Cr3  1  0.65757800  0.31779600  0.52660700  1
  Cr  Cr4  1  0.15948900  0.31665500  0.52404900  1
  Cr  Cr5  1  0.81576300  0.40882900  0.16439500  1
  Cr  Cr6  1  0.31676800  0.40303000  0.16393800  1
  Cr  Cr7  1  0.68323200  0.59697000  0.83606200  1
  Cr  Cr8  1  0.18423700  0.59117100  0.83560500  1
  Cr  Cr9  1  0.50000000  0.00000000  0.50000000  1
  Cr  Cr10  1  0.00000000  0.00000000  0.50000000  1
  S  S11  1  0.78789000  0.15102500  0.34768600  1
  S  S12  1  0.28743500  0.15163200  0.34911900  1
  S  S13  1  0.71256500  0.84836800  0.65088100  1
  S  S14  1  0.21211000  0.84897500  0.65231400  1
  S  S15  1  0.95858900  0.47411300  0.34409400  1
  S  S16  1  0.46013500  0.47438400  0.34399400  1
  S  S17  1  0.53986500  0.52561600  0.65600600  1
  S  S18  1  0.04141100  0.52588700  0.65590600  1
  S  S19  1  0.63013800  0.82774000  0.32711900  1
  S  S20  1  0.12715200  0.82728100  0.32762700  1
  S  S21  1  0.87284800  0.17271900  0.67237300  1
  S  S22  1  0.36986200  0.17226000  0.67288100  1
  S  S23  1  0.33870700  0.65486200  0.99215200  1
  S  S24  1  0.84381000  0.65813500  0.99039200  1
  S  S25  1  0.15619000  0.34186500  0.00960800  1
  S  S26  1  0.66129300  0.34513800  0.00784800  1
