# generated using pymatgen
data_LuCo3B2
_symmetry_space_group_name_H-M   'P 1'
_cell_length_a   4.93930336
_cell_length_b   4.93930336
_cell_length_c   3.02301600
_cell_angle_alpha   90.00000000
_cell_angle_beta   90.00000000
_cell_angle_gamma   119.99999140
_symmetry_Int_Tables_number   1
_chemical_formula_structural   LuCo3B2
_chemical_formula_sum   'Lu1 Co3 B2'
_cell_volume   63.87082346
_cell_formula_units_Z   1
loop_
 _symmetry_equiv_pos_site_id
 _symmetry_equiv_pos_as_xyz
  1  'x, y, z'
loop_
 _atom_site_type_symbol
 _atom_site_label
 _atom_site_symmetry_multiplicity
 _atom_site_fract_x
 _atom_site_fract_y
 _atom_site_fract_z
 _atom_site_occupancy
  Lu  Lu0  1  0.00000000  0.00000000  0.00000000  1
  Co  Co1  1  0.50000000  0.50000000  0.50000000  1
  Co  Co2  1  0.50000000  0.00000000  0.50000000  1
  Co  Co3  1  0.00000000  0.50000000  0.50000000  1
  B  B4  1  0.66666700  0.33333300  0.00000000  1
  B  B5  1  0.33333300  0.66666700  0.00000000  1
