# generated using pymatgen
data_TlCuCl3
_symmetry_space_group_name_H-M   'P 1'
_cell_length_a   4.16750675
_cell_length_b   9.20521292
_cell_length_c   14.18037100
_cell_angle_alpha   90.00000000
_cell_angle_beta   90.00000000
_cell_angle_gamma   100.24650216
_symmetry_Int_Tables_number   1
_chemical_formula_structural   TlCuCl3
_chemical_formula_sum   'Tl4 Cu4 Cl12'
_cell_volume   535.32262307
_cell_formula_units_Z   4
loop_
 _symmetry_equiv_pos_site_id
 _symmetry_equiv_pos_as_xyz
  1  'x, y, z'
loop_
 _atom_site_type_symbol
 _atom_site_label
 _atom_site_symmetry_multiplicity
 _atom_site_fract_x
 _atom_site_fract_y
 _atom_site_fract_z
 _atom_site_occupancy
  Tl  Tl0  1  0.24449300  0.94678100  0.66767600  1
  Tl  Tl1  1  0.75550700  0.55321900  0.16767600  1
  Tl  Tl2  1  0.75550700  0.05321900  0.33232400  1
  Tl  Tl3  1  0.24449300  0.44678100  0.83232400  1
  Cu  Cu4  1  0.75462000  0.35011200  0.54831800  1
  Cu  Cu5  1  0.24538000  0.14988800  0.04831800  1
  Cu  Cu6  1  0.24538000  0.64988800  0.45168200  1
  Cu  Cu7  1  0.75462000  0.85011200  0.95168200  1
  Cl  Cl8  1  0.71940700  0.24406400  0.69319600  1
  Cl  Cl9  1  0.28059300  0.25593600  0.19319600  1
  Cl  Cl10  1  0.28059300  0.75593600  0.30680400  1
  Cl  Cl11  1  0.71940700  0.74406400  0.80680400  1
  Cl  Cl12  1  0.31653800  0.17989600  0.49245100  1
  Cl  Cl13  1  0.68346200  0.32010400  0.99245100  1
  Cl  Cl14  1  0.68346200  0.82010400  0.50754900  1
  Cl  Cl15  1  0.31653800  0.67989600  0.00754900  1
  Cl  Cl16  1  0.18737600  0.53051500  0.59482700  1
  Cl  Cl17  1  0.81262400  0.96948500  0.09482700  1
  Cl  Cl18  1  0.81262400  0.46948500  0.40517300  1
  Cl  Cl19  1  0.18737600  0.03051500  0.90517300  1
