# generated using pymatgen
data_ZrGe
_symmetry_space_group_name_H-M   'P 1'
_cell_length_a   3.93453800
_cell_length_b   5.43746700
_cell_length_c   7.12069500
_cell_angle_alpha   90.00000000
_cell_angle_beta   90.00000000
_cell_angle_gamma   90.00000000
_symmetry_Int_Tables_number   1
_chemical_formula_structural   ZrGe
_chemical_formula_sum   'Zr4 Ge4'
_cell_volume   152.33958299
_cell_formula_units_Z   4
loop_
 _symmetry_equiv_pos_site_id
 _symmetry_equiv_pos_as_xyz
  1  'x, y, z'
loop_
 _atom_site_type_symbol
 _atom_site_label
 _atom_site_symmetry_multiplicity
 _atom_site_fract_x
 _atom_site_fract_y
 _atom_site_fract_z
 _atom_site_occupancy
  Zr  Zr0  1  0.25000000  0.63071400  0.17620700  1
  Zr  Zr1  1  0.75000000  0.36928600  0.82379300  1
  Zr  Zr2  1  0.75000000  0.13071400  0.32379300  1
  Zr  Zr3  1  0.25000000  0.86928600  0.67620700  1
  Ge  Ge4  1  0.25000000  0.15244100  0.04869200  1
  Ge  Ge5  1  0.75000000  0.84755900  0.95130800  1
  Ge  Ge6  1  0.75000000  0.65244100  0.45130800  1
  Ge  Ge7  1  0.25000000  0.34755900  0.54869200  1
