# generated using pymatgen
data_Zn3Te2P2(PbO7)2
_symmetry_space_group_name_H-M   'P 1'
_cell_length_a   8.06722400
_cell_length_b   5.35155600
_cell_length_c   15.46132038
_cell_angle_alpha   89.94035595
_cell_angle_beta   90.00000000
_cell_angle_gamma   90.00000000
_symmetry_Int_Tables_number   1
_chemical_formula_structural   Zn3Te2P2(PbO7)2
_chemical_formula_sum   'Zn6 Te4 P4 Pb4 O28'
_cell_volume   667.49886940
_cell_formula_units_Z   2
loop_
 _symmetry_equiv_pos_site_id
 _symmetry_equiv_pos_as_xyz
  1  'x, y, z'
loop_
 _atom_site_type_symbol
 _atom_site_label
 _atom_site_symmetry_multiplicity
 _atom_site_fract_x
 _atom_site_fract_y
 _atom_site_fract_z
 _atom_site_occupancy
  Zn  Zn0  1  0.60963700  0.00946900  0.38502200  1
  Zn  Zn1  1  0.10963700  0.99053100  0.11497800  1
  Zn  Zn2  1  0.39036300  0.99053100  0.61497800  1
  Zn  Zn3  1  0.89036300  0.00946900  0.88502200  1
  Zn  Zn4  1  0.50000000  0.00000000  0.00000000  1
  Zn  Zn5  1  0.00000000  0.00000000  0.50000000  1
  Te  Te6  1  0.72246400  0.48396200  0.51154200  1
  Te  Te7  1  0.22246400  0.51603800  0.98845800  1
  Te  Te8  1  0.27753600  0.51603800  0.48845800  1
  Te  Te9  1  0.77753600  0.48396200  0.01154200  1
  P  P10  1  0.73814100  0.03632600  0.19216000  1
  P  P11  1  0.23814100  0.96367400  0.30784000  1
  P  P12  1  0.26185900  0.96367400  0.80784000  1
  P  P13  1  0.76185900  0.03632600  0.69216000  1
  Pb  Pb14  1  0.93984600  0.49676200  0.30156200  1
  Pb  Pb15  1  0.43984600  0.50323800  0.19843800  1
  Pb  Pb16  1  0.06015400  0.50323800  0.69843800  1
  Pb  Pb17  1  0.56015400  0.49676200  0.80156200  1
  O  O18  1  0.69685000  0.18495600  0.27798400  1
  O  O19  1  0.19685000  0.81504400  0.22201600  1
  O  O20  1  0.30315000  0.81504400  0.72201600  1
  O  O21  1  0.80315000  0.18495600  0.77798400  1
  O  O22  1  0.74786900  0.75203500  0.21052700  1
  O  O23  1  0.24786900  0.24796500  0.28947300  1
  O  O24  1  0.25213100  0.24796500  0.78947300  1
  O  O25  1  0.75213100  0.75203500  0.71052700  1
  O  O26  1  0.59928300  0.09480700  0.12582800  1
  O  O27  1  0.09928300  0.90519300  0.37417200  1
  O  O28  1  0.40071700  0.90519300  0.87417200  1
  O  O29  1  0.90071700  0.09480700  0.62582800  1
  O  O30  1  0.40583800  0.85081100  0.33969600  1
  O  O31  1  0.90583800  0.14918900  0.16030400  1
  O  O32  1  0.59416200  0.14918900  0.66030400  1
  O  O33  1  0.09416200  0.85081100  0.83969600  1
  O  O34  1  0.88950400  0.29211600  0.44991300  1
  O  O35  1  0.38950400  0.70788400  0.05008700  1
  O  O36  1  0.11049600  0.70788400  0.55008700  1
  O  O37  1  0.61049600  0.29211600  0.94991300  1
  O  O38  1  0.54730900  0.29366600  0.45952900  1
  O  O39  1  0.04730900  0.70633400  0.04047100  1
  O  O40  1  0.45269100  0.70633400  0.54047100  1
  O  O41  1  0.95269100  0.29366600  0.95952900  1
  O  O42  1  0.76009000  0.74815200  0.42926200  1
  O  O43  1  0.26009000  0.25184800  0.07073800  1
  O  O44  1  0.23991000  0.25184800  0.57073800  1
  O  O45  1  0.73991000  0.74815200  0.92926200  1
