# generated using pymatgen
data_K2CeAl(SiO3)4
_symmetry_space_group_name_H-M   'P 1'
_cell_length_a   14.07806169
_cell_length_b   14.07806169
_cell_length_c   15.10621602
_cell_angle_alpha   57.81729694
_cell_angle_beta   57.81729694
_cell_angle_gamma   30.73788707
_symmetry_Int_Tables_number   1
_chemical_formula_structural   K2CeAl(SiO3)4
_chemical_formula_sum   'K8 Ce4 Al4 Si16 O48'
_cell_volume   1275.59486273
_cell_formula_units_Z   4
loop_
 _symmetry_equiv_pos_site_id
 _symmetry_equiv_pos_as_xyz
  1  'x, y, z'
loop_
 _atom_site_type_symbol
 _atom_site_label
 _atom_site_symmetry_multiplicity
 _atom_site_fract_x
 _atom_site_fract_y
 _atom_site_fract_z
 _atom_site_occupancy
  K  K0  1  0.80405000  0.80966900  0.47433800  1
  K  K1  1  0.80966900  0.80405000  0.97433800  1
  K  K2  1  0.19595000  0.19033100  0.52566200  1
  K  K3  1  0.19033100  0.19595000  0.02566200  1
  K  K4  1  0.20460800  0.72086900  0.46312300  1
  K  K5  1  0.72086900  0.20460800  0.96312300  1
  K  K6  1  0.79539200  0.27913100  0.53687700  1
  K  K7  1  0.27913100  0.79539200  0.03687700  1
  Ce  Ce8  1  0.01831600  0.44341500  0.24940100  1
  Ce  Ce9  1  0.44341500  0.01831600  0.74940100  1
  Ce  Ce10  1  0.98168400  0.55658500  0.75059900  1
  Ce  Ce11  1  0.55658500  0.98168400  0.25059900  1
  Al  Al12  1  0.88260400  0.25987000  0.27143400  1
  Al  Al13  1  0.25987000  0.88260400  0.77143400  1
  Al  Al14  1  0.11739600  0.74013000  0.72856600  1
  Al  Al15  1  0.74013000  0.11739600  0.22856600  1
  Si  Si16  1  0.36844100  0.30470200  0.00404100  1
  Si  Si17  1  0.30470200  0.36844100  0.50404100  1
  Si  Si18  1  0.63155900  0.69529800  0.99595900  1
  Si  Si19  1  0.69529800  0.63155900  0.49595900  1
  Si  Si20  1  0.36378900  0.32124900  0.79042000  1
  Si  Si21  1  0.32124900  0.36378900  0.29042000  1
  Si  Si22  1  0.63621100  0.67875100  0.20958000  1
  Si  Si23  1  0.67875100  0.63621100  0.70958000  1
  Si  Si24  1  0.26107500  0.97393000  0.34111800  1
  Si  Si25  1  0.97393000  0.26107500  0.84111800  1
  Si  Si26  1  0.73892500  0.02607000  0.65888200  1
  Si  Si27  1  0.02607000  0.73892500  0.15888200  1
  Si  Si28  1  0.67596800  0.20125600  0.42213700  1
  Si  Si29  1  0.20125600  0.67596800  0.92213700  1
  Si  Si30  1  0.32403200  0.79874400  0.57786300  1
  Si  Si31  1  0.79874400  0.32403200  0.07786300  1
  O  O32  1  0.45945700  0.76006800  0.30931300  1
  O  O33  1  0.76006800  0.45945700  0.80931300  1
  O  O34  1  0.54054300  0.23993200  0.69068700  1
  O  O35  1  0.23993200  0.54054300  0.19068700  1
  O  O36  1  0.22658700  0.94946100  0.47049800  1
  O  O37  1  0.94946100  0.22658700  0.97049800  1
  O  O38  1  0.77341300  0.05053900  0.52950200  1
  O  O39  1  0.05053900  0.77341300  0.02950200  1
  O  O40  1  0.78039600  0.07336600  0.34455500  1
  O  O41  1  0.07336600  0.78039600  0.84455500  1
  O  O42  1  0.21960400  0.92663400  0.65544500  1
  O  O43  1  0.92663400  0.21960400  0.15544500  1
  O  O44  1  0.36479800  0.44680600  0.95132000  1
  O  O45  1  0.44680600  0.36479800  0.45132000  1
  O  O46  1  0.63520200  0.55319400  0.04868000  1
  O  O47  1  0.55319400  0.63520200  0.54868000  1
  O  O48  1  0.43241300  0.23645600  0.89984600  1
  O  O49  1  0.23645600  0.43241300  0.39984600  1
  O  O50  1  0.56758700  0.76354400  0.10015400  1
  O  O51  1  0.76354400  0.56758700  0.60015400  1
  O  O52  1  0.58465700  0.83763000  0.43178900  1
  O  O53  1  0.83763000  0.58465700  0.93178900  1
  O  O54  1  0.41534300  0.16237000  0.56821100  1
  O  O55  1  0.16237000  0.41534300  0.06821100  1
  O  O56  1  0.88136500  0.45863900  0.42988700  1
  O  O57  1  0.45863900  0.88136500  0.92988700  1
  O  O58  1  0.11863500  0.54136100  0.57011300  1
  O  O59  1  0.54136100  0.11863500  0.07011300  1
  O  O60  1  0.09014100  0.06010500  0.32432800  1
  O  O61  1  0.06010500  0.09014100  0.82432800  1
  O  O62  1  0.90985900  0.93989500  0.67567200  1
  O  O63  1  0.93989500  0.90985900  0.17567200  1
  O  O64  1  0.17748900  0.55215600  0.76391200  1
  O  O65  1  0.55215600  0.17748900  0.26391200  1
  O  O66  1  0.82251100  0.44784400  0.23608800  1
  O  O67  1  0.44784400  0.82251100  0.73608800  1
  O  O68  1  0.70613300  0.31021100  0.37208500  1
  O  O69  1  0.31021100  0.70613300  0.87208500  1
  O  O70  1  0.29386700  0.68978900  0.62791500  1
  O  O71  1  0.68978900  0.29386700  0.12791500  1
  O  O72  1  0.27135700  0.10129500  0.27658400  1
  O  O73  1  0.10129500  0.27135700  0.77658400  1
  O  O74  1  0.72864300  0.89870500  0.72341600  1
  O  O75  1  0.89870500  0.72864300  0.22341600  1
  O  O76  1  0.26058700  0.29720900  0.30363400  1
  O  O77  1  0.29720900  0.26058700  0.80363400  1
  O  O78  1  0.73941300  0.70279100  0.69636600  1
  O  O79  1  0.70279100  0.73941300  0.19636600  1
