# generated using pymatgen
data_EuIn2Ni
_symmetry_space_group_name_H-M   'P 1'
_cell_length_a   5.80128719
_cell_length_b   5.80128719
_cell_length_c   7.79388400
_cell_angle_alpha   90.00000000
_cell_angle_beta   90.00000000
_cell_angle_gamma   135.41112624
_symmetry_Int_Tables_number   1
_chemical_formula_structural   EuIn2Ni
_chemical_formula_sum   'Eu2 In4 Ni2'
_cell_volume   184.14033098
_cell_formula_units_Z   2
loop_
 _symmetry_equiv_pos_site_id
 _symmetry_equiv_pos_as_xyz
  1  'x, y, z'
loop_
 _atom_site_type_symbol
 _atom_site_label
 _atom_site_symmetry_multiplicity
 _atom_site_fract_x
 _atom_site_fract_y
 _atom_site_fract_z
 _atom_site_occupancy
  Eu  Eu0  1  0.05737600  0.94262400  0.25000000  1
  Eu  Eu1  1  0.94262400  0.05737600  0.75000000  1
  In  In2  1  0.65375600  0.34624400  0.94693700  1
  In  In3  1  0.34624400  0.65375600  0.05306300  1
  In  In4  1  0.34624400  0.65375600  0.44693700  1
  In  In5  1  0.65375600  0.34624400  0.55306300  1
  Ni  Ni6  1  0.77879800  0.22120200  0.25000000  1
  Ni  Ni7  1  0.22120200  0.77879800  0.75000000  1
