# generated using pymatgen
data_La(AsRh)2
_symmetry_space_group_name_H-M   'P 1'
_cell_length_a   4.33152500
_cell_length_b   4.33152500
_cell_length_c   10.09009100
_cell_angle_alpha   90.00000000
_cell_angle_beta   90.00000000
_cell_angle_gamma   90.00000000
_symmetry_Int_Tables_number   1
_chemical_formula_structural   La(AsRh)2
_chemical_formula_sum   'La2 As4 Rh4'
_cell_volume   189.31138540
_cell_formula_units_Z   2
loop_
 _symmetry_equiv_pos_site_id
 _symmetry_equiv_pos_as_xyz
  1  'x, y, z'
loop_
 _atom_site_type_symbol
 _atom_site_label
 _atom_site_symmetry_multiplicity
 _atom_site_fract_x
 _atom_site_fract_y
 _atom_site_fract_z
 _atom_site_occupancy
  La  La0  1  0.00000000  0.50000000  0.25401200  1
  La  La1  1  0.50000000  0.00000000  0.74598800  1
  As  As2  1  0.00000000  0.00000000  0.50000000  1
  As  As3  1  0.50000000  0.50000000  0.50000000  1
  As  As4  1  0.00000000  0.50000000  0.86348900  1
  As  As5  1  0.50000000  0.00000000  0.13651100  1
  Rh  Rh6  1  0.00000000  0.00000000  0.00000000  1
  Rh  Rh7  1  0.50000000  0.50000000  0.00000000  1
  Rh  Rh8  1  0.00000000  0.50000000  0.62017600  1
  Rh  Rh9  1  0.50000000  0.00000000  0.37982400  1
