# generated using pymatgen
data_PrCrO3
_symmetry_space_group_name_H-M   'P 1'
_cell_length_a   5.51079900
_cell_length_b   5.63296700
_cell_length_c   7.83941300
_cell_angle_alpha   90.00000000
_cell_angle_beta   90.00000000
_cell_angle_gamma   90.00000000
_symmetry_Int_Tables_number   1
_chemical_formula_structural   PrCrO3
_chemical_formula_sum   'Pr4 Cr4 O12'
_cell_volume   243.35222572
_cell_formula_units_Z   4
loop_
 _symmetry_equiv_pos_site_id
 _symmetry_equiv_pos_as_xyz
  1  'x, y, z'
loop_
 _atom_site_type_symbol
 _atom_site_label
 _atom_site_symmetry_multiplicity
 _atom_site_fract_x
 _atom_site_fract_y
 _atom_site_fract_z
 _atom_site_occupancy
  Pr  Pr0  1  0.51179300  0.54837300  0.25000000  1
  Pr  Pr1  1  0.98820700  0.04837300  0.25000000  1
  Pr  Pr2  1  0.48820700  0.45162700  0.75000000  1
  Pr  Pr3  1  0.01179300  0.95162700  0.75000000  1
  Cr  Cr4  1  0.00000000  0.50000000  0.00000000  1
  Cr  Cr5  1  0.50000000  0.00000000  0.50000000  1
  Cr  Cr6  1  0.00000000  0.50000000  0.50000000  1
  Cr  Cr7  1  0.50000000  0.00000000  0.00000000  1
  O  O8  1  0.41368200  0.97709600  0.25000000  1
  O  O9  1  0.08631800  0.47709600  0.25000000  1
  O  O10  1  0.58631800  0.02290400  0.75000000  1
  O  O11  1  0.91368200  0.52290400  0.75000000  1
  O  O12  1  0.79173300  0.79080100  0.04623400  1
  O  O13  1  0.70826700  0.29080100  0.45376600  1
  O  O14  1  0.20826700  0.20919900  0.54623400  1
  O  O15  1  0.29173300  0.70919900  0.95376600  1
  O  O16  1  0.20826700  0.20919900  0.95376600  1
  O  O17  1  0.29173300  0.70919900  0.54623400  1
  O  O18  1  0.79173300  0.79080100  0.45376600  1
  O  O19  1  0.70826700  0.29080100  0.04623400  1
