# generated using pymatgen
data_CsUSbO6
_symmetry_space_group_name_H-M   'P 1'
_cell_length_a   7.70788916
_cell_length_b   7.70788916
_cell_length_c   7.70788916
_cell_angle_alpha   122.48935263
_cell_angle_beta   117.82615708
_cell_angle_gamma   89.77463809
_symmetry_Int_Tables_number   1
_chemical_formula_structural   CsUSbO6
_chemical_formula_sum   'Cs2 U2 Sb2 O12'
_cell_volume   322.36379325
_cell_formula_units_Z   2
loop_
 _symmetry_equiv_pos_site_id
 _symmetry_equiv_pos_as_xyz
  1  'x, y, z'
loop_
 _atom_site_type_symbol
 _atom_site_label
 _atom_site_symmetry_multiplicity
 _atom_site_fract_x
 _atom_site_fract_y
 _atom_site_fract_z
 _atom_site_occupancy
  Cs  Cs0  1  0.37174500  0.62174500  0.75000000  1
  Cs  Cs1  1  0.62825500  0.37825500  0.25000000  1
  U  U2  1  0.00000000  0.00000000  0.00000000  1
  U  U3  1  0.50000000  0.00000000  0.50000000  1
  Sb  Sb4  1  0.00000000  0.00000000  0.50000000  1
  Sb  Sb5  1  0.00000000  0.50000000  0.00000000  1
  O  O6  1  0.31763000  0.06763000  0.25000000  1
  O  O7  1  0.93215900  0.68215900  0.25000000  1
  O  O8  1  0.30487700  0.68042400  0.23662000  1
  O  O9  1  0.94380400  0.06825600  0.26338000  1
  O  O10  1  0.30487700  0.06825600  0.62445300  1
  O  O11  1  0.94380400  0.68042400  0.87554700  1
  O  O12  1  0.68237000  0.93237000  0.75000000  1
  O  O13  1  0.06784100  0.31784100  0.75000000  1
  O  O14  1  0.69512300  0.31957600  0.76338000  1
  O  O15  1  0.05619600  0.93174400  0.73662000  1
  O  O16  1  0.69512300  0.93174400  0.37554700  1
  O  O17  1  0.05619600  0.31957600  0.12445300  1
