# generated using pymatgen
data_Eu3S4
_symmetry_space_group_name_H-M   'P 1'
_cell_length_a   7.44643456
_cell_length_b   7.44643456
_cell_length_c   7.44643456
_cell_angle_alpha   109.47122063
_cell_angle_beta   109.47122063
_cell_angle_gamma   109.47122063
_symmetry_Int_Tables_number   1
_chemical_formula_structural   Eu3S4
_chemical_formula_sum   'Eu6 S8'
_cell_volume   317.85075082
_cell_formula_units_Z   2
loop_
 _symmetry_equiv_pos_site_id
 _symmetry_equiv_pos_as_xyz
  1  'x, y, z'
loop_
 _atom_site_type_symbol
 _atom_site_label
 _atom_site_symmetry_multiplicity
 _atom_site_fract_x
 _atom_site_fract_y
 _atom_site_fract_z
 _atom_site_occupancy
  Eu  Eu0  1  0.87500000  0.25000000  0.12500000  1
  Eu  Eu1  1  0.62500000  0.75000000  0.37500000  1
  Eu  Eu2  1  0.25000000  0.12500000  0.87500000  1
  Eu  Eu3  1  0.75000000  0.37500000  0.62500000  1
  Eu  Eu4  1  0.12500000  0.87500000  0.25000000  1
  Eu  Eu5  1  0.37500000  0.62500000  0.75000000  1
  S  S6  1  0.64538900  0.50000000  0.00000000  1
  S  S7  1  0.50000000  0.00000000  0.64538900  1
  S  S8  1  0.00000000  0.64538900  0.50000000  1
  S  S9  1  0.85461100  0.85461100  0.85461100  1
  S  S10  1  0.50000000  0.00000000  0.14538900  1
  S  S11  1  0.14538900  0.50000000  0.00000000  1
  S  S12  1  0.00000000  0.14538900  0.50000000  1
  S  S13  1  0.35461100  0.35461100  0.35461100  1
