# generated using pymatgen
data_Cs7Mo8AsO30
_symmetry_space_group_name_H-M   'P 1'
_cell_length_a   12.47470442
_cell_length_b   18.31748515
_cell_length_c   18.31748515
_cell_angle_alpha   80.17811366
_cell_angle_beta   70.09183203
_cell_angle_gamma   70.09183203
_symmetry_Int_Tables_number   1
_chemical_formula_structural   Cs7Mo8AsO30
_chemical_formula_sum   'Cs28 Mo32 As4 O120'
_cell_volume   3693.24435484
_cell_formula_units_Z   4
loop_
 _symmetry_equiv_pos_site_id
 _symmetry_equiv_pos_as_xyz
  1  'x, y, z'
loop_
 _atom_site_type_symbol
 _atom_site_label
 _atom_site_symmetry_multiplicity
 _atom_site_fract_x
 _atom_site_fract_y
 _atom_site_fract_z
 _atom_site_occupancy
  Cs  Cs0  1  0.12432939  0.12567061  0.62567061  1
  Cs  Cs1  1  0.37567061  0.37432939  0.87432939  1
  Cs  Cs2  1  0.87567061  0.87432939  0.37432939  1
  Cs  Cs3  1  0.62432939  0.62567061  0.12567061  1
  Cs  Cs4  1  0.75000000  0.49585243  0.50414757  1
  Cs  Cs5  1  0.25000000  0.00414757  0.99585243  1
  Cs  Cs6  1  0.25000000  0.50414757  0.49585243  1
  Cs  Cs7  1  0.75000000  0.99585243  0.00414757  1
  Cs  Cs8  1  0.75000000  0.25947131  0.74052869  1
  Cs  Cs9  1  0.25000000  0.24052869  0.75947131  1
  Cs  Cs10  1  0.25000000  0.74052869  0.25947131  1
  Cs  Cs11  1  0.75000000  0.75947131  0.24052869  1
  Cs  Cs12  1  0.00776676  0.25000000  0.25000000  1
  Cs  Cs13  1  0.49223324  0.75000000  0.75000000  1
  Cs  Cs14  1  0.99223324  0.75000000  0.75000000  1
  Cs  Cs15  1  0.50776676  0.25000000  0.25000000  1
  Cs  Cs16  1  -0.00000000  0.00000000  0.50000000  1
  Cs  Cs17  1  -0.00000000  0.50000000  0.00000000  1
  Cs  Cs18  1  0.50000000  0.50000000  0.00000000  1
  Cs  Cs19  1  0.50000000  0.00000000  0.50000000  1
  Cs  Cs20  1  0.12890956  0.33671777  0.41468881  1
  Cs  Cs21  1  0.38031615  0.16328223  0.08531119  1
  Cs  Cs22  1  0.37109044  0.58531119  0.66328223  1
  Cs  Cs23  1  0.11968385  0.91468881  0.83671777  1
  Cs  Cs24  1  0.87109044  0.66328223  0.58531119  1
  Cs  Cs25  1  0.61968385  0.83671777  0.91468881  1
  Cs  Cs26  1  0.62890956  0.41468881  0.33671777  1
  Cs  Cs27  1  0.88031615  0.08531119  0.16328223  1
  Mo  Mo28  1  0.70962745  0.15245241  0.41311240  1
  Mo  Mo29  1  0.77519226  0.34754759  0.08688760  1
  Mo  Mo30  1  0.79037255  0.58688760  0.84754759  1
  Mo  Mo31  1  0.72480774  0.91311240  0.65245241  1
  Mo  Mo32  1  0.29037255  0.84754759  0.58688760  1
  Mo  Mo33  1  0.22480774  0.65245241  0.91311240  1
  Mo  Mo34  1  0.20962745  0.41311240  0.15245241  1
  Mo  Mo35  1  0.27519226  0.08688760  0.34754759  1
  Mo  Mo36  1  0.44181175  0.24345789  0.50295538  1
  Mo  Mo37  1  0.68822502  0.25654211  0.99704462  1
  Mo  Mo38  1  0.05818825  0.49704462  0.75654211  1
  Mo  Mo39  1  0.81177498  0.00295538  0.74345789  1
  Mo  Mo40  1  0.55818825  0.75654211  0.49704462  1
  Mo  Mo41  1  0.31177498  0.74345789  0.00295538  1
  Mo  Mo42  1  0.94181175  0.50295538  0.24345789  1
  Mo  Mo43  1  0.18822502  0.99704462  0.25654211  1
  Mo  Mo44  1  0.53428221  0.33512850  0.59430744  1
  Mo  Mo45  1  0.96371815  0.16487150  0.90569256  1
  Mo  Mo46  1  0.96571779  0.40569256  0.66487150  1
  Mo  Mo47  1  0.53628185  0.09430744  0.83512850  1
  Mo  Mo48  1  0.46571779  0.66487150  0.40569256  1
  Mo  Mo49  1  0.03628185  0.83512850  0.09430744  1
  Mo  Mo50  1  0.03428221  0.59430744  0.33512850  1
  Mo  Mo51  1  0.46371815  0.90569256  0.16487150  1
  Mo  Mo52  1  0.80060996  0.24792075  0.50581048  1
  Mo  Mo53  1  0.05434118  0.25207925  0.99418952  1
  Mo  Mo54  1  0.69939004  0.49418952  0.75207925  1
  Mo  Mo55  1  0.44565882  0.00581048  0.74792075  1
  Mo  Mo56  1  0.19939004  0.75207925  0.49418952  1
  Mo  Mo57  1  0.94565882  0.74792075  0.00581048  1
  Mo  Mo58  1  0.30060996  0.50581048  0.24792075  1
  Mo  Mo59  1  0.55434118  0.99418952  0.25207925  1
  As  As60  1  0.62619914  0.12380086  0.62380086  1
  As  As61  1  0.87380086  0.37619914  0.87619914  1
  As  As62  1  0.37380086  0.87619914  0.37619914  1
  As  As63  1  0.12619914  0.62380086  0.12380086  1
  O  O64  1  0.58483793  0.12758652  0.54150010  1
  O  O65  1  0.75392455  0.37241348  0.95849990  1
  O  O66  1  0.91516207  0.45849990  0.87241348  1
  O  O67  1  0.74607545  0.04150010  0.62758652  1
  O  O68  1  0.41516207  0.87241348  0.45849990  1
  O  O69  1  0.24607545  0.62758652  0.04150010  1
  O  O70  1  0.08483793  0.54150010  0.12758652  1
  O  O71  1  0.25392455  0.95849990  0.37241348  1
  O  O72  1  0.66471131  0.20704004  0.61984448  1
  O  O73  1  0.99159584  0.29295996  0.88015552  1
  O  O74  1  0.83528869  0.38015552  0.79295996  1
  O  O75  1  0.50840416  0.11984448  0.70704004  1
  O  O76  1  0.33528869  0.79295996  0.38015552  1
  O  O77  1  0.00840416  0.70704004  0.11984448  1
  O  O78  1  0.16471131  0.61984448  0.20704004  1
  O  O79  1  0.49159584  0.88015552  0.29295996  1
  O  O80  1  0.81983672  0.15049943  0.46656746  1
  O  O81  1  0.93690362  0.34950057  0.03343254  1
  O  O82  1  0.68016328  0.53343254  0.84950057  1
  O  O83  1  0.56309638  0.96656746  0.65049943  1
  O  O84  1  0.18016328  0.84950057  0.53343254  1
  O  O85  1  0.06309638  0.65049943  0.96656746  1
  O  O86  1  0.31983672  0.46656746  0.15049943  1
  O  O87  1  0.43690362  0.03343254  0.34950057  1
  O  O88  1  0.54545241  0.18557332  0.41124110  1
  O  O89  1  0.64226683  0.31442668  0.08875890  1
  O  O90  1  0.95454759  0.58875890  0.81442668  1
  O  O91  1  0.85773317  0.91124110  0.68557332  1
  O  O92  1  0.45454759  0.81442668  0.58875890  1
  O  O93  1  0.35773317  0.68557332  0.91124110  1
  O  O94  1  0.04545241  0.41124110  0.18557332  1
  O  O95  1  0.14226683  0.08875890  0.31442668  1
  O  O96  1  0.77159599  0.19449545  0.32131933  1
  O  O97  1  0.78741076  0.30550455  0.17868067  1
  O  O98  1  0.72840401  0.67868067  0.80550455  1
  O  O99  1  0.71258924  0.82131933  0.69449545  1
  O  O100  1  0.22840401  0.80550455  0.67868067  1
  O  O101  1  0.21258924  0.69449545  0.82131933  1
  O  O102  1  0.27159599  0.32131933  0.19449545  1
  O  O103  1  0.28741076  0.17868067  0.30550455  1
  O  O104  1  0.75400595  0.05387188  0.39674850  1
  O  O105  1  0.70462634  0.44612812  0.10325150  1
  O  O106  1  0.74599405  0.60325150  0.94612812  1
  O  O107  1  0.79537366  0.89674850  0.55387188  1
  O  O108  1  0.24599405  0.94612812  0.60325150  1
  O  O109  1  0.29537366  0.55387188  0.89674850  1
  O  O110  1  0.25400595  0.39674850  0.05387188  1
  O  O111  1  0.20462634  0.10325150  0.44612812  1
  O  O112  1  0.61921412  0.27085580  0.48200848  1
  O  O113  1  0.87207841  0.22914420  0.01799152  1
  O  O114  1  0.88078588  0.51799152  0.72914420  1
  O  O115  1  0.62792159  0.98200848  0.77085580  1
  O  O116  1  0.38078588  0.72914420  0.51799152  1
  O  O117  1  0.12792159  0.77085580  0.98200848  1
  O  O118  1  0.11921412  0.48200848  0.27085580  1
  O  O119  1  0.37207841  0.01799152  0.22914420  1
  O  O120  1  0.33384957  0.19469148  0.53685499  1
  O  O121  1  0.56539605  0.30530852  0.96314501  1
  O  O122  1  0.16615043  0.46314501  0.80530852  1
  O  O123  1  0.93460395  0.03685499  0.69469148  1
  O  O124  1  0.66615043  0.80530852  0.46314501  1
  O  O125  1  0.43460395  0.69469148  0.03685499  1
  O  O126  1  0.83384957  0.53685499  0.19469148  1
  O  O127  1  0.06539605  0.96314501  0.30530852  1
  O  O128  1  0.37254324  0.32899590  0.45525776  1
  O  O129  1  0.65679690  0.17100410  0.04474224  1
  O  O130  1  0.12745676  0.54474224  0.67100410  1
  O  O131  1  0.84320310  0.95525776  0.82899590  1
  O  O132  1  0.62745676  0.67100410  0.54474224  1
  O  O133  1  0.34320310  0.82899590  0.95525776  1
  O  O134  1  0.87254324  0.45525776  0.32899590  1
  O  O135  1  0.15679690  0.04474224  0.17100410  1
  O  O136  1  0.42125946  0.28089300  0.60087704  1
  O  O137  1  0.80302950  0.21910700  0.89912296  1
  O  O138  1  0.07874054  0.39912296  0.71910700  1
  O  O139  1  0.69697050  0.10087704  0.78089300  1
  O  O140  1  0.57874054  0.71910700  0.39912296  1
  O  O141  1  0.19697050  0.78089300  0.10087704  1
  O  O142  1  0.92125946  0.60087704  0.28089300  1
  O  O143  1  0.30302950  0.89912296  0.21910700  1
  O  O144  1  0.47021299  0.42761343  0.55449661  1
  O  O145  1  0.95232303  0.07238657  0.94550339  1
  O  O146  1  0.02978701  0.44550339  0.57238657  1
  O  O147  1  0.54767697  0.05449661  0.92761343  1
  O  O148  1  0.52978701  0.57238657  0.44550339  1
  O  O149  1  0.04767697  0.92761343  0.05449661  1
  O  O150  1  0.97021299  0.55449661  0.42761343  1
  O  O151  1  0.45232303  0.94550339  0.07238657  1
  O  O152  1  0.49087483  0.34819902  0.69378685  1
  O  O153  1  0.03286070  0.15180098  0.80621315  1
  O  O154  1  0.00912517  0.30621315  0.65180098  1
  O  O155  1  0.46713930  0.19378685  0.84819902  1
  O  O156  1  0.50912517  0.65180098  0.30621315  1
  O  O157  1  0.96713930  0.84819902  0.19378685  1
  O  O158  1  0.99087483  0.69378685  0.34819902  1
  O  O159  1  0.53286070  0.80621315  0.15180098  1
  O  O160  1  0.69840558  0.33891679  0.56422192  1
  O  O161  1  0.10154429  0.16108321  0.93577808  1
  O  O162  1  0.80159442  0.43577808  0.66108321  1
  O  O163  1  0.39845571  0.06422192  0.83891679  1
  O  O164  1  0.30159442  0.66108321  0.43577808  1
  O  O165  1  0.89845571  0.83891679  0.06422192  1
  O  O166  1  0.19840558  0.56422192  0.33891679  1
  O  O167  1  0.60154429  0.93577808  0.16108321  1
  O  O168  1  0.91059402  0.21249597  0.55293767  1
  O  O169  1  0.17602766  0.28750403  0.94706233  1
  O  O170  1  0.58940598  0.44706233  0.78750403  1
  O  O171  1  0.32397234  0.05293767  0.71249597  1
  O  O172  1  0.08940598  0.78750403  0.44706233  1
  O  O173  1  0.82397234  0.71249597  0.05293767  1
  O  O174  1  0.41059402  0.55293767  0.21249597  1
  O  O175  1  0.67602766  0.94706233  0.28750403  1
  O  O176  1  0.86877935  0.29610951  0.42006959  1
  O  O177  1  0.08495845  0.20389049  0.07993041  1
  O  O178  1  0.63122065  0.57993041  0.70389049  1
  O  O179  1  0.41504155  0.92006959  0.79610951  1
  O  O180  1  0.13122065  0.70389049  0.57993041  1
  O  O181  1  0.91504155  0.79610951  0.92006959  1
  O  O182  1  0.36877935  0.42006959  0.29610951  1
  O  O183  1  0.58495845  0.07993041  0.20389049  1
