# generated using pymatgen
data_Ag2HgGeS4
_symmetry_space_group_name_H-M   'P 1'
_cell_length_a   6.71201944
_cell_length_b   7.02116500
_cell_length_c   8.15470123
_cell_angle_alpha   90.00000000
_cell_angle_beta   89.88363953
_cell_angle_gamma   90.00000000
_symmetry_Int_Tables_number   1
_chemical_formula_structural   Ag2HgGeS4
_chemical_formula_sum   'Ag4 Hg2 Ge2 S8'
_cell_volume   384.29925570
_cell_formula_units_Z   2
loop_
 _symmetry_equiv_pos_site_id
 _symmetry_equiv_pos_as_xyz
  1  'x, y, z'
loop_
 _atom_site_type_symbol
 _atom_site_label
 _atom_site_symmetry_multiplicity
 _atom_site_fract_x
 _atom_site_fract_y
 _atom_site_fract_z
 _atom_site_occupancy
  Ag  Ag0  1  0.97320900  0.18821600  0.24530400  1
  Ag  Ag1  1  0.47320900  0.81178400  0.74530400  1
  Ag  Ag2  1  0.95477600  0.65271000  0.49994800  1
  Ag  Ag3  1  0.45477600  0.34729000  0.99994800  1
  Hg  Hg4  1  0.97157500  0.18875200  0.75513300  1
  Hg  Hg5  1  0.47157500  0.81124800  0.25513300  1
  Ge  Ge6  1  0.45746700  0.31770200  0.49967400  1
  Ge  Ge7  1  0.95746700  0.68229800  0.99967400  1
  S  S8  1  0.33767000  0.61854200  0.50311900  1
  S  S9  1  0.83767000  0.38145800  0.00311900  1
  S  S10  1  0.35070000  0.16903900  0.26980100  1
  S  S11  1  0.35482300  0.16641000  0.73018600  1
  S  S12  1  0.85482300  0.83359000  0.23018600  1
  S  S13  1  0.85070000  0.83096100  0.76980100  1
  S  S14  1  0.79378000  0.32148400  0.49683500  1
  S  S15  1  0.29378000  0.67851600  0.99683500  1
