# generated using pymatgen
data_Y3Pd4
_symmetry_space_group_name_H-M   'P 1'
_cell_length_a   7.90897673
_cell_length_b   7.90897673
_cell_length_c   7.90897604
_cell_angle_alpha   114.26203599
_cell_angle_beta   114.26203599
_cell_angle_gamma   114.26204452
_symmetry_Int_Tables_number   1
_chemical_formula_structural   Y3Pd4
_chemical_formula_sum   'Y6 Pd8'
_cell_volume   294.63799352
_cell_formula_units_Z   2
loop_
 _symmetry_equiv_pos_site_id
 _symmetry_equiv_pos_as_xyz
  1  'x, y, z'
loop_
 _atom_site_type_symbol
 _atom_site_label
 _atom_site_symmetry_multiplicity
 _atom_site_fract_x
 _atom_site_fract_y
 _atom_site_fract_z
 _atom_site_occupancy
  Y  Y0  1  0.40436500  0.02446100  0.27519300  1
  Y  Y1  1  0.02446100  0.27519300  0.40436500  1
  Y  Y2  1  0.27519300  0.40436500  0.02446100  1
  Y  Y3  1  0.59563500  0.97553900  0.72480700  1
  Y  Y4  1  0.97553900  0.72480700  0.59563500  1
  Y  Y5  1  0.72480700  0.59563500  0.97553900  1
  Pd  Pd6  1  0.00000000  0.00000000  0.00000000  1
  Pd  Pd7  1  0.50000000  0.50000000  0.50000000  1
  Pd  Pd8  1  0.22923300  0.06328000  0.55143900  1
  Pd  Pd9  1  0.06328000  0.55143900  0.22923300  1
  Pd  Pd10  1  0.55143900  0.22923300  0.06328000  1
  Pd  Pd11  1  0.77076700  0.93672000  0.44856100  1
  Pd  Pd12  1  0.93672000  0.44856100  0.77076700  1
  Pd  Pd13  1  0.44856100  0.77076700  0.93672000  1
