# generated using pymatgen
data_Lu3C4
_symmetry_space_group_name_H-M   'P 1'
_cell_length_a   7.88332800
_cell_length_b   7.88332800
_cell_length_c   15.67004100
_cell_angle_alpha   90.00000000
_cell_angle_beta   90.00000000
_cell_angle_gamma   90.00000000
_symmetry_Int_Tables_number   1
_chemical_formula_structural   Lu3C4
_chemical_formula_sum   'Lu30 C40'
_cell_volume   973.84384979
_cell_formula_units_Z   10
loop_
 _symmetry_equiv_pos_site_id
 _symmetry_equiv_pos_as_xyz
  1  'x, y, z'
loop_
 _atom_site_type_symbol
 _atom_site_label
 _atom_site_symmetry_multiplicity
 _atom_site_fract_x
 _atom_site_fract_y
 _atom_site_fract_z
 _atom_site_occupancy
  Lu  Lu0  1  0.50000000  0.50000000  0.50000000  1
  Lu  Lu1  1  0.00000000  0.00000000  0.00000000  1
  Lu  Lu2  1  0.50000000  0.50000000  0.18755400  1
  Lu  Lu3  1  0.00000000  0.00000000  0.68755400  1
  Lu  Lu4  1  0.50000000  0.50000000  0.81244600  1
  Lu  Lu5  1  0.00000000  0.00000000  0.31244600  1
  Lu  Lu6  1  0.70120000  0.90429900  0.50000000  1
  Lu  Lu7  1  0.29880000  0.09570100  0.50000000  1
  Lu  Lu8  1  0.79880000  0.40429900  0.00000000  1
  Lu  Lu9  1  0.20120000  0.59570100  0.00000000  1
  Lu  Lu10  1  0.90429900  0.29880000  0.50000000  1
  Lu  Lu11  1  0.09570100  0.70120000  0.50000000  1
  Lu  Lu12  1  0.40429900  0.20120000  0.00000000  1
  Lu  Lu13  1  0.59570100  0.79880000  0.00000000  1
  Lu  Lu14  1  0.78762300  0.60048800  0.35472600  1
  Lu  Lu15  1  0.21237700  0.39951200  0.35472600  1
  Lu  Lu16  1  0.71237700  0.10048800  0.85472600  1
  Lu  Lu17  1  0.28762300  0.89951200  0.85472600  1
  Lu  Lu18  1  0.60048800  0.21237700  0.35472600  1
  Lu  Lu19  1  0.39951200  0.78762300  0.35472600  1
  Lu  Lu20  1  0.10048800  0.28762300  0.85472600  1
  Lu  Lu21  1  0.89951200  0.71237700  0.85472600  1
  Lu  Lu22  1  0.21237700  0.39951200  0.64527400  1
  Lu  Lu23  1  0.78762300  0.60048800  0.64527400  1
  Lu  Lu24  1  0.28762300  0.89951200  0.14527400  1
  Lu  Lu25  1  0.71237700  0.10048800  0.14527400  1
  Lu  Lu26  1  0.39951200  0.78762300  0.64527400  1
  Lu  Lu27  1  0.60048800  0.21237700  0.64527400  1
  Lu  Lu28  1  0.89951200  0.71237700  0.14527400  1
  Lu  Lu29  1  0.10048800  0.28762300  0.14527400  1
  C  C30  1  0.50000000  0.50000000  0.95820500  1
  C  C31  1  0.00000000  0.00000000  0.45820500  1
  C  C32  1  0.50000000  0.50000000  0.04179500  1
  C  C33  1  0.00000000  0.00000000  0.54179500  1
  C  C34  1  0.50000000  0.50000000  0.34325700  1
  C  C35  1  0.00000000  0.00000000  0.84325700  1
  C  C36  1  0.50000000  0.50000000  0.65674300  1
  C  C37  1  0.00000000  0.00000000  0.15674300  1
  C  C38  1  0.60707100  0.19626800  0.50000000  1
  C  C39  1  0.39292900  0.80373200  0.50000000  1
  C  C40  1  0.89292900  0.69626800  0.00000000  1
  C  C41  1  0.10707100  0.30373200  0.00000000  1
  C  C42  1  0.19626800  0.39292900  0.50000000  1
  C  C43  1  0.80373200  0.60707100  0.50000000  1
  C  C44  1  0.69626800  0.10707100  0.00000000  1
  C  C45  1  0.30373200  0.89292900  0.00000000  1
  C  C46  1  0.69227600  0.90203800  0.32923400  1
  C  C47  1  0.30772400  0.09796200  0.32923400  1
  C  C48  1  0.80772400  0.40203800  0.82923400  1
  C  C49  1  0.19227600  0.59796200  0.82923400  1
  C  C50  1  0.90203800  0.30772400  0.32923400  1
  C  C51  1  0.09796200  0.69227600  0.32923400  1
  C  C52  1  0.40203800  0.19227600  0.82923400  1
  C  C53  1  0.59796200  0.80772400  0.82923400  1
  C  C54  1  0.30772400  0.09796200  0.67076600  1
  C  C55  1  0.69227600  0.90203800  0.67076600  1
  C  C56  1  0.19227600  0.59796200  0.17076600  1
  C  C57  1  0.80772400  0.40203800  0.17076600  1
  C  C58  1  0.09796200  0.69227600  0.67076600  1
  C  C59  1  0.90203800  0.30772400  0.67076600  1
  C  C60  1  0.59796200  0.80772400  0.17076600  1
  C  C61  1  0.40203800  0.19227600  0.17076600  1
  C  C62  1  0.64941400  0.85058600  0.25000000  1
  C  C63  1  0.35058600  0.14941400  0.25000000  1
  C  C64  1  0.85058600  0.35058600  0.75000000  1
  C  C65  1  0.14941400  0.64941400  0.75000000  1
  C  C66  1  0.85058600  0.35058600  0.25000000  1
  C  C67  1  0.14941400  0.64941400  0.25000000  1
  C  C68  1  0.35058600  0.14941400  0.75000000  1
  C  C69  1  0.64941400  0.85058600  0.75000000  1
