# generated using pymatgen
data_Ba2Zn2TeP2O11
_symmetry_space_group_name_H-M   'P 1'
_cell_length_a   16.40250200
_cell_length_b   7.13335900
_cell_length_c   9.94596140
_cell_angle_alpha   74.06385274
_cell_angle_beta   90.00000000
_cell_angle_gamma   90.00000000
_symmetry_Int_Tables_number   1
_chemical_formula_structural   Ba2Zn2TeP2O11
_chemical_formula_sum   'Ba8 Zn8 Te4 P8 O44'
_cell_volume   1119.00255649
_cell_formula_units_Z   4
loop_
 _symmetry_equiv_pos_site_id
 _symmetry_equiv_pos_as_xyz
  1  'x, y, z'
loop_
 _atom_site_type_symbol
 _atom_site_label
 _atom_site_symmetry_multiplicity
 _atom_site_fract_x
 _atom_site_fract_y
 _atom_site_fract_z
 _atom_site_occupancy
  Ba  Ba0  1  0.40615600  0.74268300  0.53552300  1
  Ba  Ba1  1  0.90615600  0.25731700  0.96447700  1
  Ba  Ba2  1  0.59384400  0.25731700  0.46447700  1
  Ba  Ba3  1  0.09384400  0.74268300  0.03552300  1
  Ba  Ba4  1  0.25924300  0.27713800  0.38569000  1
  Ba  Ba5  1  0.75924300  0.72286200  0.11431000  1
  Ba  Ba6  1  0.74075700  0.72286200  0.61431000  1
  Ba  Ba7  1  0.24075700  0.27713800  0.88569000  1
  Zn  Zn8  1  0.45623800  0.56907700  0.19997900  1
  Zn  Zn9  1  0.95623800  0.43092300  0.30002100  1
  Zn  Zn10  1  0.54376200  0.43092300  0.80002100  1
  Zn  Zn11  1  0.04376200  0.56907700  0.69997900  1
  Zn  Zn12  1  0.14400800  0.81727000  0.41737200  1
  Zn  Zn13  1  0.64400800  0.18273000  0.08262800  1
  Zn  Zn14  1  0.85599200  0.18273000  0.58262800  1
  Zn  Zn15  1  0.35599200  0.81727000  0.91737200  1
  Te  Te16  1  0.55538100  0.83096300  0.88844800  1
  Te  Te17  1  0.05538100  0.16903700  0.61155200  1
  Te  Te18  1  0.44461900  0.16903700  0.11155200  1
  Te  Te19  1  0.94461900  0.83096300  0.38844800  1
  P  P20  1  0.28649400  0.79517300  0.22588000  1
  P  P21  1  0.78649400  0.20482700  0.27412000  1
  P  P22  1  0.71350600  0.20482700  0.77412000  1
  P  P23  1  0.21350600  0.79517300  0.72588000  1
  P  P24  1  0.60085600  0.77414100  0.33683200  1
  P  P25  1  0.10085600  0.22585900  0.16316800  1
  P  P26  1  0.39914400  0.22585900  0.66316800  1
  P  P27  1  0.89914400  0.77414100  0.83683200  1
  O  O28  1  0.20026200  0.71228700  0.28096000  1
  O  O29  1  0.70026200  0.28771300  0.21904000  1
  O  O30  1  0.79973800  0.28771300  0.71904000  1
  O  O31  1  0.29973800  0.71228700  0.78096000  1
  O  O32  1  0.34684300  0.61954500  0.27435600  1
  O  O33  1  0.84684300  0.38045500  0.22564400  1
  O  O34  1  0.65315700  0.38045500  0.72564400  1
  O  O35  1  0.15315700  0.61954500  0.77435600  1
  O  O36  1  0.67312500  0.62852600  0.37492400  1
  O  O37  1  0.17312500  0.37147400  0.12507600  1
  O  O38  1  0.32687500  0.37147400  0.62507600  1
  O  O39  1  0.82687500  0.62852600  0.87492400  1
  O  O40  1  0.52034600  0.65097800  0.34407300  1
  O  O41  1  0.02034600  0.34902200  0.15592700  1
  O  O42  1  0.47965400  0.34902200  0.65592700  1
  O  O43  1  0.97965400  0.65097800  0.84407300  1
  O  O44  1  0.59319500  0.89327000  0.44365100  1
  O  O45  1  0.09319500  0.10673000  0.05634900  1
  O  O46  1  0.40680500  0.10673000  0.55634900  1
  O  O47  1  0.90680500  0.89327000  0.94365100  1
  O  O48  1  0.31227700  0.95947600  0.28976500  1
  O  O49  1  0.81227700  0.04052400  0.21023500  1
  O  O50  1  0.68772300  0.04052400  0.71023500  1
  O  O51  1  0.18772300  0.95947600  0.78976500  1
  O  O52  1  0.61244700  0.90569400  0.18381700  1
  O  O53  1  0.11244700  0.09430600  0.31618300  1
  O  O54  1  0.38755300  0.09430600  0.81618300  1
  O  O55  1  0.88755300  0.90569400  0.68381700  1
  O  O56  1  0.28154200  0.86619900  0.06318300  1
  O  O57  1  0.78154200  0.13380100  0.43681700  1
  O  O58  1  0.71845800  0.13380100  0.93681700  1
  O  O59  1  0.21845800  0.86619900  0.56318300  1
  O  O60  1  0.46172200  0.74325700  0.01185700  1
  O  O61  1  0.96172200  0.25674300  0.48814300  1
  O  O62  1  0.53827800  0.25674300  0.98814300  1
  O  O63  1  0.03827800  0.74325700  0.51185700  1
  O  O64  1  0.51797100  0.71104800  0.75018600  1
  O  O65  1  0.01797100  0.28895200  0.74981400  1
  O  O66  1  0.48202900  0.28895200  0.24981400  1
  O  O67  1  0.98202900  0.71104800  0.25018600  1
  O  O68  1  0.63167100  0.64194700  0.96787500  1
  O  O69  1  0.13167100  0.35805300  0.53212500  1
  O  O70  1  0.36832900  0.35805300  0.03212500  1
  O  O71  1  0.86832900  0.64194700  0.46787500  1
