# generated using pymatgen
data_Eu5P3O13
_symmetry_space_group_name_H-M   'P 1'
_cell_length_a   9.74744972
_cell_length_b   9.74744972
_cell_length_c   7.28909600
_cell_angle_alpha   90.00000000
_cell_angle_beta   90.00000000
_cell_angle_gamma   119.99999811
_symmetry_Int_Tables_number   1
_chemical_formula_structural   Eu5P3O13
_chemical_formula_sum   'Eu10 P6 O26'
_cell_volume   599.77218002
_cell_formula_units_Z   2
loop_
 _symmetry_equiv_pos_site_id
 _symmetry_equiv_pos_as_xyz
  1  'x, y, z'
loop_
 _atom_site_type_symbol
 _atom_site_label
 _atom_site_symmetry_multiplicity
 _atom_site_fract_x
 _atom_site_fract_y
 _atom_site_fract_z
 _atom_site_occupancy
  Eu  Eu0  1  0.33333300  0.66666700  0.00059500  1
  Eu  Eu1  1  0.66666700  0.33333300  0.99940500  1
  Eu  Eu2  1  0.66666700  0.33333300  0.50059500  1
  Eu  Eu3  1  0.33333300  0.66666700  0.49940500  1
  Eu  Eu4  1  0.76475400  0.77459300  0.75000000  1
  Eu  Eu5  1  0.23524600  0.22540700  0.25000000  1
  Eu  Eu6  1  0.00983900  0.23524600  0.75000000  1
  Eu  Eu7  1  0.99016100  0.76475400  0.25000000  1
  Eu  Eu8  1  0.22540700  0.99016100  0.75000000  1
  Eu  Eu9  1  0.77459300  0.00983900  0.25000000  1
  P  P10  1  0.96899100  0.59948200  0.75000000  1
  P  P11  1  0.03100900  0.40051800  0.25000000  1
  P  P12  1  0.63049200  0.03100900  0.75000000  1
  P  P13  1  0.36950800  0.96899100  0.25000000  1
  P  P14  1  0.40051800  0.36950800  0.75000000  1
  P  P15  1  0.59948200  0.63049200  0.25000000  1
  O  O16  1  0.51973900  0.84825200  0.75000000  1
  O  O17  1  0.48026100  0.15174800  0.25000000  1
  O  O18  1  0.32851300  0.48026100  0.75000000  1
  O  O19  1  0.67148700  0.51973900  0.25000000  1
  O  O20  1  0.15174800  0.67148700  0.75000000  1
  O  O21  1  0.84825200  0.32851300  0.25000000  1
  O  O22  1  0.00000000  0.00000000  0.75000000  1
  O  O23  1  0.00000000  0.00000000  0.25000000  1
  O  O24  1  0.88041200  0.41500500  0.75000000  1
  O  O25  1  0.11958800  0.58499500  0.25000000  1
  O  O26  1  0.53459300  0.11958800  0.75000000  1
  O  O27  1  0.46540700  0.88041200  0.25000000  1
  O  O28  1  0.58499500  0.46540700  0.75000000  1
  O  O29  1  0.41500500  0.53459300  0.25000000  1
  O  O30  1  0.91555600  0.65401100  0.92319800  1
  O  O31  1  0.08444400  0.34598900  0.07680200  1
  O  O32  1  0.73845500  0.08444400  0.92319800  1
  O  O33  1  0.08444400  0.34598900  0.42319800  1
  O  O34  1  0.26154500  0.91555600  0.07680200  1
  O  O35  1  0.91555600  0.65401100  0.57680200  1
  O  O36  1  0.34598900  0.26154500  0.92319800  1
  O  O37  1  0.26154500  0.91555600  0.42319800  1
  O  O38  1  0.65401100  0.73845500  0.07680200  1
  O  O39  1  0.73845500  0.08444400  0.57680200  1
  O  O40  1  0.65401100  0.73845500  0.42319800  1
  O  O41  1  0.34598900  0.26154500  0.57680200  1
