# generated using pymatgen
data_K7Ta(SO4)6
_symmetry_space_group_name_H-M   'P 1'
_cell_length_a   9.46019932
_cell_length_b   9.46019932
_cell_length_c   9.46019939
_cell_angle_alpha   109.45409965
_cell_angle_beta   109.45409965
_cell_angle_gamma   109.45409413
_symmetry_Int_Tables_number   1
_chemical_formula_structural   K7Ta(SO4)6
_chemical_formula_sum   'K7 Ta1 S6 O24'
_cell_volume   652.15974949
_cell_formula_units_Z   1
loop_
 _symmetry_equiv_pos_site_id
 _symmetry_equiv_pos_as_xyz
  1  'x, y, z'
loop_
 _atom_site_type_symbol
 _atom_site_label
 _atom_site_symmetry_multiplicity
 _atom_site_fract_x
 _atom_site_fract_y
 _atom_site_fract_z
 _atom_site_occupancy
  K  K0  1  0.50000000  0.50000000  0.50000000  1
  K  K1  1  0.66560100  0.16316900  0.32411400  1
  K  K2  1  0.32411400  0.66560100  0.16316900  1
  K  K3  1  0.16316900  0.32411400  0.66560100  1
  K  K4  1  0.33439900  0.83683100  0.67588600  1
  K  K5  1  0.67588600  0.33439900  0.83683100  1
  K  K6  1  0.83683100  0.67588600  0.33439900  1
  Ta  Ta7  1  0.00000000  0.00000000  0.00000000  1
  S  S8  1  0.25405500  0.03150500  0.38136800  1
  S  S9  1  0.38136800  0.25405500  0.03150500  1
  S  S10  1  0.03150500  0.38136800  0.25405500  1
  S  S11  1  0.74594500  0.96849500  0.61863200  1
  S  S12  1  0.61863200  0.74594500  0.96849500  1
  S  S13  1  0.96849500  0.61863200  0.74594500  1
  O  O14  1  0.09071000  0.57388900  0.83570000  1
  O  O15  1  0.83570000  0.09071000  0.57388900  1
  O  O16  1  0.57388900  0.83570000  0.09071000  1
  O  O17  1  0.90929000  0.42611100  0.16430000  1
  O  O18  1  0.16430000  0.90929000  0.42611100  1
  O  O19  1  0.42611100  0.16430000  0.90929000  1
  O  O20  1  0.01521700  0.68595700  0.63960300  1
  O  O21  1  0.63960300  0.01521700  0.68595700  1
  O  O22  1  0.68595700  0.63960300  0.01521700  1
  O  O23  1  0.98478300  0.31404300  0.36039700  1
  O  O24  1  0.36039700  0.98478300  0.31404300  1
  O  O25  1  0.31404300  0.36039700  0.98478300  1
  O  O26  1  0.02201000  0.23114300  0.10710100  1
  O  O27  1  0.10710100  0.02201000  0.23114300  1
  O  O28  1  0.52354600  0.35095200  0.21238700  1
  O  O29  1  0.35095200  0.21238700  0.52354600  1
  O  O30  1  0.21238700  0.52354600  0.35095200  1
  O  O31  1  0.47645400  0.64904800  0.78761300  1
  O  O32  1  0.64904800  0.78761300  0.47645400  1
  O  O33  1  0.78761300  0.47645400  0.64904800  1
  O  O34  1  0.76885700  0.89289900  0.97799000  1
  O  O35  1  0.89289900  0.97799000  0.76885700  1
  O  O36  1  0.97799000  0.76885700  0.89289900  1
  O  O37  1  0.23114300  0.10710100  0.02201000  1
