# generated using pymatgen
data_Rb2Ti(SiO3)3
_symmetry_space_group_name_H-M   'P 1'
_cell_length_a   7.00224830
_cell_length_b   7.00224830
_cell_length_c   10.10434400
_cell_angle_alpha   90.00000000
_cell_angle_beta   90.00000000
_cell_angle_gamma   120.00000285
_symmetry_Int_Tables_number   1
_chemical_formula_structural   Rb2Ti(SiO3)3
_chemical_formula_sum   'Rb4 Ti2 Si6 O18'
_cell_volume   429.05577938
_cell_formula_units_Z   2
loop_
 _symmetry_equiv_pos_site_id
 _symmetry_equiv_pos_as_xyz
  1  'x, y, z'
loop_
 _atom_site_type_symbol
 _atom_site_label
 _atom_site_symmetry_multiplicity
 _atom_site_fract_x
 _atom_site_fract_y
 _atom_site_fract_z
 _atom_site_occupancy
  Rb  Rb0  1  0.33333300  0.66666700  0.43999500  1
  Rb  Rb1  1  0.66666700  0.33333300  0.93999500  1
  Rb  Rb2  1  0.66666700  0.33333300  0.56000500  1
  Rb  Rb3  1  0.33333300  0.66666700  0.06000500  1
  Ti  Ti4  1  0.00000000  0.00000000  0.50000000  1
  Ti  Ti5  1  0.00000000  0.00000000  0.00000000  1
  Si  Si6  1  0.62109800  0.76163500  0.75000000  1
  Si  Si7  1  0.85946300  0.62109800  0.25000000  1
  Si  Si8  1  0.76163500  0.14053700  0.25000000  1
  Si  Si9  1  0.23836500  0.85946300  0.75000000  1
  Si  Si10  1  0.14053700  0.37890200  0.75000000  1
  Si  Si11  1  0.37890200  0.23836500  0.25000000  1
  O  O12  1  0.24751400  0.20764700  0.38703200  1
  O  O13  1  0.03986700  0.24751400  0.88703200  1
  O  O14  1  0.20764700  0.96013300  0.88703200  1
  O  O15  1  0.79235300  0.03986700  0.38703200  1
  O  O16  1  0.96013300  0.75248600  0.38703200  1
  O  O17  1  0.75248600  0.79235300  0.88703200  1
  O  O18  1  0.75248600  0.79235300  0.61296800  1
  O  O19  1  0.96013300  0.75248600  0.11296800  1
  O  O20  1  0.79235300  0.03986700  0.11296800  1
  O  O21  1  0.20764700  0.96013300  0.61296800  1
  O  O22  1  0.03986700  0.24751400  0.61296800  1
  O  O23  1  0.24751400  0.20764700  0.11296800  1
  O  O24  1  0.49882800  0.08445200  0.25000000  1
  O  O25  1  0.41437700  0.49882800  0.75000000  1
  O  O26  1  0.08445200  0.58562300  0.75000000  1
  O  O27  1  0.91554800  0.41437700  0.25000000  1
  O  O28  1  0.58562300  0.50117200  0.25000000  1
  O  O29  1  0.50117200  0.91554800  0.75000000  1
