# generated using pymatgen
data_Re3Se2Br5
_symmetry_space_group_name_H-M   'P 1'
_cell_length_a   9.90215448
_cell_length_b   9.89098844
_cell_length_c   13.13405496
_cell_angle_alpha   83.30098114
_cell_angle_beta   84.22460976
_cell_angle_gamma   82.79544271
_symmetry_Int_Tables_number   1
_chemical_formula_structural   Re3Se2Br5
_chemical_formula_sum   'Re12 Se8 Br20'
_cell_volume   1262.67038784
_cell_formula_units_Z   4
loop_
 _symmetry_equiv_pos_site_id
 _symmetry_equiv_pos_as_xyz
  1  'x, y, z'
loop_
 _atom_site_type_symbol
 _atom_site_label
 _atom_site_symmetry_multiplicity
 _atom_site_fract_x
 _atom_site_fract_y
 _atom_site_fract_z
 _atom_site_occupancy
  Re  Re0  1  0.07166900  0.05368600  0.11270200  1
  Re  Re1  1  0.02941900  0.81620200  0.05509100  1
  Re  Re2  1  0.17741800  0.98010700  0.93147900  1
  Re  Re3  1  0.32693200  0.60028800  0.49833100  1
  Re  Re4  1  0.41952500  0.33614700  0.50505400  1
  Re  Re5  1  0.48631000  0.49042600  0.64424400  1
  Re  Re6  1  0.51342900  0.50940900  0.35607000  1
  Re  Re7  1  0.58006000  0.66360200  0.49527300  1
  Re  Re8  1  0.67278700  0.39958500  0.50203300  1
  Re  Re9  1  0.82347400  0.01854800  0.06450900  1
  Re  Re10  1  0.97341100  0.18210300  0.93994500  1
  Re  Re11  1  0.93218700  0.94546900  0.88357900  1
  Se  Se12  1  0.07503200  0.10305500  0.77119800  1
  Se  Se13  1  0.13029200  0.75535700  0.88138000  1
  Se  Se14  1  0.27446400  0.44898200  0.36667300  1
  Se  Se15  1  0.25899200  0.85939500  0.09885000  1
  Se  Se16  1  0.40094000  0.74016800  0.63089500  1
  Se  Se17  1  0.59862600  0.25954100  0.36964900  1
  Se  Se18  1  0.74143400  0.14072200  0.90037200  1
  Se  Se19  1  0.72516800  0.55114600  0.63360000  1
  Br  Br20  1  0.06547400  0.57076400  0.13328100  1
  Br  Br21  1  0.16666900  0.12794200  0.26388100  1
  Br  Br22  1  0.09381600  0.73599200  0.49509700  1
  Br  Br23  1  0.23064500  0.43352100  0.64681400  1
  Br  Br24  1  0.21899700  0.21751900  0.99300200  1
  Br  Br25  1  0.30870500  0.11988100  0.51901600  1
  Br  Br26  1  0.41719600  0.77378900  0.35146900  1
  Br  Br27  1  0.58436200  0.04383800  0.15193200  1
  Br  Br28  1  0.46565500  0.47216900  0.83853800  1
  Br  Br29  1  0.53367100  0.52729900  0.16155700  1
  Br  Br30  1  0.41893400  0.95560800  0.84523500  1
  Br  Br31  1  0.58272400  0.22585600  0.64861400  1
  Br  Br32  1  0.69075700  0.88024600  0.48064800  1
  Br  Br33  1  0.77891900  0.78377500  0.01338200  1
  Br  Br34  1  0.76923900  0.56610100  0.35322300  1
  Br  Br35  1  0.86212500  0.25137200  0.12289400  1
  Br  Br36  1  0.90593900  0.26409900  0.50508900  1
  Br  Br37  1  0.83371000  0.87016500  0.73342100  1
  Br  Br38  1  0.92457400  0.89755100  0.23717500  1
  Br  Br39  1  0.93631800  0.42858100  0.86480800  1
