# generated using pymatgen
data_Er2Fe2Si2C
_symmetry_space_group_name_H-M   'P 1'
_cell_length_a   5.60314768
_cell_length_b   5.60314768
_cell_length_c   6.67897399
_cell_angle_alpha   53.47363340
_cell_angle_beta   53.47363340
_cell_angle_gamma   40.79978924
_symmetry_Int_Tables_number   1
_chemical_formula_structural   Er2Fe2Si2C
_chemical_formula_sum   'Er2 Fe2 Si2 C1'
_cell_volume   105.84277418
_cell_formula_units_Z   1
loop_
 _symmetry_equiv_pos_site_id
 _symmetry_equiv_pos_as_xyz
  1  'x, y, z'
loop_
 _atom_site_type_symbol
 _atom_site_label
 _atom_site_symmetry_multiplicity
 _atom_site_fract_x
 _atom_site_fract_y
 _atom_site_fract_z
 _atom_site_occupancy
  Er  Er0  1  0.44062100  0.44062100  0.29273300  1
  Er  Er1  1  0.55937900  0.55937900  0.70726700  1
  Fe  Fe2  1  0.79786600  0.79786600  0.09698200  1
  Fe  Fe3  1  0.20213400  0.20213400  0.90301800  1
  Si  Si4  1  0.84059800  0.84059800  0.71277700  1
  Si  Si5  1  0.15940200  0.15940200  0.28722300  1
  C  C6  1  0.00000000  0.00000000  0.00000000  1
