# generated using pymatgen
data_CsIn3H6(Se3O10)2
_symmetry_space_group_name_H-M   'P 1'
_cell_length_a   9.80271053
_cell_length_b   13.43158512
_cell_length_c   16.96391746
_cell_angle_alpha   90.00000000
_cell_angle_beta   90.00000000
_cell_angle_gamma   90.00000000
_symmetry_Int_Tables_number   1
_chemical_formula_structural   CsIn3H6(Se3O10)2
_chemical_formula_sum   'Cs4 In12 H24 Se24 O80'
_cell_volume   2233.57015356
_cell_formula_units_Z   4
loop_
 _symmetry_equiv_pos_site_id
 _symmetry_equiv_pos_as_xyz
  1  'x, y, z'
loop_
 _atom_site_type_symbol
 _atom_site_label
 _atom_site_symmetry_multiplicity
 _atom_site_fract_x
 _atom_site_fract_y
 _atom_site_fract_z
 _atom_site_occupancy
  Cs  Cs0  1  0.96600155  0.75000000  0.22868413  1
  Cs  Cs1  1  0.53399845  0.75000000  0.72868413  1
  Cs  Cs2  1  0.03399845  0.25000000  0.77131587  1
  Cs  Cs3  1  0.46600155  0.25000000  0.27131587  1
  In  In4  1  0.55648125  0.75000000  0.44451291  1
  In  In5  1  0.94351875  0.75000000  0.94451291  1
  In  In6  1  0.44351875  0.25000000  0.55548709  1
  In  In7  1  0.05648125  0.25000000  0.05548709  1
  In  In8  1  0.17967097  0.00025648  0.37630650  1
  In  In9  1  0.32032903  0.49974352  0.87630650  1
  In  In10  1  0.82032903  0.50025648  0.62369350  1
  In  In11  1  0.67967097  0.99974352  0.12369350  1
  In  In12  1  0.82032903  0.99974352  0.62369350  1
  In  In13  1  0.67967097  0.50025648  0.12369350  1
  In  In14  1  0.17967097  0.49974352  0.37630650  1
  In  In15  1  0.32032903  0.00025648  0.87630650  1
  H  H16  1  0.10521127  0.89986743  0.02059226  1
  H  H17  1  0.39478873  0.60013257  0.52059226  1
  H  H18  1  0.89478873  0.39986743  0.97940774  1
  H  H19  1  0.60521127  0.10013257  0.47940774  1
  H  H20  1  0.89478873  0.10013257  0.97940774  1
  H  H21  1  0.60521127  0.39986743  0.47940774  1
  H  H22  1  0.10521127  0.60013257  0.02059226  1
  H  H23  1  0.39478873  0.89986743  0.52059226  1
  H  H24  1  0.19418557  0.95479839  0.18802338  1
  H  H25  1  0.30581443  0.54520161  0.68802338  1
  H  H26  1  0.80581443  0.45479839  0.81197662  1
  H  H27  1  0.69418557  0.04520161  0.31197662  1
  H  H28  1  0.80581443  0.04520161  0.81197662  1
  H  H29  1  0.69418557  0.45479839  0.31197662  1
  H  H30  1  0.19418557  0.54520161  0.18802338  1
  H  H31  1  0.30581443  0.95479839  0.68802338  1
  H  H32  1  0.96306463  0.90122291  0.06764659  1
  H  H33  1  0.53693537  0.59877709  0.56764659  1
  H  H34  1  0.03693537  0.40122291  0.93235341  1
  H  H35  1  0.46306463  0.09877709  0.43235341  1
  H  H36  1  0.03693537  0.09877709  0.93235341  1
  H  H37  1  0.46306463  0.40122291  0.43235341  1
  H  H38  1  0.96306463  0.59877709  0.06764659  1
  H  H39  1  0.53693537  0.90122291  0.56764659  1
  Se  Se40  1  0.49155084  0.90919400  0.29139516  1
  Se  Se41  1  0.00844916  0.59080600  0.79139516  1
  Se  Se42  1  0.50844916  0.40919400  0.70860484  1
  Se  Se43  1  0.99155084  0.09080600  0.20860484  1
  Se  Se44  1  0.50844916  0.09080600  0.70860484  1
  Se  Se45  1  0.99155084  0.40919400  0.20860484  1
  Se  Se46  1  0.49155084  0.59080600  0.29139516  1
  Se  Se47  1  0.00844916  0.90919400  0.79139516  1
  Se  Se48  1  0.18757352  0.75000000  0.42396351  1
  Se  Se49  1  0.31242648  0.75000000  0.92396351  1
  Se  Se50  1  0.81242648  0.25000000  0.57603649  1
  Se  Se51  1  0.68757352  0.25000000  0.07603649  1
  Se  Se52  1  0.65844473  0.75000000  0.07114008  1
  Se  Se53  1  0.84155527  0.75000000  0.57114008  1
  Se  Se54  1  0.34155527  0.25000000  0.92885992  1
  Se  Se55  1  0.15844473  0.25000000  0.42885992  1
  Se  Se56  1  0.83588259  0.99836823  0.41587055  1
  Se  Se57  1  0.66411741  0.50163177  0.91587055  1
  Se  Se58  1  0.16411741  0.49836823  0.58412945  1
  Se  Se59  1  0.33588259  0.00163177  0.08412945  1
  Se  Se60  1  0.16411741  0.00163177  0.58412945  1
  Se  Se61  1  0.33588259  0.49836823  0.08412945  1
  Se  Se62  1  0.83588259  0.50163177  0.41587055  1
  Se  Se63  1  0.66411741  0.99836823  0.91587055  1
  O  O64  1  0.60676919  0.86840653  0.36136022  1
  O  O65  1  0.89323081  0.63159347  0.86136022  1
  O  O66  1  0.39323081  0.36840653  0.63863978  1
  O  O67  1  0.10676919  0.13159347  0.13863978  1
  O  O68  1  0.39323081  0.13159347  0.63863978  1
  O  O69  1  0.10676919  0.36840653  0.13863978  1
  O  O70  1  0.60676919  0.63159347  0.36136022  1
  O  O71  1  0.89323081  0.86840653  0.86136022  1
  O  O72  1  0.25784418  0.91637577  0.15111242  1
  O  O73  1  0.24215582  0.58362423  0.65111242  1
  O  O74  1  0.74215582  0.41637577  0.84888758  1
  O  O75  1  0.75784418  0.08362423  0.34888758  1
  O  O76  1  0.74215582  0.08362423  0.84888758  1
  O  O77  1  0.75784418  0.41637577  0.34888758  1
  O  O78  1  0.25784418  0.58362423  0.15111242  1
  O  O79  1  0.24215582  0.91637577  0.65111242  1
  O  O80  1  0.74254560  0.65458698  0.11976473  1
  O  O81  1  0.75745440  0.84541302  0.61976473  1
  O  O82  1  0.25745440  0.15458698  0.88023527  1
  O  O83  1  0.24254560  0.34541302  0.38023527  1
  O  O84  1  0.25745440  0.34541302  0.88023527  1
  O  O85  1  0.24254560  0.15458698  0.38023527  1
  O  O86  1  0.74254560  0.84541302  0.11976473  1
  O  O87  1  0.75745440  0.65458698  0.61976473  1
  O  O88  1  0.25135830  0.96370231  0.99970405  1
  O  O89  1  0.24864170  0.53629769  0.49970405  1
  O  O90  1  0.74864170  0.46370231  0.00029595  1
  O  O91  1  0.75135830  0.03629769  0.50029595  1
  O  O92  1  0.74864170  0.03629769  0.00029595  1
  O  O93  1  0.75135830  0.46370231  0.50029595  1
  O  O94  1  0.25135830  0.53629769  0.99970405  1
  O  O95  1  0.24864170  0.96370231  0.49970405  1
  O  O96  1  0.35537422  0.75000000  0.39101942  1
  O  O97  1  0.14462578  0.75000000  0.89101942  1
  O  O98  1  0.64462578  0.25000000  0.60898058  1
  O  O99  1  0.85537422  0.25000000  0.10898058  1
  O  O100  1  0.11868907  0.65396271  0.36830894  1
  O  O101  1  0.38131093  0.84603729  0.86830894  1
  O  O102  1  0.88131093  0.15396271  0.63169106  1
  O  O103  1  0.61868907  0.34603729  0.13169106  1
  O  O104  1  0.88131093  0.34603729  0.63169106  1
  O  O105  1  0.61868907  0.15396271  0.13169106  1
  O  O106  1  0.11868907  0.84603729  0.36830894  1
  O  O107  1  0.38131093  0.65396271  0.86830894  1
  O  O108  1  0.48821473  0.93984320  0.07638649  1
  O  O109  1  0.01178527  0.56015680  0.57638649  1
  O  O110  1  0.51178527  0.43984320  0.92361351  1
  O  O111  1  0.98821473  0.06015680  0.42361351  1
  O  O112  1  0.51178527  0.06015680  0.92361351  1
  O  O113  1  0.98821473  0.43984320  0.42361351  1
  O  O114  1  0.48821473  0.56015680  0.07638649  1
  O  O115  1  0.01178527  0.93984320  0.57638649  1
  O  O116  1  0.02189938  0.86000280  0.03371406  1
  O  O117  1  0.47810062  0.63999720  0.53371406  1
  O  O118  1  0.97810062  0.36000280  0.96628594  1
  O  O119  1  0.52189938  0.13999720  0.46628594  1
  O  O120  1  0.97810062  0.13999720  0.96628594  1
  O  O121  1  0.52189938  0.36000280  0.46628594  1
  O  O122  1  0.02189938  0.63999720  0.03371406  1
  O  O123  1  0.47810062  0.86000280  0.53371406  1
  O  O124  1  0.59910036  0.99614048  0.24563335  1
  O  O125  1  0.90089964  0.50385952  0.74563335  1
  O  O126  1  0.40089964  0.49614048  0.75436665  1
  O  O127  1  0.09910036  0.00385952  0.25436665  1
  O  O128  1  0.40089964  0.00385952  0.75436665  1
  O  O129  1  0.09910036  0.49614048  0.25436665  1
  O  O130  1  0.59910036  0.50385952  0.24563335  1
  O  O131  1  0.90089964  0.99614048  0.74563335  1
  O  O132  1  0.39430022  0.99346356  0.34424650  1
  O  O133  1  0.10569978  0.50653644  0.84424650  1
  O  O134  1  0.60569978  0.49346356  0.65575350  1
  O  O135  1  0.89430022  0.00653644  0.15575350  1
  O  O136  1  0.60569978  0.00653644  0.65575350  1
  O  O137  1  0.89430022  0.49346356  0.15575350  1
  O  O138  1  0.39430022  0.50653644  0.34424650  1
  O  O139  1  0.10569978  0.99346356  0.84424650  1
  O  O140  1  0.76463876  0.75000000  0.47942541  1
  O  O141  1  0.73536124  0.75000000  0.97942541  1
  O  O142  1  0.23536124  0.25000000  0.52057459  1
  O  O143  1  0.26463876  0.25000000  0.02057459  1
