# generated using pymatgen
data_KAl(MoO4)2
_symmetry_space_group_name_H-M   'P 1'
_cell_length_a   5.63789586
_cell_length_b   5.63789586
_cell_length_c   7.31833400
_cell_angle_alpha   90.00000000
_cell_angle_beta   90.00000000
_cell_angle_gamma   119.99999838
_symmetry_Int_Tables_number   1
_chemical_formula_structural   KAl(MoO4)2
_chemical_formula_sum   'K1 Al1 Mo2 O8'
_cell_volume   201.45449608
_cell_formula_units_Z   1
loop_
 _symmetry_equiv_pos_site_id
 _symmetry_equiv_pos_as_xyz
  1  'x, y, z'
loop_
 _atom_site_type_symbol
 _atom_site_label
 _atom_site_symmetry_multiplicity
 _atom_site_fract_x
 _atom_site_fract_y
 _atom_site_fract_z
 _atom_site_occupancy
  K  K0  1  0.00000000  0.00000000  0.50000000  1
  Al  Al1  1  0.00000000  0.00000000  0.00000000  1
  Mo  Mo2  1  0.33333300  0.66666700  0.22970200  1
  Mo  Mo3  1  0.66666700  0.33333300  0.77029800  1
  O  O4  1  0.31414800  0.15707400  0.84567800  1
  O  O5  1  0.84292600  0.15707400  0.84567800  1
  O  O6  1  0.84292600  0.68585200  0.84567800  1
  O  O7  1  0.15707400  0.84292600  0.15432200  1
  O  O8  1  0.33333300  0.66666700  0.46893800  1
  O  O9  1  0.66666700  0.33333300  0.53106200  1
  O  O10  1  0.15707400  0.31414800  0.15432200  1
  O  O11  1  0.68585200  0.84292600  0.15432200  1
