# generated using pymatgen
data_Rb2U3P6O25
_symmetry_space_group_name_H-M   'P 1'
_cell_length_a   16.68340600
_cell_length_b   6.89928400
_cell_length_c   20.11834720
_cell_angle_alpha   82.20707418
_cell_angle_beta   90.00000000
_cell_angle_gamma   90.00000000
_symmetry_Int_Tables_number   1
_chemical_formula_structural   Rb2U3P6O25
_chemical_formula_sum   'Rb8 U12 P24 O100'
_cell_volume   2294.30692635
_cell_formula_units_Z   4
loop_
 _symmetry_equiv_pos_site_id
 _symmetry_equiv_pos_as_xyz
  1  'x, y, z'
loop_
 _atom_site_type_symbol
 _atom_site_label
 _atom_site_symmetry_multiplicity
 _atom_site_fract_x
 _atom_site_fract_y
 _atom_site_fract_z
 _atom_site_occupancy
  Rb  Rb0  1  0.07731200  0.24248000  0.86929000  1
  Rb  Rb1  1  0.57731200  0.75752000  0.63071000  1
  Rb  Rb2  1  0.92268800  0.75752000  0.13071000  1
  Rb  Rb3  1  0.42268800  0.24248000  0.36929000  1
  Rb  Rb4  1  0.06869900  0.34826300  0.62042300  1
  Rb  Rb5  1  0.56869900  0.65173700  0.87957700  1
  Rb  Rb6  1  0.93130100  0.65173700  0.37957700  1
  Rb  Rb7  1  0.43130100  0.34826300  0.12042300  1
  U  U8  1  0.16518400  0.79576200  0.74789800  1
  U  U9  1  0.66518400  0.20423800  0.75210200  1
  U  U10  1  0.83481600  0.20423800  0.25210200  1
  U  U11  1  0.33481600  0.79576200  0.24789800  1
  U  U12  1  0.88394100  0.61342400  0.90214700  1
  U  U13  1  0.38394100  0.38657600  0.59785300  1
  U  U14  1  0.11605900  0.38657600  0.09785300  1
  U  U15  1  0.61605900  0.61342400  0.40214700  1
  U  U16  1  0.89202500  0.78321500  0.60126300  1
  U  U17  1  0.39202500  0.21678500  0.89873700  1
  U  U18  1  0.10797500  0.21678500  0.39873700  1
  U  U19  1  0.60797500  0.78321500  0.10126300  1
  P  P20  1  0.85921100  0.30419600  0.54066800  1
  P  P21  1  0.35921100  0.69580400  0.95933200  1
  P  P22  1  0.14078900  0.69580400  0.45933200  1
  P  P23  1  0.64078900  0.30419600  0.04066800  1
  P  P24  1  0.18015000  0.66533000  0.93111000  1
  P  P25  1  0.68015000  0.33467000  0.56889000  1
  P  P26  1  0.81985000  0.33467000  0.06889000  1
  P  P27  1  0.31985000  0.66533000  0.43111000  1
  P  P28  1  0.17583600  0.94675100  0.55936500  1
  P  P29  1  0.67583600  0.05324900  0.94063500  1
  P  P30  1  0.82416400  0.05324900  0.44063500  1
  P  P31  1  0.32416400  0.94675100  0.05936500  1
  P  P32  1  0.85577100  0.07741200  0.96937500  1
  P  P33  1  0.35577100  0.92258800  0.53062500  1
  P  P34  1  0.14422900  0.92258800  0.03062500  1
  P  P35  1  0.64422900  0.07741200  0.46937500  1
  P  P36  1  0.94706800  0.96191900  0.75858900  1
  P  P37  1  0.44706800  0.03808100  0.74141100  1
  P  P38  1  0.05293200  0.03808100  0.24141100  1
  P  P39  1  0.55293200  0.96191900  0.25858900  1
  P  P40  1  0.88255500  0.37871400  0.74579800  1
  P  P41  1  0.38255500  0.62128600  0.75420200  1
  P  P42  1  0.11744500  0.62128600  0.25420200  1
  P  P43  1  0.61744500  0.37871400  0.24579800  1
  O  O44  1  0.16261300  0.49276000  0.98227600  1
  O  O45  1  0.66261300  0.50724000  0.51772400  1
  O  O46  1  0.83738700  0.50724000  0.01772400  1
  O  O47  1  0.33738700  0.49276000  0.48227600  1
  O  O48  1  0.16290000  0.73502500  0.53507600  1
  O  O49  1  0.66290000  0.26497500  0.96492400  1
  O  O50  1  0.83710000  0.26497500  0.46492400  1
  O  O51  1  0.33710000  0.73502500  0.03507600  1
  O  O52  1  0.12422000  0.10009800  0.52068200  1
  O  O53  1  0.62422000  0.89990200  0.97931800  1
  O  O54  1  0.87578000  0.89990200  0.47931800  1
  O  O55  1  0.37578000  0.10009800  0.02068200  1
  O  O56  1  0.90936300  0.14059000  0.57538900  1
  O  O57  1  0.40936300  0.85941000  0.92461100  1
  O  O58  1  0.09063700  0.85941000  0.42461100  1
  O  O59  1  0.59063700  0.14059000  0.07538900  1
  O  O60  1  0.89810000  0.49496800  0.67684600  1
  O  O61  1  0.39810000  0.50503200  0.82315400  1
  O  O62  1  0.10190000  0.50503200  0.32315400  1
  O  O63  1  0.60190000  0.49496800  0.17684600  1
  O  O64  1  0.85399600  0.13508200  0.04556700  1
  O  O65  1  0.35399600  0.86491800  0.45443300  1
  O  O66  1  0.14600400  0.86491800  0.95443300  1
  O  O67  1  0.64600400  0.13508200  0.54556700  1
  O  O68  1  0.89129800  0.50859900  0.53386700  1
  O  O69  1  0.39129800  0.49140100  0.96613300  1
  O  O70  1  0.10870200  0.49140100  0.46613300  1
  O  O71  1  0.60870200  0.50859900  0.03386700  1
  O  O72  1  0.94805800  0.20014200  0.75035400  1
  O  O73  1  0.44805800  0.79985800  0.74964600  1
  O  O74  1  0.05194200  0.79985800  0.24964600  1
  O  O75  1  0.55194200  0.20014200  0.25035400  1
  O  O76  1  0.19369900  0.02801500  0.77274800  1
  O  O77  1  0.69369900  0.97198500  0.72725200  1
  O  O78  1  0.80630100  0.97198500  0.22725200  1
  O  O79  1  0.30630100  0.02801500  0.27274800  1
  O  O80  1  0.90787100  0.49050900  0.80280200  1
  O  O81  1  0.40787100  0.50949100  0.69719800  1
  O  O82  1  0.09212900  0.50949100  0.19719800  1
  O  O83  1  0.59212900  0.49050900  0.30280200  1
  O  O84  1  0.15126400  0.66056600  0.86025700  1
  O  O85  1  0.65126400  0.33943400  0.63974300  1
  O  O86  1  0.84873600  0.33943400  0.13974300  1
  O  O87  1  0.34873600  0.66056600  0.36025700  1
  O  O88  1  0.00000400  0.77059600  0.59574500  1
  O  O89  1  0.50000400  0.22940400  0.90425500  1
  O  O90  1  0.99999600  0.22940400  0.40425500  1
  O  O91  1  0.49999600  0.77059600  0.09574500  1
  O  O92  1  0.89738700  0.90401100  0.70098500  1
  O  O93  1  0.39738700  0.09598900  0.79901500  1
  O  O94  1  0.10261300  0.09598900  0.29901500  1
  O  O95  1  0.60261300  0.90401100  0.20098500  1
  O  O96  1  0.13133100  0.56159000  0.72673700  1
  O  O97  1  0.63133100  0.43841000  0.77326300  1
  O  O98  1  0.86866900  0.43841000  0.27326300  1
  O  O99  1  0.36866900  0.56159000  0.22673700  1
  O  O100  1  0.77846400  0.64394600  0.88394100  1
  O  O101  1  0.27846400  0.35605400  0.61605900  1
  O  O102  1  0.22153600  0.35605400  0.11605900  1
  O  O103  1  0.72153600  0.64394600  0.38394100  1
  O  O104  1  0.78379300  0.79247500  0.60429800  1
  O  O105  1  0.28379300  0.20752500  0.89570200  1
  O  O106  1  0.21620700  0.20752500  0.39570200  1
  O  O107  1  0.71620700  0.79247500  0.10429800  1
  O  O108  1  0.90613000  0.89691700  0.97165600  1
  O  O109  1  0.40613000  0.10308300  0.52834400  1
  O  O110  1  0.09387000  0.10308300  0.02834400  1
  O  O111  1  0.59387000  0.89691700  0.47165600  1
  O  O112  1  0.16907400  0.92043100  0.63458500  1
  O  O113  1  0.66907400  0.07956900  0.86541500  1
  O  O114  1  0.83092600  0.07956900  0.36541500  1
  O  O115  1  0.33092600  0.92043100  0.13458500  1
  O  O116  1  0.79776500  0.29313400  0.75317400  1
  O  O117  1  0.29776500  0.70686600  0.74682600  1
  O  O118  1  0.20223500  0.70686600  0.24682600  1
  O  O119  1  0.70223500  0.29313400  0.25317400  1
  O  O120  1  0.98859000  0.57299400  0.92217400  1
  O  O121  1  0.48859000  0.42700600  0.57782600  1
  O  O122  1  0.01141000  0.42700600  0.07782600  1
  O  O123  1  0.51141000  0.57299400  0.42217400  1
  O  O124  1  0.91258400  0.89226100  0.82781000  1
  O  O125  1  0.41258400  0.10773900  0.67219000  1
  O  O126  1  0.08741600  0.10773900  0.17219000  1
  O  O127  1  0.58741600  0.89226100  0.32781000  1
  O  O128  1  0.77385000  0.29025200  0.57736400  1
  O  O129  1  0.27385000  0.70974800  0.92263600  1
  O  O130  1  0.22615000  0.70974800  0.42263600  1
  O  O131  1  0.72615000  0.29025200  0.07736400  1
  O  O132  1  0.26594400  0.99745900  0.53873400  1
  O  O133  1  0.76594400  0.00254100  0.96126600  1
  O  O134  1  0.73405600  0.00254100  0.46126600  1
  O  O135  1  0.23405600  0.99745900  0.03873400  1
  O  O136  1  0.03658800  0.91240700  0.75344700  1
  O  O137  1  0.53658800  0.08759300  0.74655300  1
  O  O138  1  0.96341200  0.08759300  0.24655300  1
  O  O139  1  0.46341200  0.91240700  0.25344700  1
  O  O140  1  0.87358500  0.25761400  0.92153500  1
  O  O141  1  0.37358500  0.74238600  0.57846500  1
  O  O142  1  0.12641500  0.74238600  0.07846500  1
  O  O143  1  0.62641500  0.25761400  0.42153600  1
