# generated using pymatgen
data_LaAs2Pd3
_symmetry_space_group_name_H-M   'P 1'
_cell_length_a   4.20023700
_cell_length_b   8.71326924
_cell_length_c   10.13921782
_cell_angle_alpha   107.68972824
_cell_angle_beta   90.00000000
_cell_angle_gamma   103.94706681
_symmetry_Int_Tables_number   1
_chemical_formula_structural   LaAs2Pd3
_chemical_formula_sum   'La3 As6 Pd9'
_cell_volume   342.02678270
_cell_formula_units_Z   3
loop_
 _symmetry_equiv_pos_site_id
 _symmetry_equiv_pos_as_xyz
  1  'x, y, z'
loop_
 _atom_site_type_symbol
 _atom_site_label
 _atom_site_symmetry_multiplicity
 _atom_site_fract_x
 _atom_site_fract_y
 _atom_site_fract_z
 _atom_site_occupancy
  La  La0  1  0.84487700  0.68975300  0.29931500  1
  La  La1  1  0.15512300  0.31024700  0.70068500  1
  La  La2  1  0.00000000  0.00000000  0.00000000  1
  As  As3  1  0.80088100  0.60176100  0.86978100  1
  As  As4  1  0.19911900  0.39823900  0.13021900  1
  As  As5  1  0.53798700  0.07597400  0.78421400  1
  As  As6  1  0.46201300  0.92402600  0.21578600  1
  As  As7  1  0.63582500  0.27164900  0.45202000  1
  As  As8  1  0.36417500  0.72835100  0.54798000  1
  Pd  Pd9  1  0.95654000  0.91308000  0.66744300  1
  Pd  Pd10  1  0.04346000  0.08692000  0.33255700  1
  Pd  Pd11  1  0.77958900  0.55917800  0.60832600  1
  Pd  Pd12  1  0.22041100  0.44082200  0.39167400  1
  Pd  Pd13  1  0.37678200  0.75356400  0.79984800  1
  Pd  Pd14  1  0.62321800  0.24643600  0.20015200  1
  Pd  Pd15  1  0.50000000  0.00000000  0.50000000  1
  Pd  Pd16  1  0.68012700  0.36025400  0.96846400  1
  Pd  Pd17  1  0.31987300  0.63974600  0.03153600  1
