# generated using pymatgen
data_Mn2V3NiO8
_symmetry_space_group_name_H-M   'P 1'
_cell_length_a   6.09895626
_cell_length_b   6.08213270
_cell_length_c   10.49188086
_cell_angle_alpha   105.80932168
_cell_angle_beta   105.42691875
_cell_angle_gamma   60.85254959
_symmetry_Int_Tables_number   1
_chemical_formula_structural   Mn2V3NiO8
_chemical_formula_sum   'Mn4 V6 Ni2 O16'
_cell_volume   322.90946774
_cell_formula_units_Z   2
loop_
 _symmetry_equiv_pos_site_id
 _symmetry_equiv_pos_as_xyz
  1  'x, y, z'
loop_
 _atom_site_type_symbol
 _atom_site_label
 _atom_site_symmetry_multiplicity
 _atom_site_fract_x
 _atom_site_fract_y
 _atom_site_fract_z
 _atom_site_occupancy
  Mn  Mn0  1  0.11763100  0.13091500  0.37130200  1
  Mn  Mn1  1  0.61858200  0.63004700  0.87125700  1
  Mn  Mn2  1  0.00648200  0.99510100  0.00373200  1
  Mn  Mn3  1  0.50729100  0.49396000  0.50364600  1
  V  V4  1  0.06267600  0.56266900  0.18752900  1
  V  V5  1  0.56232600  0.06230400  0.68745300  1
  V  V6  1  0.56244700  0.06251500  0.18778000  1
  V  V7  1  0.06256700  0.56240000  0.68721000  1
  V  V8  1  0.56215700  0.56308700  0.18731900  1
  V  V9  1  0.06280200  0.06193100  0.68773700  1
  Ni  Ni10  1  0.31256200  0.31266100  0.93752800  1
  Ni  Ni11  1  0.81249500  0.81245000  0.43747000  1
  O  O12  1  0.43813800  0.42193100  0.29548000  1
  O  O13  1  0.93741100  0.92147800  0.79532300  1
  O  O14  1  0.68754500  0.70346900  0.07965400  1
  O  O15  1  0.18681500  0.20300800  0.57951800  1
  O  O16  1  0.66126300  0.19015300  0.07510200  1
  O  O17  1  0.16286700  0.68857000  0.57581400  1
  O  O18  1  0.21641700  0.65475500  0.07296600  1
  O  O19  1  0.71705700  0.15185100  0.57207900  1
  O  O20  1  0.20953300  0.20445200  0.07867700  1
  O  O21  1  0.71008300  0.70344300  0.57816000  1
  O  O22  1  0.46211700  0.93644300  0.29920400  1
  O  O23  1  0.96383300  0.43483000  0.79993500  1
  O  O24  1  0.90796900  0.47314200  0.30298100  1
  O  O25  1  0.40853100  0.97037200  0.80202500  1
  O  O26  1  0.91484000  0.92145300  0.29688700  1
  O  O27  1  0.41556500  0.42061100  0.79623500  1
