# generated using pymatgen
data_Ba3ZnB5PO14
_symmetry_space_group_name_H-M   'P 1'
_cell_length_a   7.18345300
_cell_length_b   8.32283300
_cell_length_c   10.49121600
_cell_angle_alpha   90.00000000
_cell_angle_beta   90.00000000
_cell_angle_gamma   90.00000000
_symmetry_Int_Tables_number   1
_chemical_formula_structural   Ba3ZnB5PO14
_chemical_formula_sum   'Ba6 Zn2 B10 P2 O28'
_cell_volume   627.23497047
_cell_formula_units_Z   2
loop_
 _symmetry_equiv_pos_site_id
 _symmetry_equiv_pos_as_xyz
  1  'x, y, z'
loop_
 _atom_site_type_symbol
 _atom_site_label
 _atom_site_symmetry_multiplicity
 _atom_site_fract_x
 _atom_site_fract_y
 _atom_site_fract_z
 _atom_site_occupancy
  Ba  Ba0  1  0.56326500  0.43866300  0.73038400  1
  Ba  Ba1  1  0.56326500  0.43866300  0.26961600  1
  Ba  Ba2  1  0.43673500  0.93866300  0.76961600  1
  Ba  Ba3  1  0.43673500  0.93866300  0.23038400  1
  Ba  Ba4  1  0.97295900  0.22534600  0.50000000  1
  Ba  Ba5  1  0.02704100  0.72534600  0.00000000  1
  Zn  Zn6  1  0.24054700  0.33170500  0.00000000  1
  Zn  Zn7  1  0.75945300  0.83170500  0.50000000  1
  B  B8  1  0.05210600  0.42507900  0.76334300  1
  B  B9  1  0.05210600  0.42507900  0.23665700  1
  B  B10  1  0.94789400  0.92507900  0.73665700  1
  B  B11  1  0.94789400  0.92507900  0.26334300  1
  B  B12  1  0.89849100  0.17460700  0.87748800  1
  B  B13  1  0.89849100  0.17460700  0.12251200  1
  B  B14  1  0.10150900  0.67460700  0.62251200  1
  B  B15  1  0.10150900  0.67460700  0.37748800  1
  B  B16  1  0.59441500  0.16097700  0.00000000  1
  B  B17  1  0.40558500  0.66097700  0.50000000  1
  P  P18  1  0.43540100  0.16106700  0.50000000  1
  P  P19  1  0.56459900  0.66106700  0.00000000  1
  O  O20  1  0.32075000  0.20077900  0.62277300  1
  O  O21  1  0.32075000  0.20077900  0.37722700  1
  O  O22  1  0.67925000  0.70077900  0.87722700  1
  O  O23  1  0.67925000  0.70077900  0.12277300  1
  O  O24  1  0.97109000  0.23161300  0.00000000  1
  O  O25  1  0.02891000  0.73161300  0.50000000  1
  O  O26  1  0.31016800  0.65895100  0.61542400  1
  O  O27  1  0.31016800  0.65895100  0.38457600  1
  O  O28  1  0.68983200  0.15895100  0.88457600  1
  O  O29  1  0.68983200  0.15895100  0.11542400  1
  O  O30  1  0.61144800  0.27026000  0.50000000  1
  O  O31  1  0.38855200  0.77026000  0.00000000  1
  O  O32  1  0.40545700  0.14326700  0.00000000  1
  O  O33  1  0.59454300  0.64326700  0.50000000  1
  O  O34  1  0.48005500  0.97900600  0.50000000  1
  O  O35  1  0.51994500  0.47900600  0.00000000  1
  O  O36  1  0.18892000  0.46250800  0.84667200  1
  O  O37  1  0.18892000  0.46250800  0.15332800  1
  O  O38  1  0.81108000  0.96250800  0.65332800  1
  O  O39  1  0.81108000  0.96250800  0.34667200  1
  O  O40  1  0.92961500  0.29449500  0.77339400  1
  O  O41  1  0.92961500  0.29449500  0.22660600  1
  O  O42  1  0.07038500  0.79449500  0.72660600  1
  O  O43  1  0.07038500  0.79449500  0.27339400  1
  O  O44  1  0.01396900  0.51766300  0.65522200  1
  O  O45  1  0.01396900  0.51766300  0.34477800  1
  O  O46  1  0.98603100  0.01766300  0.84477800  1
  O  O47  1  0.98603100  0.01766300  0.15522200  1
