# generated using pymatgen
data_Al3Ru2
_symmetry_space_group_name_H-M   'P 1'
_cell_length_a   7.49197465
_cell_length_b   7.49197465
_cell_length_c   7.49197465
_cell_angle_alpha   156.08060427
_cell_angle_beta   156.08060427
_cell_angle_gamma   34.08229799
_symmetry_Int_Tables_number   1
_chemical_formula_structural   Al3Ru2
_chemical_formula_sum   'Al3 Ru2'
_cell_volume   69.06025467
_cell_formula_units_Z   1
loop_
 _symmetry_equiv_pos_site_id
 _symmetry_equiv_pos_as_xyz
  1  'x, y, z'
loop_
 _atom_site_type_symbol
 _atom_site_label
 _atom_site_symmetry_multiplicity
 _atom_site_fract_x
 _atom_site_fract_y
 _atom_site_fract_z
 _atom_site_occupancy
  Al  Al0  1  0.00000000  0.00000000  0.00000000  1
  Al  Al1  1  0.80650200  0.80650200  0.00000000  1
  Al  Al2  1  0.19349800  0.19349800  0.00000000  1
  Ru  Ru3  1  0.60628700  0.60628700  0.00000000  1
  Ru  Ru4  1  0.39371300  0.39371300  0.00000000  1
