# generated using pymatgen
data_ErGe2Os
_symmetry_space_group_name_H-M   'P 1'
_cell_length_a   8.36353200
_cell_length_b   9.66479900
_cell_length_c   10.59851300
_cell_angle_alpha   90.00000000
_cell_angle_beta   90.00000000
_cell_angle_gamma   90.00000000
_symmetry_Int_Tables_number   1
_chemical_formula_structural   ErGe2Os
_chemical_formula_sum   'Er12 Ge24 Os12'
_cell_volume   856.69747356
_cell_formula_units_Z   12
loop_
 _symmetry_equiv_pos_site_id
 _symmetry_equiv_pos_as_xyz
  1  'x, y, z'
loop_
 _atom_site_type_symbol
 _atom_site_label
 _atom_site_symmetry_multiplicity
 _atom_site_fract_x
 _atom_site_fract_y
 _atom_site_fract_z
 _atom_site_occupancy
  Er  Er0  1  0.24506700  0.82323500  0.44928400  1
  Er  Er1  1  0.24506700  0.17676500  0.55071600  1
  Er  Er2  1  0.75493300  0.32323500  0.05071600  1
  Er  Er3  1  0.75493300  0.67676500  0.94928400  1
  Er  Er4  1  0.75493300  0.17676500  0.55071600  1
  Er  Er5  1  0.75493300  0.82323500  0.44928400  1
  Er  Er6  1  0.24506700  0.67676500  0.94928400  1
  Er  Er7  1  0.24506700  0.32323500  0.05071600  1
  Er  Er8  1  0.00000000  0.83577200  0.17683000  1
  Er  Er9  1  0.00000000  0.16422800  0.82317000  1
  Er  Er10  1  0.00000000  0.33577200  0.32317000  1
  Er  Er11  1  0.00000000  0.66422800  0.67683000  1
  Ge  Ge12  1  0.34846200  0.84190300  0.17942800  1
  Ge  Ge13  1  0.34846200  0.15809700  0.82057200  1
  Ge  Ge14  1  0.65153800  0.34190300  0.32057200  1
  Ge  Ge15  1  0.65153800  0.65809700  0.67942800  1
  Ge  Ge16  1  0.65153800  0.15809700  0.82057200  1
  Ge  Ge17  1  0.65153800  0.84190300  0.17942800  1
  Ge  Ge18  1  0.34846200  0.65809700  0.67942800  1
  Ge  Ge19  1  0.34846200  0.34190300  0.32057200  1
  Ge  Ge20  1  0.50000000  0.54541700  0.11824900  1
  Ge  Ge21  1  0.50000000  0.45458300  0.88175100  1
  Ge  Ge22  1  0.50000000  0.04541700  0.38175100  1
  Ge  Ge23  1  0.50000000  0.95458300  0.61824900  1
  Ge  Ge24  1  0.00000000  0.53683900  0.11898800  1
  Ge  Ge25  1  0.00000000  0.46316100  0.88101200  1
  Ge  Ge26  1  0.00000000  0.03683900  0.38101200  1
  Ge  Ge27  1  0.00000000  0.96316100  0.61898800  1
  Ge  Ge28  1  0.50000000  0.62739900  0.40319300  1
  Ge  Ge29  1  0.50000000  0.37260100  0.59680700  1
  Ge  Ge30  1  0.50000000  0.12739900  0.09680700  1
  Ge  Ge31  1  0.50000000  0.87260100  0.90319300  1
  Ge  Ge32  1  0.00000000  0.62961800  0.39892100  1
  Ge  Ge33  1  0.00000000  0.37038200  0.60107900  1
  Ge  Ge34  1  0.00000000  0.12961800  0.10107900  1
  Ge  Ge35  1  0.00000000  0.87038200  0.89892100  1
  Os  Os36  1  0.25080400  0.58869600  0.23816200  1
  Os  Os37  1  0.25080400  0.41130400  0.76183800  1
  Os  Os38  1  0.74919600  0.08869600  0.26183800  1
  Os  Os39  1  0.74919600  0.91130400  0.73816200  1
  Os  Os40  1  0.74919600  0.41130400  0.76183800  1
  Os  Os41  1  0.74919600  0.58869600  0.23816200  1
  Os  Os42  1  0.25080400  0.91130400  0.73816200  1
  Os  Os43  1  0.25080400  0.08869600  0.26183800  1
  Os  Os44  1  0.24930500  0.50000000  0.50000000  1
  Os  Os45  1  0.75069500  0.00000000  0.00000000  1
  Os  Os46  1  0.75069500  0.50000000  0.50000000  1
  Os  Os47  1  0.24930500  0.00000000  0.00000000  1
