# generated using pymatgen
data_Pr2ZrSe5
_symmetry_space_group_name_H-M   'P 1'
_cell_length_a   7.78303100
_cell_length_b   8.46226700
_cell_length_c   12.17619100
_cell_angle_alpha   90.00000000
_cell_angle_beta   90.00000000
_cell_angle_gamma   90.00000000
_symmetry_Int_Tables_number   1
_chemical_formula_structural   Pr2ZrSe5
_chemical_formula_sum   'Pr8 Zr4 Se20'
_cell_volume   801.94934356
_cell_formula_units_Z   4
loop_
 _symmetry_equiv_pos_site_id
 _symmetry_equiv_pos_as_xyz
  1  'x, y, z'
loop_
 _atom_site_type_symbol
 _atom_site_label
 _atom_site_symmetry_multiplicity
 _atom_site_fract_x
 _atom_site_fract_y
 _atom_site_fract_z
 _atom_site_occupancy
  Pr  Pr0  1  0.45451500  0.49749600  0.17529700  1
  Pr  Pr1  1  0.04548500  0.00250400  0.67529700  1
  Pr  Pr2  1  0.54548500  0.99749600  0.82470300  1
  Pr  Pr3  1  0.95451500  0.50250400  0.32470300  1
  Pr  Pr4  1  0.54548500  0.50250400  0.82470300  1
  Pr  Pr5  1  0.95451500  0.99749600  0.32470300  1
  Pr  Pr6  1  0.45451500  0.00250400  0.17529700  1
  Pr  Pr7  1  0.04548500  0.49749600  0.67529700  1
  Zr  Zr8  1  0.92186300  0.75000000  0.00923800  1
  Zr  Zr9  1  0.57813700  0.75000000  0.50923800  1
  Zr  Zr10  1  0.07813700  0.25000000  0.99076200  1
  Zr  Zr11  1  0.42186300  0.25000000  0.49076200  1
  Se  Se12  1  0.15207900  0.75000000  0.18702900  1
  Se  Se13  1  0.34792100  0.75000000  0.68702900  1
  Se  Se14  1  0.84792100  0.25000000  0.81297100  1
  Se  Se15  1  0.65207900  0.25000000  0.31297100  1
  Se  Se16  1  0.67074600  0.75000000  0.29151300  1
  Se  Se17  1  0.82925400  0.75000000  0.79151300  1
  Se  Se18  1  0.32925400  0.25000000  0.70848700  1
  Se  Se19  1  0.17074600  0.25000000  0.20848700  1
  Se  Se20  1  0.55500500  0.75000000  0.00434000  1
  Se  Se21  1  0.94499500  0.75000000  0.50434000  1
  Se  Se22  1  0.44499500  0.25000000  0.99566000  1
  Se  Se23  1  0.05500500  0.25000000  0.49566000  1
  Se  Se24  1  0.82833000  0.46312300  0.08061600  1
  Se  Se25  1  0.67167000  0.03687700  0.58061600  1
  Se  Se26  1  0.17167000  0.96312300  0.91938400  1
  Se  Se27  1  0.32833000  0.53687700  0.41938400  1
  Se  Se28  1  0.17167000  0.53687700  0.91938400  1
  Se  Se29  1  0.32833000  0.96312300  0.41938400  1
  Se  Se30  1  0.82833000  0.03687700  0.08061600  1
  Se  Se31  1  0.67167000  0.46312300  0.58061600  1
