# generated using pymatgen
data_KMnGa2P3(H2O7)2
_symmetry_space_group_name_H-M   'P 1'
_cell_length_a   8.56878999
_cell_length_b   8.56878999
_cell_length_c   8.98610772
_cell_angle_alpha   75.48925359
_cell_angle_beta   75.48925359
_cell_angle_gamma   73.19980443
_symmetry_Int_Tables_number   1
_chemical_formula_structural   KMnGa2P3(H2O7)2
_chemical_formula_sum   'K2 Mn2 Ga4 P6 H8 O28'
_cell_volume   600.08508914
_cell_formula_units_Z   2
loop_
 _symmetry_equiv_pos_site_id
 _symmetry_equiv_pos_as_xyz
  1  'x, y, z'
loop_
 _atom_site_type_symbol
 _atom_site_label
 _atom_site_symmetry_multiplicity
 _atom_site_fract_x
 _atom_site_fract_y
 _atom_site_fract_z
 _atom_site_occupancy
  K  K0  1  0.13901600  0.86098400  0.25000000  1
  K  K1  1  0.86098400  0.13901600  0.75000000  1
  Mn  Mn2  1  0.78141000  0.21859000  0.25000000  1
  Mn  Mn3  1  0.21859000  0.78141000  0.75000000  1
  Ga  Ga4  1  0.74462500  0.59642600  0.43186000  1
  Ga  Ga5  1  0.40357400  0.25537500  0.06814000  1
  Ga  Ga6  1  0.25537500  0.40357400  0.56814000  1
  Ga  Ga7  1  0.59642600  0.74462500  0.93186000  1
  P  P8  1  0.49624100  0.50375900  0.25000000  1
  P  P9  1  0.50375900  0.49624100  0.75000000  1
  P  P10  1  0.91551100  0.66377500  0.67924200  1
  P  P11  1  0.33622500  0.08448900  0.82075800  1
  P  P12  1  0.08448900  0.33622500  0.32075800  1
  P  P13  1  0.66377500  0.91551100  0.17924200  1
  H  H14  1  0.58134400  0.12310900  0.55350200  1
  H  H15  1  0.87689100  0.41865600  0.94649800  1
  H  H16  1  0.41865600  0.87689100  0.44649800  1
  H  H17  1  0.12310900  0.58134400  0.05350200  1
  H  H18  1  0.72725500  0.96984400  0.50661100  1
  H  H19  1  0.03015600  0.27274500  0.99338900  1
  H  H20  1  0.27274500  0.03015600  0.49338900  1
  H  H21  1  0.96984400  0.72725500  0.00661100  1
  O  O22  1  0.66135000  0.47698300  0.30606700  1
  O  O23  1  0.52301700  0.33865000  0.19393300  1
  O  O24  1  0.33865000  0.52301700  0.69393300  1
  O  O25  1  0.47698300  0.66135000  0.80606700  1
  O  O26  1  0.65794800  0.46334700  0.61782800  1
  O  O27  1  0.53665300  0.34205200  0.88217200  1
  O  O28  1  0.34205200  0.53665300  0.38217200  1
  O  O29  1  0.46334700  0.65794800  0.11782800  1
  O  O30  1  0.81730100  0.72798500  0.54286800  1
  O  O31  1  0.27201500  0.18269900  0.95713200  1
  O  O32  1  0.18269900  0.27201500  0.45713200  1
  O  O33  1  0.72798500  0.81730100  0.04286800  1
  O  O34  1  0.61494000  0.79742800  0.33951700  1
  O  O35  1  0.20257200  0.38506000  0.16048300  1
  O  O36  1  0.38506000  0.20257200  0.66048300  1
  O  O37  1  0.79742800  0.61494000  0.83951700  1
  O  O38  1  0.96068500  0.50671100  0.33730400  1
  O  O39  1  0.49328900  0.03931500  0.16269600  1
  O  O40  1  0.03931500  0.49328900  0.66269600  1
  O  O41  1  0.50671100  0.96068500  0.83730400  1
  O  O42  1  0.00749700  0.19892000  0.31551800  1
  O  O43  1  0.80108000  0.99250300  0.18448200  1
  O  O44  1  0.99250300  0.80108000  0.68448200  1
  O  O45  1  0.19892000  0.00749700  0.81551800  1
  O  O46  1  0.69744800  0.09183000  0.49549100  1
  O  O47  1  0.90817000  0.30255200  0.00450900  1
  O  O48  1  0.30255200  0.90817000  0.50450900  1
  O  O49  1  0.09183000  0.69744800  0.99549100  1
