# generated using pymatgen
data_YbZnAu
_symmetry_space_group_name_H-M   'P 1'
_cell_length_a   4.35574200
_cell_length_b   7.14007500
_cell_length_c   8.16301100
_cell_angle_alpha   90.00000000
_cell_angle_beta   90.00000000
_cell_angle_gamma   90.00000000
_symmetry_Int_Tables_number   1
_chemical_formula_structural   YbZnAu
_chemical_formula_sum   'Yb4 Zn4 Au4'
_cell_volume   253.87229149
_cell_formula_units_Z   4
loop_
 _symmetry_equiv_pos_site_id
 _symmetry_equiv_pos_as_xyz
  1  'x, y, z'
loop_
 _atom_site_type_symbol
 _atom_site_label
 _atom_site_symmetry_multiplicity
 _atom_site_fract_x
 _atom_site_fract_y
 _atom_site_fract_z
 _atom_site_occupancy
  Yb  Yb0  1  0.75000000  0.47248600  0.80890500  1
  Yb  Yb1  1  0.25000000  0.02751400  0.30890500  1
  Yb  Yb2  1  0.75000000  0.97248600  0.69109500  1
  Yb  Yb3  1  0.25000000  0.52751400  0.19109500  1
  Zn  Zn4  1  0.25000000  0.65560200  0.56748400  1
  Zn  Zn5  1  0.25000000  0.15560200  0.93251600  1
  Zn  Zn6  1  0.75000000  0.34439800  0.43251600  1
  Zn  Zn7  1  0.75000000  0.84439800  0.06748400  1
  Au  Au8  1  0.25000000  0.76762200  0.88532100  1
  Au  Au9  1  0.25000000  0.26762200  0.61467900  1
  Au  Au10  1  0.75000000  0.73237800  0.38532100  1
  Au  Au11  1  0.75000000  0.23237800  0.11467900  1
