# generated using pymatgen
data_La3Pb3I13O40
_symmetry_space_group_name_H-M   'P 1'
_cell_length_a   13.79900671
_cell_length_b   13.79900671
_cell_length_c   13.79900696
_cell_angle_alpha   108.95071808
_cell_angle_beta   108.95071808
_cell_angle_gamma   108.95071394
_symmetry_Int_Tables_number   1
_chemical_formula_structural   La3Pb3I13O40
_chemical_formula_sum   'La6 Pb6 I26 O80'
_cell_volume   2060.71107194
_cell_formula_units_Z   2
loop_
 _symmetry_equiv_pos_site_id
 _symmetry_equiv_pos_as_xyz
  1  'x, y, z'
loop_
 _atom_site_type_symbol
 _atom_site_label
 _atom_site_symmetry_multiplicity
 _atom_site_fract_x
 _atom_site_fract_y
 _atom_site_fract_z
 _atom_site_occupancy
  La  La0  1  0.60192200  0.47493200  0.24037000  1
  La  La1  1  0.24037000  0.60192200  0.47493200  1
  La  La2  1  0.47493200  0.24037000  0.60192200  1
  La  La3  1  0.74037000  0.97493200  0.10192200  1
  La  La4  1  0.10192200  0.74037000  0.97493200  1
  La  La5  1  0.97493200  0.10192200  0.74037000  1
  Pb  Pb6  1  0.81049300  0.67721800  0.61721100  1
  Pb  Pb7  1  0.61721100  0.81049300  0.67721800  1
  Pb  Pb8  1  0.67721800  0.61721100  0.81049300  1
  Pb  Pb9  1  0.11721100  0.17721800  0.31049300  1
  Pb  Pb10  1  0.31049300  0.11721100  0.17721800  1
  Pb  Pb11  1  0.17721800  0.31049300  0.11721100  1
  I  I12  1  0.70213400  0.35899400  0.46537100  1
  I  I13  1  0.46537100  0.70213400  0.35899400  1
  I  I14  1  0.35899400  0.46537100  0.70213400  1
  I  I15  1  0.96537100  0.85899400  0.20213400  1
  I  I16  1  0.20213400  0.96537100  0.85899400  1
  I  I17  1  0.85899400  0.20213400  0.96537100  1
  I  I18  1  0.58820700  0.64129500  0.05010000  1
  I  I19  1  0.05010000  0.58820700  0.64129500  1
  I  I20  1  0.64129500  0.05010000  0.58820700  1
  I  I21  1  0.55010000  0.14129500  0.08820700  1
  I  I22  1  0.08820700  0.55010000  0.14129500  1
  I  I23  1  0.14129500  0.08820700  0.55010000  1
  I  I24  1  0.91836400  0.91836400  0.91836400  1
  I  I25  1  0.41836400  0.41836400  0.41836400  1
  I  I26  1  0.94839600  0.63816300  0.34433600  1
  I  I27  1  0.34433600  0.94839600  0.63816300  1
  I  I28  1  0.63816300  0.34433600  0.94839600  1
  I  I29  1  0.84433600  0.13816300  0.44839600  1
  I  I30  1  0.44839600  0.84433600  0.13816300  1
  I  I31  1  0.13816300  0.44839600  0.84433600  1
  I  I32  1  0.80174000  0.82607300  0.42769200  1
  I  I33  1  0.42769200  0.80174000  0.82607300  1
  I  I34  1  0.82607300  0.42769200  0.80174000  1
  I  I35  1  0.92769200  0.32607300  0.30174000  1
  I  I36  1  0.30174000  0.92769200  0.32607300  1
  I  I37  1  0.32607300  0.30174000  0.92769200  1
  O  O38  1  0.65055200  0.65055200  0.65055200  1
  O  O39  1  0.15055200  0.15055200  0.15055200  1
  O  O40  1  0.80133000  0.51319800  0.24838100  1
  O  O41  1  0.24838100  0.80133000  0.51319800  1
  O  O42  1  0.51319800  0.24838100  0.80133000  1
  O  O43  1  0.74838100  0.01319800  0.30133000  1
  O  O44  1  0.30133000  0.74838100  0.01319800  1
  O  O45  1  0.01319800  0.30133000  0.74838100  1
  O  O46  1  0.82330900  0.46326700  0.61493500  1
  O  O47  1  0.61493500  0.82330900  0.46326700  1
  O  O48  1  0.46326700  0.61493500  0.82330900  1
  O  O49  1  0.11493500  0.96326700  0.32330900  1
  O  O50  1  0.32330900  0.11493500  0.96326700  1
  O  O51  1  0.96326700  0.32330900  0.11493500  1
  O  O52  1  0.92282900  0.85099300  0.39399800  1
  O  O53  1  0.39399800  0.92282900  0.85099300  1
  O  O54  1  0.85099300  0.39399800  0.92282900  1
  O  O55  1  0.89399800  0.35099300  0.42282900  1
  O  O56  1  0.42282900  0.89399800  0.35099300  1
  O  O57  1  0.35099300  0.42282900  0.89399800  1
  O  O58  1  0.92944700  0.78635300  0.85136800  1
  O  O59  1  0.85136800  0.92944700  0.78635300  1
  O  O60  1  0.78635300  0.85136800  0.92944700  1
  O  O61  1  0.35136800  0.28635300  0.42944700  1
  O  O62  1  0.42944700  0.35136800  0.28635300  1
  O  O63  1  0.28635300  0.42944700  0.35136800  1
  O  O64  1  0.02846100  0.55423000  0.35390200  1
  O  O65  1  0.35390200  0.02846100  0.55423000  1
  O  O66  1  0.55423000  0.35390200  0.02846100  1
  O  O67  1  0.85390200  0.05423000  0.52846100  1
  O  O68  1  0.52846100  0.85390200  0.05423000  1
  O  O69  1  0.05423000  0.52846100  0.85390200  1
  O  O70  1  0.62930000  0.54676500  0.96555400  1
  O  O71  1  0.96555400  0.62930000  0.54676500  1
  O  O72  1  0.54676500  0.96555400  0.62930000  1
  O  O73  1  0.46555400  0.04676500  0.12930000  1
  O  O74  1  0.12930000  0.46555400  0.04676500  1
  O  O75  1  0.04676500  0.12930000  0.46555400  1
  O  O76  1  0.71061500  0.78112500  0.09445400  1
  O  O77  1  0.09445400  0.71061500  0.78112500  1
  O  O78  1  0.78112500  0.09445400  0.71061500  1
  O  O79  1  0.59445400  0.28112500  0.21061500  1
  O  O80  1  0.21061500  0.59445400  0.28112500  1
  O  O81  1  0.28112500  0.21061500  0.59445400  1
  O  O82  1  0.68648200  0.47486500  0.43205100  1
  O  O83  1  0.43205100  0.68648200  0.47486500  1
  O  O84  1  0.47486500  0.43205100  0.68648200  1
  O  O85  1  0.93205100  0.97486500  0.18648200  1
  O  O86  1  0.18648200  0.93205100  0.97486500  1
  O  O87  1  0.97486500  0.18648200  0.93205100  1
  O  O88  1  0.58239700  0.31947400  0.49823600  1
  O  O89  1  0.49823600  0.58239700  0.31947400  1
  O  O90  1  0.31947400  0.49823600  0.58239700  1
  O  O91  1  0.99823600  0.81947400  0.08239700  1
  O  O92  1  0.08239700  0.99823600  0.81947400  1
  O  O93  1  0.81947400  0.08239700  0.99823600  1
  O  O94  1  0.97996900  0.67729900  0.23918500  1
  O  O95  1  0.23918500  0.97996900  0.67729900  1
  O  O96  1  0.67729900  0.23918500  0.97996900  1
  O  O97  1  0.73918500  0.17729900  0.47996900  1
  O  O98  1  0.47996900  0.73918500  0.17729900  1
  O  O99  1  0.17729900  0.47996900  0.73918500  1
  O  O100  1  0.64466700  0.63337500  0.18596800  1
  O  O101  1  0.18596800  0.64466700  0.63337500  1
  O  O102  1  0.63337500  0.18596800  0.64466700  1
  O  O103  1  0.68596800  0.13337500  0.14466700  1
  O  O104  1  0.14466700  0.68596800  0.13337500  1
  O  O105  1  0.13337500  0.14466700  0.68596800  1
  O  O106  1  0.76292000  0.67830800  0.41340300  1
  O  O107  1  0.41340300  0.76292000  0.67830800  1
  O  O108  1  0.67830800  0.41340300  0.76292000  1
  O  O109  1  0.91340300  0.17830800  0.26292000  1
  O  O110  1  0.26292000  0.91340300  0.17830800  1
  O  O111  1  0.17830800  0.26292000  0.91340300  1
  O  O112  1  0.88405900  0.89520100  0.58721600  1
  O  O113  1  0.58721600  0.88405900  0.89520100  1
  O  O114  1  0.89520100  0.58721600  0.88405900  1
  O  O115  1  0.08721600  0.39520100  0.38405900  1
  O  O116  1  0.38405900  0.08721600  0.39520100  1
  O  O117  1  0.39520100  0.38405900  0.08721600  1
