# generated using pymatgen
data_Y4CdPd
_symmetry_space_group_name_H-M   'P 1'
_cell_length_a   9.76294979
_cell_length_b   9.76294979
_cell_length_c   9.76294979
_cell_angle_alpha   60.00000000
_cell_angle_beta   60.00000000
_cell_angle_gamma   60.00000000
_symmetry_Int_Tables_number   1
_chemical_formula_structural   Y4CdPd
_chemical_formula_sum   'Y16 Cd4 Pd4'
_cell_volume   658.00344795
_cell_formula_units_Z   4
loop_
 _symmetry_equiv_pos_site_id
 _symmetry_equiv_pos_as_xyz
  1  'x, y, z'
loop_
 _atom_site_type_symbol
 _atom_site_label
 _atom_site_symmetry_multiplicity
 _atom_site_fract_x
 _atom_site_fract_y
 _atom_site_fract_z
 _atom_site_occupancy
  Y  Y0  1  0.35375600  0.35375600  0.35375600  1
  Y  Y1  1  0.35375600  0.35375600  0.93873200  1
  Y  Y2  1  0.35375600  0.93873200  0.35375600  1
  Y  Y3  1  0.93873200  0.35375600  0.35375600  1
  Y  Y4  1  0.81055900  0.18944100  0.18944100  1
  Y  Y5  1  0.18944100  0.81055900  0.81055900  1
  Y  Y6  1  0.18944100  0.81055900  0.18944100  1
  Y  Y7  1  0.81055900  0.18944100  0.81055900  1
  Y  Y8  1  0.18944100  0.18944100  0.81055900  1
  Y  Y9  1  0.81055900  0.81055900  0.18944100  1
  Y  Y10  1  0.93327400  0.56672600  0.56672600  1
  Y  Y11  1  0.56672600  0.93327400  0.93327400  1
  Y  Y12  1  0.56672600  0.93327400  0.56672600  1
  Y  Y13  1  0.93327400  0.56672600  0.93327400  1
  Y  Y14  1  0.56672600  0.56672600  0.93327400  1
  Y  Y15  1  0.93327400  0.93327400  0.56672600  1
  Cd  Cd16  1  0.58199900  0.58199900  0.58199900  1
  Cd  Cd17  1  0.58199900  0.58199900  0.25400400  1
  Cd  Cd18  1  0.58199900  0.25400400  0.58199900  1
  Cd  Cd19  1  0.25400400  0.58199900  0.58199900  1
  Pd  Pd20  1  0.14418700  0.14418700  0.14418700  1
  Pd  Pd21  1  0.14418700  0.14418700  0.56743800  1
  Pd  Pd22  1  0.14418700  0.56743800  0.14418700  1
  Pd  Pd23  1  0.56743800  0.14418700  0.14418700  1
