# generated using pymatgen
data_Y4Se3N2
_symmetry_space_group_name_H-M   'P 1'
_cell_length_a   6.97260132
_cell_length_b   6.97260132
_cell_length_c   10.28906673
_cell_angle_alpha   52.51607353
_cell_angle_beta   52.51607353
_cell_angle_gamma   32.86802827
_symmetry_Int_Tables_number   1
_chemical_formula_structural   Y4Se3N2
_chemical_formula_sum   'Y4 Se3 N2'
_cell_volume   209.83854226
_cell_formula_units_Z   1
loop_
 _symmetry_equiv_pos_site_id
 _symmetry_equiv_pos_as_xyz
  1  'x, y, z'
loop_
 _atom_site_type_symbol
 _atom_site_label
 _atom_site_symmetry_multiplicity
 _atom_site_fract_x
 _atom_site_fract_y
 _atom_site_fract_z
 _atom_site_occupancy
  Y  Y0  1  0.24095100  0.24095100  0.64143000  1
  Y  Y1  1  0.75904800  0.75904900  0.35857000  1
  Y  Y2  1  0.55801300  0.55801300  0.15241700  1
  Y  Y3  1  0.44198700  0.44198700  0.84758300  1
  Se  Se4  1  0.00000000  0.00000000  0.00000000  1
  Se  Se5  1  0.83089600  0.83089600  0.77507800  1
  Se  Se6  1  0.16910400  0.16910400  0.22492200  1
  N  N7  1  0.35294500  0.35294500  0.36281800  1
  N  N8  1  0.64705500  0.64705500  0.63718200  1
