# generated using pymatgen
data_Rb12Sn2As6O
_symmetry_space_group_name_H-M   'P 1'
_cell_length_a   11.98022148
_cell_length_b   11.98022148
_cell_length_c   6.12373900
_cell_angle_alpha   90.00000000
_cell_angle_beta   90.00000000
_cell_angle_gamma   119.99999715
_symmetry_Int_Tables_number   1
_chemical_formula_structural   Rb12Sn2As6O
_chemical_formula_sum   'Rb12 Sn2 As6 O1'
_cell_volume   761.16184618
_cell_formula_units_Z   1
loop_
 _symmetry_equiv_pos_site_id
 _symmetry_equiv_pos_as_xyz
  1  'x, y, z'
loop_
 _atom_site_type_symbol
 _atom_site_label
 _atom_site_symmetry_multiplicity
 _atom_site_fract_x
 _atom_site_fract_y
 _atom_site_fract_z
 _atom_site_occupancy
  Rb  Rb0  1  0.11596400  0.88403600  0.27117400  1
  Rb  Rb1  1  0.11596400  0.23192800  0.27117400  1
  Rb  Rb2  1  0.76807200  0.88403600  0.27117400  1
  Rb  Rb3  1  0.88403600  0.11596400  0.72882600  1
  Rb  Rb4  1  0.88403600  0.76807200  0.72882600  1
  Rb  Rb5  1  0.23192800  0.11596400  0.72882600  1
  Rb  Rb6  1  0.45667700  0.54332300  0.24939800  1
  Rb  Rb7  1  0.45667700  0.91335400  0.24939800  1
  Rb  Rb8  1  0.08664600  0.54332300  0.24939800  1
  Rb  Rb9  1  0.54332300  0.45667700  0.75060200  1
  Rb  Rb10  1  0.54332300  0.08664600  0.75060200  1
  Rb  Rb11  1  0.91335400  0.45667700  0.75060200  1
  Sn  Sn12  1  0.33333300  0.66666700  0.75115500  1
  Sn  Sn13  1  0.66666700  0.33333300  0.24884500  1
  As  As14  1  0.79058600  0.20941400  0.24802800  1
  As  As15  1  0.79058600  0.58117200  0.24802800  1
  As  As16  1  0.41882800  0.20941400  0.24802800  1
  As  As17  1  0.20941400  0.79058600  0.75197200  1
  As  As18  1  0.20941400  0.41882800  0.75197200  1
  As  As19  1  0.58117200  0.79058600  0.75197200  1
  O  O20  1  0.00000000  0.00000000  0.50000000  1
