# generated using pymatgen
data_Ba4U8As2O33
_symmetry_space_group_name_H-M   'P 1'
_cell_length_a   7.11158900
_cell_length_b   14.35294200
_cell_length_c   15.69411200
_cell_angle_alpha   90.00000000
_cell_angle_beta   90.00000000
_cell_angle_gamma   90.00000000
_symmetry_Int_Tables_number   1
_chemical_formula_structural   Ba4U8As2O33
_chemical_formula_sum   'Ba8 U16 As4 O66'
_cell_volume   1601.93292253
_cell_formula_units_Z   2
loop_
 _symmetry_equiv_pos_site_id
 _symmetry_equiv_pos_as_xyz
  1  'x, y, z'
loop_
 _atom_site_type_symbol
 _atom_site_label
 _atom_site_symmetry_multiplicity
 _atom_site_fract_x
 _atom_site_fract_y
 _atom_site_fract_z
 _atom_site_occupancy
  Ba  Ba0  1  0.29838800  0.74934800  0.74969100  1
  Ba  Ba1  1  0.70161200  0.24934800  0.75030900  1
  Ba  Ba2  1  0.70161200  0.24934800  0.24969100  1
  Ba  Ba3  1  0.29838800  0.74934800  0.25030900  1
  Ba  Ba4  1  0.42303300  0.24190300  0.00000000  1
  Ba  Ba5  1  0.57473000  0.76361800  0.00000000  1
  Ba  Ba6  1  0.42527000  0.26361800  0.50000000  1
  Ba  Ba7  1  0.57696700  0.74190300  0.50000000  1
  U  U8  1  0.50098200  0.99640300  0.86150400  1
  U  U9  1  0.49901800  0.49640300  0.63849600  1
  U  U10  1  0.50098200  0.99640300  0.13849600  1
  U  U11  1  0.49901800  0.49640300  0.36150400  1
  U  U12  1  0.99885600  0.00000300  0.00000000  1
  U  U13  1  0.00114400  0.50000300  0.50000000  1
  U  U14  1  0.49987500  0.00038400  0.62507900  1
  U  U15  1  0.50012500  0.50038500  0.87492100  1
  U  U16  1  0.49987500  0.00038400  0.37492100  1
  U  U17  1  0.50012500  0.50038500  0.12507900  1
  U  U18  1  0.00013700  0.00007300  0.50000000  1
  U  U19  1  0.99986300  0.50007300  0.00000000  1
  U  U20  1  0.00025800  0.00019500  0.76827000  1
  U  U21  1  0.99974200  0.50019500  0.73173000  1
  U  U22  1  0.00025800  0.00019500  0.23173000  1
  U  U23  1  0.99974200  0.50019500  0.26827000  1
  As  As24  1  0.91269000  0.24805300  0.50000000  1
  As  As25  1  0.08723500  0.75159200  0.50000000  1
  As  As26  1  0.91276500  0.25159200  0.00000000  1
  As  As27  1  0.08731000  0.74805300  0.00000000  1
  O  O28  1  0.46445400  0.12591400  0.86199600  1
  O  O29  1  0.53870400  0.86762000  0.85290500  1
  O  O30  1  0.46129600  0.36762000  0.64709500  1
  O  O31  1  0.53554600  0.62591400  0.63800400  1
  O  O32  1  0.53870400  0.86762000  0.14709500  1
  O  O33  1  0.46445400  0.12591400  0.13800400  1
  O  O34  1  0.53554600  0.62591400  0.36199600  1
  O  O35  1  0.46129600  0.36762000  0.35290500  1
  O  O36  1  0.17832700  0.98514400  0.90077500  1
  O  O37  1  0.82162100  0.01618100  0.89994700  1
  O  O38  1  0.17837900  0.51618100  0.60005300  1
  O  O39  1  0.82167300  0.48514400  0.59922500  1
  O  O40  1  0.82162100  0.01618100  0.10005300  1
  O  O41  1  0.17832700  0.98514400  0.09922500  1
  O  O42  1  0.82167300  0.48514400  0.40077500  1
  O  O43  1  0.17837900  0.51618100  0.39994700  1
  O  O44  1  0.77394600  0.24681100  0.58732700  1
  O  O45  1  0.22636000  0.75319300  0.58717900  1
  O  O46  1  0.77364000  0.25319300  0.91282100  1
  O  O47  1  0.22605400  0.74681100  0.91267300  1
  O  O48  1  0.22636000  0.75319300  0.41282100  1
  O  O49  1  0.77394600  0.24681100  0.41267300  1
  O  O50  1  0.22605400  0.74681100  0.08732700  1
  O  O51  1  0.77364000  0.25319300  0.08717900  1
  O  O52  1  0.44535300  0.12655600  0.62410800  1
  O  O53  1  0.55458200  0.87378000  0.62430000  1
  O  O54  1  0.44541800  0.37378000  0.87570000  1
  O  O55  1  0.55464700  0.62655600  0.87589200  1
  O  O56  1  0.55458200  0.87378000  0.37570000  1
  O  O57  1  0.44535300  0.12655600  0.37589200  1
  O  O58  1  0.55464700  0.62655600  0.12410800  1
  O  O59  1  0.44541800  0.37378000  0.12430000  1
  O  O60  1  0.06987100  0.15464200  0.50000000  1
  O  O61  1  0.93019900  0.84514100  0.50000000  1
  O  O62  1  0.06980100  0.34514100  0.00000000  1
  O  O63  1  0.93012900  0.65464200  0.00000000  1
  O  O64  1  0.06295700  0.34549600  0.50000000  1
  O  O65  1  0.93636800  0.65447400  0.50000000  1
  O  O66  1  0.06363200  0.15447400  0.00000000  1
  O  O67  1  0.93704300  0.84549600  0.00000000  1
  O  O68  1  0.31709600  0.97770800  0.73768500  1
  O  O69  1  0.68259000  0.02205800  0.73754000  1
  O  O70  1  0.31741000  0.52205800  0.76246000  1
  O  O71  1  0.68290400  0.47770800  0.76231500  1
  O  O72  1  0.68259000  0.02205800  0.26246000  1
  O  O73  1  0.31709600  0.97770800  0.26231500  1
  O  O74  1  0.68290400  0.47770800  0.23768500  1
  O  O75  1  0.31741000  0.52205800  0.23754000  1
  O  O76  1  0.02133800  0.12744200  0.76796200  1
  O  O77  1  0.97910700  0.87283400  0.76816900  1
  O  O78  1  0.02089300  0.37283400  0.73183100  1
  O  O79  1  0.97866200  0.62744200  0.73203800  1
  O  O80  1  0.97910700  0.87283400  0.23183100  1
  O  O81  1  0.02133800  0.12744200  0.23203800  1
  O  O82  1  0.97866200  0.62744200  0.26796200  1
  O  O83  1  0.02089300  0.37283400  0.26816900  1
  O  O84  1  0.30295500  0.98267900  0.50000000  1
  O  O85  1  0.69724700  0.01714800  0.50000000  1
  O  O86  1  0.30275300  0.51714800  0.00000000  1
  O  O87  1  0.69704500  0.48267900  0.00000000  1
  O  O88  1  0.00006600  0.00002200  0.62179700  1
  O  O89  1  0.99993400  0.50002200  0.87820300  1
  O  O90  1  0.00006600  0.00002200  0.37820300  1
  O  O91  1  0.99993400  0.50002200  0.12179700  1
  O  O92  1  0.50523800  0.98229100  0.00000000  1
  O  O93  1  0.49476200  0.48229100  0.50000000  1
