# generated using pymatgen
data_Ba2Yb(CuO2)4
_symmetry_space_group_name_H-M   'P 1'
_cell_length_a   14.07800749
_cell_length_b   14.07800749
_cell_length_c   3.86422700
_cell_angle_alpha   90.00000000
_cell_angle_beta   90.00000000
_cell_angle_gamma   164.35415348
_symmetry_Int_Tables_number   1
_chemical_formula_structural   Ba2Yb(CuO2)4
_chemical_formula_sum   'Ba2 Yb1 Cu4 O8'
_cell_volume   206.54303388
_cell_formula_units_Z   1
loop_
 _symmetry_equiv_pos_site_id
 _symmetry_equiv_pos_as_xyz
  1  'x, y, z'
loop_
 _atom_site_type_symbol
 _atom_site_label
 _atom_site_symmetry_multiplicity
 _atom_site_fract_x
 _atom_site_fract_y
 _atom_site_fract_z
 _atom_site_occupancy
  Ba  Ba0  1  0.36958300  0.63041700  0.50000000  1
  Ba  Ba1  1  0.63041700  0.36958300  0.50000000  1
  Yb  Yb2  1  0.50000000  0.50000000  0.50000000  1
  Cu  Cu3  1  0.94277800  0.05722200  0.00000000  1
  Cu  Cu4  1  0.05722200  0.94277800  0.00000000  1
  Cu  Cu5  1  0.78780500  0.21219500  0.00000000  1
  Cu  Cu6  1  0.21219500  0.78780500  0.00000000  1
  O  O7  1  0.27994700  0.72005300  0.00000000  1
  O  O8  1  0.72005300  0.27994700  0.00000000  1
  O  O9  1  0.44705300  0.55294700  0.00000000  1
  O  O10  1  0.55294700  0.44705300  0.00000000  1
  O  O11  1  0.94645300  0.05354700  0.50000000  1
  O  O12  1  0.05354700  0.94645300  0.50000000  1
  O  O13  1  0.85326500  0.14673500  0.00000000  1
  O  O14  1  0.14673500  0.85326500  0.00000000  1
