# generated using pymatgen
data_NaLuSiO4
_symmetry_space_group_name_H-M   'P 1'
_cell_length_a   5.15602900
_cell_length_b   6.33265200
_cell_length_c   11.05159900
_cell_angle_alpha   90.00000000
_cell_angle_beta   90.00000000
_cell_angle_gamma   90.00000000
_symmetry_Int_Tables_number   1
_chemical_formula_structural   NaLuSiO4
_chemical_formula_sum   'Na4 Lu4 Si4 O16'
_cell_volume   360.84948730
_cell_formula_units_Z   4
loop_
 _symmetry_equiv_pos_site_id
 _symmetry_equiv_pos_as_xyz
  1  'x, y, z'
loop_
 _atom_site_type_symbol
 _atom_site_label
 _atom_site_symmetry_multiplicity
 _atom_site_fract_x
 _atom_site_fract_y
 _atom_site_fract_z
 _atom_site_occupancy
  Na  Na0  1  0.50000000  0.50000000  0.50000000  1
  Na  Na1  1  0.00000000  0.50000000  0.00000000  1
  Na  Na2  1  0.50000000  0.00000000  0.50000000  1
  Na  Na3  1  0.00000000  0.00000000  0.00000000  1
  Lu  Lu4  1  0.00627600  0.75000000  0.72053800  1
  Lu  Lu5  1  0.99372400  0.25000000  0.27946200  1
  Lu  Lu6  1  0.50627600  0.25000000  0.77946200  1
  Lu  Lu7  1  0.49372400  0.75000000  0.22053800  1
  Si  Si8  1  0.56554400  0.75000000  0.89893800  1
  Si  Si9  1  0.43445600  0.25000000  0.10106200  1
  Si  Si10  1  0.06554400  0.25000000  0.60106200  1
  Si  Si11  1  0.93445600  0.75000000  0.39893800  1
  O  O12  1  0.71206200  0.54907400  0.82676200  1
  O  O13  1  0.28793800  0.45092600  0.17323800  1
  O  O14  1  0.21206200  0.45092600  0.67323800  1
  O  O15  1  0.28793800  0.04907400  0.17323800  1
  O  O16  1  0.78793800  0.54907400  0.32676200  1
  O  O17  1  0.71206200  0.95092600  0.82676200  1
  O  O18  1  0.78793800  0.95092600  0.32676200  1
  O  O19  1  0.21206200  0.04907400  0.67323800  1
  O  O20  1  0.83890900  0.75000000  0.54035800  1
  O  O21  1  0.16109100  0.25000000  0.45964200  1
  O  O22  1  0.33890900  0.25000000  0.95964200  1
  O  O23  1  0.66109100  0.75000000  0.04035800  1
  O  O24  1  0.25195600  0.75000000  0.88323500  1
  O  O25  1  0.74804400  0.25000000  0.11676500  1
  O  O26  1  0.75195600  0.25000000  0.61676500  1
  O  O27  1  0.24804400  0.75000000  0.38323500  1
