# generated using pymatgen
data_Y4Zn5Ge6
_symmetry_space_group_name_H-M   'P 1'
_cell_length_a   9.59955652
_cell_length_b   9.59955652
_cell_length_c   15.34892800
_cell_angle_alpha   90.00000000
_cell_angle_beta   90.00000000
_cell_angle_gamma   154.46434057
_symmetry_Int_Tables_number   1
_chemical_formula_structural   Y4Zn5Ge6
_chemical_formula_sum   'Y8 Zn10 Ge12'
_cell_volume   609.72074082
_cell_formula_units_Z   2
loop_
 _symmetry_equiv_pos_site_id
 _symmetry_equiv_pos_as_xyz
  1  'x, y, z'
loop_
 _atom_site_type_symbol
 _atom_site_label
 _atom_site_symmetry_multiplicity
 _atom_site_fract_x
 _atom_site_fract_y
 _atom_site_fract_z
 _atom_site_occupancy
  Y  Y0  1  0.01833500  0.98166500  0.76299000  1
  Y  Y1  1  0.98166500  0.01833500  0.26299000  1
  Y  Y2  1  0.17524600  0.82475400  0.31790100  1
  Y  Y3  1  0.82475400  0.17524600  0.81790100  1
  Y  Y4  1  0.16777400  0.83222600  0.95932500  1
  Y  Y5  1  0.83222600  0.16777400  0.45932500  1
  Y  Y6  1  0.03292100  0.96707900  0.49967300  1
  Y  Y7  1  0.96707900  0.03292100  0.99967300  1
  Zn  Zn8  1  0.34484400  0.65515600  0.98966000  1
  Zn  Zn9  1  0.65515600  0.34484400  0.48966000  1
  Zn  Zn10  1  0.30054400  0.69945600  0.63837800  1
  Zn  Zn11  1  0.69945600  0.30054400  0.13837800  1
  Zn  Zn12  1  0.64988800  0.35011200  0.78184300  1
  Zn  Zn13  1  0.35011200  0.64988800  0.28184300  1
  Zn  Zn14  1  0.15167800  0.84832200  0.63585800  1
  Zn  Zn15  1  0.84832200  0.15167800  0.13585800  1
  Zn  Zn16  1  0.43444200  0.56555800  0.57876000  1
  Zn  Zn17  1  0.56555800  0.43444200  0.07876000  1
  Ge  Ge18  1  0.22766100  0.77233900  0.49807900  1
  Ge  Ge19  1  0.77233900  0.22766100  0.99807900  1
  Ge  Ge20  1  0.43081600  0.56918400  0.85648600  1
  Ge  Ge21  1  0.56918400  0.43081600  0.35648600  1
  Ge  Ge22  1  0.22246500  0.77753500  0.77644500  1
  Ge  Ge23  1  0.77753500  0.22246500  0.27644500  1
  Ge  Ge24  1  0.55989900  0.44010100  0.90852700  1
  Ge  Ge25  1  0.44010100  0.55989900  0.40852700  1
  Ge  Ge26  1  0.56746600  0.43253400  0.63345000  1
  Ge  Ge27  1  0.43253400  0.56746600  0.13345000  1
  Ge  Ge28  1  0.11339700  0.88660300  0.14538600  1
  Ge  Ge29  1  0.88660300  0.11339700  0.64538600  1
