# generated using pymatgen
data_B10H11C2
_symmetry_space_group_name_H-M   'P 1'
_cell_length_a   7.53056944
_cell_length_b   10.10564600
_cell_length_c   12.85964854
_cell_angle_alpha   90.00000000
_cell_angle_beta   90.92986900
_cell_angle_gamma   90.00000000
_symmetry_Int_Tables_number   1
_chemical_formula_structural   B10H11C2
_chemical_formula_sum   'B40 H44 C8'
_cell_volume   978.50669336
_cell_formula_units_Z   4
loop_
 _symmetry_equiv_pos_site_id
 _symmetry_equiv_pos_as_xyz
  1  'x, y, z'
loop_
 _atom_site_type_symbol
 _atom_site_label
 _atom_site_symmetry_multiplicity
 _atom_site_fract_x
 _atom_site_fract_y
 _atom_site_fract_z
 _atom_site_occupancy
  B  B0  1  0.52063400  0.21672000  0.72077300  1
  B  B1  1  0.02063400  0.28328000  0.22077300  1
  B  B2  1  0.47936600  0.78328000  0.27922700  1
  B  B3  1  0.97936600  0.71672000  0.77922700  1
  B  B4  1  0.31440700  0.28018700  0.67327200  1
  B  B5  1  0.81440700  0.21981300  0.17327200  1
  B  B6  1  0.68559300  0.71981300  0.32672800  1
  B  B7  1  0.18559300  0.78018700  0.82672800  1
  B  B8  1  0.45889500  0.38236200  0.74881500  1
  B  B9  1  0.95889500  0.11763800  0.24881500  1
  B  B10  1  0.54110500  0.61763800  0.25118500  1
  B  B11  1  0.04110500  0.88236200  0.75118500  1
  B  B12  1  0.56399100  0.28402900  0.50555400  1
  B  B13  1  0.06399100  0.21597100  0.00555400  1
  B  B14  1  0.43600900  0.71597100  0.49444600  1
  B  B15  1  0.93600900  0.78402900  0.99444600  1
  B  B16  1  0.34127100  0.32181200  0.54012000  1
  B  B17  1  0.84127100  0.17818800  0.04012000  1
  B  B18  1  0.65872900  0.67818800  0.45988000  1
  B  B19  1  0.15872900  0.82181200  0.95988000  1
  B  B20  1  0.67481400  0.21936700  0.61744400  1
  B  B21  1  0.17481400  0.28063300  0.11744400  1
  B  B22  1  0.32518600  0.78063300  0.38255600  1
  B  B23  1  0.82518600  0.71936700  0.88255600  1
  B  B24  1  0.44791100  0.17909200  0.59203300  1
  B  B25  1  0.94791100  0.32090800  0.09203300  1
  B  B26  1  0.55208900  0.82090800  0.40796700  1
  B  B27  1  0.05208900  0.67909200  0.90796700  1
  B  B28  1  0.68022600  0.34494400  0.71390600  1
  B  B29  1  0.18022600  0.15505600  0.21390600  1
  B  B30  1  0.31977400  0.65505600  0.28609400  1
  B  B31  1  0.81977400  0.84494400  0.78609400  1
  B  B32  1  0.70853100  0.38544600  0.58149400  1
  B  B33  1  0.20853100  0.11455400  0.08149400  1
  B  B34  1  0.29146900  0.61455400  0.41850600  1
  B  B35  1  0.79146900  0.88544600  0.91850600  1
  B  B36  1  0.34679100  0.44676700  0.63778800  1
  B  B37  1  0.84679100  0.05323300  0.13778800  1
  B  B38  1  0.65320900  0.55323300  0.36221200  1
  B  B39  1  0.15320900  0.94676700  0.86221200  1
  H  H40  1  0.40291700  0.07114300  0.56545400  1
  H  H41  1  0.90291700  0.42885700  0.06545400  1
  H  H42  1  0.59708300  0.92885700  0.43454600  1
  H  H43  1  0.09708300  0.57114300  0.93454600  1
  H  H44  1  0.42829200  0.43161100  0.83059400  1
  H  H45  1  0.92829200  0.06838900  0.33059400  1
  H  H46  1  0.57170800  0.56838900  0.16940600  1
  H  H47  1  0.07170800  0.93161100  0.66940600  1
  H  H48  1  0.60303500  0.26247800  0.41787400  1
  H  H49  1  0.10303500  0.23752200  0.91787400  1
  H  H50  1  0.39696500  0.73752200  0.58212600  1
  H  H51  1  0.89696500  0.76247800  0.08212600  1
  H  H52  1  0.60994000  0.57524500  0.67591300  1
  H  H53  1  0.10994000  0.92475500  0.17591300  1
  H  H54  1  0.39006000  0.42475500  0.32408700  1
  H  H55  1  0.89006000  0.07524500  0.82408700  1
  H  H56  1  0.79451400  0.14310200  0.60945400  1
  H  H57  1  0.29451400  0.35689800  0.10945400  1
  H  H58  1  0.20548600  0.85689800  0.39054600  1
  H  H59  1  0.70548600  0.64310200  0.89054600  1
  H  H60  1  0.80075100  0.36879900  0.77152800  1
  H  H61  1  0.30075100  0.13120100  0.27152800  1
  H  H62  1  0.19924900  0.63120100  0.22847200  1
  H  H63  1  0.69924900  0.86879900  0.72847200  1
  H  H64  1  0.83752300  0.43850800  0.55082600  1
  H  H65  1  0.33752300  0.06149200  0.05082600  1
  H  H66  1  0.16247700  0.56149200  0.44917400  1
  H  H67  1  0.66247700  0.93850800  0.94917400  1
  H  H68  1  0.17377700  0.24665000  0.70520600  1
  H  H69  1  0.67377700  0.25335000  0.20520600  1
  H  H70  1  0.82622300  0.75335000  0.29479400  1
  H  H71  1  0.32622300  0.74665000  0.79479400  1
  H  H72  1  0.52931900  0.13603900  0.78820200  1
  H  H73  1  0.02931900  0.36396100  0.28820200  1
  H  H74  1  0.47068100  0.86396100  0.21179800  1
  H  H75  1  0.97068100  0.63603900  0.71179800  1
  H  H76  1  0.24874800  0.53807700  0.64124600  1
  H  H77  1  0.74874800  0.96192300  0.14124600  1
  H  H78  1  0.75125200  0.46192300  0.35875400  1
  H  H79  1  0.25125200  0.03807700  0.85875400  1
  H  H80  1  0.22604500  0.32519100  0.47576300  1
  H  H81  1  0.72604500  0.17480900  0.97576300  1
  H  H82  1  0.77395500  0.67480900  0.52423700  1
  H  H83  1  0.27395500  0.82519100  0.02423700  1
  C  C84  1  0.50185800  0.44230800  0.53889000  1
  C  C85  1  0.00185800  0.05769200  0.03889000  1
  C  C86  1  0.49814200  0.55769200  0.46111000  1
  C  C87  1  0.99814200  0.94230800  0.96111000  1
  C  C88  1  0.56931500  0.47416300  0.65971100  1
  C  C89  1  0.06931500  0.02583700  0.15971100  1
  C  C90  1  0.43068500  0.52583700  0.34028900  1
  C  C91  1  0.93068500  0.97416300  0.84028900  1
