# generated using pymatgen
data_K2ScSn(AsO4)3
_symmetry_space_group_name_H-M   'P 1'
_cell_length_a   10.57720700
_cell_length_b   10.57720700
_cell_length_c   10.57720700
_cell_angle_alpha   90.00000000
_cell_angle_beta   90.00000000
_cell_angle_gamma   90.00000000
_symmetry_Int_Tables_number   1
_chemical_formula_structural   K2ScSn(AsO4)3
_chemical_formula_sum   'K8 Sc4 Sn4 As12 O48'
_cell_volume   1183.34944448
_cell_formula_units_Z   4
loop_
 _symmetry_equiv_pos_site_id
 _symmetry_equiv_pos_as_xyz
  1  'x, y, z'
loop_
 _atom_site_type_symbol
 _atom_site_label
 _atom_site_symmetry_multiplicity
 _atom_site_fract_x
 _atom_site_fract_y
 _atom_site_fract_z
 _atom_site_occupancy
  K  K0  1  0.81855900  0.81855900  0.81855900  1
  K  K1  1  0.68144100  0.18144100  0.31855900  1
  K  K2  1  0.18144100  0.31855900  0.68144100  1
  K  K3  1  0.31855900  0.68144100  0.18144100  1
  K  K4  1  0.04592400  0.04592400  0.04592400  1
  K  K5  1  0.45407600  0.95407600  0.54592400  1
  K  K6  1  0.95407600  0.54592400  0.45407600  1
  K  K7  1  0.54592400  0.45407600  0.95407600  1
  Sc  Sc8  1  0.61061000  0.61061000  0.61061000  1
  Sc  Sc9  1  0.88939000  0.38939000  0.11061000  1
  Sc  Sc10  1  0.38939000  0.11061000  0.88939000  1
  Sc  Sc11  1  0.11061000  0.88939000  0.38939000  1
  Sn  Sn12  1  0.33736100  0.33736100  0.33736100  1
  Sn  Sn13  1  0.16263900  0.66263900  0.83736100  1
  Sn  Sn14  1  0.66263900  0.83736100  0.16263900  1
  Sn  Sn15  1  0.83736100  0.16263900  0.66263900  1
  As  As16  1  0.02588700  0.20588200  0.37895400  1
  As  As17  1  0.47411300  0.79411800  0.87895400  1
  As  As18  1  0.97411300  0.70588200  0.12104600  1
  As  As19  1  0.37895400  0.02588700  0.20588200  1
  As  As20  1  0.52588700  0.29411800  0.62104600  1
  As  As21  1  0.87895400  0.47411300  0.79411800  1
  As  As22  1  0.12104600  0.97411300  0.70588200  1
  As  As23  1  0.62104600  0.52588700  0.29411800  1
  As  As24  1  0.20588200  0.37895400  0.02588700  1
  As  As25  1  0.70588200  0.12104600  0.97411300  1
  As  As26  1  0.29411800  0.62104600  0.52588700  1
  As  As27  1  0.79411800  0.87895400  0.47411300  1
  O  O28  1  0.05337100  0.80428600  0.22066000  1
  O  O29  1  0.44662900  0.19571400  0.72066000  1
  O  O30  1  0.94662900  0.30428600  0.27934000  1
  O  O31  1  0.22066000  0.05337100  0.80428600  1
  O  O32  1  0.55337100  0.69571400  0.77934000  1
  O  O33  1  0.72066000  0.44662900  0.19571400  1
  O  O34  1  0.27934000  0.94662900  0.30428600  1
  O  O35  1  0.77934000  0.55337100  0.69571400  1
  O  O36  1  0.80428600  0.22066000  0.05337100  1
  O  O37  1  0.30428600  0.27934000  0.94662900  1
  O  O38  1  0.69571400  0.77934000  0.55337100  1
  O  O39  1  0.19571400  0.72066000  0.44662900  1
  O  O40  1  0.18161100  0.24396800  0.40982000  1
  O  O41  1  0.31838900  0.75603200  0.90982000  1
  O  O42  1  0.81838900  0.74396800  0.09018000  1
  O  O43  1  0.40982000  0.18161100  0.24396800  1
  O  O44  1  0.68161100  0.25603200  0.59018000  1
  O  O45  1  0.90982000  0.31838900  0.75603200  1
  O  O46  1  0.09018000  0.81838900  0.74396800  1
  O  O47  1  0.59018000  0.68161100  0.25603200  1
  O  O48  1  0.24396800  0.40982000  0.18161100  1
  O  O49  1  0.74396800  0.09018000  0.81838900  1
  O  O50  1  0.25603200  0.59018000  0.68161100  1
  O  O51  1  0.75603200  0.90982000  0.31838900  1
  O  O52  1  0.01635900  0.05467200  0.32434300  1
  O  O53  1  0.48364100  0.94532800  0.82434300  1
  O  O54  1  0.98364100  0.55467200  0.17565700  1
  O  O55  1  0.32434300  0.01635900  0.05467200  1
  O  O56  1  0.51635900  0.44532800  0.67565700  1
  O  O57  1  0.82434300  0.48364100  0.94532800  1
  O  O58  1  0.17565700  0.98364100  0.55467200  1
  O  O59  1  0.67565700  0.51635900  0.44532800  1
  O  O60  1  0.05467200  0.32434300  0.01635900  1
  O  O61  1  0.55467200  0.17565700  0.98364100  1
  O  O62  1  0.44532800  0.67565700  0.51635900  1
  O  O63  1  0.94532800  0.82434300  0.48364100  1
  O  O64  1  0.26427000  0.47587300  0.45625300  1
  O  O65  1  0.23573000  0.52412700  0.95625300  1
  O  O66  1  0.73573000  0.97587300  0.04374700  1
  O  O67  1  0.45625300  0.26427000  0.47587300  1
  O  O68  1  0.76427000  0.02412700  0.54374700  1
  O  O69  1  0.95625300  0.23573000  0.52412700  1
  O  O70  1  0.04374700  0.73573000  0.97587300  1
  O  O71  1  0.54374700  0.76427000  0.02412700  1
  O  O72  1  0.47587300  0.45625300  0.26427000  1
  O  O73  1  0.97587300  0.04374700  0.73573000  1
  O  O74  1  0.02412700  0.54374700  0.76427000  1
  O  O75  1  0.52412700  0.95625300  0.23573000  1
