# generated using pymatgen
data_K2FeO4
_symmetry_space_group_name_H-M   'P 1'
_cell_length_a   5.94092600
_cell_length_b   7.79757000
_cell_length_c   10.51136100
_cell_angle_alpha   90.00006210
_cell_angle_beta   90.00000000
_cell_angle_gamma   90.00001699
_symmetry_Int_Tables_number   1
_chemical_formula_structural   K2FeO4
_chemical_formula_sum   'K8 Fe4 O16'
_cell_volume   486.93655257
_cell_formula_units_Z   4
loop_
 _symmetry_equiv_pos_site_id
 _symmetry_equiv_pos_as_xyz
  1  'x, y, z'
loop_
 _atom_site_type_symbol
 _atom_site_label
 _atom_site_symmetry_multiplicity
 _atom_site_fract_x
 _atom_site_fract_y
 _atom_site_fract_z
 _atom_site_occupancy
  K  K0  1  0.25000000  0.51355800  0.80379100  1
  K  K1  1  0.75000000  0.48643900  0.19620900  1
  K  K2  1  0.25000000  0.01356400  0.69620700  1
  K  K3  1  0.75000000  0.98644400  0.30379000  1
  K  K4  1  0.25000000  0.83668400  0.08506700  1
  K  K5  1  0.75000000  0.16330900  0.91493500  1
  K  K6  1  0.75000000  0.66331300  0.58506600  1
  K  K7  1  0.25000000  0.33668600  0.41493400  1
  Fe  Fe8  1  0.25000000  0.27002800  0.07779900  1
  Fe  Fe9  1  0.75000000  0.72997200  0.92220000  1
  Fe  Fe10  1  0.24999900  0.77002400  0.42220000  1
  Fe  Fe11  1  0.75000000  0.22997200  0.57779900  1
  O  O12  1  0.97847200  0.80671400  0.85081000  1
  O  O13  1  0.47847100  0.19328700  0.14919000  1
  O  O14  1  0.52152800  0.30671400  0.64918900  1
  O  O15  1  0.02152800  0.69328700  0.35081100  1
  O  O16  1  0.02152900  0.19328700  0.14919000  1
  O  O17  1  0.52152800  0.80671400  0.85081000  1
  O  O18  1  0.47847200  0.69328700  0.35081100  1
  O  O19  1  0.97847200  0.30671400  0.64918900  1
  O  O20  1  0.25000000  0.20124400  0.92750000  1
  O  O21  1  0.75000000  0.79875700  0.07250100  1
  O  O22  1  0.25000000  0.70124400  0.57250100  1
  O  O23  1  0.75000000  0.29875700  0.42749900  1
  O  O24  1  0.75000000  0.01826300  0.58328500  1
  O  O25  1  0.25000000  0.98173600  0.41671600  1
  O  O26  1  0.25000000  0.48173800  0.08328400  1
  O  O27  1  0.75000000  0.51826300  0.91671500  1
