# generated using pymatgen
data_Ba5B3BrO9
_symmetry_space_group_name_H-M   'P 1'
_cell_length_a   9.23157360
_cell_length_b   9.23157360
_cell_length_c   8.14640700
_cell_angle_alpha   90.00000000
_cell_angle_beta   90.00000000
_cell_angle_gamma   109.53888167
_symmetry_Int_Tables_number   1
_chemical_formula_structural   Ba5B3BrO9
_chemical_formula_sum   'Ba10 B6 Br2 O18'
_cell_volume   654.27398307
_cell_formula_units_Z   2
loop_
 _symmetry_equiv_pos_site_id
 _symmetry_equiv_pos_as_xyz
  1  'x, y, z'
loop_
 _atom_site_type_symbol
 _atom_site_label
 _atom_site_symmetry_multiplicity
 _atom_site_fract_x
 _atom_site_fract_y
 _atom_site_fract_z
 _atom_site_occupancy
  Ba  Ba0  1  0.75841900  0.75841900  0.00000000  1
  Ba  Ba1  1  0.24158100  0.24158100  0.50000000  1
  Ba  Ba2  1  0.00729800  0.27013900  0.93424700  1
  Ba  Ba3  1  0.27013900  0.00729800  0.06575300  1
  Ba  Ba4  1  0.99270200  0.72986100  0.43424700  1
  Ba  Ba5  1  0.72986100  0.99270200  0.56575300  1
  Ba  Ba6  1  0.36154900  0.63845100  0.75000000  1
  Ba  Ba7  1  0.63845100  0.36154900  0.25000000  1
  Ba  Ba8  1  0.63997000  0.36003000  0.75000000  1
  Ba  Ba9  1  0.36003000  0.63997000  0.25000000  1
  B  B10  1  0.59823700  0.01665000  0.96957900  1
  B  B11  1  0.01665000  0.59823700  0.03042100  1
  B  B12  1  0.40176300  0.98335000  0.46957900  1
  B  B13  1  0.98335000  0.40176300  0.53042100  1
  B  B14  1  0.37521200  0.37521200  0.00000000  1
  B  B15  1  0.62478800  0.62478800  0.50000000  1
  Br  Br16  1  0.05552000  0.94448000  0.75000000  1
  Br  Br17  1  0.94448000  0.05552000  0.25000000  1
  O  O18  1  0.50737000  0.50737000  0.00000000  1
  O  O19  1  0.49263000  0.49263000  0.50000000  1
  O  O20  1  0.49449700  0.87013900  0.01001200  1
  O  O21  1  0.87013900  0.49449700  0.98998800  1
  O  O22  1  0.50550300  0.12986100  0.51001200  1
  O  O23  1  0.12986100  0.50550300  0.48998800  1
  O  O24  1  0.14969400  0.56788600  0.98631000  1
  O  O25  1  0.56788600  0.14969400  0.01369000  1
  O  O26  1  0.85030600  0.43211400  0.48631000  1
  O  O27  1  0.43211400  0.85030600  0.51369000  1
  O  O28  1  0.68774800  0.68709600  0.34978800  1
  O  O29  1  0.68709600  0.68774800  0.65021200  1
  O  O30  1  0.31225200  0.31290400  0.84978800  1
  O  O31  1  0.31290400  0.31225200  0.15021200  1
  O  O32  1  0.73052900  0.02899600  0.88068000  1
  O  O33  1  0.02899600  0.73052900  0.11932000  1
  O  O34  1  0.26947100  0.97100400  0.38068000  1
  O  O35  1  0.97100400  0.26947100  0.61932000  1
