# generated using pymatgen
data_Ba3ThSe7
_symmetry_space_group_name_H-M   'P 1'
_cell_length_a   8.48060825
_cell_length_b   8.48060825
_cell_length_c   8.48060825
_cell_angle_alpha   139.33846653
_cell_angle_beta   110.70404590
_cell_angle_gamma   83.56287284
_symmetry_Int_Tables_number   1
_chemical_formula_structural   Ba3ThSe7
_chemical_formula_sum   'Ba3 Th1 Se7'
_cell_volume   359.36420349
_cell_formula_units_Z   1
loop_
 _symmetry_equiv_pos_site_id
 _symmetry_equiv_pos_as_xyz
  1  'x, y, z'
loop_
 _atom_site_type_symbol
 _atom_site_label
 _atom_site_symmetry_multiplicity
 _atom_site_fract_x
 _atom_site_fract_y
 _atom_site_fract_z
 _atom_site_occupancy
  Ba  Ba0  1  0.14491400  0.76071400  0.38420000  1
  Ba  Ba1  1  0.62348600  0.23928600  0.38420000  1
  Ba  Ba2  1  0.59237400  0.50000000  0.09237400  1
  Th  Th3  1  0.99987900  0.00000000  0.99987900  1
  Se  Se4  1  0.61096600  0.90491900  0.70604700  1
  Se  Se5  1  0.80112800  0.09508100  0.70604700  1
  Se  Se6  1  0.28930900  0.79570000  0.08500800  1
  Se  Se7  1  0.28930900  0.20430000  0.49360900  1
  Se  Se8  1  0.80822400  0.76763600  0.04058800  1
  Se  Se9  1  0.27295100  0.23236400  0.04058800  1
  Se  Se10  1  0.94214000  0.50000000  0.44214000  1
