# generated using pymatgen
data_Tl2O3
_symmetry_space_group_name_H-M   'P 1'
_cell_length_a   9.33077767
_cell_length_b   9.33077767
_cell_length_c   9.33077767
_cell_angle_alpha   109.47122063
_cell_angle_beta   109.47122063
_cell_angle_gamma   109.47122063
_symmetry_Int_Tables_number   1
_chemical_formula_structural   Tl2O3
_chemical_formula_sum   'Tl16 O24'
_cell_volume   625.36220958
_cell_formula_units_Z   8
loop_
 _symmetry_equiv_pos_site_id
 _symmetry_equiv_pos_as_xyz
  1  'x, y, z'
loop_
 _atom_site_type_symbol
 _atom_site_label
 _atom_site_symmetry_multiplicity
 _atom_site_fract_x
 _atom_site_fract_y
 _atom_site_fract_z
 _atom_site_occupancy
  Tl  Tl0  1  0.78407500  0.25000000  0.03407500  1
  Tl  Tl1  1  0.71592500  0.75000000  0.46592500  1
  Tl  Tl2  1  0.25000000  0.03407500  0.78407500  1
  Tl  Tl3  1  0.75000000  0.46592500  0.71592500  1
  Tl  Tl4  1  0.03407500  0.78407500  0.25000000  1
  Tl  Tl5  1  0.46592500  0.71592500  0.75000000  1
  Tl  Tl6  1  0.21592500  0.75000000  0.96592500  1
  Tl  Tl7  1  0.28407500  0.25000000  0.53407500  1
  Tl  Tl8  1  0.75000000  0.96592500  0.21592500  1
  Tl  Tl9  1  0.25000000  0.53407500  0.28407500  1
  Tl  Tl10  1  0.96592500  0.21592500  0.75000000  1
  Tl  Tl11  1  0.53407500  0.28407500  0.25000000  1
  Tl  Tl12  1  0.50000000  0.00000000  0.50000000  1
  Tl  Tl13  1  0.50000000  0.50000000  0.00000000  1
  Tl  Tl14  1  0.00000000  0.50000000  0.50000000  1
  Tl  Tl15  1  0.00000000  0.00000000  0.00000000  1
  O  O16  1  0.26704500  0.99668400  0.53886500  1
  O  O17  1  0.54218100  0.50331600  0.77036200  1
  O  O18  1  0.23295500  0.77181900  0.72963800  1
  O  O19  1  0.95781900  0.72818100  0.96113500  1
  O  O20  1  0.99668400  0.53886500  0.26704500  1
  O  O21  1  0.50331600  0.77036200  0.54218100  1
  O  O22  1  0.77181900  0.72963800  0.23295500  1
  O  O23  1  0.72818100  0.96113500  0.95781900  1
  O  O24  1  0.53886500  0.26704500  0.99668400  1
  O  O25  1  0.77036200  0.54218100  0.50331600  1
  O  O26  1  0.72963800  0.23295500  0.77181900  1
  O  O27  1  0.96113500  0.95781900  0.72818100  1
  O  O28  1  0.73295500  0.00331600  0.46113500  1
  O  O29  1  0.45781900  0.49668400  0.22963800  1
  O  O30  1  0.76704500  0.22818100  0.27036200  1
  O  O31  1  0.04218100  0.27181900  0.03886500  1
  O  O32  1  0.00331600  0.46113500  0.73295500  1
  O  O33  1  0.49668400  0.22963800  0.45781900  1
  O  O34  1  0.22818100  0.27036200  0.76704500  1
  O  O35  1  0.27181900  0.03886500  0.04218100  1
  O  O36  1  0.46113500  0.73295500  0.00331600  1
  O  O37  1  0.22963800  0.45781900  0.49668400  1
  O  O38  1  0.27036200  0.76704500  0.22818100  1
  O  O39  1  0.03886500  0.04218100  0.27181900  1
