# generated using pymatgen
data_SmAl4Ni
_symmetry_space_group_name_H-M   'P 1'
_cell_length_a   8.10149088
_cell_length_b   8.10149088
_cell_length_c   6.60899800
_cell_angle_alpha   90.00000000
_cell_angle_beta   90.00000000
_cell_angle_gamma   150.68183334
_symmetry_Int_Tables_number   1
_chemical_formula_structural   SmAl4Ni
_chemical_formula_sum   'Sm2 Al8 Ni2'
_cell_volume   212.40229086
_cell_formula_units_Z   2
loop_
 _symmetry_equiv_pos_site_id
 _symmetry_equiv_pos_as_xyz
  1  'x, y, z'
loop_
 _atom_site_type_symbol
 _atom_site_label
 _atom_site_symmetry_multiplicity
 _atom_site_fract_x
 _atom_site_fract_y
 _atom_site_fract_z
 _atom_site_occupancy
  Sm  Sm0  1  0.38527500  0.61472500  0.75000000  1
  Sm  Sm1  1  0.61472500  0.38527500  0.25000000  1
  Al  Al2  1  0.00000000  0.00000000  0.50000000  1
  Al  Al3  1  0.00000000  0.00000000  0.00000000  1
  Al  Al4  1  0.57814500  0.42185500  0.75000000  1
  Al  Al5  1  0.42185500  0.57814500  0.25000000  1
  Al  Al6  1  0.80968500  0.19031500  0.05283500  1
  Al  Al7  1  0.19031500  0.80968500  0.94716500  1
  Al  Al8  1  0.19031500  0.80968500  0.55283500  1
  Al  Al9  1  0.80968500  0.19031500  0.44716500  1
  Ni  Ni10  1  0.72547500  0.27452500  0.75000000  1
  Ni  Ni11  1  0.27452500  0.72547500  0.25000000  1
