# generated using pymatgen
data_LaCoC2
_symmetry_space_group_name_H-M   'P 1'
_cell_length_a   3.87000540
_cell_length_b   3.87000540
_cell_length_c   7.43830709
_cell_angle_alpha   81.31283167
_cell_angle_beta   81.31283167
_cell_angle_gamma   90.02361757
_symmetry_Int_Tables_number   1
_chemical_formula_structural   LaCoC2
_chemical_formula_sum   'La2 Co2 C4'
_cell_volume   108.83091154
_cell_formula_units_Z   2
loop_
 _symmetry_equiv_pos_site_id
 _symmetry_equiv_pos_as_xyz
  1  'x, y, z'
loop_
 _atom_site_type_symbol
 _atom_site_label
 _atom_site_symmetry_multiplicity
 _atom_site_fract_x
 _atom_site_fract_y
 _atom_site_fract_z
 _atom_site_occupancy
  La  La0  1  0.92676400  0.07380500  0.50204400  1
  La  La1  1  0.07380500  0.92676400  0.00204400  1
  Co  Co2  1  0.37261000  0.51272600  0.69472300  1
  Co  Co3  1  0.51272600  0.37261000  0.19472300  1
  C  C4  1  0.85068400  0.49008100  0.77442200  1
  C  C5  1  0.49008100  0.85068400  0.27442200  1
  C  C6  1  0.59544700  0.44388300  0.92581200  1
  C  C7  1  0.44388300  0.59544700  0.42581200  1
