# generated using pymatgen
data_HgSb2Xe5F22
_symmetry_space_group_name_H-M   'P 1'
_cell_length_a   17.17892300
_cell_length_b   9.08521000
_cell_length_c   16.92306298
_cell_angle_alpha   77.96868600
_cell_angle_beta   90.00000000
_cell_angle_gamma   90.00000000
_symmetry_Int_Tables_number   1
_chemical_formula_structural   HgSb2Xe5F22
_chemical_formula_sum   'Hg4 Sb8 Xe20 F88'
_cell_volume   2583.23400256
_cell_formula_units_Z   4
loop_
 _symmetry_equiv_pos_site_id
 _symmetry_equiv_pos_as_xyz
  1  'x, y, z'
loop_
 _atom_site_type_symbol
 _atom_site_label
 _atom_site_symmetry_multiplicity
 _atom_site_fract_x
 _atom_site_fract_y
 _atom_site_fract_z
 _atom_site_occupancy
  Hg  Hg0  1  0.12154400  0.26245300  0.25329100  1
  Hg  Hg1  1  0.62154400  0.73754700  0.24670900  1
  Hg  Hg2  1  0.87845600  0.73754700  0.74670900  1
  Hg  Hg3  1  0.37845600  0.26245300  0.75329100  1
  Sb  Sb4  1  0.23615900  0.48962400  0.02583300  1
  Sb  Sb5  1  0.73615900  0.51037600  0.47416700  1
  Sb  Sb6  1  0.76384100  0.51037600  0.97416700  1
  Sb  Sb7  1  0.26384100  0.48962400  0.52583300  1
  Sb  Sb8  1  0.89423100  0.02186000  0.29669200  1
  Sb  Sb9  1  0.39423100  0.97814000  0.20330800  1
  Sb  Sb10  1  0.10576900  0.97814000  0.70330800  1
  Sb  Sb11  1  0.60576900  0.02186000  0.79669200  1
  Xe  Xe12  1  0.35252300  0.41813200  0.26705900  1
  Xe  Xe13  1  0.85252300  0.58186800  0.23294100  1
  Xe  Xe14  1  0.64747700  0.58186800  0.73294100  1
  Xe  Xe15  1  0.14747700  0.41813200  0.76705900  1
  Xe  Xe16  1  0.02227200  0.23397500  0.03943700  1
  Xe  Xe17  1  0.52227200  0.76602500  0.46056300  1
  Xe  Xe18  1  0.97772800  0.76602500  0.96056300  1
  Xe  Xe19  1  0.47772800  0.23397500  0.53943700  1
  Xe  Xe20  1  0.25211300  0.99470900  0.43580300  1
  Xe  Xe21  1  0.75211300  0.00529100  0.06419700  1
  Xe  Xe22  1  0.74788700  0.00529100  0.56419700  1
  Xe  Xe23  1  0.24788700  0.99470900  0.93580300  1
  Xe  Xe24  1  0.99981300  0.28485100  0.46485900  1
  Xe  Xe25  1  0.49981300  0.71514900  0.03514100  1
  Xe  Xe26  1  0.00018700  0.71514900  0.53514100  1
  Xe  Xe27  1  0.50018700  0.28485100  0.96485900  1
  Xe  Xe28  1  0.12920800  0.79745300  0.21590400  1
  Xe  Xe29  1  0.62920800  0.20254700  0.28409600  1
  Xe  Xe30  1  0.87079200  0.20254700  0.78409600  1
  Xe  Xe31  1  0.37079200  0.79745300  0.71590400  1
  F  F32  1  0.24238400  0.32105700  0.30541400  1
  F  F33  1  0.74238400  0.67894300  0.19458600  1
  F  F34  1  0.75761600  0.67894300  0.69458600  1
  F  F35  1  0.25761600  0.32105700  0.80541400  1
  F  F36  1  0.11646400  0.03341700  0.19203900  1
  F  F37  1  0.61646400  0.96658300  0.30796100  1
  F  F38  1  0.88353600  0.96658300  0.80796100  1
  F  F39  1  0.38353600  0.03341700  0.69203900  1
  F  F40  1  0.08941200  0.33397200  0.37596900  1
  F  F41  1  0.58941200  0.66602800  0.12403100  1
  F  F42  1  0.91058800  0.66602800  0.62403100  1
  F  F43  1  0.41058800  0.33397200  0.87596900  1
  F  F44  1  0.01280600  0.16490500  0.93268100  1
  F  F45  1  0.51280600  0.83509500  0.56731900  1
  F  F46  1  0.98719400  0.83509500  0.06731900  1
  F  F47  1  0.48719400  0.16490500  0.43268100  1
  F  F48  1  0.34384500  0.94792100  0.51403400  1
  F  F49  1  0.84384500  0.05207900  0.98596600  1
  F  F50  1  0.65615500  0.05207900  0.48596600  1
  F  F51  1  0.15615500  0.94792100  0.01403400  1
  F  F52  1  0.99284300  0.12411500  0.30530500  1
  F  F53  1  0.49284300  0.87588500  0.19469500  1
  F  F54  1  0.00715700  0.87588500  0.69469500  1
  F  F55  1  0.50715700  0.12411500  0.80530500  1
  F  F56  1  0.26030600  0.60952300  0.92209700  1
  F  F57  1  0.76030600  0.39047700  0.57790300  1
  F  F58  1  0.73969400  0.39047700  0.07790300  1
  F  F59  1  0.23969400  0.60952300  0.42209700  1
  F  F60  1  0.46035100  0.50326200  0.23346900  1
  F  F61  1  0.96035100  0.49673800  0.26653100  1
  F  F62  1  0.53964900  0.49673800  0.76653100  1
  F  F63  1  0.03964900  0.50326200  0.73346900  1
  F  F64  1  0.20518600  0.32627000  0.97664300  1
  F  F65  1  0.70518600  0.67373000  0.52335700  1
  F  F66  1  0.79481400  0.67373000  0.02335700  1
  F  F67  1  0.29481400  0.32627000  0.47664300  1
  F  F68  1  0.91527400  0.24333500  0.55084900  1
  F  F69  1  0.41527400  0.75666500  0.94915100  1
  F  F70  1  0.08472600  0.75666500  0.44915100  1
  F  F71  1  0.58472600  0.24333500  0.05084900  1
  F  F72  1  0.03332200  0.31810700  0.14876500  1
  F  F73  1  0.53332200  0.68189300  0.35123500  1
  F  F74  1  0.96667800  0.68189300  0.85123500  1
  F  F75  1  0.46667800  0.31810700  0.64876500  1
  F  F76  1  0.79740700  0.92276500  0.28713700  1
  F  F77  1  0.29740700  0.07723500  0.21286300  1
  F  F78  1  0.20259300  0.07723500  0.71286300  1
  F  F79  1  0.70259300  0.92276500  0.78713700  1
  F  F80  1  0.87907700  0.01116100  0.41010100  1
  F  F81  1  0.37907700  0.98883900  0.08989900  1
  F  F82  1  0.12092300  0.98883900  0.58989900  1
  F  F83  1  0.62092300  0.01116100  0.91010100  1
  F  F84  1  0.15803400  0.04355500  0.35279300  1
  F  F85  1  0.65803400  0.95644500  0.14720700  1
  F  F86  1  0.84196600  0.95644500  0.64720700  1
  F  F87  1  0.34196600  0.04355500  0.85279300  1
  F  F88  1  0.14097200  0.56656200  0.23504000  1
  F  F89  1  0.64097200  0.43343800  0.26496000  1
  F  F90  1  0.85902800  0.43343800  0.76496000  1
  F  F91  1  0.35902800  0.56656200  0.73504000  1
  F  F92  1  0.20722600  0.36297500  0.13039900  1
  F  F93  1  0.70722600  0.63702500  0.36960100  1
  F  F94  1  0.79277400  0.63702500  0.86960100  1
  F  F95  1  0.29277400  0.36297500  0.63039900  1
  F  F96  1  0.94767600  0.83243500  0.32081200  1
  F  F97  1  0.44767600  0.16756500  0.17918800  1
  F  F98  1  0.05232400  0.16756500  0.67918800  1
  F  F99  1  0.55232400  0.83243500  0.82081200  1
  F  F100  1  0.91384800  0.03317500  0.18397400  1
  F  F101  1  0.41384800  0.96682500  0.31602600  1
  F  F102  1  0.08615200  0.96682500  0.81602600  1
  F  F103  1  0.58615200  0.03317500  0.68397400  1
  F  F104  1  0.33987000  0.41127500  0.04155800  1
  F  F105  1  0.83987000  0.58872500  0.45844200  1
  F  F106  1  0.66013000  0.58872500  0.95844200  1
  F  F107  1  0.16013000  0.41127500  0.54155800  1
  F  F108  1  0.13104600  0.56265600  0.01593300  1
  F  F109  1  0.63104600  0.43734400  0.48406700  1
  F  F110  1  0.86895400  0.43734400  0.98406700  1
  F  F111  1  0.36895400  0.56265600  0.51593300  1
  F  F112  1  0.84247300  0.21240600  0.27272400  1
  F  F113  1  0.34247300  0.78759400  0.22727600  1
  F  F114  1  0.15752700  0.78759400  0.72727600  1
  F  F115  1  0.65752700  0.21240600  0.77272400  1
  F  F116  1  0.26475700  0.64775400  0.07906700  1
  F  F117  1  0.76475700  0.35224600  0.42093300  1
  F  F118  1  0.73524300  0.35224600  0.92093300  1
  F  F119  1  0.23524300  0.64775400  0.57906700  1
