# generated using pymatgen
data_Dy8Ni18P11
_symmetry_space_group_name_H-M   'P 1'
_cell_length_a   17.95281401
_cell_length_b   17.95281401
_cell_length_c   3.82203300
_cell_angle_alpha   90.00000000
_cell_angle_beta   90.00000000
_cell_angle_gamma   120.00000002
_symmetry_Int_Tables_number   1
_chemical_formula_structural   Dy8Ni18P11
_chemical_formula_sum   'Dy16 Ni36 P22'
_cell_volume   1066.81749011
_cell_formula_units_Z   2
loop_
 _symmetry_equiv_pos_site_id
 _symmetry_equiv_pos_as_xyz
  1  'x, y, z'
loop_
 _atom_site_type_symbol
 _atom_site_label
 _atom_site_symmetry_multiplicity
 _atom_site_fract_x
 _atom_site_fract_y
 _atom_site_fract_z
 _atom_site_occupancy
  Dy  Dy0  1  0.47620600  0.52379400  0.50000000  1
  Dy  Dy1  1  0.47620600  0.95241200  0.50000000  1
  Dy  Dy2  1  0.04758800  0.52379400  0.50000000  1
  Dy  Dy3  1  0.26065500  0.73934500  0.50000000  1
  Dy  Dy4  1  0.26065500  0.52131000  0.50000000  1
  Dy  Dy5  1  0.47869000  0.73934500  0.50000000  1
  Dy  Dy6  1  0.77999800  0.22000200  0.00000000  1
  Dy  Dy7  1  0.77999800  0.55999700  0.00000000  1
  Dy  Dy8  1  0.44000300  0.22000200  0.00000000  1
  Dy  Dy9  1  0.00146100  0.21698700  0.00000000  1
  Dy  Dy10  1  0.78301300  0.78447400  0.00000000  1
  Dy  Dy11  1  0.78301300  0.99853900  0.00000000  1
  Dy  Dy12  1  0.21552600  0.99853900  0.00000000  1
  Dy  Dy13  1  0.21552600  0.21698700  0.00000000  1
  Dy  Dy14  1  0.00146100  0.78447400  0.00000000  1
  Dy  Dy15  1  0.00000000  0.00000000  0.00000000  1
  Ni  Ni16  1  0.71107400  0.28892600  0.50000000  1
  Ni  Ni17  1  0.71107400  0.42214800  0.50000000  1
  Ni  Ni18  1  0.57785200  0.28892600  0.50000000  1
  Ni  Ni19  1  0.07605100  0.36917400  0.50000000  1
  Ni  Ni20  1  0.63082600  0.70687700  0.50000000  1
  Ni  Ni21  1  0.63082600  0.92394900  0.50000000  1
  Ni  Ni22  1  0.29312300  0.92394900  0.50000000  1
  Ni  Ni23  1  0.29312300  0.36917400  0.50000000  1
  Ni  Ni24  1  0.07605100  0.70687700  0.50000000  1
  Ni  Ni25  1  0.39847100  0.02791400  0.00000000  1
  Ni  Ni26  1  0.97208600  0.37055700  0.00000000  1
  Ni  Ni27  1  0.97208600  0.60152900  0.00000000  1
  Ni  Ni28  1  0.62944300  0.60152900  0.00000000  1
  Ni  Ni29  1  0.62944300  0.02791400  0.00000000  1
  Ni  Ni30  1  0.39847100  0.37055700  0.00000000  1
  Ni  Ni31  1  0.18450200  0.81549800  0.00000000  1
  Ni  Ni32  1  0.18450200  0.36900300  0.00000000  1
  Ni  Ni33  1  0.63099700  0.81549800  0.00000000  1
  Ni  Ni34  1  0.40511100  0.59488900  0.00000000  1
  Ni  Ni35  1  0.40511100  0.81022100  0.00000000  1
  Ni  Ni36  1  0.18977900  0.59488900  0.00000000  1
  Ni  Ni37  1  0.07255800  0.92744200  0.50000000  1
  Ni  Ni38  1  0.07255800  0.14511700  0.50000000  1
  Ni  Ni39  1  0.85488300  0.92744200  0.50000000  1
  Ni  Ni40  1  0.49690100  0.12904300  0.50000000  1
  Ni  Ni41  1  0.87095700  0.36785800  0.50000000  1
  Ni  Ni42  1  0.87095700  0.50309900  0.50000000  1
  Ni  Ni43  1  0.63214200  0.50309900  0.50000000  1
  Ni  Ni44  1  0.63214200  0.12904300  0.50000000  1
  Ni  Ni45  1  0.49690100  0.36785800  0.50000000  1
  Ni  Ni46  1  0.61464200  0.38535800  0.00000000  1
  Ni  Ni47  1  0.61464200  0.22928500  0.00000000  1
  Ni  Ni48  1  0.77071500  0.38535800  0.00000000  1
  Ni  Ni49  1  0.85643400  0.14356600  0.50000000  1
  Ni  Ni50  1  0.85643400  0.71286800  0.50000000  1
  Ni  Ni51  1  0.28713200  0.14356600  0.50000000  1
  P  P52  1  0.33333300  0.66666700  0.00000000  1
  P  P53  1  0.14388800  0.85611200  0.50000000  1
  P  P54  1  0.14388800  0.28777600  0.50000000  1
  P  P55  1  0.71222400  0.85611200  0.50000000  1
  P  P56  1  0.12001800  0.45250100  0.00000000  1
  P  P57  1  0.54749900  0.66751600  0.00000000  1
  P  P58  1  0.54749900  0.87998200  0.00000000  1
  P  P59  1  0.33248400  0.87998200  0.00000000  1
  P  P60  1  0.33248400  0.45250100  0.00000000  1
  P  P61  1  0.12001800  0.66751600  0.00000000  1
  P  P62  1  0.54557300  0.45442700  0.00000000  1
  P  P63  1  0.54557300  0.09114600  0.00000000  1
  P  P64  1  0.90885400  0.45442700  0.00000000  1
  P  P65  1  0.35616100  0.07167300  0.50000000  1
  P  P66  1  0.92832700  0.28448900  0.50000000  1
  P  P67  1  0.92832700  0.64383900  0.50000000  1
  P  P68  1  0.71551100  0.64383900  0.50000000  1
  P  P69  1  0.71551100  0.07167300  0.50000000  1
  P  P70  1  0.35616100  0.28448900  0.50000000  1
  P  P71  1  0.92843000  0.07157000  0.50000000  1
  P  P72  1  0.92843000  0.85686000  0.50000000  1
  P  P73  1  0.14314000  0.07157000  0.50000000  1
