# generated using pymatgen
data_Rb3TaS4
_symmetry_space_group_name_H-M   'P 1'
_cell_length_a   9.71423600
_cell_length_b   9.87259700
_cell_length_c   11.30675800
_cell_angle_alpha   90.00000000
_cell_angle_beta   90.00000000
_cell_angle_gamma   90.00000000
_symmetry_Int_Tables_number   1
_chemical_formula_structural   Rb3TaS4
_chemical_formula_sum   'Rb12 Ta4 S16'
_cell_volume   1084.37165447
_cell_formula_units_Z   4
loop_
 _symmetry_equiv_pos_site_id
 _symmetry_equiv_pos_as_xyz
  1  'x, y, z'
loop_
 _atom_site_type_symbol
 _atom_site_label
 _atom_site_symmetry_multiplicity
 _atom_site_fract_x
 _atom_site_fract_y
 _atom_site_fract_z
 _atom_site_occupancy
  Rb  Rb0  1  0.05439400  0.28863900  0.54378700  1
  Rb  Rb1  1  0.86038600  0.92289300  0.75000000  1
  Rb  Rb2  1  0.13961400  0.07710700  0.25000000  1
  Rb  Rb3  1  0.63961400  0.42289300  0.25000000  1
  Rb  Rb4  1  0.94560600  0.71136100  0.45621300  1
  Rb  Rb5  1  0.44560600  0.78863900  0.04378700  1
  Rb  Rb6  1  0.55439400  0.21136100  0.54378700  1
  Rb  Rb7  1  0.05439400  0.28863900  0.95621300  1
  Rb  Rb8  1  0.94560600  0.71136100  0.04378700  1
  Rb  Rb9  1  0.55439400  0.21136100  0.95621300  1
  Rb  Rb10  1  0.44560600  0.78863900  0.45621300  1
  Rb  Rb11  1  0.36038600  0.57710700  0.75000000  1
  Ta  Ta12  1  0.28228600  0.01327300  0.75000000  1
  Ta  Ta13  1  0.78228600  0.48672700  0.75000000  1
  Ta  Ta14  1  0.21771400  0.51327300  0.25000000  1
  Ta  Ta15  1  0.71771400  0.98672700  0.25000000  1
  S  S16  1  0.30266600  0.24449400  0.75000000  1
  S  S17  1  0.80266600  0.25550600  0.75000000  1
  S  S18  1  0.19733400  0.74449400  0.25000000  1
  S  S19  1  0.69733400  0.75550600  0.25000000  1
  S  S20  1  0.99808100  0.58078300  0.75000000  1
  S  S21  1  0.49808100  0.91921700  0.75000000  1
  S  S22  1  0.50191900  0.08078300  0.25000000  1
  S  S23  1  0.00191900  0.41921700  0.25000000  1
  S  S24  1  0.83312400  0.05054400  0.08286800  1
  S  S25  1  0.33312400  0.44945600  0.41713200  1
  S  S26  1  0.66687600  0.55054400  0.91713200  1
  S  S27  1  0.16687600  0.94945600  0.58286800  1
  S  S28  1  0.16687600  0.94945600  0.91713200  1
  S  S29  1  0.83312400  0.05054400  0.41713200  1
  S  S30  1  0.33312400  0.44945600  0.08286800  1
  S  S31  1  0.66687600  0.55054400  0.58286800  1
