# generated using pymatgen
data_Sr2GdTaO6
_symmetry_space_group_name_H-M   'P 1'
_cell_length_a   5.85682661
_cell_length_b   6.00863600
_cell_length_c   8.36740687
_cell_angle_alpha   90.00000000
_cell_angle_beta   90.12495377
_cell_angle_gamma   90.00000000
_symmetry_Int_Tables_number   1
_chemical_formula_structural   Sr2GdTaO6
_chemical_formula_sum   'Sr4 Gd2 Ta2 O12'
_cell_volume   294.46122682
_cell_formula_units_Z   2
loop_
 _symmetry_equiv_pos_site_id
 _symmetry_equiv_pos_as_xyz
  1  'x, y, z'
loop_
 _atom_site_type_symbol
 _atom_site_label
 _atom_site_symmetry_multiplicity
 _atom_site_fract_x
 _atom_site_fract_y
 _atom_site_fract_z
 _atom_site_occupancy
  Sr  Sr0  1  0.01107500  0.45638100  0.25259400  1
  Sr  Sr1  1  0.98892500  0.54361900  0.74740600  1
  Sr  Sr2  1  0.48892500  0.95638100  0.24740600  1
  Sr  Sr3  1  0.51107500  0.04361900  0.75259400  1
  Gd  Gd4  1  0.00000000  0.00000000  0.50000000  1
  Gd  Gd5  1  0.50000000  0.50000000  0.00000000  1
  Ta  Ta6  1  0.00000000  0.00000000  0.00000000  1
  Ta  Ta7  1  0.50000000  0.50000000  0.50000000  1
  O  O8  1  0.91412600  0.03080000  0.23207800  1
  O  O9  1  0.08587400  0.96920000  0.76792200  1
  O  O10  1  0.58587400  0.53080000  0.26792200  1
  O  O11  1  0.41412600  0.46920000  0.73207800  1
  O  O12  1  0.19024100  0.72741100  0.05028500  1
  O  O13  1  0.80975900  0.27258900  0.94971500  1
  O  O14  1  0.30975900  0.22741100  0.44971500  1
  O  O15  1  0.69024100  0.77258900  0.55028500  1
  O  O16  1  0.27526400  0.19179500  0.04136900  1
  O  O17  1  0.72473600  0.80820500  0.95863100  1
  O  O18  1  0.22473600  0.69179500  0.45863100  1
  O  O19  1  0.77526400  0.30820500  0.54136900  1
