# generated using pymatgen
data_Ba6Dy2Al4O15
_symmetry_space_group_name_H-M   'P 1'
_cell_length_a   5.95833600
_cell_length_b   7.92707700
_cell_length_c   18.53900093
_cell_angle_alpha   88.40068107
_cell_angle_beta   90.00000000
_cell_angle_gamma   90.00000000
_symmetry_Int_Tables_number   1
_chemical_formula_structural   Ba6Dy2Al4O15
_chemical_formula_sum   'Ba12 Dy4 Al8 O30'
_cell_volume   875.29647459
_cell_formula_units_Z   2
loop_
 _symmetry_equiv_pos_site_id
 _symmetry_equiv_pos_as_xyz
  1  'x, y, z'
loop_
 _atom_site_type_symbol
 _atom_site_label
 _atom_site_symmetry_multiplicity
 _atom_site_fract_x
 _atom_site_fract_y
 _atom_site_fract_z
 _atom_site_occupancy
  Ba  Ba0  1  0.75785200  0.50212300  0.08179800  1
  Ba  Ba1  1  0.24214800  0.49787700  0.91820200  1
  Ba  Ba2  1  0.75785200  0.49787700  0.41820200  1
  Ba  Ba3  1  0.24214800  0.50212300  0.58179800  1
  Ba  Ba4  1  0.74480400  0.96927800  0.08930900  1
  Ba  Ba5  1  0.25519600  0.03072200  0.91069100  1
  Ba  Ba6  1  0.74480400  0.03072200  0.41069100  1
  Ba  Ba7  1  0.25519600  0.96927800  0.58930900  1
  Ba  Ba8  1  0.72424800  0.00000000  0.75000000  1
  Ba  Ba9  1  0.27575200  0.00000000  0.25000000  1
  Ba  Ba10  1  0.67044400  0.50000000  0.75000000  1
  Ba  Ba11  1  0.32955600  0.50000000  0.25000000  1
  Dy  Dy12  1  0.74561200  0.75076100  0.91036100  1
  Dy  Dy13  1  0.25438800  0.24923900  0.08963900  1
  Dy  Dy14  1  0.74561200  0.24923900  0.58963900  1
  Dy  Dy15  1  0.25438800  0.75076100  0.41036100  1
  Al  Al16  1  0.75082700  0.75270800  0.55584600  1
  Al  Al17  1  0.24917300  0.24729200  0.44415400  1
  Al  Al18  1  0.75082700  0.24729200  0.94415400  1
  Al  Al19  1  0.24917300  0.75270800  0.05584600  1
  Al  Al20  1  0.77213700  0.77925000  0.26762100  1
  Al  Al21  1  0.22786300  0.22075000  0.73237900  1
  Al  Al22  1  0.77213700  0.22075000  0.23237900  1
  Al  Al23  1  0.22786300  0.77925000  0.76762100  1
  O  O24  1  0.21061500  0.00000000  0.75000000  1
  O  O25  1  0.78938500  0.00000000  0.25000000  1
  O  O26  1  0.49475100  0.76366900  0.00001100  1
  O  O27  1  0.50524900  0.23633100  0.99998900  1
  O  O28  1  0.49475100  0.23633100  0.49998900  1
  O  O29  1  0.50524900  0.76366900  0.50001100  1
  O  O30  1  0.75910800  0.94374700  0.60581500  1
  O  O31  1  0.24089200  0.05625300  0.39418500  1
  O  O32  1  0.75910800  0.05625300  0.89418500  1
  O  O33  1  0.24089200  0.94374700  0.10581500  1
  O  O34  1  0.00899600  0.76193000  0.99647000  1
  O  O35  1  0.99100400  0.23807000  0.00353000  1
  O  O36  1  0.00899600  0.23807000  0.50353000  1
  O  O37  1  0.99100400  0.76193000  0.49647000  1
  O  O38  1  0.31384100  0.69312900  0.68674300  1
  O  O39  1  0.68615900  0.30687100  0.31325700  1
  O  O40  1  0.31384100  0.30687100  0.81325700  1
  O  O41  1  0.68615900  0.69312900  0.18674300  1
  O  O42  1  0.44943200  0.75316900  0.83279000  1
  O  O43  1  0.55056800  0.24683100  0.16721000  1
  O  O44  1  0.44943200  0.24683100  0.66721000  1
  O  O45  1  0.55056800  0.75316900  0.33279000  1
  O  O46  1  0.96954300  0.73076700  0.81140300  1
  O  O47  1  0.03045700  0.26923300  0.18859700  1
  O  O48  1  0.96954300  0.26923300  0.68859700  1
  O  O49  1  0.03045700  0.73076700  0.31140300  1
  O  O50  1  0.75380900  0.53989000  0.59207100  1
  O  O51  1  0.24619100  0.46011000  0.40792900  1
  O  O52  1  0.75380900  0.46011000  0.90792900  1
  O  O53  1  0.24619100  0.53989000  0.09207100  1
