# generated using pymatgen
data_TbMgTl
_symmetry_space_group_name_H-M   'P 1'
_cell_length_a   7.60427360
_cell_length_b   7.60427360
_cell_length_c   4.68889500
_cell_angle_alpha   90.00000000
_cell_angle_beta   90.00000000
_cell_angle_gamma   119.99999652
_symmetry_Int_Tables_number   1
_chemical_formula_structural   TbMgTl
_chemical_formula_sum   'Tb3 Mg3 Tl3'
_cell_volume   234.81001868
_cell_formula_units_Z   3
loop_
 _symmetry_equiv_pos_site_id
 _symmetry_equiv_pos_as_xyz
  1  'x, y, z'
loop_
 _atom_site_type_symbol
 _atom_site_label
 _atom_site_symmetry_multiplicity
 _atom_site_fract_x
 _atom_site_fract_y
 _atom_site_fract_z
 _atom_site_occupancy
  Tb  Tb0  1  0.57097300  0.00000000  0.00000000  1
  Tb  Tb1  1  0.00000000  0.57097300  0.00000000  1
  Tb  Tb2  1  0.42902700  0.42902700  0.00000000  1
  Mg  Mg3  1  0.24409800  0.00000000  0.50000000  1
  Mg  Mg4  1  0.00000000  0.24409800  0.50000000  1
  Mg  Mg5  1  0.75590200  0.75590200  0.50000000  1
  Tl  Tl6  1  0.33333300  0.66666700  0.50000000  1
  Tl  Tl7  1  0.66666700  0.33333300  0.50000000  1
  Tl  Tl8  1  0.00000000  0.00000000  0.00000000  1
