# generated using pymatgen
data_Ce2Si2Sn
_symmetry_space_group_name_H-M   'P 1'
_cell_length_a   7.25466100
_cell_length_b   7.25466100
_cell_length_c   4.38745600
_cell_angle_alpha   90.00000000
_cell_angle_beta   90.00000000
_cell_angle_gamma   90.00000000
_symmetry_Int_Tables_number   1
_chemical_formula_structural   Ce2Si2Sn
_chemical_formula_sum   'Ce4 Si4 Sn2'
_cell_volume   230.91227534
_cell_formula_units_Z   2
loop_
 _symmetry_equiv_pos_site_id
 _symmetry_equiv_pos_as_xyz
  1  'x, y, z'
loop_
 _atom_site_type_symbol
 _atom_site_label
 _atom_site_symmetry_multiplicity
 _atom_site_fract_x
 _atom_site_fract_y
 _atom_site_fract_z
 _atom_site_occupancy
  Ce  Ce0  1  0.67800700  0.17800700  0.50000000  1
  Ce  Ce1  1  0.32199300  0.82199300  0.50000000  1
  Ce  Ce2  1  0.17800700  0.32199300  0.50000000  1
  Ce  Ce3  1  0.82199300  0.67800700  0.50000000  1
  Si  Si4  1  0.11548100  0.61548100  0.00000000  1
  Si  Si5  1  0.88451900  0.38451900  0.00000000  1
  Si  Si6  1  0.61548100  0.88451900  0.00000000  1
  Si  Si7  1  0.38451900  0.11548100  0.00000000  1
  Sn  Sn8  1  0.00000000  0.00000000  0.00000000  1
  Sn  Sn9  1  0.50000000  0.50000000  0.00000000  1
