# generated using pymatgen
data_CrNiPO5
_symmetry_space_group_name_H-M   'P 1'
_cell_length_a   5.38702908
_cell_length_b   5.38707808
_cell_length_c   7.18729914
_cell_angle_alpha   68.31937459
_cell_angle_beta   68.31970758
_cell_angle_gamma   90.28776125
_symmetry_Int_Tables_number   1
_chemical_formula_structural   CrNiPO5
_chemical_formula_sum   'Cr2 Ni2 P2 O10'
_cell_volume   177.67692596
_cell_formula_units_Z   2
loop_
 _symmetry_equiv_pos_site_id
 _symmetry_equiv_pos_as_xyz
  1  'x, y, z'
loop_
 _atom_site_type_symbol
 _atom_site_label
 _atom_site_symmetry_multiplicity
 _atom_site_fract_x
 _atom_site_fract_y
 _atom_site_fract_z
 _atom_site_occupancy
  Cr  Cr0  1  0.50001200  0.50000500  0.99998500  1
  Cr  Cr1  1  0.99999400  0.00001000  0.49999900  1
  Ni  Ni2  1  0.49999500  0.00000700  0.50001000  1
  Ni  Ni3  1  0.50000100  0.99998100  0.00000400  1
  P  P4  1  0.88008500  0.61992100  0.24999600  1
  P  P5  1  0.11991100  0.38009000  0.75000200  1
  O  O6  1  0.63407300  0.86592500  0.75000300  1
  O  O7  1  0.36593400  0.13407000  0.25000000  1
  O  O8  1  0.29928600  0.31728800  0.88180000  1
  O  O9  1  0.81728800  0.79930400  0.38180400  1
  O  O10  1  0.70070800  0.68270900  0.11820300  1
  O  O11  1  0.18271300  0.20071000  0.61819900  1
  O  O12  1  0.81194100  0.31166200  0.39137600  1
  O  O13  1  0.81167100  0.31193800  0.89137500  1
  O  O14  1  0.18805900  0.68832800  0.60862100  1
  O  O15  1  0.18833000  0.68805300  0.10862400  1
