# generated using pymatgen
data_ZnAg(PO3)3
_symmetry_space_group_name_H-M   'P 1'
_cell_length_a   10.15163100
_cell_length_b   10.89338800
_cell_length_c   14.17462600
_cell_angle_alpha   90.00000000
_cell_angle_beta   90.00000000
_cell_angle_gamma   90.00000000
_symmetry_Int_Tables_number   1
_chemical_formula_structural   ZnAg(PO3)3
_chemical_formula_sum   'Zn8 Ag8 P24 O72'
_cell_volume   1567.51030507
_cell_formula_units_Z   8
loop_
 _symmetry_equiv_pos_site_id
 _symmetry_equiv_pos_as_xyz
  1  'x, y, z'
loop_
 _atom_site_type_symbol
 _atom_site_label
 _atom_site_symmetry_multiplicity
 _atom_site_fract_x
 _atom_site_fract_y
 _atom_site_fract_z
 _atom_site_occupancy
  Zn  Zn0  1  0.50000000  0.00000000  0.50000000  1
  Zn  Zn1  1  0.50000000  0.00000000  0.00000000  1
  Zn  Zn2  1  0.00000000  0.00000000  0.50000000  1
  Zn  Zn3  1  0.00000000  0.00000000  0.00000000  1
  Zn  Zn4  1  0.03267900  0.50000000  0.25000000  1
  Zn  Zn5  1  0.46732100  0.50000000  0.75000000  1
  Zn  Zn6  1  0.96732100  0.50000000  0.75000000  1
  Zn  Zn7  1  0.53267900  0.50000000  0.25000000  1
  Ag  Ag8  1  0.47824400  0.75196200  0.12363000  1
  Ag  Ag9  1  0.47824400  0.24803800  0.37637000  1
  Ag  Ag10  1  0.02175600  0.75196200  0.87637000  1
  Ag  Ag11  1  0.02175600  0.24803800  0.62363000  1
  Ag  Ag12  1  0.52175600  0.24803800  0.87637000  1
  Ag  Ag13  1  0.52175600  0.75196200  0.62363000  1
  Ag  Ag14  1  0.97824400  0.24803800  0.12363000  1
  Ag  Ag15  1  0.97824400  0.75196200  0.37637000  1
  P  P16  1  0.28502200  0.52842100  0.39901600  1
  P  P17  1  0.28502200  0.47157900  0.10098400  1
  P  P18  1  0.21497800  0.52842100  0.60098400  1
  P  P19  1  0.21497800  0.47157900  0.89901600  1
  P  P20  1  0.71497800  0.47157900  0.60098400  1
  P  P21  1  0.71497800  0.52842100  0.89901600  1
  P  P22  1  0.78502200  0.47157900  0.39901600  1
  P  P23  1  0.78502200  0.52842100  0.10098400  1
  P  P24  1  0.44898600  0.74836000  0.37395200  1
  P  P25  1  0.44898600  0.25164000  0.12604800  1
  P  P26  1  0.05101400  0.74836000  0.62604800  1
  P  P27  1  0.05101400  0.25164000  0.87395200  1
  P  P28  1  0.55101400  0.25164000  0.62604800  1
  P  P29  1  0.55101400  0.74836000  0.87395200  1
  P  P30  1  0.94898600  0.25164000  0.37395200  1
  P  P31  1  0.94898600  0.74836000  0.12604800  1
  P  P32  1  0.26191500  0.95439100  0.35136400  1
  P  P33  1  0.26191500  0.04560900  0.14863600  1
  P  P34  1  0.23808500  0.95439100  0.64863600  1
  P  P35  1  0.23808500  0.04560900  0.85136400  1
  P  P36  1  0.73808500  0.04560900  0.64863600  1
  P  P37  1  0.73808500  0.95439100  0.85136400  1
  P  P38  1  0.76191500  0.04560900  0.35136400  1
  P  P39  1  0.76191500  0.95439100  0.14863600  1
  O  O40  1  0.25000000  0.53169600  0.00000000  1
  O  O41  1  0.25000000  0.46830400  0.50000000  1
  O  O42  1  0.75000000  0.46830400  0.00000000  1
  O  O43  1  0.75000000  0.53169600  0.50000000  1
  O  O44  1  0.16108800  0.56643700  0.34974000  1
  O  O45  1  0.16108800  0.43356300  0.15026000  1
  O  O46  1  0.33891200  0.56643700  0.65026000  1
  O  O47  1  0.33891200  0.43356300  0.84974000  1
  O  O48  1  0.83891200  0.43356300  0.65026000  1
  O  O49  1  0.83891200  0.56643700  0.84974000  1
  O  O50  1  0.66108800  0.43356300  0.34974000  1
  O  O51  1  0.66108800  0.56643700  0.15026000  1
  O  O52  1  0.37930200  0.55691300  0.15026000  1
  O  O53  1  0.37930200  0.44308700  0.34974000  1
  O  O54  1  0.12069800  0.55691300  0.84974000  1
  O  O55  1  0.12069800  0.44308700  0.65026000  1
  O  O56  1  0.62069800  0.44308700  0.84974000  1
  O  O57  1  0.62069800  0.55691300  0.65026000  1
  O  O58  1  0.87930200  0.44308700  0.15026000  1
  O  O59  1  0.87930200  0.55691300  0.34974000  1
  O  O60  1  0.36226400  0.65102900  0.43343400  1
  O  O61  1  0.36226400  0.34897100  0.06656600  1
  O  O62  1  0.13773600  0.65102900  0.56656600  1
  O  O63  1  0.13773600  0.34897100  0.93343400  1
  O  O64  1  0.63773600  0.34897100  0.56656600  1
  O  O65  1  0.63773600  0.65102900  0.93343400  1
  O  O66  1  0.86226400  0.34897100  0.43343400  1
  O  O67  1  0.97583100  0.31709000  0.79784200  1
  O  O68  1  0.86226400  0.65102900  0.06656600  1
  O  O69  1  0.52310000  0.17665300  0.05458000  1
  O  O70  1  0.97690000  0.82334700  0.55458000  1
  O  O71  1  0.97690000  0.17665300  0.94542000  1
  O  O72  1  0.47690000  0.17665300  0.55458000  1
  O  O73  1  0.47690000  0.82334700  0.94542000  1
  O  O74  1  0.02310000  0.17665300  0.44542000  1
  O  O75  1  0.02310000  0.82334700  0.05458000  1
  O  O76  1  0.02416900  0.68291000  0.20215800  1
  O  O77  1  0.02416900  0.31709000  0.29784200  1
  O  O78  1  0.47583100  0.68291000  0.79784200  1
  O  O79  1  0.47583100  0.31709000  0.70215800  1
  O  O80  1  0.71016100  0.00000000  0.25000000  1
  O  O81  1  0.78983900  0.00000000  0.75000000  1
  O  O82  1  0.28983900  0.00000000  0.75000000  1
  O  O83  1  0.21016100  0.00000000  0.25000000  1
  O  O84  1  0.64130800  0.91816400  0.09353900  1
  O  O85  1  0.64130800  0.08183600  0.40646100  1
  O  O86  1  0.85869200  0.91816400  0.90646100  1
  O  O87  1  0.85869200  0.08183600  0.59353900  1
  O  O88  1  0.35869200  0.08183600  0.90646100  1
  O  O89  1  0.35869200  0.91816400  0.59353900  1
  O  O90  1  0.14130800  0.08183600  0.09353900  1
  O  O91  1  0.14130800  0.91816400  0.40646100  1
  O  O92  1  0.85765900  0.95571600  0.39389200  1
  O  O93  1  0.85765900  0.04428400  0.10610800  1
  O  O94  1  0.64234100  0.95571600  0.60610800  1
  O  O95  1  0.64234100  0.04428400  0.89389200  1
  O  O96  1  0.14234100  0.04428400  0.60610800  1
  O  O97  1  0.14234100  0.95571600  0.89389200  1
  O  O98  1  0.35765900  0.04428400  0.39389200  1
  O  O99  1  0.35765900  0.95571600  0.10610800  1
  O  O100  1  0.83962500  0.83071200  0.17976100  1
  O  O101  1  0.83962500  0.16928800  0.32023900  1
  O  O102  1  0.66037500  0.83071200  0.82023900  1
  O  O103  1  0.66037500  0.16928800  0.67976100  1
  O  O104  1  0.16037500  0.16928800  0.82023900  1
  O  O105  1  0.16037500  0.83071200  0.67976100  1
  O  O106  1  0.33962500  0.16928800  0.17976100  1
  O  O107  1  0.33962500  0.83071200  0.32023900  1
  O  O108  1  0.52416900  0.68291000  0.29784200  1
  O  O109  1  0.52416900  0.31709000  0.20215800  1
  O  O110  1  0.97583100  0.68291000  0.70215800  1
  O  O111  1  0.52310000  0.82334700  0.44542000  1
