# generated using pymatgen
data_SrN2
_symmetry_space_group_name_H-M   'P 1'
_cell_length_a   4.16547334
_cell_length_b   4.16547334
_cell_length_c   4.16547334
_cell_angle_alpha   124.72620862
_cell_angle_beta   124.72620862
_cell_angle_gamma   81.99201725
_symmetry_Int_Tables_number   1
_chemical_formula_structural   SrN2
_chemical_formula_sum   'Sr1 N2'
_cell_volume   46.95106578
_cell_formula_units_Z   1
loop_
 _symmetry_equiv_pos_site_id
 _symmetry_equiv_pos_as_xyz
  1  'x, y, z'
loop_
 _atom_site_type_symbol
 _atom_site_label
 _atom_site_symmetry_multiplicity
 _atom_site_fract_x
 _atom_site_fract_y
 _atom_site_fract_z
 _atom_site_occupancy
  Sr  Sr0  1  0.00000000  0.00000000  0.00000000  1
  N  N1  1  0.59961600  0.59961600  0.00000000  1
  N  N2  1  0.40038400  0.40038400  0.00000000  1
