# generated using pymatgen
data_KYS2
_symmetry_space_group_name_H-M   'P 1'
_cell_length_a   7.76756202
_cell_length_b   7.76756202
_cell_length_c   7.76756213
_cell_angle_alpha   30.24332359
_cell_angle_beta   30.24332359
_cell_angle_gamma   30.24332259
_symmetry_Int_Tables_number   1
_chemical_formula_structural   KYS2
_chemical_formula_sum   'K1 Y1 S2'
_cell_volume   105.35039098
_cell_formula_units_Z   1
loop_
 _symmetry_equiv_pos_site_id
 _symmetry_equiv_pos_as_xyz
  1  'x, y, z'
loop_
 _atom_site_type_symbol
 _atom_site_label
 _atom_site_symmetry_multiplicity
 _atom_site_fract_x
 _atom_site_fract_y
 _atom_site_fract_z
 _atom_site_occupancy
  K  K0  1  0.50000000  0.50000000  0.50000000  1
  Y  Y1  1  0.00000000  0.00000000  0.00000000  1
  S  S2  1  0.73382900  0.73382900  0.73382900  1
  S  S3  1  0.26617100  0.26617100  0.26617100  1
