# generated using pymatgen
data_Tm3Ga2
_symmetry_space_group_name_H-M   'P 1'
_cell_length_a   10.94377825
_cell_length_b   10.94377825
_cell_length_c   10.94377825
_cell_angle_alpha   116.84767603
_cell_angle_beta   116.84767603
_cell_angle_gamma   95.55261463
_symmetry_Int_Tables_number   1
_chemical_formula_structural   Tm3Ga2
_chemical_formula_sum   'Tm24 Ga16'
_cell_volume   966.05089243
_cell_formula_units_Z   8
loop_
 _symmetry_equiv_pos_site_id
 _symmetry_equiv_pos_as_xyz
  1  'x, y, z'
loop_
 _atom_site_type_symbol
 _atom_site_label
 _atom_site_symmetry_multiplicity
 _atom_site_fract_x
 _atom_site_fract_y
 _atom_site_fract_z
 _atom_site_occupancy
  Tm  Tm0  1  0.14635900  0.64635900  0.50000000  1
  Tm  Tm1  1  0.64635900  0.14635900  0.50000000  1
  Tm  Tm2  1  0.85364100  0.35364100  0.50000000  1
  Tm  Tm3  1  0.35364100  0.85364100  0.50000000  1
  Tm  Tm4  1  0.66898000  0.16898000  0.83796000  1
  Tm  Tm5  1  0.33102000  0.83102000  0.16204000  1
  Tm  Tm6  1  0.16898000  0.33102000  0.50000000  1
  Tm  Tm7  1  0.83102000  0.66898000  0.50000000  1
  Tm  Tm8  1  0.06753500  0.93107700  0.27131500  1
  Tm  Tm9  1  0.65976200  0.79622000  0.72868500  1
  Tm  Tm10  1  0.56753500  0.29622000  0.13645800  1
  Tm  Tm11  1  0.15976200  0.43107700  0.86354200  1
  Tm  Tm12  1  0.79622000  0.06753500  0.13645800  1
  Tm  Tm13  1  0.93107700  0.65976200  0.86354200  1
  Tm  Tm14  1  0.43107700  0.56753500  0.27131500  1
  Tm  Tm15  1  0.29622000  0.15976200  0.72868500  1
  Tm  Tm16  1  0.93246500  0.06892300  0.72868500  1
  Tm  Tm17  1  0.34023800  0.20378000  0.27131500  1
  Tm  Tm18  1  0.43246500  0.70378000  0.86354200  1
  Tm  Tm19  1  0.84023800  0.56892300  0.13645800  1
  Tm  Tm20  1  0.20378000  0.93246500  0.86354200  1
  Tm  Tm21  1  0.06892300  0.34023800  0.13645800  1
  Tm  Tm22  1  0.56892300  0.43246500  0.72868500  1
  Tm  Tm23  1  0.70378000  0.84023800  0.27131500  1
  Ga  Ga24  1  0.75000000  0.75000000  0.00000000  1
  Ga  Ga25  1  0.25000000  0.25000000  0.00000000  1
  Ga  Ga26  1  0.00000000  0.00000000  0.00000000  1
  Ga  Ga27  1  0.50000000  0.50000000  0.00000000  1
  Ga  Ga28  1  0.11764300  0.61764300  0.73528600  1
  Ga  Ga29  1  0.88235700  0.38235700  0.26471400  1
  Ga  Ga30  1  0.61764300  0.88235700  0.50000000  1
  Ga  Ga31  1  0.38235700  0.11764300  0.50000000  1
  Ga  Ga32  1  0.87792100  0.37792100  0.85466300  1
  Ga  Ga33  1  0.52325800  0.02325800  0.14533700  1
  Ga  Ga34  1  0.37792100  0.52325800  0.50000000  1
  Ga  Ga35  1  0.02325800  0.87792100  0.50000000  1
  Ga  Ga36  1  0.12207900  0.62207900  0.14533700  1
  Ga  Ga37  1  0.47674200  0.97674200  0.85466300  1
  Ga  Ga38  1  0.62207900  0.47674200  0.50000000  1
  Ga  Ga39  1  0.97674200  0.12207900  0.50000000  1
