# generated using pymatgen
data_Cd3B4(PbO4)3
_symmetry_space_group_name_H-M   'P 1'
_cell_length_a   10.14711220
_cell_length_b   10.14711220
_cell_length_c   7.11982800
_cell_angle_alpha   90.00000000
_cell_angle_beta   90.00000000
_cell_angle_gamma   120.00000132
_symmetry_Int_Tables_number   1
_chemical_formula_structural   Cd3B4(PbO4)3
_chemical_formula_sum   'Cd6 B8 Pb6 O24'
_cell_volume   634.87036223
_cell_formula_units_Z   2
loop_
 _symmetry_equiv_pos_site_id
 _symmetry_equiv_pos_as_xyz
  1  'x, y, z'
loop_
 _atom_site_type_symbol
 _atom_site_label
 _atom_site_symmetry_multiplicity
 _atom_site_fract_x
 _atom_site_fract_y
 _atom_site_fract_z
 _atom_site_occupancy
  Cd  Cd0  1  0.50000000  0.00000000  0.00000000  1
  Cd  Cd1  1  0.50000000  0.50000000  0.00000000  1
  Cd  Cd2  1  0.00000000  0.50000000  0.00000000  1
  Cd  Cd3  1  0.50000000  0.00000000  0.50000000  1
  Cd  Cd4  1  0.50000000  0.50000000  0.50000000  1
  Cd  Cd5  1  0.00000000  0.50000000  0.50000000  1
  B  B6  1  0.60781500  0.80885300  0.75000000  1
  B  B7  1  0.20103900  0.39218500  0.75000000  1
  B  B8  1  0.19114700  0.79896100  0.75000000  1
  B  B9  1  0.39218500  0.19114700  0.25000000  1
  B  B10  1  0.79896100  0.60781500  0.25000000  1
  B  B11  1  0.80885300  0.20103900  0.25000000  1
  B  B12  1  0.66666700  0.33333300  0.75000000  1
  B  B13  1  0.33333300  0.66666700  0.25000000  1
  Pb  Pb14  1  0.84747300  0.13316400  0.75000000  1
  Pb  Pb15  1  0.28569200  0.15252700  0.75000000  1
  Pb  Pb16  1  0.86683600  0.71430800  0.75000000  1
  Pb  Pb17  1  0.15252700  0.86683600  0.25000000  1
  Pb  Pb18  1  0.71430800  0.84747300  0.25000000  1
  Pb  Pb19  1  0.13316400  0.28569200  0.25000000  1
  O  O20  1  0.65093700  0.18843000  0.75000000  1
  O  O21  1  0.53749300  0.34906300  0.75000000  1
  O  O22  1  0.81157000  0.46250700  0.75000000  1
  O  O23  1  0.34906300  0.81157000  0.25000000  1
  O  O24  1  0.46250700  0.65093700  0.25000000  1
  O  O25  1  0.18843000  0.53749300  0.25000000  1
  O  O26  1  0.34583400  0.89351000  0.75000000  1
  O  O27  1  0.54767500  0.65416600  0.75000000  1
  O  O28  1  0.10649000  0.45232500  0.75000000  1
  O  O29  1  0.65416600  0.10649000  0.25000000  1
  O  O30  1  0.45232500  0.34583400  0.25000000  1
  O  O31  1  0.89351000  0.54767500  0.25000000  1
  O  O32  1  0.64829100  0.89402400  0.91674600  1
  O  O33  1  0.24573300  0.35170900  0.91674600  1
  O  O34  1  0.10597600  0.75426700  0.91674600  1
  O  O35  1  0.35170900  0.10597600  0.41674600  1
  O  O36  1  0.75426700  0.64829100  0.41674600  1
  O  O37  1  0.89402400  0.24573300  0.41674600  1
  O  O38  1  0.35170900  0.10597600  0.08325400  1
  O  O39  1  0.75426700  0.64829100  0.08325400  1
  O  O40  1  0.89402400  0.24573300  0.08325400  1
  O  O41  1  0.64829100  0.89402400  0.58325400  1
  O  O42  1  0.24573300  0.35170900  0.58325400  1
  O  O43  1  0.10597600  0.75426700  0.58325400  1
