# generated using pymatgen
data_Yb11(SnBi4)2
_symmetry_space_group_name_H-M   'P 1'
_cell_length_a   12.32798001
_cell_length_b   12.32798001
_cell_length_c   12.32798001
_cell_angle_alpha   120.76010439
_cell_angle_beta   120.76010439
_cell_angle_gamma   88.68842647
_symmetry_Int_Tables_number   1
_chemical_formula_structural   Yb11(SnBi4)2
_chemical_formula_sum   'Yb22 Sn4 Bi16'
_cell_volume   1309.23877395
_cell_formula_units_Z   2
loop_
 _symmetry_equiv_pos_site_id
 _symmetry_equiv_pos_as_xyz
  1  'x, y, z'
loop_
 _atom_site_type_symbol
 _atom_site_label
 _atom_site_symmetry_multiplicity
 _atom_site_fract_x
 _atom_site_fract_y
 _atom_site_fract_z
 _atom_site_occupancy
  Yb  Yb0  1  0.66747000  0.66747000  0.00000000  1
  Yb  Yb1  1  0.33253000  0.33253000  0.00000000  1
  Yb  Yb2  1  0.60227400  0.93772500  0.33545000  1
  Yb  Yb3  1  0.60227400  0.26682400  0.66455000  1
  Yb  Yb4  1  0.93772500  0.60227400  0.33545000  1
  Yb  Yb5  1  0.26682400  0.60227400  0.66455000  1
  Yb  Yb6  1  0.39772600  0.06227500  0.66455000  1
  Yb  Yb7  1  0.39772600  0.73317600  0.33545000  1
  Yb  Yb8  1  0.06227500  0.39772600  0.66455000  1
  Yb  Yb9  1  0.73317600  0.39772600  0.33545000  1
  Yb  Yb10  1  0.81048100  0.06201100  0.25153000  1
  Yb  Yb11  1  0.81048100  0.55895100  0.74847000  1
  Yb  Yb12  1  0.06201100  0.81048100  0.25153000  1
  Yb  Yb13  1  0.55895100  0.81048100  0.74847000  1
  Yb  Yb14  1  0.18951900  0.93798900  0.74847000  1
  Yb  Yb15  1  0.18951900  0.44104900  0.25153000  1
  Yb  Yb16  1  0.93798900  0.18951900  0.74847000  1
  Yb  Yb17  1  0.44104900  0.18951900  0.25153000  1
  Yb  Yb18  1  0.82746100  0.82746100  0.65492200  1
  Yb  Yb19  1  0.17253900  0.17253900  0.34507800  1
  Yb  Yb20  1  0.82746100  0.17253900  0.00000000  1
  Yb  Yb21  1  0.17253900  0.82746100  0.00000000  1
  Sn  Sn22  1  0.62371200  0.62371200  0.24742300  1
  Sn  Sn23  1  0.37628800  0.37628800  0.75257700  1
  Sn  Sn24  1  0.62371200  0.37628800  0.00000000  1
  Sn  Sn25  1  0.37628800  0.62371200  0.00000000  1
  Bi  Bi26  1  0.75000000  0.25000000  0.50000000  1
  Bi  Bi27  1  0.25000000  0.75000000  0.50000000  1
  Bi  Bi28  1  0.64937600  0.00000000  0.64937600  1
  Bi  Bi29  1  0.35062400  0.00000000  0.35062400  1
  Bi  Bi30  1  0.00000000  0.35062400  0.35062400  1
  Bi  Bi31  1  0.00000000  0.64937600  0.64937600  1
  Bi  Bi32  1  0.87575500  0.87575500  0.00000000  1
  Bi  Bi33  1  0.12424500  0.12424500  0.00000000  1
  Bi  Bi34  1  0.87524200  0.87524200  0.40808200  1
  Bi  Bi35  1  0.46716000  0.46716000  0.59191800  1
  Bi  Bi36  1  0.87524200  0.46716000  0.00000000  1
  Bi  Bi37  1  0.46716000  0.87524200  0.00000000  1
  Bi  Bi38  1  0.12475800  0.12475800  0.59191800  1
  Bi  Bi39  1  0.53284000  0.53284000  0.40808200  1
  Bi  Bi40  1  0.12475800  0.53284000  0.00000000  1
  Bi  Bi41  1  0.53284000  0.12475800  0.00000000  1
