# generated using pymatgen
data_ErGe2Ir
_symmetry_space_group_name_H-M   'P 1'
_cell_length_a   9.45570520
_cell_length_b   9.45570520
_cell_length_c   9.45570520
_cell_angle_alpha   154.01738557
_cell_angle_beta   123.88085420
_cell_angle_gamma   62.84528943
_symmetry_Int_Tables_number   1
_chemical_formula_structural   ErGe2Ir
_chemical_formula_sum   'Er4 Ge8 Ir4'
_cell_volume   305.15910118
_cell_formula_units_Z   4
loop_
 _symmetry_equiv_pos_site_id
 _symmetry_equiv_pos_as_xyz
  1  'x, y, z'
loop_
 _atom_site_type_symbol
 _atom_site_label
 _atom_site_symmetry_multiplicity
 _atom_site_fract_x
 _atom_site_fract_y
 _atom_site_fract_z
 _atom_site_occupancy
  Er  Er0  1  0.70478000  0.20478000  0.50000000  1
  Er  Er1  1  0.26387400  0.00000000  0.26387400  1
  Er  Er2  1  0.29522000  0.79522000  0.50000000  1
  Er  Er3  1  0.73612600  0.00000000  0.73612600  1
  Ge  Ge4  1  0.04927100  0.20154700  0.84772300  1
  Ge  Ge5  1  0.95072900  0.79845300  0.15227700  1
  Ge  Ge6  1  0.64617600  0.79845300  0.84772300  1
  Ge  Ge7  1  0.35382400  0.20154700  0.15227700  1
  Ge  Ge8  1  0.57672400  0.57672400  0.00000000  1
  Ge  Ge9  1  0.92233400  0.42233400  0.50000000  1
  Ge  Ge10  1  0.07766600  0.57766600  0.50000000  1
  Ge  Ge11  1  0.42327600  0.42327600  0.00000000  1
  Ir  Ir12  1  0.60531700  0.35495400  0.25036300  1
  Ir  Ir13  1  0.39468300  0.64504600  0.74963700  1
  Ir  Ir14  1  0.89540900  0.64504600  0.25036300  1
  Ir  Ir15  1  0.10459100  0.35495400  0.74963700  1
