# generated using pymatgen
data_NbCu3(SeS)2
_symmetry_space_group_name_H-M   'P 1'
_cell_length_a   5.61866591
_cell_length_b   5.61866591
_cell_length_c   5.61475200
_cell_angle_alpha   90.00000000
_cell_angle_beta   90.00000000
_cell_angle_gamma   91.54106334
_symmetry_Int_Tables_number   1
_chemical_formula_structural   NbCu3(SeS)2
_chemical_formula_sum   'Nb1 Cu3 Se2 S2'
_cell_volume   177.19027738
_cell_formula_units_Z   1
loop_
 _symmetry_equiv_pos_site_id
 _symmetry_equiv_pos_as_xyz
  1  'x, y, z'
loop_
 _atom_site_type_symbol
 _atom_site_label
 _atom_site_symmetry_multiplicity
 _atom_site_fract_x
 _atom_site_fract_y
 _atom_site_fract_z
 _atom_site_occupancy
  Nb  Nb0  1  0.00000000  0.00000000  0.99759000  1
  Cu  Cu1  1  0.50000000  0.00000000  0.01494800  1
  Cu  Cu2  1  0.00000000  0.50000000  0.01494800  1
  Cu  Cu3  1  0.00000000  0.00000000  0.49227500  1
  Se  Se4  1  0.74210300  0.74210300  0.74838400  1
  Se  Se5  1  0.25789700  0.25789700  0.74838400  1
  S  S6  1  0.23506500  0.76493500  0.24173500  1
  S  S7  1  0.76493500  0.23506500  0.24173500  1
