# generated using pymatgen
data_Mn2SiO4
_symmetry_space_group_name_H-M   'P 1'
_cell_length_a   4.94853300
_cell_length_b   6.34087600
_cell_length_c   10.75826500
_cell_angle_alpha   89.99998564
_cell_angle_beta   90.00016093
_cell_angle_gamma   90.00000000
_symmetry_Int_Tables_number   1
_chemical_formula_structural   Mn2SiO4
_chemical_formula_sum   'Mn8 Si4 O16'
_cell_volume   337.57320640
_cell_formula_units_Z   4
loop_
 _symmetry_equiv_pos_site_id
 _symmetry_equiv_pos_as_xyz
  1  'x, y, z'
loop_
 _atom_site_type_symbol
 _atom_site_label
 _atom_site_symmetry_multiplicity
 _atom_site_fract_x
 _atom_site_fract_y
 _atom_site_fract_z
 _atom_site_occupancy
  Mn  Mn0  1  0.98887000  0.24999800  0.27992200  1
  Mn  Mn1  1  0.01114700  0.75000000  0.72006700  1
  Mn  Mn2  1  0.00000700  0.50000500  0.99999900  1
  Mn  Mn3  1  0.00000400  0.99999900  0.00000300  1
  Mn  Mn4  1  0.48886200  0.75000000  0.22005000  1
  Mn  Mn5  1  0.51115500  0.25000000  0.77996000  1
  Mn  Mn6  1  0.49999600  0.49999900  0.50000000  1
  Mn  Mn7  1  0.49998500  0.99999500  0.50000500  1
  Si  Si8  1  0.92706300  0.75000000  0.40400600  1
  Si  Si9  1  0.42706900  0.25000000  0.09598900  1
  Si  Si10  1  0.07293400  0.25000000  0.59599300  1
  Si  Si11  1  0.57292900  0.75000000  0.90401100  1
  O  O12  1  0.71056000  0.75000000  0.04663200  1
  O  O13  1  0.21057900  0.25000000  0.45337200  1
  O  O14  1  0.28943700  0.25000000  0.95336700  1
  O  O15  1  0.78941800  0.75000000  0.54662700  1
  O  O16  1  0.24182900  0.75000000  0.90627400  1
  O  O17  1  0.74183900  0.25000000  0.59372000  1
  O  O18  1  0.75816900  0.25000000  0.09372600  1
  O  O19  1  0.25815800  0.75000000  0.40627900  1
  O  O20  1  0.21315400  0.45845000  0.66344500  1
  O  O21  1  0.71314100  0.54154100  0.83654800  1
  O  O22  1  0.78684400  0.95845000  0.33655500  1
  O  O23  1  0.28685600  0.04154100  0.16345200  1
  O  O24  1  0.78684400  0.54155000  0.33655500  1
  O  O25  1  0.28685600  0.45845900  0.16345200  1
  O  O26  1  0.21315400  0.04155000  0.66344500  1
  O  O27  1  0.71314100  0.95845900  0.83654800  1
