# generated using pymatgen
data_Gd(CuS)3
_symmetry_space_group_name_H-M   'P 1'
_cell_length_a   7.53900065
_cell_length_b   7.53900065
_cell_length_c   7.53900110
_cell_angle_alpha   53.36001760
_cell_angle_beta   53.36001760
_cell_angle_gamma   53.36001680
_symmetry_Int_Tables_number   1
_chemical_formula_structural   Gd(CuS)3
_chemical_formula_sum   'Gd2 Cu6 S6'
_cell_volume   255.89030539
_cell_formula_units_Z   2
loop_
 _symmetry_equiv_pos_site_id
 _symmetry_equiv_pos_as_xyz
  1  'x, y, z'
loop_
 _atom_site_type_symbol
 _atom_site_label
 _atom_site_symmetry_multiplicity
 _atom_site_fract_x
 _atom_site_fract_y
 _atom_site_fract_z
 _atom_site_occupancy
  Gd  Gd0  1  0.66662600  0.66662600  0.66662600  1
  Gd  Gd1  1  0.33337400  0.33337400  0.33337400  1
  Cu  Cu2  1  0.78944600  0.45812700  0.12369800  1
  Cu  Cu3  1  0.45812700  0.12369800  0.78944600  1
  Cu  Cu4  1  0.12369800  0.78944600  0.45812700  1
  Cu  Cu5  1  0.87630200  0.21055400  0.54187300  1
  Cu  Cu6  1  0.54187300  0.87630200  0.21055400  1
  Cu  Cu7  1  0.21055400  0.54187300  0.87630200  1
  S  S8  1  0.24810500  0.91617200  0.58316300  1
  S  S9  1  0.58316300  0.24810500  0.91617200  1
  S  S10  1  0.91617200  0.58316300  0.24810500  1
  S  S11  1  0.08382800  0.41683700  0.75189500  1
  S  S12  1  0.41683700  0.75189500  0.08382800  1
  S  S13  1  0.75189500  0.08382800  0.41683700  1
