# generated using pymatgen
data_Re3B
_symmetry_space_group_name_H-M   'P 1'
_cell_length_a   4.92520643
_cell_length_b   4.92520643
_cell_length_c   7.36813500
_cell_angle_alpha   90.00000000
_cell_angle_beta   90.00000000
_cell_angle_gamma   145.61415493
_symmetry_Int_Tables_number   1
_chemical_formula_structural   Re3B
_chemical_formula_sum   'Re6 B2'
_cell_volume   100.94220692
_cell_formula_units_Z   2
loop_
 _symmetry_equiv_pos_site_id
 _symmetry_equiv_pos_as_xyz
  1  'x, y, z'
loop_
 _atom_site_type_symbol
 _atom_site_label
 _atom_site_symmetry_multiplicity
 _atom_site_fract_x
 _atom_site_fract_y
 _atom_site_fract_z
 _atom_site_occupancy
  Re  Re0  1  0.13308900  0.86691100  0.43456900  1
  Re  Re1  1  0.86691100  0.13308900  0.56543100  1
  Re  Re2  1  0.57655100  0.42344900  0.75000000  1
  Re  Re3  1  0.42344900  0.57655100  0.25000000  1
  Re  Re4  1  0.13308900  0.86691100  0.06543100  1
  Re  Re5  1  0.86691100  0.13308900  0.93456900  1
  B  B6  1  0.74482500  0.25517500  0.25000000  1
  B  B7  1  0.25517500  0.74482500  0.75000000  1
