# generated using pymatgen
data_Ba3NaY3(Si3O10)2
_symmetry_space_group_name_H-M   'P 1'
_cell_length_a   12.30115740
_cell_length_b   12.30115740
_cell_length_c   14.85988500
_cell_angle_alpha   90.00000000
_cell_angle_beta   90.00000000
_cell_angle_gamma   153.73486593
_symmetry_Int_Tables_number   1
_chemical_formula_structural   Ba3NaY3(Si3O10)2
_chemical_formula_sum   'Ba6 Na2 Y6 Si12 O40'
_cell_volume   995.05199352
_cell_formula_units_Z   2
loop_
 _symmetry_equiv_pos_site_id
 _symmetry_equiv_pos_as_xyz
  1  'x, y, z'
loop_
 _atom_site_type_symbol
 _atom_site_label
 _atom_site_symmetry_multiplicity
 _atom_site_fract_x
 _atom_site_fract_y
 _atom_site_fract_z
 _atom_site_occupancy
  Ba  Ba0  1  0.00904700  0.85028100  0.25000000  1
  Ba  Ba1  1  0.85028100  0.00904700  0.75000000  1
  Ba  Ba2  1  0.68885600  0.17419700  0.88652200  1
  Ba  Ba3  1  0.17419700  0.68885600  0.11347800  1
  Ba  Ba4  1  0.68885600  0.17419700  0.61347800  1
  Ba  Ba5  1  0.17419700  0.68885600  0.38652200  1
  Na  Na6  1  0.47568200  0.25285700  0.75000000  1
  Na  Na7  1  0.25285700  0.47568200  0.25000000  1
  Y  Y8  1  0.61580200  0.39693500  0.02926700  1
  Y  Y9  1  0.39693500  0.61580200  0.97073300  1
  Y  Y10  1  0.61580200  0.39693500  0.47073300  1
  Y  Y11  1  0.39693500  0.61580200  0.52926700  1
  Y  Y12  1  0.99745600  0.99745600  0.00000000  1
  Y  Y13  1  0.99745600  0.99745600  0.50000000  1
  Si  Si14  1  0.63714000  0.28227700  0.25000000  1
  Si  Si15  1  0.28227700  0.63714000  0.75000000  1
  Si  Si16  1  0.11554800  0.81605700  0.94310500  1
  Si  Si17  1  0.81605700  0.11554800  0.05689500  1
  Si  Si18  1  0.11554800  0.81605700  0.55689500  1
  Si  Si19  1  0.81605700  0.11554800  0.44310500  1
  Si  Si20  1  0.44111600  0.44035500  0.86190300  1
  Si  Si21  1  0.44035500  0.44111600  0.13809700  1
  Si  Si22  1  0.44111600  0.44035500  0.63809700  1
  Si  Si23  1  0.44035500  0.44111600  0.36190300  1
  Si  Si24  1  0.10112300  0.71958300  0.75000000  1
  Si  Si25  1  0.71958300  0.10112300  0.25000000  1
  O  O26  1  0.95974100  0.78633400  0.96383100  1
  O  O27  1  0.78633400  0.95974100  0.03616900  1
  O  O28  1  0.95974100  0.78633400  0.53616900  1
  O  O29  1  0.78633400  0.95974100  0.46383100  1
  O  O30  1  0.91890700  0.54349600  0.96958000  1
  O  O31  1  0.54349600  0.91890700  0.03042000  1
  O  O32  1  0.91890700  0.54349600  0.53042000  1
  O  O33  1  0.54349600  0.91890700  0.46958000  1
  O  O34  1  0.45203400  0.43236500  0.75000000  1
  O  O35  1  0.43236500  0.45203400  0.25000000  1
  O  O36  1  0.19975300  0.88243900  0.83524500  1
  O  O37  1  0.88243900  0.19975300  0.16475500  1
  O  O38  1  0.19975300  0.88243900  0.66475500  1
  O  O39  1  0.88243900  0.19975300  0.33524500  1
  O  O40  1  0.78630700  0.29352600  0.25000000  1
  O  O41  1  0.29352600  0.78630700  0.75000000  1
  O  O42  1  0.66891400  0.72224900  0.89430400  1
  O  O43  1  0.72224900  0.66891400  0.10569600  1
  O  O44  1  0.66891400  0.72224900  0.60569600  1
  O  O45  1  0.72224900  0.66891400  0.39430400  1
  O  O46  1  0.36968900  0.02945800  0.00029700  1
  O  O47  1  0.02945800  0.36968900  0.99970300  1
  O  O48  1  0.36968900  0.02945800  0.49970300  1
  O  O49  1  0.02945800  0.36968900  0.50029700  1
  O  O50  1  0.74775200  0.44439600  0.16138200  1
  O  O51  1  0.44439600  0.74775200  0.83861800  1
  O  O52  1  0.74775200  0.44439600  0.33861800  1
  O  O53  1  0.44439600  0.74775200  0.66138200  1
  O  O54  1  0.28355200  0.19010500  0.11004500  1
  O  O55  1  0.19010500  0.28355200  0.88995500  1
  O  O56  1  0.28355200  0.19010500  0.38995500  1
  O  O57  1  0.19010500  0.28355200  0.61004500  1
  O  O58  1  0.34488600  0.99438800  0.25000000  1
  O  O59  1  0.99438800  0.34488600  0.75000000  1
  O  O60  1  0.42201900  0.30531300  0.90999500  1
  O  O61  1  0.30531300  0.42201900  0.09000500  1
  O  O62  1  0.42201900  0.30531300  0.59000500  1
  O  O63  1  0.30531300  0.42201900  0.40999500  1
  O  O64  1  0.81553900  0.43357000  0.75000000  1
  O  O65  1  0.43357000  0.81553900  0.25000000  1
