# generated using pymatgen
data_Ca2(ZnAu3)3
_symmetry_space_group_name_H-M   'P 1'
_cell_length_a   5.75107655
_cell_length_b   5.75107655
_cell_length_c   9.91695900
_cell_angle_alpha   90.00000000
_cell_angle_beta   90.00000000
_cell_angle_gamma   124.16135708
_symmetry_Int_Tables_number   1
_chemical_formula_structural   Ca2(ZnAu3)3
_chemical_formula_sum   'Ca2 Zn3 Au9'
_cell_volume   271.40856624
_cell_formula_units_Z   1
loop_
 _symmetry_equiv_pos_site_id
 _symmetry_equiv_pos_as_xyz
  1  'x, y, z'
loop_
 _atom_site_type_symbol
 _atom_site_label
 _atom_site_symmetry_multiplicity
 _atom_site_fract_x
 _atom_site_fract_y
 _atom_site_fract_z
 _atom_site_occupancy
  Ca  Ca0  1  0.00000000  0.50000000  0.75525100  1
  Ca  Ca1  1  0.50000000  0.00000000  0.24474900  1
  Zn  Zn2  1  0.00000000  0.00000000  0.50000000  1
  Zn  Zn3  1  0.00000000  0.00000000  0.00000000  1
  Zn  Zn4  1  0.50000000  0.50000000  0.50000000  1
  Au  Au5  1  0.00000000  0.50000000  0.05711700  1
  Au  Au6  1  0.50000000  0.00000000  0.54531700  1
  Au  Au7  1  0.50000000  0.00000000  0.94288300  1
  Au  Au8  1  0.00000000  0.50000000  0.45468300  1
  Au  Au9  1  0.70292400  0.80259100  0.74125500  1
  Au  Au10  1  0.19740900  0.29707600  0.25874500  1
  Au  Au11  1  0.80259100  0.70292400  0.25874500  1
  Au  Au12  1  0.29707600  0.19740900  0.74125500  1
  Au  Au13  1  0.50000000  0.50000000  0.00000000  1
