# generated using pymatgen
data_Na2MgGaF7
_symmetry_space_group_name_H-M   'P 1'
_cell_length_a   7.34836979
_cell_length_b   7.34836979
_cell_length_c   7.34836979
_cell_angle_alpha   121.03123427
_cell_angle_beta   118.46048767
_cell_angle_gamma   90.45505520
_symmetry_Int_Tables_number   1
_chemical_formula_structural   Na2MgGaF7
_chemical_formula_sum   'Na4 Mg2 Ga2 F14'
_cell_volume   281.47353121
_cell_formula_units_Z   2
loop_
 _symmetry_equiv_pos_site_id
 _symmetry_equiv_pos_as_xyz
  1  'x, y, z'
loop_
 _atom_site_type_symbol
 _atom_site_label
 _atom_site_symmetry_multiplicity
 _atom_site_fract_x
 _atom_site_fract_y
 _atom_site_fract_z
 _atom_site_occupancy
  Na  Na0  1  0.50000000  0.50000000  0.00000000  1
  Na  Na1  1  0.00000000  0.00000000  0.00000000  1
  Na  Na2  1  0.00000000  0.50000000  0.00000000  1
  Na  Na3  1  0.00000000  0.00000000  0.50000000  1
  Mg  Mg4  1  0.50000000  0.50000000  0.50000000  1
  Mg  Mg5  1  0.50000000  0.00000000  0.00000000  1
  Ga  Ga6  1  0.00000000  0.50000000  0.50000000  1
  Ga  Ga7  1  0.50000000  0.00000000  0.50000000  1
  F  F8  1  0.86341800  0.59055300  0.27286600  1
  F  F9  1  0.18231300  0.90944700  0.27286600  1
  F  F10  1  0.18219200  0.80972900  0.76212400  1
  F  F11  1  0.45239400  0.69027100  0.37246300  1
  F  F12  1  0.45239400  0.07993200  0.76212400  1
  F  F13  1  0.18219200  0.42006800  0.37246300  1
  F  F14  1  0.81780800  0.57993200  0.62753700  1
  F  F15  1  0.54760600  0.92006800  0.23787600  1
  F  F16  1  0.54760600  0.30972900  0.62753700  1
  F  F17  1  0.81780800  0.19027100  0.23787600  1
  F  F18  1  0.39908500  0.25000000  0.14908500  1
  F  F19  1  0.13658200  0.40944700  0.72713400  1
  F  F20  1  0.81768700  0.09055300  0.72713400  1
  F  F21  1  0.60091500  0.75000000  0.85091500  1
