# generated using pymatgen
data_TmP5O14
_symmetry_space_group_name_H-M   'P 1'
_cell_length_a   9.16163161
_cell_length_b   9.16163161
_cell_length_c   12.51415392
_cell_angle_alpha   88.92632824
_cell_angle_beta   88.92632824
_cell_angle_gamma   89.58327207
_symmetry_Int_Tables_number   1
_chemical_formula_structural   TmP5O14
_chemical_formula_sum   'Tm4 P20 O56'
_cell_volume   1049.98771121
_cell_formula_units_Z   4
loop_
 _symmetry_equiv_pos_site_id
 _symmetry_equiv_pos_as_xyz
  1  'x, y, z'
loop_
 _atom_site_type_symbol
 _atom_site_label
 _atom_site_symmetry_multiplicity
 _atom_site_fract_x
 _atom_site_fract_y
 _atom_site_fract_z
 _atom_site_occupancy
  Tm  Tm0  1  0.01977100  0.98022900  0.25000000  1
  Tm  Tm1  1  0.98022900  0.01977100  0.75000000  1
  Tm  Tm2  1  0.46632600  0.53367400  0.25000000  1
  Tm  Tm3  1  0.53367400  0.46632600  0.75000000  1
  P  P4  1  0.17531200  0.11476100  0.49917700  1
  P  P5  1  0.88523900  0.82468800  0.00082300  1
  P  P6  1  0.82468800  0.88523900  0.50082300  1
  P  P7  1  0.11476100  0.17531200  0.99917700  1
  P  P8  1  0.44998800  0.18338500  0.39010300  1
  P  P9  1  0.81661500  0.55001200  0.10989700  1
  P  P10  1  0.55001200  0.81661500  0.60989700  1
  P  P11  1  0.18338500  0.44998800  0.89010300  1
  P  P12  1  0.62525600  0.32859500  0.03446700  1
  P  P13  1  0.67140500  0.37474400  0.46553300  1
  P  P14  1  0.37474400  0.67140500  0.96553300  1
  P  P15  1  0.32859500  0.62525600  0.53446700  1
  P  P16  1  0.31812000  0.97827900  0.89308000  1
  P  P17  1  0.02172100  0.68188000  0.60692000  1
  P  P18  1  0.68188000  0.02172100  0.10692000  1
  P  P19  1  0.97827900  0.31812000  0.39308000  1
  P  P20  1  0.42203800  0.92815600  0.24162900  1
  P  P21  1  0.07184400  0.57796200  0.25837100  1
  P  P22  1  0.57796200  0.07184400  0.75837100  1
  P  P23  1  0.92815600  0.42203800  0.74162900  1
  O  O24  1  0.53371500  0.35105600  0.13289700  1
  O  O25  1  0.64894400  0.46628500  0.36710300  1
  O  O26  1  0.46628500  0.64894400  0.86710300  1
  O  O27  1  0.35105600  0.53371500  0.63289700  1
  O  O28  1  0.57719400  0.37235100  0.92616700  1
  O  O29  1  0.62764900  0.42280600  0.57383300  1
  O  O30  1  0.42280600  0.62764900  0.07383300  1
  O  O31  1  0.37235100  0.57719400  0.42616700  1
  O  O32  1  0.14060100  0.01515700  0.41029000  1
  O  O33  1  0.98484300  0.85939900  0.08971000  1
  O  O34  1  0.85939900  0.98484300  0.58971000  1
  O  O35  1  0.01515700  0.14060100  0.91029000  1
  O  O36  1  0.14512200  0.07634900  0.61264900  1
  O  O37  1  0.92365200  0.85487800  0.88735100  1
  O  O38  1  0.85487800  0.92365200  0.38735100  1
  O  O39  1  0.07634900  0.14512200  0.11264900  1
  O  O40  1  0.34864300  0.15335200  0.49220300  1
  O  O41  1  0.84664800  0.65135700  0.00779700  1
  O  O42  1  0.65135700  0.84664800  0.50779700  1
  O  O43  1  0.60192800  0.21179300  0.44374200  1
  O  O44  1  0.15335200  0.34864300  0.99220300  1
  O  O45  1  0.69961400  0.60537600  0.18124400  1
  O  O46  1  0.60537600  0.69961400  0.68124400  1
  O  O47  1  0.30038600  0.39462400  0.81875600  1
  O  O48  1  0.95885600  0.26725100  0.71615900  1
  O  O49  1  0.73274900  0.04114400  0.78384100  1
  O  O50  1  0.04114400  0.73274900  0.28384100  1
  O  O51  1  0.26725100  0.95885600  0.21615900  1
  O  O52  1  0.22153100  0.52571800  0.23091500  1
  O  O53  1  0.47428200  0.77846900  0.26908500  1
  O  O54  1  0.77846900  0.47428200  0.76908500  1
  O  O55  1  0.52571800  0.22153100  0.73091500  1
  O  O56  1  0.03019800  0.47852500  0.83818500  1
  O  O57  1  0.52147500  0.96980200  0.66181500  1
  O  O58  1  0.96980200  0.52147500  0.16181500  1
  O  O59  1  0.47852500  0.03019800  0.33818500  1
  O  O60  1  0.00483000  0.48293800  0.36035100  1
  O  O61  1  0.51706200  0.99517000  0.13964900  1
  O  O62  1  0.99517000  0.51706200  0.63964900  1
  O  O63  1  0.48293800  0.00483000  0.86035100  1
  O  O64  1  0.10635100  0.27859300  0.47188500  1
  O  O65  1  0.72140700  0.89364900  0.02811500  1
  O  O66  1  0.89364900  0.72140700  0.52811500  1
  O  O67  1  0.27859300  0.10635100  0.97188500  1
  O  O68  1  0.96271000  0.21784500  0.30334400  1
  O  O69  1  0.78215500  0.03729000  0.19665600  1
  O  O70  1  0.03729000  0.78215500  0.69665600  1
  O  O71  1  0.21784500  0.96271000  0.80334400  1
  O  O72  1  0.15765100  0.67372900  0.52743400  1
  O  O73  1  0.32627200  0.84234900  0.97256600  1
  O  O74  1  0.84234900  0.32627100  0.47256600  1
  O  O75  1  0.67372900  0.15765100  0.02743400  1
  O  O76  1  0.21179300  0.60192800  0.94374200  1
  O  O77  1  0.39807200  0.78820700  0.55625800  1
  O  O78  1  0.78820700  0.39807200  0.05625800  1
  O  O79  1  0.39462400  0.30038600  0.31875600  1
