# generated using pymatgen
data_Sm2Si3Pd
_symmetry_space_group_name_H-M   'P 1'
_cell_length_a   7.76448342
_cell_length_b   7.76448342
_cell_length_c   7.76448342
_cell_angle_alpha   150.18908514
_cell_angle_beta   148.35595418
_cell_angle_gamma   44.02846208
_symmetry_Int_Tables_number   1
_chemical_formula_structural   Sm2Si3Pd
_chemical_formula_sum   'Sm2 Si3 Pd1'
_cell_volume   121.74145374
_cell_formula_units_Z   1
loop_
 _symmetry_equiv_pos_site_id
 _symmetry_equiv_pos_as_xyz
  1  'x, y, z'
loop_
 _atom_site_type_symbol
 _atom_site_label
 _atom_site_symmetry_multiplicity
 _atom_site_fract_x
 _atom_site_fract_y
 _atom_site_fract_z
 _atom_site_occupancy
  Sm  Sm0  1  0.13150600  0.13150600  0.00000000  1
  Sm  Sm1  1  0.36910600  0.86910600  0.50000000  1
  Si  Si2  1  0.70392400  0.70392400  0.00000000  1
  Si  Si3  1  0.54026400  0.54026400  0.00000000  1
  Si  Si4  1  0.79498200  0.29498200  0.50000000  1
  Pd  Pd5  1  0.96021800  0.46021800  0.50000000  1
