# generated using pymatgen
data_DyF3
_symmetry_space_group_name_H-M   'P 1'
_cell_length_a   4.78586800
_cell_length_b   6.23510100
_cell_length_c   6.90562000
_cell_angle_alpha   90.00000000
_cell_angle_beta   90.00000000
_cell_angle_gamma   90.00000000
_symmetry_Int_Tables_number   1
_chemical_formula_structural   DyF3
_chemical_formula_sum   'Dy4 F12'
_cell_volume   206.06625831
_cell_formula_units_Z   4
loop_
 _symmetry_equiv_pos_site_id
 _symmetry_equiv_pos_as_xyz
  1  'x, y, z'
loop_
 _atom_site_type_symbol
 _atom_site_label
 _atom_site_symmetry_multiplicity
 _atom_site_fract_x
 _atom_site_fract_y
 _atom_site_fract_z
 _atom_site_occupancy
  Dy  Dy0  1  0.46021200  0.36567200  0.25000000  1
  Dy  Dy1  1  0.53978800  0.63432800  0.75000000  1
  Dy  Dy2  1  0.96021200  0.13432800  0.75000000  1
  Dy  Dy3  1  0.03978800  0.86567200  0.25000000  1
  F  F4  1  0.63295400  0.03833000  0.25000000  1
  F  F5  1  0.36704600  0.96167000  0.75000000  1
  F  F6  1  0.13295400  0.46167000  0.75000000  1
  F  F7  1  0.86704600  0.53833000  0.25000000  1
  F  F8  1  0.15201000  0.16098900  0.06323200  1
  F  F9  1  0.84799000  0.83901100  0.93676800  1
  F  F10  1  0.65201000  0.33901100  0.93676800  1
  F  F11  1  0.84799000  0.83901100  0.56323200  1
  F  F12  1  0.34799000  0.66098900  0.06323200  1
  F  F13  1  0.15201000  0.16098900  0.43676800  1
  F  F14  1  0.34799000  0.66098900  0.43676800  1
  F  F15  1  0.65201000  0.33901100  0.56323200  1
