# generated using pymatgen
data_Rb3PS4
_symmetry_space_group_name_H-M   'P 1'
_cell_length_a   9.44845900
_cell_length_b   9.52946500
_cell_length_c   11.16653800
_cell_angle_alpha   90.00000000
_cell_angle_beta   90.00000000
_cell_angle_gamma   90.00000000
_symmetry_Int_Tables_number   1
_chemical_formula_structural   Rb3PS4
_chemical_formula_sum   'Rb12 P4 S16'
_cell_volume   1005.42122769
_cell_formula_units_Z   4
loop_
 _symmetry_equiv_pos_site_id
 _symmetry_equiv_pos_as_xyz
  1  'x, y, z'
loop_
 _atom_site_type_symbol
 _atom_site_label
 _atom_site_symmetry_multiplicity
 _atom_site_fract_x
 _atom_site_fract_y
 _atom_site_fract_z
 _atom_site_occupancy
  Rb  Rb0  1  0.14774900  0.08275600  0.75000000  1
  Rb  Rb1  1  0.35225100  0.58275600  0.25000000  1
  Rb  Rb2  1  0.64774900  0.41724400  0.75000000  1
  Rb  Rb3  1  0.85225100  0.91724400  0.25000000  1
  Rb  Rb4  1  0.95376800  0.70479400  0.95672400  1
  Rb  Rb5  1  0.54623200  0.20479400  0.04327600  1
  Rb  Rb6  1  0.45376800  0.79520600  0.54327600  1
  Rb  Rb7  1  0.04623200  0.29520600  0.45672400  1
  Rb  Rb8  1  0.04623200  0.29520600  0.04327600  1
  Rb  Rb9  1  0.45376800  0.79520600  0.95672400  1
  Rb  Rb10  1  0.54623200  0.20479400  0.45672400  1
  Rb  Rb11  1  0.95376800  0.70479400  0.54327600  1
  P  P12  1  0.22420900  0.51801700  0.75000000  1
  P  P13  1  0.27579100  0.01801700  0.25000000  1
  P  P14  1  0.72420900  0.98198300  0.75000000  1
  P  P15  1  0.77579100  0.48198300  0.25000000  1
  S  S16  1  0.20473300  0.73382900  0.75000000  1
  S  S17  1  0.29526700  0.23382900  0.25000000  1
  S  S18  1  0.70473300  0.76617100  0.75000000  1
  S  S19  1  0.79526700  0.26617100  0.25000000  1
  S  S20  1  0.66933100  0.54218200  0.40264700  1
  S  S21  1  0.83066900  0.04218200  0.59735300  1
  S  S22  1  0.16933100  0.95781800  0.09735300  1
  S  S23  1  0.33066900  0.45781800  0.90264700  1
  S  S24  1  0.97472600  0.57333000  0.25000000  1
  S  S25  1  0.52527400  0.07333000  0.75000000  1
  S  S26  1  0.47472600  0.92667000  0.25000000  1
  S  S27  1  0.02527400  0.42667000  0.75000000  1
  S  S28  1  0.66933100  0.54218200  0.09735300  1
  S  S29  1  0.83066900  0.04218200  0.90264700  1
  S  S30  1  0.16933100  0.95781800  0.40264700  1
  S  S31  1  0.33066900  0.45781800  0.59735300  1
