# generated using pymatgen
data_Ba2ThCu2S5
_symmetry_space_group_name_H-M   'P 1'
_cell_length_a   7.16921518
_cell_length_b   7.16921518
_cell_length_c   9.45330302
_cell_angle_alpha   65.47243334
_cell_angle_beta   65.47243334
_cell_angle_gamma   33.56588827
_symmetry_Int_Tables_number   1
_chemical_formula_structural   Ba2ThCu2S5
_chemical_formula_sum   'Ba2 Th1 Cu2 S5'
_cell_volume   242.07254522
_cell_formula_units_Z   1
loop_
 _symmetry_equiv_pos_site_id
 _symmetry_equiv_pos_as_xyz
  1  'x, y, z'
loop_
 _atom_site_type_symbol
 _atom_site_label
 _atom_site_symmetry_multiplicity
 _atom_site_fract_x
 _atom_site_fract_y
 _atom_site_fract_z
 _atom_site_occupancy
  Ba  Ba0  1  0.17562400  0.17562400  0.30756100  1
  Ba  Ba1  1  0.82437600  0.82437600  0.69243900  1
  Th  Th2  1  0.00000000  0.00000000  0.00000000  1
  Cu  Cu3  1  0.55414800  0.55414800  0.70167500  1
  Cu  Cu4  1  0.44585200  0.44585200  0.29832500  1
  S  S5  1  0.14622600  0.14622600  0.68742300  1
  S  S6  1  0.85377400  0.85377400  0.31257700  1
  S  S7  1  0.38725900  0.38725900  0.93239700  1
  S  S8  1  0.61274100  0.61274100  0.06760300  1
  S  S9  1  0.50000000  0.50000000  0.50000000  1
