# generated using pymatgen
data_BaPrCuTe3
_symmetry_space_group_name_H-M   'P 1'
_cell_length_a   7.89252463
_cell_length_b   7.89252463
_cell_length_c   11.81531600
_cell_angle_alpha   90.00000000
_cell_angle_beta   90.00000000
_cell_angle_gamma   146.66905489
_symmetry_Int_Tables_number   1
_chemical_formula_structural   BaPrCuTe3
_chemical_formula_sum   'Ba2 Pr2 Cu2 Te6'
_cell_volume   404.41243543
_cell_formula_units_Z   2
loop_
 _symmetry_equiv_pos_site_id
 _symmetry_equiv_pos_as_xyz
  1  'x, y, z'
loop_
 _atom_site_type_symbol
 _atom_site_label
 _atom_site_symmetry_multiplicity
 _atom_site_fract_x
 _atom_site_fract_y
 _atom_site_fract_z
 _atom_site_occupancy
  Ba  Ba0  1  0.25261600  0.74738400  0.25000000  1
  Ba  Ba1  1  0.74738400  0.25261600  0.75000000  1
  Pr  Pr2  1  0.00000000  0.00000000  0.00000000  1
  Pr  Pr3  1  0.00000000  0.00000000  0.50000000  1
  Cu  Cu4  1  0.53524300  0.46475700  0.25000000  1
  Cu  Cu5  1  0.46475700  0.53524300  0.75000000  1
  Te  Te6  1  0.64010100  0.35989900  0.06794800  1
  Te  Te7  1  0.35989900  0.64010100  0.93205200  1
  Te  Te8  1  0.35989900  0.64010100  0.56794800  1
  Te  Te9  1  0.64010100  0.35989900  0.43205200  1
  Te  Te10  1  0.92957800  0.07042200  0.25000000  1
  Te  Te11  1  0.07042200  0.92957800  0.75000000  1
