# generated using pymatgen
data_DyTl(MoO4)2
_symmetry_space_group_name_H-M   'P 1'
_cell_length_a   5.14301200
_cell_length_b   8.15703200
_cell_length_c   18.78305200
_cell_angle_alpha   90.00000000
_cell_angle_beta   90.00000000
_cell_angle_gamma   90.00000000
_symmetry_Int_Tables_number   1
_chemical_formula_structural   DyTl(MoO4)2
_chemical_formula_sum   'Dy4 Tl4 Mo8 O32'
_cell_volume   787.98121542
_cell_formula_units_Z   4
loop_
 _symmetry_equiv_pos_site_id
 _symmetry_equiv_pos_as_xyz
  1  'x, y, z'
loop_
 _atom_site_type_symbol
 _atom_site_label
 _atom_site_symmetry_multiplicity
 _atom_site_fract_x
 _atom_site_fract_y
 _atom_site_fract_z
 _atom_site_occupancy
  Dy  Dy0  1  0.00000000  0.75000000  0.00634100  1
  Dy  Dy1  1  0.00000000  0.25000000  0.99365900  1
  Dy  Dy2  1  0.50000000  0.25000000  0.49365900  1
  Dy  Dy3  1  0.50000000  0.75000000  0.50634100  1
  Tl  Tl4  1  0.00000000  0.75000000  0.76977000  1
  Tl  Tl5  1  0.00000000  0.25000000  0.23023000  1
  Tl  Tl6  1  0.50000000  0.25000000  0.73023000  1
  Tl  Tl7  1  0.50000000  0.75000000  0.26977000  1
  Mo  Mo8  1  0.02222500  0.51601300  0.39998500  1
  Mo  Mo9  1  0.97777500  0.48398700  0.60001500  1
  Mo  Mo10  1  0.47777500  0.01601300  0.10001500  1
  Mo  Mo11  1  0.97777500  0.98398700  0.39998500  1
  Mo  Mo12  1  0.52222500  0.98398700  0.89998500  1
  Mo  Mo13  1  0.02222500  0.01601300  0.60001500  1
  Mo  Mo14  1  0.52222500  0.48398700  0.10001500  1
  Mo  Mo15  1  0.47777500  0.51601300  0.89998500  1
  O  O16  1  0.10041600  0.97527400  0.31282500  1
  O  O17  1  0.89958400  0.02472600  0.68717500  1
  O  O18  1  0.39958400  0.47527400  0.18717500  1
  O  O19  1  0.89958400  0.52472600  0.31282500  1
  O  O20  1  0.60041600  0.52472600  0.81282500  1
  O  O21  1  0.10041600  0.47527400  0.68717500  1
  O  O22  1  0.60041600  0.02472600  0.18717500  1
  O  O23  1  0.39958400  0.97527400  0.81282500  1
  O  O24  1  0.26899400  0.83930400  0.09779400  1
  O  O25  1  0.73100600  0.16069600  0.90220600  1
  O  O26  1  0.23100600  0.33930400  0.40220600  1
  O  O27  1  0.73100600  0.66069600  0.09779400  1
  O  O28  1  0.76899400  0.66069600  0.59779400  1
  O  O29  1  0.26899400  0.33930400  0.90220600  1
  O  O30  1  0.76899400  0.16069600  0.40220600  1
  O  O31  1  0.23100600  0.83930400  0.59779400  1
  O  O32  1  0.24751700  0.50488300  0.03539600  1
  O  O33  1  0.75248300  0.49511700  0.96460400  1
  O  O34  1  0.25248300  0.00488300  0.46460400  1
  O  O35  1  0.75248300  0.99511700  0.03539600  1
  O  O36  1  0.74751700  0.99511700  0.53539600  1
  O  O37  1  0.24751700  0.00488300  0.96460400  1
  O  O38  1  0.74751700  0.49511700  0.46460400  1
  O  O39  1  0.25248300  0.50488300  0.53539600  1
  O  O40  1  0.24260800  0.68962000  0.40952700  1
  O  O41  1  0.75739200  0.31038000  0.59047300  1
  O  O42  1  0.25739200  0.18962000  0.09047300  1
  O  O43  1  0.75739200  0.81038000  0.40952700  1
  O  O44  1  0.74260800  0.81038000  0.90952700  1
  O  O45  1  0.24260800  0.18962000  0.59047300  1
  O  O46  1  0.74260800  0.31038000  0.09047300  1
  O  O47  1  0.25739200  0.68962000  0.90952700  1
