# generated using pymatgen
data_Sc4FeBr5
_symmetry_space_group_name_H-M   'P 1'
_cell_length_a   11.16893000
_cell_length_b   11.16893000
_cell_length_c   16.22913100
_cell_angle_alpha   90.00000000
_cell_angle_beta   90.00000000
_cell_angle_gamma   90.00000000
_symmetry_Int_Tables_number   1
_chemical_formula_structural   Sc4FeBr5
_chemical_formula_sum   'Sc32 Fe8 Br40'
_cell_volume   2024.50290351
_cell_formula_units_Z   8
loop_
 _symmetry_equiv_pos_site_id
 _symmetry_equiv_pos_as_xyz
  1  'x, y, z'
loop_
 _atom_site_type_symbol
 _atom_site_label
 _atom_site_symmetry_multiplicity
 _atom_site_fract_x
 _atom_site_fract_y
 _atom_site_fract_z
 _atom_site_occupancy
  Sc  Sc0  1  0.37266200  0.62733800  0.09032100  1
  Sc  Sc1  1  0.87266200  0.87266200  0.59032100  1
  Sc  Sc2  1  0.12733800  0.12733800  0.59032100  1
  Sc  Sc3  1  0.62733800  0.37266200  0.09032100  1
  Sc  Sc4  1  0.12733800  0.87266200  0.40967900  1
  Sc  Sc5  1  0.62733800  0.62733800  0.90967900  1
  Sc  Sc6  1  0.37266200  0.37266200  0.90967900  1
  Sc  Sc7  1  0.87266200  0.12733800  0.40967900  1
  Sc  Sc8  1  0.38572800  0.18294100  0.07484500  1
  Sc  Sc9  1  0.88572800  0.31705900  0.57484500  1
  Sc  Sc10  1  0.11427200  0.68294100  0.57484500  1
  Sc  Sc11  1  0.61427200  0.81705900  0.07484500  1
  Sc  Sc12  1  0.11427200  0.31705900  0.42515500  1
  Sc  Sc13  1  0.61427200  0.18294100  0.92515500  1
  Sc  Sc14  1  0.38572800  0.81705900  0.92515500  1
  Sc  Sc15  1  0.88572800  0.68294100  0.42515500  1
  Sc  Sc16  1  0.18294100  0.38572800  0.07484500  1
  Sc  Sc17  1  0.31705900  0.88572800  0.57484500  1
  Sc  Sc18  1  0.68294100  0.11427200  0.57484500  1
  Sc  Sc19  1  0.81705900  0.61427200  0.07484500  1
  Sc  Sc20  1  0.31705900  0.11427200  0.42515500  1
  Sc  Sc21  1  0.18294100  0.61427200  0.92515500  1
  Sc  Sc22  1  0.81705900  0.38572800  0.92515500  1
  Sc  Sc23  1  0.68294100  0.88572800  0.42515500  1
  Sc  Sc24  1  0.38775700  0.38775700  0.21987500  1
  Sc  Sc25  1  0.88775700  0.11224300  0.71987500  1
  Sc  Sc26  1  0.11224300  0.88775700  0.71987500  1
  Sc  Sc27  1  0.61224300  0.61224300  0.21987500  1
  Sc  Sc28  1  0.11224300  0.11224300  0.28012500  1
  Sc  Sc29  1  0.61224300  0.38775700  0.78012500  1
  Sc  Sc30  1  0.38775700  0.61224300  0.78012500  1
  Sc  Sc31  1  0.88775700  0.88775700  0.28012500  1
  Fe  Fe32  1  0.40062600  0.40062600  0.06791000  1
  Fe  Fe33  1  0.90062600  0.09937400  0.56791000  1
  Fe  Fe34  1  0.09937400  0.90062600  0.56791000  1
  Fe  Fe35  1  0.59937400  0.59937400  0.06791000  1
  Fe  Fe36  1  0.09937400  0.09937400  0.43209000  1
  Fe  Fe37  1  0.59937400  0.40062600  0.93209000  1
  Fe  Fe38  1  0.40062600  0.59937400  0.93209000  1
  Fe  Fe39  1  0.90062600  0.90062600  0.43209000  1
  Br  Br40  1  0.36747000  0.13253000  0.25000000  1
  Br  Br41  1  0.86747000  0.36747000  0.75000000  1
  Br  Br42  1  0.13253000  0.63253000  0.75000000  1
  Br  Br43  1  0.63253000  0.86747000  0.25000000  1
  Br  Br44  1  0.13253000  0.36747000  0.25000000  1
  Br  Br45  1  0.63253000  0.13253000  0.75000000  1
  Br  Br46  1  0.36747000  0.86747000  0.75000000  1
  Br  Br47  1  0.86747000  0.63253000  0.25000000  1
  Br  Br48  1  0.14396000  0.14396000  0.08627700  1
  Br  Br49  1  0.64396000  0.35604000  0.58627700  1
  Br  Br50  1  0.35604000  0.64396000  0.58627700  1
  Br  Br51  1  0.85604000  0.85604000  0.08627700  1
  Br  Br52  1  0.35604000  0.35604000  0.41372300  1
  Br  Br53  1  0.85604000  0.14396000  0.91372300  1
  Br  Br54  1  0.14396000  0.85604000  0.91372300  1
  Br  Br55  1  0.64396000  0.64396000  0.41372300  1
  Br  Br56  1  0.12469900  0.87530100  0.23502000  1
  Br  Br57  1  0.62469900  0.62469900  0.73502000  1
  Br  Br58  1  0.37530100  0.37530100  0.73502000  1
  Br  Br59  1  0.87530100  0.12469900  0.23502000  1
  Br  Br60  1  0.37530100  0.62469900  0.26498000  1
  Br  Br61  1  0.87530100  0.87530100  0.76498000  1
  Br  Br62  1  0.12469900  0.12469900  0.76498000  1
  Br  Br63  1  0.62469900  0.37530100  0.26498000  1
  Br  Br64  1  0.37796900  0.89136600  0.08733000  1
  Br  Br65  1  0.87796900  0.60863400  0.58733000  1
  Br  Br66  1  0.12203100  0.39136600  0.58733000  1
  Br  Br67  1  0.62203100  0.10863400  0.08733000  1
  Br  Br68  1  0.12203100  0.60863400  0.41267000  1
  Br  Br69  1  0.62203100  0.89136600  0.91267000  1
  Br  Br70  1  0.37796900  0.10863400  0.91267000  1
  Br  Br71  1  0.87796900  0.39136600  0.41267000  1
  Br  Br72  1  0.89136600  0.37796900  0.08733000  1
  Br  Br73  1  0.60863400  0.87796900  0.58733000  1
  Br  Br74  1  0.39136600  0.12203100  0.58733000  1
  Br  Br75  1  0.10863400  0.62203100  0.08733000  1
  Br  Br76  1  0.60863400  0.12203100  0.41267000  1
  Br  Br77  1  0.89136600  0.62203100  0.91267000  1
  Br  Br78  1  0.10863400  0.37796900  0.91267000  1
  Br  Br79  1  0.39136600  0.87796900  0.41267000  1
