# generated using pymatgen
data_YbAlAu
_symmetry_space_group_name_H-M   'P 1'
_cell_length_a   4.48866200
_cell_length_b   7.17360400
_cell_length_c   7.92197500
_cell_angle_alpha   90.00000000
_cell_angle_beta   90.00000000
_cell_angle_gamma   90.00000000
_symmetry_Int_Tables_number   1
_chemical_formula_structural   YbAlAu
_chemical_formula_sum   'Yb4 Al4 Au4'
_cell_volume   255.08667350
_cell_formula_units_Z   4
loop_
 _symmetry_equiv_pos_site_id
 _symmetry_equiv_pos_as_xyz
  1  'x, y, z'
loop_
 _atom_site_type_symbol
 _atom_site_label
 _atom_site_symmetry_multiplicity
 _atom_site_fract_x
 _atom_site_fract_y
 _atom_site_fract_z
 _atom_site_occupancy
  Yb  Yb0  1  0.75000000  0.47257800  0.82443500  1
  Yb  Yb1  1  0.25000000  0.02742200  0.32443500  1
  Yb  Yb2  1  0.75000000  0.97257800  0.67556500  1
  Yb  Yb3  1  0.25000000  0.52742200  0.17556500  1
  Al  Al4  1  0.25000000  0.64134600  0.55883200  1
  Al  Al5  1  0.25000000  0.14134600  0.94116800  1
  Al  Al6  1  0.75000000  0.35865400  0.44116800  1
  Al  Al7  1  0.75000000  0.85865400  0.05883200  1
  Au  Au8  1  0.25000000  0.77900000  0.87178800  1
  Au  Au9  1  0.25000000  0.27900000  0.62821200  1
  Au  Au10  1  0.75000000  0.72100000  0.37178800  1
  Au  Au11  1  0.75000000  0.22100000  0.12821200  1
