# generated using pymatgen
data_Nd9Ga5S21
_symmetry_space_group_name_H-M   'P 1'
_cell_length_a   11.75446200
_cell_length_b   11.75446200
_cell_length_c   11.75446299
_cell_angle_alpha   95.35674748
_cell_angle_beta   95.35674748
_cell_angle_gamma   95.35674726
_symmetry_Int_Tables_number   1
_chemical_formula_structural   Nd9Ga5S21
_chemical_formula_sum   'Nd18 Ga10 S42'
_cell_volume   1601.37107357
_cell_formula_units_Z   2
loop_
 _symmetry_equiv_pos_site_id
 _symmetry_equiv_pos_as_xyz
  1  'x, y, z'
loop_
 _atom_site_type_symbol
 _atom_site_label
 _atom_site_symmetry_multiplicity
 _atom_site_fract_x
 _atom_site_fract_y
 _atom_site_fract_z
 _atom_site_occupancy
  Nd  Nd0  1  0.12029500  0.88446200  0.25763500  1
  Nd  Nd1  1  0.77464100  0.54188700  0.91698400  1
  Nd  Nd2  1  0.44944100  0.22298000  0.59741900  1
  Nd  Nd3  1  0.22298000  0.59741900  0.44944100  1
  Nd  Nd4  1  0.88446200  0.25763500  0.12029500  1
  Nd  Nd5  1  0.54188700  0.91698400  0.77464100  1
  Nd  Nd6  1  0.91698400  0.77464100  0.54188700  1
  Nd  Nd7  1  0.59741900  0.44944100  0.22298000  1
  Nd  Nd8  1  0.25763500  0.12029500  0.88446200  1
  Nd  Nd9  1  0.55897600  0.79021600  0.41673900  1
  Nd  Nd10  1  0.21458100  0.44656200  0.07110400  1
  Nd  Nd11  1  0.89197400  0.12457600  0.75029800  1
  Nd  Nd12  1  0.44656200  0.07110400  0.21458100  1
  Nd  Nd13  1  0.12457600  0.75029800  0.89197400  1
  Nd  Nd14  1  0.79021600  0.41673900  0.55897600  1
  Nd  Nd15  1  0.75029800  0.89197400  0.12457600  1
  Nd  Nd16  1  0.41673900  0.55897600  0.79021600  1
  Nd  Nd17  1  0.07110400  0.21458100  0.44656200  1
  Ga  Ga18  1  0.60919000  0.27596600  0.94722700  1
  Ga  Ga19  1  0.27596600  0.94722700  0.60919000  1
  Ga  Ga20  1  0.94722700  0.60919000  0.27596600  1
  Ga  Ga21  1  0.77401100  0.11193500  0.44637800  1
  Ga  Ga22  1  0.44637800  0.77401100  0.11193500  1
  Ga  Ga23  1  0.11193500  0.44637800  0.77401100  1
  Ga  Ga24  1  0.14531500  0.14531500  0.14531500  1
  Ga  Ga25  1  0.84555300  0.84555300  0.84555300  1
  Ga  Ga26  1  0.34605800  0.34605800  0.34605800  1
  Ga  Ga27  1  0.64522700  0.64522700  0.64522700  1
  S  S28  1  0.55081600  0.45563800  0.98235900  1
  S  S29  1  0.21778500  0.12629200  0.64042000  1
  S  S30  1  0.89270600  0.79215900  0.30240900  1
  S  S31  1  0.79215900  0.30240900  0.89270600  1
  S  S32  1  0.45563800  0.98235900  0.55081600  1
  S  S33  1  0.12629200  0.64042000  0.21778500  1
  S  S34  1  0.64042000  0.21778500  0.12629200  1
  S  S35  1  0.30240900  0.89270600  0.79215900  1
  S  S36  1  0.98235900  0.55081600  0.45563800  1
  S  S37  1  0.93082200  0.03163800  0.52088200  1
  S  S38  1  0.60739900  0.69985000  0.18599900  1
  S  S39  1  0.27392900  0.36768800  0.84147800  1
  S  S40  1  0.69985000  0.18599900  0.60739900  1
  S  S41  1  0.36768800  0.84147800  0.27392900  1
  S  S42  1  0.03163800  0.52088200  0.93082200  1
  S  S43  1  0.84147800  0.27392900  0.36768800  1
  S  S44  1  0.52088200  0.93082200  0.03163800  1
  S  S45  1  0.18599900  0.60739900  0.69985000  1
  S  S46  1  0.48859600  0.15353600  0.82235200  1
  S  S47  1  0.15353600  0.82235200  0.48859600  1
  S  S48  1  0.82235200  0.48859600  0.15353600  1
  S  S49  1  0.98927800  0.32142100  0.65375700  1
  S  S50  1  0.65375700  0.98927800  0.32142100  1
  S  S51  1  0.32142100  0.65375700  0.98927800  1
  S  S52  1  0.59821500  0.44518800  0.69221200  1
  S  S53  1  0.24622000  0.10753300  0.33676300  1
  S  S54  1  0.90997100  0.76410100  0.00645000  1
  S  S55  1  0.76410100  0.00645000  0.90997100  1
  S  S56  1  0.44518800  0.69221200  0.59821500  1
  S  S57  1  0.10753300  0.33676300  0.24622000  1
  S  S58  1  0.33676300  0.24622000  0.10753300  1
  S  S59  1  0.00645000  0.90997100  0.76410100  1
  S  S60  1  0.69221200  0.59821500  0.44518800  1
  S  S61  1  0.71383300  0.85316400  0.62448100  1
  S  S62  1  0.37899800  0.52250300  0.27962100  1
  S  S63  1  0.05745900  0.21204800  0.96521500  1
  S  S64  1  0.52250300  0.27962100  0.37899800  1
  S  S65  1  0.21204800  0.96521500  0.05745900  1
  S  S66  1  0.85316400  0.62448100  0.71383300  1
  S  S67  1  0.96521500  0.05745900  0.21204800  1
  S  S68  1  0.62448100  0.71383300  0.85316400  1
  S  S69  1  0.27962100  0.37899800  0.52250300  1
