# generated using pymatgen
data_MgMnF6
_symmetry_space_group_name_H-M   'P 1'
_cell_length_a   5.36269891
_cell_length_b   5.36269891
_cell_length_c   5.36269890
_cell_angle_alpha   58.25307265
_cell_angle_beta   58.25307265
_cell_angle_gamma   58.25306938
_symmetry_Int_Tables_number   1
_chemical_formula_structural   MgMnF6
_chemical_formula_sum   'Mg1 Mn1 F6'
_cell_volume   104.68841460
_cell_formula_units_Z   1
loop_
 _symmetry_equiv_pos_site_id
 _symmetry_equiv_pos_as_xyz
  1  'x, y, z'
loop_
 _atom_site_type_symbol
 _atom_site_label
 _atom_site_symmetry_multiplicity
 _atom_site_fract_x
 _atom_site_fract_y
 _atom_site_fract_z
 _atom_site_occupancy
  Mg  Mg0  1  0.50000000  0.50000000  0.50000000  1
  Mn  Mn1  1  0.00000000  0.00000000  0.00000000  1
  F  F2  1  0.67512100  0.84800400  0.23712000  1
  F  F3  1  0.84800400  0.23712000  0.67512100  1
  F  F4  1  0.76288000  0.32487900  0.15199600  1
  F  F5  1  0.15199600  0.76288000  0.32487900  1
  F  F6  1  0.32487900  0.15199600  0.76288000  1
  F  F7  1  0.23712000  0.67512100  0.84800400  1
