# generated using pymatgen
data_Y3GeS2
_symmetry_space_group_name_H-M   'P 1'
_cell_length_a   4.04094163
_cell_length_b   4.04094163
_cell_length_c   9.73024200
_cell_angle_alpha   90.00000000
_cell_angle_beta   90.00000000
_cell_angle_gamma   119.99999394
_symmetry_Int_Tables_number   1
_chemical_formula_structural   Y3GeS2
_chemical_formula_sum   'Y3 Ge1 S2'
_cell_volume   137.60032334
_cell_formula_units_Z   1
loop_
 _symmetry_equiv_pos_site_id
 _symmetry_equiv_pos_as_xyz
  1  'x, y, z'
loop_
 _atom_site_type_symbol
 _atom_site_label
 _atom_site_symmetry_multiplicity
 _atom_site_fract_x
 _atom_site_fract_y
 _atom_site_fract_z
 _atom_site_occupancy
  Y  Y0  1  0.33333300  0.66666700  0.16496500  1
  Y  Y1  1  0.66666700  0.33333300  0.83503500  1
  Y  Y2  1  0.00000000  0.00000000  0.50000000  1
  Ge  Ge3  1  0.00000000  0.00000000  0.00000000  1
  S  S4  1  0.33333300  0.66666700  0.65906700  1
  S  S5  1  0.66666700  0.33333300  0.34093300  1
