# generated using pymatgen
data_MnWO4
_symmetry_space_group_name_H-M   'P 1'
_cell_length_a   4.88539091
_cell_length_b   5.11810721
_cell_length_c   5.85340800
_cell_angle_alpha   90.00000000
_cell_angle_beta   90.00000000
_cell_angle_gamma   91.63352532
_symmetry_Int_Tables_number   1
_chemical_formula_structural   MnWO4
_chemical_formula_sum   'Mn2 W2 O8'
_cell_volume   146.29886770
_cell_formula_units_Z   2
loop_
 _symmetry_equiv_pos_site_id
 _symmetry_equiv_pos_as_xyz
  1  'x, y, z'
loop_
 _atom_site_type_symbol
 _atom_site_label
 _atom_site_symmetry_multiplicity
 _atom_site_fract_x
 _atom_site_fract_y
 _atom_site_fract_z
 _atom_site_occupancy
  Mn  Mn0  1  0.50000000  0.25000000  0.67358200  1
  Mn  Mn1  1  0.50000000  0.75000000  0.32642200  1
  W  W2  1  0.00000000  0.25000000  0.17203000  1
  W  W3  1  0.00000000  0.75000000  0.82796900  1
  O  O4  1  0.74667200  0.10696800  0.37106200  1
  O  O5  1  0.25332800  0.39303200  0.37106200  1
  O  O6  1  0.25332800  0.89303200  0.62893700  1
  O  O7  1  0.74667200  0.60696800  0.62893700  1
  O  O8  1  0.79012500  0.06136600  0.89516200  1
  O  O9  1  0.20987500  0.43863400  0.89516200  1
  O  O10  1  0.20987500  0.93863400  0.10483700  1
  O  O11  1  0.79012500  0.56136600  0.10483700  1
