# generated using pymatgen
data_Li5IO6
_symmetry_space_group_name_H-M   'P 1'
_cell_length_a   5.17521864
_cell_length_b   5.17521864
_cell_length_c   14.50230800
_cell_angle_alpha   90.00000000
_cell_angle_beta   90.00000000
_cell_angle_gamma   120.00000821
_symmetry_Int_Tables_number   1
_chemical_formula_structural   Li5IO6
_chemical_formula_sum   'Li15 I3 O18'
_cell_volume   336.37609563
_cell_formula_units_Z   3
loop_
 _symmetry_equiv_pos_site_id
 _symmetry_equiv_pos_as_xyz
  1  'x, y, z'
loop_
 _atom_site_type_symbol
 _atom_site_label
 _atom_site_symmetry_multiplicity
 _atom_site_fract_x
 _atom_site_fract_y
 _atom_site_fract_z
 _atom_site_occupancy
  Li  Li0  1  0.55618600  0.77809300  0.00000000  1
  Li  Li1  1  0.22190700  0.77809300  0.33333300  1
  Li  Li2  1  0.22190700  0.44381400  0.66666700  1
  Li  Li3  1  0.88910000  0.44455000  0.50000000  1
  Li  Li4  1  0.55545000  0.44455000  0.83333300  1
  Li  Li5  1  0.55545000  0.11090000  0.16666700  1
  Li  Li6  1  0.54976600  0.77488300  0.50000000  1
  Li  Li7  1  0.22511700  0.77488300  0.83333300  1
  Li  Li8  1  0.22511700  0.45023400  0.16666700  1
  Li  Li9  1  0.88888900  0.44444500  0.00000000  1
  Li  Li10  1  0.55555500  0.44444500  0.33333300  1
  Li  Li11  1  0.55555500  0.11111100  0.66666700  1
  Li  Li12  1  0.22769600  0.11384800  0.50000000  1
  Li  Li13  1  0.88615200  0.11384800  0.83333300  1
  Li  Li14  1  0.88615200  0.77230400  0.16666700  1
  I  I15  1  0.22184800  0.11092400  0.00000000  1
  I  I16  1  0.88907600  0.11092400  0.33333300  1
  I  I17  1  0.88907600  0.77815200  0.66666700  1
  O  O18  1  0.22341200  0.41188700  0.92268600  1
  O  O19  1  0.58811300  0.81152500  0.25601900  1
  O  O20  1  0.22341200  0.81152500  0.07731400  1
  O  O21  1  0.18847500  0.77658800  0.58935200  1
  O  O22  1  0.58811300  0.77658800  0.74398100  1
  O  O23  1  0.18847500  0.41188700  0.41064800  1
  O  O24  1  0.92235700  0.11244800  0.07498800  1
  O  O25  1  0.88755200  0.80990800  0.40832100  1
  O  O26  1  0.92235700  0.80990800  0.92501200  1
  O  O27  1  0.19009200  0.07764300  0.74165400  1
  O  O28  1  0.88755200  0.07764300  0.59167900  1
  O  O29  1  0.19009200  0.11244800  0.25834600  1
  O  O30  1  0.52194100  0.11119900  0.92317700  1
  O  O31  1  0.88880100  0.41074100  0.25651100  1
  O  O32  1  0.52194100  0.41074100  0.07682300  1
  O  O33  1  0.58925900  0.47805900  0.58984400  1
  O  O34  1  0.88880100  0.47805900  0.74348900  1
  O  O35  1  0.58925900  0.11119900  0.41015600  1
