# generated using pymatgen
data_Sc2Au
_symmetry_space_group_name_H-M   'P 1'
_cell_length_a   4.68145000
_cell_length_b   6.61575400
_cell_length_c   8.39228400
_cell_angle_alpha   90.00000000
_cell_angle_beta   90.00000000
_cell_angle_gamma   90.00000000
_symmetry_Int_Tables_number   1
_chemical_formula_structural   Sc2Au
_chemical_formula_sum   'Sc8 Au4'
_cell_volume   259.92012641
_cell_formula_units_Z   4
loop_
 _symmetry_equiv_pos_site_id
 _symmetry_equiv_pos_as_xyz
  1  'x, y, z'
loop_
 _atom_site_type_symbol
 _atom_site_label
 _atom_site_symmetry_multiplicity
 _atom_site_fract_x
 _atom_site_fract_y
 _atom_site_fract_z
 _atom_site_occupancy
  Sc  Sc0  1  0.75000000  0.84711100  0.92408600  1
  Sc  Sc1  1  0.25000000  0.15288900  0.07591400  1
  Sc  Sc2  1  0.25000000  0.65288900  0.42408600  1
  Sc  Sc3  1  0.75000000  0.34711100  0.57591400  1
  Sc  Sc4  1  0.75000000  0.98216300  0.31633400  1
  Sc  Sc5  1  0.25000000  0.01783700  0.68366600  1
  Sc  Sc6  1  0.25000000  0.51783700  0.81633400  1
  Sc  Sc7  1  0.75000000  0.48216300  0.18366600  1
  Au  Au8  1  0.75000000  0.75752100  0.60111500  1
  Au  Au9  1  0.25000000  0.24247900  0.39888500  1
  Au  Au10  1  0.25000000  0.74247900  0.10111500  1
  Au  Au11  1  0.75000000  0.25752100  0.89888500  1
