# generated using pymatgen
data_TlGaF6
_symmetry_space_group_name_H-M   'P 1'
_cell_length_a   5.45451787
_cell_length_b   5.45451800
_cell_length_c   5.70032047
_cell_angle_alpha   90.00000000
_cell_angle_beta   61.41646575
_cell_angle_gamma   120.00000081
_symmetry_Int_Tables_number   1
_chemical_formula_structural   TlGaF6
_chemical_formula_sum   'Tl1 Ga1 F6'
_cell_volume   122.42517341
_cell_formula_units_Z   1
loop_
 _symmetry_equiv_pos_site_id
 _symmetry_equiv_pos_as_xyz
  1  'x, y, z'
loop_
 _atom_site_type_symbol
 _atom_site_label
 _atom_site_symmetry_multiplicity
 _atom_site_fract_x
 _atom_site_fract_y
 _atom_site_fract_z
 _atom_site_occupancy
  Tl  Tl0  1  0.00000000  0.00000000  0.00000000  1
  Ga  Ga1  1  0.00000000  0.50000000  0.50000000  1
  F  F2  1  0.53636600  0.37599500  0.73148200  1
  F  F3  1  0.10814700  0.73215200  0.73148200  1
  F  F4  1  0.89252300  0.16037100  0.73148200  1
  F  F5  1  0.89185300  0.26784800  0.26851800  1
  F  F6  1  0.10747700  0.83962900  0.26851800  1
  F  F7  1  0.46363500  0.62400500  0.26851800  1
