# generated using pymatgen
data_Y3VH3O8
_symmetry_space_group_name_H-M   'P 1'
_cell_length_a   5.60946419
_cell_length_b   5.98396645
_cell_length_c   10.43065100
_cell_angle_alpha   90.00000000
_cell_angle_beta   90.00000000
_cell_angle_gamma   105.05618220
_symmetry_Int_Tables_number   1
_chemical_formula_structural   Y3VH3O8
_chemical_formula_sum   'Y6 V2 H6 O16'
_cell_volume   338.10484305
_cell_formula_units_Z   2
loop_
 _symmetry_equiv_pos_site_id
 _symmetry_equiv_pos_as_xyz
  1  'x, y, z'
loop_
 _atom_site_type_symbol
 _atom_site_label
 _atom_site_symmetry_multiplicity
 _atom_site_fract_x
 _atom_site_fract_y
 _atom_site_fract_z
 _atom_site_occupancy
  Y  Y0  1  0.76715800  0.79871400  0.75000000  1
  Y  Y1  1  0.23284200  0.20128600  0.25000000  1
  Y  Y2  1  0.68504300  0.30555500  0.54024600  1
  Y  Y3  1  0.31495700  0.69444500  0.04024600  1
  Y  Y4  1  0.31495700  0.69444500  0.45975400  1
  Y  Y5  1  0.68504300  0.30555500  0.95975400  1
  V  V6  1  0.18491500  0.46226600  0.75000000  1
  V  V7  1  0.81508500  0.53773400  0.25000000  1
  H  H8  1  0.84456400  0.90231000  0.46239700  1
  H  H9  1  0.15543600  0.09769000  0.96239700  1
  H  H10  1  0.15543600  0.09769000  0.53760300  1
  H  H11  1  0.84456400  0.90231000  0.03760300  1
  H  H12  1  0.38472600  0.09142100  0.75000000  1
  H  H13  1  0.61527400  0.90857900  0.25000000  1
  O  O14  1  0.00058300  0.59874500  0.62431800  1
  O  O15  1  0.99941700  0.40125500  0.12431800  1
  O  O16  1  0.99941700  0.40125500  0.37568200  1
  O  O17  1  0.00058300  0.59874500  0.87568200  1
  O  O18  1  0.45693500  0.54004000  0.62970200  1
  O  O19  1  0.54306500  0.45996000  0.12970200  1
  O  O20  1  0.54306500  0.45996000  0.37029800  1
  O  O21  1  0.45693500  0.54004000  0.87029800  1
  O  O22  1  0.72740600  0.93683900  0.52338600  1
  O  O23  1  0.27259400  0.06316100  0.02338600  1
  O  O24  1  0.27259400  0.06316100  0.47661400  1
  O  O25  1  0.72740600  0.93683900  0.97661400  1
  O  O26  1  0.06558600  0.16346000  0.75000000  1
  O  O27  1  0.93441400  0.83654000  0.25000000  1
  O  O28  1  0.56411200  0.10880900  0.75000000  1
  O  O29  1  0.43588800  0.89119100  0.25000000  1
