# generated using pymatgen
data_Nd3Ga2
_symmetry_space_group_name_H-M   'P 1'
_cell_length_a   11.51765980
_cell_length_b   11.51765980
_cell_length_c   11.51765980
_cell_angle_alpha   116.87602227
_cell_angle_beta   116.87602227
_cell_angle_gamma   95.50180311
_symmetry_Int_Tables_number   1
_chemical_formula_structural   Nd3Ga2
_chemical_formula_sum   'Nd24 Ga16'
_cell_volume   1125.77947187
_cell_formula_units_Z   8
loop_
 _symmetry_equiv_pos_site_id
 _symmetry_equiv_pos_as_xyz
  1  'x, y, z'
loop_
 _atom_site_type_symbol
 _atom_site_label
 _atom_site_symmetry_multiplicity
 _atom_site_fract_x
 _atom_site_fract_y
 _atom_site_fract_z
 _atom_site_occupancy
  Nd  Nd0  1  0.14855200  0.64855200  0.50000000  1
  Nd  Nd1  1  0.64855200  0.14855200  0.50000000  1
  Nd  Nd2  1  0.85144800  0.35144800  0.50000000  1
  Nd  Nd3  1  0.35144800  0.85144800  0.50000000  1
  Nd  Nd4  1  0.66831800  0.16831800  0.83663500  1
  Nd  Nd5  1  0.33168200  0.83168200  0.16336500  1
  Nd  Nd6  1  0.16831800  0.33168200  0.50000000  1
  Nd  Nd7  1  0.83168200  0.66831800  0.50000000  1
  Nd  Nd8  1  0.06644400  0.93134900  0.26987700  1
  Nd  Nd9  1  0.66147200  0.79656700  0.73012300  1
  Nd  Nd10  1  0.56644400  0.29656700  0.13509500  1
  Nd  Nd11  1  0.16147200  0.43134900  0.86490500  1
  Nd  Nd12  1  0.79656700  0.06644400  0.13509500  1
  Nd  Nd13  1  0.93134900  0.66147200  0.86490500  1
  Nd  Nd14  1  0.43134900  0.56644400  0.26987700  1
  Nd  Nd15  1  0.29656700  0.16147200  0.73012300  1
  Nd  Nd16  1  0.93355600  0.06865100  0.73012300  1
  Nd  Nd17  1  0.33852800  0.20343300  0.26987700  1
  Nd  Nd18  1  0.43355600  0.70343300  0.86490500  1
  Nd  Nd19  1  0.83852800  0.56865100  0.13509500  1
  Nd  Nd20  1  0.20343300  0.93355600  0.86490500  1
  Nd  Nd21  1  0.06865100  0.33852800  0.13509500  1
  Nd  Nd22  1  0.56865100  0.43355600  0.73012300  1
  Nd  Nd23  1  0.70343300  0.83852800  0.26987700  1
  Ga  Ga24  1  0.75000000  0.75000000  0.00000000  1
  Ga  Ga25  1  0.25000000  0.25000000  0.00000000  1
  Ga  Ga26  1  0.00000000  0.00000000  0.00000000  1
  Ga  Ga27  1  0.50000000  0.50000000  0.00000000  1
  Ga  Ga28  1  0.11562100  0.61562100  0.73124200  1
  Ga  Ga29  1  0.88437900  0.38437900  0.26875800  1
  Ga  Ga30  1  0.61562100  0.88437900  0.50000000  1
  Ga  Ga31  1  0.38437900  0.11562100  0.50000000  1
  Ga  Ga32  1  0.87947500  0.37947500  0.85664700  1
  Ga  Ga33  1  0.52282800  0.02282800  0.14335300  1
  Ga  Ga34  1  0.37947500  0.52282800  0.50000000  1
  Ga  Ga35  1  0.02282800  0.87947500  0.50000000  1
  Ga  Ga36  1  0.12052500  0.62052500  0.14335300  1
  Ga  Ga37  1  0.47717200  0.97717200  0.85664700  1
  Ga  Ga38  1  0.62052500  0.47717200  0.50000000  1
  Ga  Ga39  1  0.97717200  0.12052500  0.50000000  1
