# generated using pymatgen
data_SrCaGe
_symmetry_space_group_name_H-M   'P 1'
_cell_length_a   4.96925600
_cell_length_b   8.15600300
_cell_length_c   9.20733700
_cell_angle_alpha   90.00000000
_cell_angle_beta   90.00000000
_cell_angle_gamma   90.00000000
_symmetry_Int_Tables_number   1
_chemical_formula_structural   SrCaGe
_chemical_formula_sum   'Sr4 Ca4 Ge4'
_cell_volume   373.16661819
_cell_formula_units_Z   4
loop_
 _symmetry_equiv_pos_site_id
 _symmetry_equiv_pos_as_xyz
  1  'x, y, z'
loop_
 _atom_site_type_symbol
 _atom_site_label
 _atom_site_symmetry_multiplicity
 _atom_site_fract_x
 _atom_site_fract_y
 _atom_site_fract_z
 _atom_site_occupancy
  Sr  Sr0  1  0.25000000  0.52197400  0.17826800  1
  Sr  Sr1  1  0.25000000  0.02197400  0.32173200  1
  Sr  Sr2  1  0.75000000  0.97802600  0.67826800  1
  Sr  Sr3  1  0.75000000  0.47802600  0.82173200  1
  Ca  Ca4  1  0.75000000  0.85258600  0.07320800  1
  Ca  Ca5  1  0.25000000  0.14741400  0.92679200  1
  Ca  Ca6  1  0.75000000  0.35258600  0.42679200  1
  Ca  Ca7  1  0.25000000  0.64741400  0.57320800  1
  Ge  Ge8  1  0.75000000  0.23320100  0.10648100  1
  Ge  Ge9  1  0.25000000  0.26679900  0.60648100  1
  Ge  Ge10  1  0.25000000  0.76679900  0.89351900  1
  Ge  Ge11  1  0.75000000  0.73320100  0.39351900  1
