# generated using pymatgen
data_Li(TmGe)4
_symmetry_space_group_name_H-M   'P 1'
_cell_length_a   7.04694800
_cell_length_b   7.62170700
_cell_length_c   14.47517000
_cell_angle_alpha   90.00000000
_cell_angle_beta   90.00000000
_cell_angle_gamma   90.00000000
_symmetry_Int_Tables_number   1
_chemical_formula_structural   Li(TmGe)4
_chemical_formula_sum   'Li4 Tm16 Ge16'
_cell_volume   777.45809339
_cell_formula_units_Z   4
loop_
 _symmetry_equiv_pos_site_id
 _symmetry_equiv_pos_as_xyz
  1  'x, y, z'
loop_
 _atom_site_type_symbol
 _atom_site_label
 _atom_site_symmetry_multiplicity
 _atom_site_fract_x
 _atom_site_fract_y
 _atom_site_fract_z
 _atom_site_occupancy
  Li  Li0  1  0.15843600  0.52140400  0.75000000  1
  Li  Li1  1  0.84156400  0.47859600  0.25000000  1
  Li  Li2  1  0.34156400  0.02140400  0.25000000  1
  Li  Li3  1  0.65843600  0.97859600  0.75000000  1
  Tm  Tm4  1  0.32813300  0.17599700  0.62778300  1
  Tm  Tm5  1  0.67186700  0.82400300  0.37221700  1
  Tm  Tm6  1  0.17186700  0.67599700  0.37221700  1
  Tm  Tm7  1  0.67186700  0.82400300  0.12778300  1
  Tm  Tm8  1  0.82813300  0.32400300  0.62778300  1
  Tm  Tm9  1  0.32813300  0.17599700  0.87221700  1
  Tm  Tm10  1  0.82813300  0.32400300  0.87221700  1
  Tm  Tm11  1  0.17186700  0.67599700  0.12778300  1
  Tm  Tm12  1  0.01413500  0.18594500  0.09662000  1
  Tm  Tm13  1  0.98586500  0.81405500  0.90338000  1
  Tm  Tm14  1  0.48586500  0.68594500  0.90338000  1
  Tm  Tm15  1  0.98586500  0.81405500  0.59662000  1
  Tm  Tm16  1  0.51413500  0.31405500  0.09662000  1
  Tm  Tm17  1  0.01413500  0.18594500  0.40338000  1
  Tm  Tm18  1  0.51413500  0.31405500  0.40338000  1
  Tm  Tm19  1  0.48586500  0.68594500  0.59662000  1
  Ge  Ge20  1  0.01734800  0.08847300  0.75000000  1
  Ge  Ge21  1  0.98265200  0.91152700  0.25000000  1
  Ge  Ge22  1  0.48265200  0.58847300  0.25000000  1
  Ge  Ge23  1  0.51734800  0.41152700  0.75000000  1
  Ge  Ge24  1  0.28483400  0.86254000  0.75000000  1
  Ge  Ge25  1  0.71516600  0.13746000  0.25000000  1
  Ge  Ge26  1  0.21516600  0.36254000  0.25000000  1
  Ge  Ge27  1  0.78483400  0.63746000  0.75000000  1
  Ge  Ge28  1  0.16781800  0.46594600  0.53738500  1
  Ge  Ge29  1  0.83218200  0.53405400  0.46261500  1
  Ge  Ge30  1  0.33218200  0.96594600  0.46261500  1
  Ge  Ge31  1  0.83218200  0.53405400  0.03738500  1
  Ge  Ge32  1  0.66781800  0.03405400  0.53738500  1
  Ge  Ge33  1  0.16781800  0.46594600  0.96261500  1
  Ge  Ge34  1  0.66781800  0.03405400  0.96261500  1
  Ge  Ge35  1  0.33218200  0.96594600  0.03738500  1
