# generated using pymatgen
data_Ho7C2I12N
_symmetry_space_group_name_H-M   'P 1'
_cell_length_a   9.86340200
_cell_length_b   10.55544511
_cell_length_c   16.93703687
_cell_angle_alpha   101.61716131
_cell_angle_beta   92.89289877
_cell_angle_gamma   112.61527488
_symmetry_Int_Tables_number   1
_chemical_formula_structural   Ho7C2I12N
_chemical_formula_sum   'Ho14 C4 I24 N2'
_cell_volume   1578.39252804
_cell_formula_units_Z   2
loop_
 _symmetry_equiv_pos_site_id
 _symmetry_equiv_pos_as_xyz
  1  'x, y, z'
loop_
 _atom_site_type_symbol
 _atom_site_label
 _atom_site_symmetry_multiplicity
 _atom_site_fract_x
 _atom_site_fract_y
 _atom_site_fract_z
 _atom_site_occupancy
  Ho  Ho0  1  0.04523900  0.75194300  0.69037800  1
  Ho  Ho1  1  0.95476100  0.24805700  0.30962200  1
  Ho  Ho2  1  0.43522800  0.07009900  0.23676800  1
  Ho  Ho3  1  0.56477200  0.92990100  0.76323200  1
  Ho  Ho4  1  0.02063400  0.93488400  0.17936300  1
  Ho  Ho5  1  0.97936600  0.06511600  0.82063700  1
  Ho  Ho6  1  0.86073100  0.04780400  0.01925000  1
  Ho  Ho7  1  0.13926900  0.95219600  0.98075000  1
  Ho  Ho8  1  0.36685700  0.38265900  0.35571800  1
  Ho  Ho9  1  0.63314300  0.61734100  0.64428200  1
  Ho  Ho10  1  0.16283700  0.04485900  0.38580700  1
  Ho  Ho11  1  0.83716300  0.95514100  0.61419300  1
  Ho  Ho12  1  0.21739900  0.25638800  0.15010800  1
  Ho  Ho13  1  0.78260100  0.74361200  0.84989200  1
  C  C14  1  0.25622800  0.13853300  0.26613800  1
  C  C15  1  0.74377200  0.86146700  0.73386200  1
  C  C16  1  0.13651100  0.18085900  0.28430200  1
  C  C17  1  0.86348900  0.81914100  0.71569800  1
  I  I18  1  0.45122100  0.55612800  0.23166700  1
  I  I19  1  0.54877900  0.44387200  0.76833300  1
  I  I20  1  0.20090500  0.31716800  0.96990000  1
  I  I21  1  0.79909500  0.68283200  0.03010000  1
  I  I22  1  0.06073300  0.24708400  0.69670600  1
  I  I23  1  0.93926700  0.75291600  0.30329400  1
  I  I24  1  0.67403700  0.34661700  0.33570600  1
  I  I25  1  0.32596300  0.65338300  0.66429400  1
  I  I26  1  0.46933100  0.17898200  0.07564000  1
  I  I27  1  0.53066900  0.82101800  0.92436000  1
  I  I28  1  0.16116300  0.52713400  0.41154000  1
  I  I29  1  0.83883700  0.47286600  0.58846000  1
  I  I30  1  0.22843900  0.79264600  0.11022800  1
  I  I31  1  0.77156100  0.20735400  0.88977200  1
  I  I32  1  0.28654200  0.02963500  0.81219900  1
  I  I33  1  0.71345800  0.97036500  0.18780100  1
  I  I34  1  0.89304200  0.10115500  0.45008100  1
  I  I35  1  0.10695800  0.89884500  0.54991900  1
  I  I36  1  0.59434100  0.07001500  0.62545700  1
  I  I37  1  0.40565900  0.92998500  0.37454300  1
  I  I38  1  0.95767400  0.35577100  0.15026800  1
  I  I39  1  0.04232600  0.64422900  0.84973200  1
  I  I40  1  0.37550700  0.30184100  0.51856500  1
  I  I41  1  0.62449300  0.69815900  0.48143500  1
  N  N42  1  0.05923300  0.04872000  0.08424100  1
  N  N43  1  0.94076700  0.95128000  0.91575900  1
