# generated using pymatgen
data_GdRh3
_symmetry_space_group_name_H-M   'P 1'
_cell_length_a   5.27397000
_cell_length_b   5.27397000
_cell_length_c   17.61948000
_cell_angle_alpha   90.00000000
_cell_angle_beta   90.00000000
_cell_angle_gamma   120.00000001
_symmetry_Int_Tables_number   1
_chemical_formula_structural   GdRh3
_chemical_formula_sum   'Gd6 Rh18'
_cell_volume   424.42311546
_cell_formula_units_Z   6
loop_
 _symmetry_equiv_pos_site_id
 _symmetry_equiv_pos_as_xyz
  1  'x, y, z'
loop_
 _atom_site_type_symbol
 _atom_site_label
 _atom_site_symmetry_multiplicity
 _atom_site_fract_x
 _atom_site_fract_y
 _atom_site_fract_z
 _atom_site_occupancy
  Gd  Gd0  1  0.33333300  0.66666700  0.95806700  1
  Gd  Gd1  1  0.66666700  0.33333300  0.04193300  1
  Gd  Gd2  1  0.66666700  0.33333300  0.45806700  1
  Gd  Gd3  1  0.33333300  0.66666700  0.54193300  1
  Gd  Gd4  1  0.33333300  0.66666700  0.75000000  1
  Gd  Gd5  1  0.66666700  0.33333300  0.25000000  1
  Rh  Rh6  1  0.16700900  0.83299100  0.37343700  1
  Rh  Rh7  1  0.16700900  0.33401800  0.37343700  1
  Rh  Rh8  1  0.66598200  0.83299100  0.37343700  1
  Rh  Rh9  1  0.83299100  0.16700900  0.62656300  1
  Rh  Rh10  1  0.83299100  0.66598200  0.62656300  1
  Rh  Rh11  1  0.33401800  0.16700900  0.62656300  1
  Rh  Rh12  1  0.83299100  0.16700900  0.87343700  1
  Rh  Rh13  1  0.83299100  0.66598200  0.87343700  1
  Rh  Rh14  1  0.33401800  0.16700900  0.87343700  1
  Rh  Rh15  1  0.16700900  0.83299100  0.12656300  1
  Rh  Rh16  1  0.16700900  0.33401800  0.12656300  1
  Rh  Rh17  1  0.66598200  0.83299100  0.12656300  1
  Rh  Rh18  1  0.33333300  0.66666700  0.25000000  1
  Rh  Rh19  1  0.66666700  0.33333300  0.75000000  1
  Rh  Rh20  1  0.00000000  0.00000000  0.25000000  1
  Rh  Rh21  1  0.00000000  0.00000000  0.75000000  1
  Rh  Rh22  1  0.00000000  0.00000000  0.50000000  1
  Rh  Rh23  1  0.00000000  0.00000000  0.00000000  1
