# generated using pymatgen
data_AlGaCo2
_symmetry_space_group_name_H-M   'P 1'
_cell_length_a   2.87694300
_cell_length_b   2.87694300
_cell_length_c   5.71507100
_cell_angle_alpha   90.00000000
_cell_angle_beta   90.00000000
_cell_angle_gamma   90.00000000
_symmetry_Int_Tables_number   1
_chemical_formula_structural   AlGaCo2
_chemical_formula_sum   'Al1 Ga1 Co2'
_cell_volume   47.30250551
_cell_formula_units_Z   1
loop_
 _symmetry_equiv_pos_site_id
 _symmetry_equiv_pos_as_xyz
  1  'x, y, z'
loop_
 _atom_site_type_symbol
 _atom_site_label
 _atom_site_symmetry_multiplicity
 _atom_site_fract_x
 _atom_site_fract_y
 _atom_site_fract_z
 _atom_site_occupancy
  Al  Al0  1  0.00000000  0.00000000  0.00000000  1
  Ga  Ga1  1  0.00000000  0.00000000  0.50000000  1
  Co  Co2  1  0.50000000  0.50000000  0.24906500  1
  Co  Co3  1  0.50000000  0.50000000  0.75093500  1
