# generated using pymatgen
data_Na5Er4Si4O16F
_symmetry_space_group_name_H-M   'P 1'
_cell_length_a   8.63703095
_cell_length_b   8.63703095
_cell_length_c   8.63703095
_cell_angle_alpha   95.64678040
_cell_angle_beta   95.64678040
_cell_angle_gamma   143.43765232
_symmetry_Int_Tables_number   1
_chemical_formula_structural   Na5Er4Si4O16F
_chemical_formula_sum   'Na5 Er4 Si4 O16 F1'
_cell_volume   364.44081853
_cell_formula_units_Z   1
loop_
 _symmetry_equiv_pos_site_id
 _symmetry_equiv_pos_as_xyz
  1  'x, y, z'
loop_
 _atom_site_type_symbol
 _atom_site_label
 _atom_site_symmetry_multiplicity
 _atom_site_fract_x
 _atom_site_fract_y
 _atom_site_fract_z
 _atom_site_occupancy
  Na  Na0  1  0.11226600  0.59687400  0.69461600  1
  Na  Na1  1  0.90225800  0.41765000  0.30538400  1
  Na  Na2  1  0.40312600  0.09774200  0.51539200  1
  Na  Na3  1  0.58235000  0.88773400  0.48460800  1
  Na  Na4  1  0.00000000  0.00000000  0.00000000  1
  Er  Er5  1  0.70565300  0.63876200  0.29757500  1
  Er  Er6  1  0.34118700  0.40807800  0.70242500  1
  Er  Er7  1  0.36123800  0.65881300  0.06689100  1
  Er  Er8  1  0.59192200  0.29434700  0.93310900  1
  Si  Si9  1  0.88538800  0.74285600  0.64978000  1
  Si  Si10  1  0.09307600  0.23560800  0.35022000  1
  Si  Si11  1  0.25714400  0.90692400  0.14253200  1
  Si  Si12  1  0.76439200  0.11461200  0.85746800  1
  O  O13  1  0.90277300  0.62512800  0.50235000  1
  O  O14  1  0.12277800  0.40042300  0.49765000  1
  O  O15  1  0.37487200  0.87722200  0.27764500  1
  O  O16  1  0.59957700  0.09722700  0.72235500  1
  O  O17  1  0.18839400  0.05058000  0.76425200  1
  O  O18  1  0.28632800  0.42414200  0.23574800  1
  O  O19  1  0.94942000  0.71367200  0.13781400  1
  O  O20  1  0.57585800  0.81160600  0.86218600  1
  O  O21  1  0.70943300  0.53823700  0.76286200  1
  O  O22  1  0.77537500  0.94657000  0.23713800  1
  O  O23  1  0.46176300  0.22462500  0.17119600  1
  O  O24  1  0.05343000  0.29056700  0.82880400  1
  O  O25  1  0.69590800  0.73011800  0.56022300  1
  O  O26  1  0.16989400  0.13568500  0.43977700  1
  O  O27  1  0.26988200  0.83010600  0.96579100  1
  O  O28  1  0.86431500  0.30409200  0.03420900  1
  F  F29  1  0.50000000  0.50000000  0.00000000  1
