# generated using pymatgen
data_Ba3Zn3Te(PO7)2
_symmetry_space_group_name_H-M   'P 1'
_cell_length_a   8.61338009
_cell_length_b   8.61338009
_cell_length_c   5.35532100
_cell_angle_alpha   90.00000000
_cell_angle_beta   90.00000000
_cell_angle_gamma   120.00000072
_symmetry_Int_Tables_number   1
_chemical_formula_structural   Ba3Zn3Te(PO7)2
_chemical_formula_sum   'Ba3 Zn3 Te1 P2 O14'
_cell_volume   344.08311469
_cell_formula_units_Z   1
loop_
 _symmetry_equiv_pos_site_id
 _symmetry_equiv_pos_as_xyz
  1  'x, y, z'
loop_
 _atom_site_type_symbol
 _atom_site_label
 _atom_site_symmetry_multiplicity
 _atom_site_fract_x
 _atom_site_fract_y
 _atom_site_fract_z
 _atom_site_occupancy
  Ba  Ba0  1  0.56395800  0.00000000  0.00000000  1
  Ba  Ba1  1  0.43604200  0.43604200  0.00000000  1
  Ba  Ba2  1  0.00000000  0.56395800  0.00000000  1
  Zn  Zn3  1  0.76498400  0.76498400  0.50000000  1
  Zn  Zn4  1  0.00000000  0.23501600  0.50000000  1
  Zn  Zn5  1  0.23501600  0.00000000  0.50000000  1
  Te  Te6  1  0.00000000  0.00000000  0.00000000  1
  P  P7  1  0.33333300  0.66666700  0.46504800  1
  P  P8  1  0.66666700  0.33333300  0.53495200  1
  O  O9  1  0.33333300  0.66666700  0.75361000  1
  O  O10  1  0.66666700  0.33333300  0.24639000  1
  O  O11  1  0.90289100  0.78345900  0.20732700  1
  O  O12  1  0.88056800  0.09710900  0.20732700  1
  O  O13  1  0.21654100  0.11943200  0.20732700  1
  O  O14  1  0.11943200  0.21654100  0.79267300  1
  O  O15  1  0.09710900  0.88056800  0.79267300  1
  O  O16  1  0.78345900  0.90289100  0.79267300  1
  O  O17  1  0.51781100  0.70636200  0.35472700  1
  O  O18  1  0.18855100  0.48218900  0.35472700  1
  O  O19  1  0.29363800  0.81144900  0.35472700  1
  O  O20  1  0.81144900  0.29363800  0.64527300  1
  O  O21  1  0.48218900  0.18855100  0.64527300  1
  O  O22  1  0.70636200  0.51781100  0.64527300  1
