# generated using pymatgen
data_Mn3(BO3)2
_symmetry_space_group_name_H-M   'P 1'
_cell_length_a   4.69332900
_cell_length_b   5.75521100
_cell_length_c   8.81800900
_cell_angle_alpha   90.00000000
_cell_angle_beta   89.99998129
_cell_angle_gamma   89.99985706
_symmetry_Int_Tables_number   1
_chemical_formula_structural   Mn3(BO3)2
_chemical_formula_sum   'Mn6 B4 O12'
_cell_volume   238.18411133
_cell_formula_units_Z   2
loop_
 _symmetry_equiv_pos_site_id
 _symmetry_equiv_pos_as_xyz
  1  'x, y, z'
loop_
 _atom_site_type_symbol
 _atom_site_label
 _atom_site_symmetry_multiplicity
 _atom_site_fract_x
 _atom_site_fract_y
 _atom_site_fract_z
 _atom_site_occupancy
  Mn  Mn0  1  0.00000100  0.00000000  0.00002500  1
  Mn  Mn1  1  0.49999800  0.99999600  0.68783000  1
  Mn  Mn2  1  0.00000000  0.50000100  0.18807900  1
  Mn  Mn3  1  0.50000100  0.50000000  0.49998200  1
  Mn  Mn4  1  0.00000000  0.50000100  0.81212900  1
  Mn  Mn5  1  0.50000000  0.00000000  0.31190400  1
  B  B6  1  0.03831900  0.24314100  0.50002300  1
  B  B7  1  0.46168600  0.74313900  0.99998400  1
  B  B8  1  0.96168100  0.75685900  0.50002200  1
  B  B9  1  0.53831400  0.25686100  0.99998400  1
  O  O10  1  0.25320200  0.31810600  0.00002200  1
  O  O11  1  0.75320900  0.18189900  0.49998100  1
  O  O12  1  0.24679000  0.81810100  0.49998000  1
  O  O13  1  0.74679900  0.68189400  0.00002200  1
  O  O14  1  0.31153400  0.78781200  0.13455900  1
  O  O15  1  0.81153000  0.71219100  0.36545500  1
  O  O16  1  0.31163200  0.78770100  0.86544500  1
  O  O17  1  0.68836800  0.21229900  0.86544600  1
  O  O18  1  0.81163500  0.71229200  0.63455700  1
  O  O19  1  0.18836600  0.28770800  0.63455700  1
  O  O20  1  0.68846600  0.21218800  0.13455900  1
  O  O21  1  0.18847000  0.28780900  0.36545500  1
