# generated using pymatgen
data_YAg(IO3)4
_symmetry_space_group_name_H-M   'P 1'
_cell_length_a   16.15183295
_cell_length_b   16.15183295
_cell_length_c   12.68526730
_cell_angle_alpha   89.04270777
_cell_angle_beta   89.04270777
_cell_angle_gamma   20.12712611
_symmetry_Int_Tables_number   1
_chemical_formula_structural   YAg(IO3)4
_chemical_formula_sum   'Y4 Ag4 I16 O48'
_cell_volume   1138.59893177
_cell_formula_units_Z   4
loop_
 _symmetry_equiv_pos_site_id
 _symmetry_equiv_pos_as_xyz
  1  'x, y, z'
loop_
 _atom_site_type_symbol
 _atom_site_label
 _atom_site_symmetry_multiplicity
 _atom_site_fract_x
 _atom_site_fract_y
 _atom_site_fract_z
 _atom_site_occupancy
  Y  Y0  1  0.77078200  0.19548200  0.16840700  1
  Y  Y1  1  0.19548200  0.77078200  0.66840700  1
  Y  Y2  1  0.96926900  0.58584800  0.17385900  1
  Y  Y3  1  0.58584800  0.96926900  0.67385900  1
  Ag  Ag4  1  0.57635900  0.15694000  0.28912200  1
  Ag  Ag5  1  0.15694000  0.57635900  0.78912200  1
  Ag  Ag6  1  0.70623900  0.17312100  0.87616700  1
  Ag  Ag7  1  0.17312100  0.70623900  0.37616700  1
  I  I8  1  0.31832100  0.80002700  0.26020000  1
  I  I9  1  0.80002700  0.31832100  0.76020000  1
  I  I10  1  0.91314600  0.28345600  0.03143000  1
  I  I11  1  0.28345600  0.91314600  0.53143000  1
  I  I12  1  0.30491100  0.70078200  0.96292800  1
  I  I13  1  0.70078200  0.30491100  0.46292800  1
  I  I14  1  0.15396300  0.64220100  0.12777000  1
  I  I15  1  0.64220100  0.15396300  0.62777000  1
  I  I16  1  0.63646800  0.03942300  0.97046100  1
  I  I17  1  0.03942300  0.63646800  0.47046100  1
  I  I18  1  0.43633300  0.96462300  0.07584800  1
  I  I19  1  0.96462300  0.43633300  0.57584800  1
  I  I20  1  0.83769700  0.48545300  0.30599600  1
  I  I21  1  0.48545300  0.83769700  0.80599600  1
  I  I22  1  0.46102800  0.05639600  0.38016700  1
  I  I23  1  0.05639600  0.46102800  0.88016700  1
  O  O24  1  0.07725800  0.94928400  0.28726800  1
  O  O25  1  0.94928400  0.07725800  0.78726800  1
  O  O26  1  0.49565600  0.61529400  0.38116200  1
  O  O27  1  0.61529400  0.49565600  0.88116200  1
  O  O28  1  0.49899200  0.56800600  0.16867700  1
  O  O29  1  0.56800600  0.49899200  0.66867700  1
  O  O30  1  0.98566600  0.11302500  0.09295300  1
  O  O31  1  0.11302500  0.98566600  0.59295300  1
  O  O32  1  0.11385300  0.15616200  0.11417100  1
  O  O33  1  0.15616200  0.11385300  0.61417100  1
  O  O34  1  0.09786100  0.10101200  0.91243400  1
  O  O35  1  0.10101200  0.09786100  0.41243400  1
  O  O36  1  0.06363100  0.87229800  0.03901700  1
  O  O37  1  0.87229800  0.06363100  0.53901700  1
  O  O38  1  0.56429300  0.39608000  0.01050500  1
  O  O39  1  0.39608000  0.56429300  0.51050500  1
  O  O40  1  0.29475300  0.64860500  0.84357900  1
  O  O41  1  0.64860500  0.29475300  0.34357900  1
  O  O42  1  0.93779900  0.90280200  0.21300100  1
  O  O43  1  0.90280200  0.93779900  0.71300100  1
  O  O44  1  0.42681500  0.42688900  0.19098500  1
  O  O45  1  0.42688900  0.42681500  0.69098500  1
  O  O46  1  0.17360700  0.52424800  0.20378100  1
  O  O47  1  0.52424800  0.17360700  0.70378100  1
  O  O48  1  0.73438800  0.93028000  0.10821800  1
  O  O49  1  0.93028000  0.73438800  0.60821800  1
  O  O50  1  0.42796300  0.32257300  0.98188100  1
  O  O51  1  0.32257300  0.42796300  0.48188100  1
  O  O52  1  0.88958900  0.86663700  0.92498400  1
  O  O53  1  0.86663700  0.88958900  0.42498400  1
  O  O54  1  0.68884800  0.80029900  0.04962000  1
  O  O55  1  0.80029900  0.68884800  0.54962000  1
  O  O56  1  0.27242600  0.13761800  0.95127100  1
  O  O57  1  0.13761800  0.27242600  0.45127100  1
  O  O58  1  0.25717500  0.19777400  0.16423200  1
  O  O59  1  0.19777400  0.25717500  0.66423200  1
  O  O60  1  0.76879400  0.65456800  0.25045900  1
  O  O61  1  0.65456800  0.76879400  0.75045900  1
  O  O62  1  0.63153700  0.62137000  0.22136800  1
  O  O63  1  0.62137000  0.63153700  0.72136800  1
  O  O64  1  0.65670400  0.66085700  0.42644600  1
  O  O65  1  0.66085700  0.65670400  0.92644600  1
  O  O66  1  0.71378300  0.87385400  0.31192400  1
  O  O67  1  0.87385400  0.71378300  0.81192400  1
  O  O68  1  0.22131000  0.34264700  0.31934200  1
  O  O69  1  0.34264700  0.22131000  0.81934200  1
  O  O70  1  0.45851900  0.12004100  0.50153700  1
  O  O71  1  0.12004100  0.45851900  0.00153700  1
