# generated using pymatgen
data_K2Ta4O11
_symmetry_space_group_name_H-M   'P 1'
_cell_length_a   12.98493290
_cell_length_b   12.98493290
_cell_length_c   12.98493224
_cell_angle_alpha   28.28363025
_cell_angle_beta   28.28363025
_cell_angle_gamma   28.28363222
_symmetry_Int_Tables_number   1
_chemical_formula_structural   K2Ta4O11
_chemical_formula_sum   'K4 Ta8 O22'
_cell_volume   434.33812440
_cell_formula_units_Z   2
loop_
 _symmetry_equiv_pos_site_id
 _symmetry_equiv_pos_as_xyz
  1  'x, y, z'
loop_
 _atom_site_type_symbol
 _atom_site_label
 _atom_site_symmetry_multiplicity
 _atom_site_fract_x
 _atom_site_fract_y
 _atom_site_fract_z
 _atom_site_occupancy
  K  K0  1  0.82588400  0.82588400  0.82588400  1
  K  K1  1  0.32588400  0.32588400  0.32588400  1
  K  K2  1  0.17411600  0.17411600  0.17411600  1
  K  K3  1  0.67411600  0.67411600  0.67411600  1
  Ta  Ta4  1  0.50000000  0.50000000  0.50000000  1
  Ta  Ta5  1  0.00000000  0.00000000  0.00000000  1
  Ta  Ta6  1  0.25000000  0.61548500  0.88451500  1
  Ta  Ta7  1  0.88451500  0.25000000  0.61548500  1
  Ta  Ta8  1  0.61548500  0.88451500  0.25000000  1
  Ta  Ta9  1  0.38451500  0.11548500  0.75000000  1
  Ta  Ta10  1  0.75000000  0.38451500  0.11548500  1
  Ta  Ta11  1  0.11548500  0.75000000  0.38451500  1
  O  O12  1  0.26153100  0.56860500  0.76490400  1
  O  O13  1  0.76490400  0.26153100  0.56860500  1
  O  O14  1  0.56860500  0.76490400  0.26153100  1
  O  O15  1  0.26490400  0.06860500  0.76153100  1
  O  O16  1  0.76153100  0.26490400  0.06860500  1
  O  O17  1  0.06860500  0.76153100  0.26490400  1
  O  O18  1  0.73846900  0.43139500  0.23509600  1
  O  O19  1  0.23509600  0.73846900  0.43139500  1
  O  O20  1  0.43139500  0.23509600  0.73846900  1
  O  O21  1  0.73509600  0.93139500  0.23846900  1
  O  O22  1  0.23846900  0.73509600  0.93139500  1
  O  O23  1  0.93139500  0.23846900  0.73509600  1
  O  O24  1  0.90637000  0.90637000  0.90637000  1
  O  O25  1  0.40637000  0.40637000  0.40637000  1
  O  O26  1  0.09363000  0.09363000  0.09363000  1
  O  O27  1  0.59363000  0.59363000  0.59363000  1
  O  O28  1  0.00435700  0.49564300  0.25000000  1
  O  O29  1  0.25000000  0.00435700  0.49564300  1
  O  O30  1  0.49564300  0.25000000  0.00435700  1
  O  O31  1  0.75000000  0.99564300  0.50435700  1
  O  O32  1  0.50435700  0.75000000  0.99564300  1
  O  O33  1  0.99564300  0.50435700  0.75000000  1
