# generated using pymatgen
data_IBr2
_symmetry_space_group_name_H-M   'P 1'
_cell_length_a   7.44615700
_cell_length_b   7.44615700
_cell_length_c   4.85643700
_cell_angle_alpha   90.00000000
_cell_angle_beta   90.00000000
_cell_angle_gamma   90.00000000
_symmetry_Int_Tables_number   1
_chemical_formula_structural   IBr2
_chemical_formula_sum   'I2 Br4'
_cell_volume   269.26638333
_cell_formula_units_Z   2
loop_
 _symmetry_equiv_pos_site_id
 _symmetry_equiv_pos_as_xyz
  1  'x, y, z'
loop_
 _atom_site_type_symbol
 _atom_site_label
 _atom_site_symmetry_multiplicity
 _atom_site_fract_x
 _atom_site_fract_y
 _atom_site_fract_z
 _atom_site_occupancy
  I  I0  1  0.00000000  0.00000000  0.00000000  1
  I  I1  1  0.50000000  0.50000000  0.50000000  1
  Br  Br2  1  0.25182100  0.25182100  0.00000000  1
  Br  Br3  1  0.74817900  0.74817900  0.00000000  1
  Br  Br4  1  0.24817900  0.75182100  0.50000000  1
  Br  Br5  1  0.75182100  0.24817900  0.50000000  1
