# generated using pymatgen
data_CsVF4
_symmetry_space_group_name_H-M   'P 1'
_cell_length_a   6.70450000
_cell_length_b   7.93745800
_cell_length_c   7.93890800
_cell_angle_alpha   90.00000000
_cell_angle_beta   90.00000000
_cell_angle_gamma   90.00000000
_symmetry_Int_Tables_number   1
_chemical_formula_structural   CsVF4
_chemical_formula_sum   'Cs4 V4 F16'
_cell_volume   422.48238344
_cell_formula_units_Z   4
loop_
 _symmetry_equiv_pos_site_id
 _symmetry_equiv_pos_as_xyz
  1  'x, y, z'
loop_
 _atom_site_type_symbol
 _atom_site_label
 _atom_site_symmetry_multiplicity
 _atom_site_fract_x
 _atom_site_fract_y
 _atom_site_fract_z
 _atom_site_occupancy
  Cs  Cs0  1  0.53975500  0.50000000  0.50000000  1
  Cs  Cs1  1  0.46024500  0.00000000  0.00000000  1
  Cs  Cs2  1  0.49620000  0.50000000  0.00000000  1
  Cs  Cs3  1  0.50380000  0.00000000  0.50000000  1
  V  V4  1  0.00000000  0.25000000  0.25000000  1
  V  V5  1  0.00000000  0.75000000  0.25000000  1
  V  V6  1  0.00000000  0.25000000  0.75000000  1
  V  V7  1  0.00000000  0.75000000  0.75000000  1
  F  F8  1  0.96991100  0.50000000  0.28520100  1
  F  F9  1  0.96991100  0.50000000  0.71479900  1
  F  F10  1  0.03008900  0.00000000  0.21479900  1
  F  F11  1  0.03008900  0.00000000  0.78520100  1
  F  F12  1  0.96862600  0.21380200  0.50000000  1
  F  F13  1  0.96862600  0.78619800  0.50000000  1
  F  F14  1  0.03137400  0.28619800  0.00000000  1
  F  F15  1  0.03137400  0.71380200  0.00000000  1
  F  F16  1  0.71417900  0.23331800  0.22808800  1
  F  F17  1  0.71417900  0.76668200  0.22808800  1
  F  F18  1  0.71417900  0.23331800  0.77191200  1
  F  F19  1  0.71417900  0.76668200  0.77191200  1
  F  F20  1  0.28582100  0.26668200  0.27191200  1
  F  F21  1  0.28582100  0.73331800  0.27191200  1
  F  F22  1  0.28582100  0.26668200  0.72808800  1
  F  F23  1  0.28582100  0.73331800  0.72808800  1
