# generated using pymatgen
data_Na3NbS4
_symmetry_space_group_name_H-M   'P 1'
_cell_length_a   19.87926937
_cell_length_b   14.90184977
_cell_length_c   14.33120495
_cell_angle_alpha   85.66797257
_cell_angle_beta   48.37220912
_cell_angle_gamma   45.95981830
_symmetry_Int_Tables_number   1
_chemical_formula_structural   Na3NbS4
_chemical_formula_sum   'Na24 Nb8 S32'
_cell_volume   1585.81440467
_cell_formula_units_Z   8
loop_
 _symmetry_equiv_pos_site_id
 _symmetry_equiv_pos_as_xyz
  1  'x, y, z'
loop_
 _atom_site_type_symbol
 _atom_site_label
 _atom_site_symmetry_multiplicity
 _atom_site_fract_x
 _atom_site_fract_y
 _atom_site_fract_z
 _atom_site_occupancy
  Na  Na0  1  0.36918900  0.35493000  0.43952000  1
  Na  Na1  1  0.83636100  0.43952000  0.35493000  1
  Na  Na2  1  0.81048000  0.41363900  0.88081100  1
  Na  Na3  1  0.89507000  0.88081100  0.41363900  1
  Na  Na4  1  0.84653100  0.96759900  0.87806400  1
  Na  Na5  1  0.30780600  0.87806400  0.96759900  1
  Na  Na6  1  0.37193600  0.94219400  0.40346900  1
  Na  Na7  1  0.28240100  0.40346900  0.94219400  1
  Na  Na8  1  0.67005000  0.88534100  0.07032400  1
  Na  Na9  1  0.37428500  0.07032400  0.88534100  1
  Na  Na10  1  0.17967600  0.87571500  0.57995000  1
  Na  Na11  1  0.36465900  0.57995000  0.87571500  1
  Na  Na12  1  0.73355800  0.77368500  0.26301600  1
  Na  Na13  1  0.22974100  0.26301600  0.77368500  1
  Na  Na14  1  0.98698400  0.02025900  0.51644200  1
  Na  Na15  1  0.47631500  0.51644200  0.02025900  1
  Na  Na16  1  0.16439700  0.58159500  0.38441800  1
  Na  Na17  1  0.86959000  0.38441800  0.58159500  1
  Na  Na18  1  0.86558200  0.38041000  0.08560300  1
  Na  Na19  1  0.66840500  0.08560300  0.38041000  1
  Na  Na20  1  0.25047900  0.24952100  0.24952100  1
  Na  Na21  1  0.00047900  0.99952100  0.99952100  1
  Na  Na22  1  0.76307200  0.73692800  0.73692800  1
  Na  Na23  1  0.51307200  0.48692800  0.48692800  1
  Nb  Nb24  1  0.07306800  0.69634500  0.90700600  1
  Nb  Nb25  1  0.32358100  0.90700600  0.69634500  1
  Nb  Nb26  1  0.34299400  0.92641900  0.17693200  1
  Nb  Nb27  1  0.55365500  0.17693200  0.92641900  1
  Nb  Nb28  1  0.57406600  0.41352300  0.18065800  1
  Nb  Nb29  1  0.83175400  0.18065800  0.41352300  1
  Nb  Nb30  1  0.06934200  0.41824600  0.67593400  1
  Nb  Nb31  1  0.83647700  0.67593400  0.41824600  1
  S  S32  1  0.84645800  0.96539400  0.65516900  1
  S  S33  1  0.53297800  0.65516900  0.96539400  1
  S  S34  1  0.59483100  0.71702200  0.40354200  1
  S  S35  1  0.28460600  0.40354200  0.71702200  1
  S  S36  1  0.49491800  0.19289400  0.13270300  1
  S  S37  1  0.17948500  0.13270300  0.19289400  1
  S  S38  1  0.11729700  0.07051500  0.75508200  1
  S  S39  1  0.05710600  0.75508200  0.07051500  1
  S  S40  1  0.36388900  0.14065000  0.46771400  1
  S  S41  1  0.02774700  0.46771400  0.14065000  1
  S  S42  1  0.78228600  0.22225300  0.88611100  1
  S  S43  1  0.10935000  0.88611100  0.22225300  1
  S  S44  1  0.01312200  0.61498700  0.67680200  1
  S  S45  1  0.69508900  0.67680200  0.61498700  1
  S  S46  1  0.57319800  0.55491100  0.23687800  1
  S  S47  1  0.63501300  0.23687800  0.55491100  1
  S  S48  1  0.14976800  0.75030100  0.74130800  1
  S  S49  1  0.35862300  0.74130800  0.75030100  1
  S  S50  1  0.50869200  0.89137700  0.10023200  1
  S  S51  1  0.49969900  0.10023200  0.89137700  1
  S  S52  1  0.79446800  0.88728300  0.10570700  1
  S  S53  1  0.21254100  0.10570700  0.88728300  1
  S  S54  1  0.14429300  0.03745900  0.45553200  1
  S  S55  1  0.36271700  0.45553200  0.03745900  1
  S  S56  1  0.29433900  0.63003000  0.36021500  1
  S  S57  1  0.71541600  0.36021500  0.63003000  1
  S  S58  1  0.88978500  0.53458400  0.95566100  1
  S  S59  1  0.61997000  0.95566100  0.53458400  1
  S  S60  1  0.64176700  0.25236100  0.24478700  1
  S  S61  1  0.86108400  0.24478700  0.25236100  1
  S  S62  1  0.00521300  0.38891600  0.60823300  1
  S  S63  1  0.99763900  0.60823300  0.38891600  1
