# generated using pymatgen
data_La4CI6N
_symmetry_space_group_name_H-M   'P 1'
_cell_length_a   14.32390400
_cell_length_b   14.32390400
_cell_length_c   9.81094900
_cell_angle_alpha   90.00000000
_cell_angle_beta   90.00000000
_cell_angle_gamma   90.00000000
_symmetry_Int_Tables_number   1
_chemical_formula_structural   La4CI6N
_chemical_formula_sum   'La16 C4 I24 N4'
_cell_volume   2012.95386545
_cell_formula_units_Z   4
loop_
 _symmetry_equiv_pos_site_id
 _symmetry_equiv_pos_as_xyz
  1  'x, y, z'
loop_
 _atom_site_type_symbol
 _atom_site_label
 _atom_site_symmetry_multiplicity
 _atom_site_fract_x
 _atom_site_fract_y
 _atom_site_fract_z
 _atom_site_occupancy
  La  La0  1  0.59009600  0.40990400  0.00000000  1
  La  La1  1  0.40990400  0.59009600  0.00000000  1
  La  La2  1  0.90990400  0.90990400  0.50000000  1
  La  La3  1  0.09009600  0.09009600  0.50000000  1
  La  La4  1  0.15230400  0.15230400  0.00000000  1
  La  La5  1  0.84769600  0.84769600  0.00000000  1
  La  La6  1  0.65230400  0.34769600  0.50000000  1
  La  La7  1  0.34769600  0.65230400  0.50000000  1
  La  La8  1  0.41139200  0.41139200  0.30513700  1
  La  La9  1  0.58860800  0.58860800  0.69486300  1
  La  La10  1  0.58860800  0.58860800  0.30513700  1
  La  La11  1  0.91139200  0.08860800  0.80513700  1
  La  La12  1  0.91139200  0.08860800  0.19486300  1
  La  La13  1  0.41139200  0.41139200  0.69486300  1
  La  La14  1  0.08860800  0.91139200  0.19486300  1
  La  La15  1  0.08860800  0.91139200  0.80513700  1
  C  C16  1  0.03514600  0.03514600  0.00000000  1
  C  C17  1  0.96485400  0.96485400  0.00000000  1
  C  C18  1  0.53514600  0.46485400  0.50000000  1
  C  C19  1  0.46485400  0.53514600  0.50000000  1
  I  I20  1  0.78049000  0.21951000  0.00000000  1
  I  I21  1  0.21951000  0.78049000  0.00000000  1
  I  I22  1  0.71951000  0.71951000  0.50000000  1
  I  I23  1  0.28049000  0.28049000  0.50000000  1
  I  I24  1  0.32712600  0.32712600  0.00000000  1
  I  I25  1  0.67287400  0.67287400  0.00000000  1
  I  I26  1  0.82712600  0.17287400  0.50000000  1
  I  I27  1  0.17287400  0.82712600  0.50000000  1
  I  I28  1  0.26297300  0.05033600  0.24963600  1
  I  I29  1  0.73702700  0.94966400  0.75036400  1
  I  I30  1  0.73702700  0.94966400  0.24963600  1
  I  I31  1  0.55033600  0.23702700  0.74963600  1
  I  I32  1  0.76297300  0.44966400  0.25036400  1
  I  I33  1  0.26297300  0.05033600  0.75036400  1
  I  I34  1  0.44966400  0.76297300  0.25036400  1
  I  I35  1  0.23702700  0.55033600  0.74963600  1
  I  I36  1  0.44966400  0.76297300  0.74963600  1
  I  I37  1  0.23702700  0.55033600  0.25036400  1
  I  I38  1  0.55033600  0.23702700  0.25036400  1
  I  I39  1  0.76297300  0.44966400  0.74963600  1
  I  I40  1  0.05033600  0.26297300  0.75036400  1
  I  I41  1  0.94966400  0.73702700  0.24963600  1
  I  I42  1  0.94966400  0.73702700  0.75036400  1
  I  I43  1  0.05033600  0.26297300  0.24963600  1
  N  N44  1  0.00000000  0.00000000  0.34958000  1
  N  N45  1  0.00000000  0.00000000  0.65042000  1
  N  N46  1  0.50000000  0.50000000  0.84958000  1
  N  N47  1  0.50000000  0.50000000  0.15042000  1
