# generated using pymatgen
data_La8Sb2S15
_symmetry_space_group_name_H-M   'P 1'
_cell_length_a   15.09935611
_cell_length_b   15.09935611
_cell_length_c   15.09935611
_cell_angle_alpha   115.83762644
_cell_angle_beta   115.83762644
_cell_angle_gamma   97.37457333
_symmetry_Int_Tables_number   1
_chemical_formula_structural   La8Sb2S15
_chemical_formula_sum   'La32 Sb8 S60'
_cell_volume   2564.34192686
_cell_formula_units_Z   4
loop_
 _symmetry_equiv_pos_site_id
 _symmetry_equiv_pos_as_xyz
  1  'x, y, z'
loop_
 _atom_site_type_symbol
 _atom_site_label
 _atom_site_symmetry_multiplicity
 _atom_site_fract_x
 _atom_site_fract_y
 _atom_site_fract_z
 _atom_site_occupancy
  La  La0  1  0.41902900  0.04929800  0.33091800  1
  La  La1  1  0.21838000  0.54929800  0.63026900  1
  La  La2  1  0.83811100  0.66902900  0.86973100  1
  La  La3  1  0.33811100  0.46838000  0.16908200  1
  La  La4  1  0.71838000  0.08811100  0.66908200  1
  La  La5  1  0.91902900  0.58811100  0.36973100  1
  La  La6  1  0.79929800  0.96838000  0.13026900  1
  La  La7  1  0.29929800  0.16902900  0.83091800  1
  La  La8  1  0.34597400  0.16928900  0.13532600  1
  La  La9  1  0.53396300  0.66928900  0.82331500  1
  La  La10  1  0.96064800  0.59597400  0.67668500  1
  La  La11  1  0.46064800  0.78396300  0.36467400  1
  La  La12  1  0.03396300  0.21064800  0.86467400  1
  La  La13  1  0.84597400  0.71064800  0.17668500  1
  La  La14  1  0.91928900  0.28396300  0.32331500  1
  La  La15  1  0.41928900  0.09597400  0.63532600  1
  La  La16  1  0.43407700  0.77729000  0.06861800  1
  La  La17  1  0.20867200  0.27729000  0.34321300  1
  La  La18  1  0.11545900  0.68407700  0.15678700  1
  La  La19  1  0.61545900  0.45867200  0.43138200  1
  La  La20  1  0.70867200  0.36545900  0.93138200  1
  La  La21  1  0.93407700  0.86545900  0.65678700  1
  La  La22  1  0.52729000  0.95867200  0.84321300  1
  La  La23  1  0.02729000  0.18407700  0.56861800  1
  La  La24  1  0.15318400  0.85999900  0.00848200  1
  La  La25  1  0.35151700  0.35999900  0.70681500  1
  La  La26  1  0.89470200  0.40318400  0.79318500  1
  La  La27  1  0.39470200  0.60151700  0.49151800  1
  La  La28  1  0.85151700  0.14470200  0.99151800  1
  La  La29  1  0.65318400  0.64470200  0.29318500  1
  La  La30  1  0.60999900  0.10151700  0.20681500  1
  La  La31  1  0.10999900  0.90318400  0.50848200  1
  Sb  Sb32  1  0.25846200  0.86966400  0.81814400  1
  Sb  Sb33  1  0.55152000  0.36966400  0.61120200  1
  Sb  Sb34  1  0.19031800  0.50846200  0.88879800  1
  Sb  Sb35  1  0.69031800  0.80152000  0.68185600  1
  Sb  Sb36  1  0.05152000  0.44031800  0.18185600  1
  Sb  Sb37  1  0.75846200  0.94031800  0.38879800  1
  Sb  Sb38  1  0.61966400  0.30152000  0.11120200  1
  Sb  Sb39  1  0.11966400  0.00846200  0.31814400  1
  S  S40  1  0.24981900  0.24981900  0.00000000  1
  S  S41  1  0.74981900  0.74981900  0.00000000  1
  S  S42  1  0.99981900  0.49981900  0.50000000  1
  S  S43  1  0.49981900  0.99981900  0.50000000  1
  S  S44  1  0.16698400  0.97834000  0.89175300  1
  S  S45  1  0.58658700  0.47834000  0.81135600  1
  S  S46  1  0.02523000  0.41698400  0.68864400  1
  S  S47  1  0.52523000  0.83658700  0.60824700  1
  S  S48  1  0.08658700  0.27523000  0.10824700  1
  S  S49  1  0.66698400  0.77523000  0.18864400  1
  S  S50  1  0.72834000  0.33658700  0.31135600  1
  S  S51  1  0.22834000  0.91698400  0.39175300  1
  S  S52  1  0.37952000  0.57910200  0.85263400  1
  S  S53  1  0.22646900  0.07910200  0.19958200  1
  S  S54  1  0.27688700  0.62952000  0.30041800  1
  S  S55  1  0.77688700  0.47646900  0.64736600  1
  S  S56  1  0.72646900  0.52688700  0.14736600  1
  S  S57  1  0.87952000  0.02688700  0.80041800  1
  S  S58  1  0.32910200  0.97646900  0.69958200  1
  S  S59  1  0.82910200  0.12952000  0.35263400  1
  S  S60  1  0.38317100  0.96920500  0.09664600  1
  S  S61  1  0.37255800  0.46920500  0.58603400  1
  S  S62  1  0.03652400  0.63317100  0.91396600  1
  S  S63  1  0.53652400  0.62255800  0.40335400  1
  S  S64  1  0.87255800  0.28652400  0.90335400  1
  S  S65  1  0.88317100  0.78652400  0.41396600  1
  S  S66  1  0.71920500  0.12255800  0.08603400  1
  S  S67  1  0.21920500  0.13317100  0.59664600  1
  S  S68  1  0.02998300  0.84045300  0.11644500  1
  S  S69  1  0.22400900  0.34045300  0.81047100  1
  S  S70  1  0.66353800  0.27998300  0.68952900  1
  S  S71  1  0.16353800  0.47400900  0.38355500  1
  S  S72  1  0.72400900  0.91353800  0.88355500  1
  S  S73  1  0.52998300  0.41353800  0.18952900  1
  S  S74  1  0.59045300  0.97400900  0.31047100  1
  S  S75  1  0.09045300  0.77998300  0.61644500  1
  S  S76  1  0.37851000  0.73038200  0.69184000  1
  S  S77  1  0.53854200  0.23038200  0.35187200  1
  S  S78  1  0.43667000  0.62851000  0.14812800  1
  S  S79  1  0.93667000  0.78854200  0.80816000  1
  S  S80  1  0.03854200  0.68667000  0.30816000  1
  S  S81  1  0.87851000  0.18667000  0.64812800  1
  S  S82  1  0.48038200  0.28854200  0.85187200  1
  S  S83  1  0.98038200  0.12851000  0.19184000  1
  S  S84  1  0.30232700  0.80972300  0.17685400  1
  S  S85  1  0.13286900  0.30972300  0.50739600  1
  S  S86  1  0.87547300  0.55232700  0.99260400  1
  S  S87  1  0.37547300  0.38286900  0.32314600  1
  S  S88  1  0.63286900  0.12547300  0.82314600  1
  S  S89  1  0.80232700  0.62547300  0.49260400  1
  S  S90  1  0.55972300  0.88286900  0.00739600  1
  S  S91  1  0.05972300  0.05232700  0.67685400  1
  S  S92  1  0.20385700  0.71495600  0.83595400  1
  S  S93  1  0.37900200  0.21495600  0.51109900  1
  S  S94  1  0.11790300  0.45385700  0.98890100  1
  S  S95  1  0.61790300  0.62900200  0.66404600  1
  S  S96  1  0.87900200  0.36790300  0.16404600  1
  S  S97  1  0.70385700  0.86790300  0.48890100  1
  S  S98  1  0.46495600  0.12900200  0.01109900  1
  S  S99  1  0.96495600  0.95385700  0.33595400  1
