# generated using pymatgen
data_Zn8Cu5
_symmetry_space_group_name_H-M   'P 1'
_cell_length_a   7.66733340
_cell_length_b   7.66733340
_cell_length_c   7.66733340
_cell_angle_alpha   109.47122063
_cell_angle_beta   109.47122063
_cell_angle_gamma   109.47122063
_symmetry_Int_Tables_number   1
_chemical_formula_structural   Zn8Cu5
_chemical_formula_sum   'Zn16 Cu10'
_cell_volume   346.98536128
_cell_formula_units_Z   2
loop_
 _symmetry_equiv_pos_site_id
 _symmetry_equiv_pos_as_xyz
  1  'x, y, z'
loop_
 _atom_site_type_symbol
 _atom_site_label
 _atom_site_symmetry_multiplicity
 _atom_site_fract_x
 _atom_site_fract_y
 _atom_site_fract_z
 _atom_site_occupancy
  Zn  Zn0  1  0.21844000  0.00000000  0.00000000  1
  Zn  Zn1  1  0.00000000  0.21844000  0.00000000  1
  Zn  Zn2  1  0.00000000  0.00000000  0.21844000  1
  Zn  Zn3  1  0.78156000  0.78156000  0.78156000  1
  Zn  Zn4  1  0.34952200  0.72351900  0.00000000  1
  Zn  Zn5  1  0.62600300  0.27648100  0.27648100  1
  Zn  Zn6  1  0.34952200  0.00000000  0.72351900  1
  Zn  Zn7  1  0.72351900  0.34952200  0.00000000  1
  Zn  Zn8  1  0.00000000  0.34952200  0.72351900  1
  Zn  Zn9  1  0.27648100  0.62600300  0.27648100  1
  Zn  Zn10  1  0.27648100  0.27648100  0.62600300  1
  Zn  Zn11  1  0.00000000  0.72351900  0.34952200  1
  Zn  Zn12  1  0.72351900  0.00000000  0.34952200  1
  Zn  Zn13  1  0.65047800  0.65047800  0.37399700  1
  Zn  Zn14  1  0.37399700  0.65047800  0.65047800  1
  Zn  Zn15  1  0.65047800  0.37399700  0.65047800  1
  Cu  Cu16  1  0.65578100  0.00000000  0.00000000  1
  Cu  Cu17  1  0.00000000  0.65578100  0.00000000  1
  Cu  Cu18  1  0.00000000  0.00000000  0.65578100  1
  Cu  Cu19  1  0.34421900  0.34421900  0.34421900  1
  Cu  Cu20  1  0.00000000  0.64364400  0.64364400  1
  Cu  Cu21  1  0.35635600  0.00000000  0.35635600  1
  Cu  Cu22  1  0.35635600  0.35635600  0.00000000  1
  Cu  Cu23  1  0.00000000  0.35635600  0.35635600  1
  Cu  Cu24  1  0.64364400  0.00000000  0.64364400  1
  Cu  Cu25  1  0.64364400  0.64364400  0.00000000  1
