# generated using pymatgen
data_KAlTe2
_symmetry_space_group_name_H-M   'P 1'
_cell_length_a   8.46451842
_cell_length_b   8.46451842
_cell_length_c   16.82087453
_cell_angle_alpha   82.76304097
_cell_angle_beta   82.76304097
_cell_angle_gamma   89.95956483
_symmetry_Int_Tables_number   1
_chemical_formula_structural   KAlTe2
_chemical_formula_sum   'K8 Al8 Te16'
_cell_volume   1185.91708853
_cell_formula_units_Z   8
loop_
 _symmetry_equiv_pos_site_id
 _symmetry_equiv_pos_as_xyz
  1  'x, y, z'
loop_
 _atom_site_type_symbol
 _atom_site_label
 _atom_site_symmetry_multiplicity
 _atom_site_fract_x
 _atom_site_fract_y
 _atom_site_fract_z
 _atom_site_occupancy
  K  K0  1  0.22091500  0.84902500  0.10898900  1
  K  K1  1  0.84902500  0.22091500  0.60898900  1
  K  K2  1  0.77908500  0.15097500  0.89101100  1
  K  K3  1  0.22072000  0.34584000  0.11768500  1
  K  K4  1  0.65416000  0.77928000  0.38231500  1
  K  K5  1  0.77928000  0.65416000  0.88231500  1
  K  K6  1  0.15097500  0.77908500  0.39101100  1
  K  K7  1  0.34584000  0.22072000  0.61768500  1
  Al  Al8  1  0.91217800  0.29018100  0.33811600  1
  Al  Al9  1  0.08782200  0.70981900  0.66188400  1
  Al  Al10  1  0.29018100  0.91217800  0.83811600  1
  Al  Al11  1  0.70939800  0.58147500  0.16260400  1
  Al  Al12  1  0.41852500  0.29060200  0.33739600  1
  Al  Al13  1  0.29060200  0.41852500  0.83739600  1
  Al  Al14  1  0.58147500  0.70939800  0.66260400  1
  Al  Al15  1  0.70981900  0.08782200  0.16188400  1
  Te  Te16  1  0.35988200  0.73489800  0.56406700  1
  Te  Te17  1  0.26510200  0.64011800  0.93593300  1
  Te  Te18  1  0.64011800  0.26510200  0.43593300  1
  Te  Te19  1  0.73489800  0.35988200  0.06406700  1
  Te  Te20  1  0.57166100  0.94650900  0.75052900  1
  Te  Te21  1  0.05349100  0.42833900  0.74947100  1
  Te  Te22  1  0.42833900  0.05349100  0.24947100  1
  Te  Te23  1  0.94650900  0.57166100  0.25052900  1
  Te  Te24  1  0.26568100  0.14224800  0.93301900  1
  Te  Te25  1  0.85775200  0.73431900  0.56698100  1
  Te  Te26  1  0.73431900  0.85775200  0.06698100  1
  Te  Te27  1  0.14224800  0.26568100  0.43301900  1
  Te  Te28  1  0.05324200  0.94675800  0.75000000  1
  Te  Te29  1  0.94675800  0.05324200  0.25000000  1
  Te  Te30  1  0.57233900  0.42766100  0.75000000  1
  Te  Te31  1  0.42766100  0.57233900  0.25000000  1
