# generated using pymatgen
data_Rb2CrO4
_symmetry_space_group_name_H-M   'P 1'
_cell_length_a   6.20521700
_cell_length_b   8.14335800
_cell_length_c   10.97725200
_cell_angle_alpha   90.00000000
_cell_angle_beta   90.00000000
_cell_angle_gamma   90.00000000
_symmetry_Int_Tables_number   1
_chemical_formula_structural   Rb2CrO4
_chemical_formula_sum   'Rb8 Cr4 O16'
_cell_volume   554.69485239
_cell_formula_units_Z   4
loop_
 _symmetry_equiv_pos_site_id
 _symmetry_equiv_pos_as_xyz
  1  'x, y, z'
loop_
 _atom_site_type_symbol
 _atom_site_label
 _atom_site_symmetry_multiplicity
 _atom_site_fract_x
 _atom_site_fract_y
 _atom_site_fract_z
 _atom_site_occupancy
  Rb  Rb0  1  0.25000000  0.01200900  0.30173400  1
  Rb  Rb1  1  0.75000000  0.98799100  0.69826600  1
  Rb  Rb2  1  0.25000000  0.51200900  0.19826600  1
  Rb  Rb3  1  0.75000000  0.48799100  0.80173400  1
  Rb  Rb4  1  0.25000000  0.32983800  0.58527500  1
  Rb  Rb5  1  0.75000000  0.67016200  0.41472500  1
  Rb  Rb6  1  0.25000000  0.82983800  0.91472500  1
  Rb  Rb7  1  0.75000000  0.17016200  0.08527500  1
  Cr  Cr8  1  0.25000000  0.76872000  0.57862600  1
  Cr  Cr9  1  0.75000000  0.23128000  0.42137400  1
  Cr  Cr10  1  0.25000000  0.26872000  0.92137400  1
  Cr  Cr11  1  0.75000000  0.73128000  0.07862600  1
  O  O12  1  0.52996700  0.30286300  0.35176600  1
  O  O13  1  0.02996700  0.69713700  0.64823400  1
  O  O14  1  0.97003300  0.80286300  0.14823400  1
  O  O15  1  0.47003300  0.19713700  0.85176600  1
  O  O16  1  0.47003300  0.69713700  0.64823400  1
  O  O17  1  0.97003300  0.30286300  0.35176600  1
  O  O18  1  0.02996700  0.19713700  0.85176600  1
  O  O19  1  0.52996700  0.80286300  0.14823400  1
  O  O20  1  0.25000000  0.70357800  0.43397300  1
  O  O21  1  0.75000000  0.29642200  0.56602700  1
  O  O22  1  0.25000000  0.20357800  0.06602700  1
  O  O23  1  0.75000000  0.79642200  0.93397300  1
  O  O24  1  0.75000000  0.52721800  0.08263700  1
  O  O25  1  0.25000000  0.47278200  0.91736300  1
  O  O26  1  0.75000000  0.02721800  0.41736300  1
  O  O27  1  0.25000000  0.97278200  0.58263700  1
