# generated using pymatgen
data_Lu6FeBi2
_symmetry_space_group_name_H-M   'P 1'
_cell_length_a   8.14202346
_cell_length_b   8.14202346
_cell_length_c   4.11363700
_cell_angle_alpha   90.00000000
_cell_angle_beta   90.00000000
_cell_angle_gamma   119.99999562
_symmetry_Int_Tables_number   1
_chemical_formula_structural   Lu6FeBi2
_chemical_formula_sum   'Lu6 Fe1 Bi2'
_cell_volume   236.16814333
_cell_formula_units_Z   1
loop_
 _symmetry_equiv_pos_site_id
 _symmetry_equiv_pos_as_xyz
  1  'x, y, z'
loop_
 _atom_site_type_symbol
 _atom_site_label
 _atom_site_symmetry_multiplicity
 _atom_site_fract_x
 _atom_site_fract_y
 _atom_site_fract_z
 _atom_site_occupancy
  Lu  Lu0  1  0.23030200  0.00000000  0.50000000  1
  Lu  Lu1  1  0.00000000  0.23030200  0.50000000  1
  Lu  Lu2  1  0.76969800  0.76969800  0.50000000  1
  Lu  Lu3  1  0.61636100  0.00000000  0.00000000  1
  Lu  Lu4  1  0.00000000  0.61636100  0.00000000  1
  Lu  Lu5  1  0.38363900  0.38363900  0.00000000  1
  Fe  Fe6  1  0.00000000  0.00000000  0.00000000  1
  Bi  Bi7  1  0.33333300  0.66666700  0.50000000  1
  Bi  Bi8  1  0.66666700  0.33333300  0.50000000  1
