# generated using pymatgen
data_YbSi3Pd5
_symmetry_space_group_name_H-M   'P 1'
_cell_length_a   4.01056100
_cell_length_b   19.78065100
_cell_length_c   7.28637000
_cell_angle_alpha   90.00000000
_cell_angle_beta   90.00000000
_cell_angle_gamma   90.00000000
_symmetry_Int_Tables_number   1
_chemical_formula_structural   YbSi3Pd5
_chemical_formula_sum   'Yb4 Si12 Pd20'
_cell_volume   578.03871598
_cell_formula_units_Z   4
loop_
 _symmetry_equiv_pos_site_id
 _symmetry_equiv_pos_as_xyz
  1  'x, y, z'
loop_
 _atom_site_type_symbol
 _atom_site_label
 _atom_site_symmetry_multiplicity
 _atom_site_fract_x
 _atom_site_fract_y
 _atom_site_fract_z
 _atom_site_occupancy
  Yb  Yb0  1  0.75000000  0.64251200  0.12014100  1
  Yb  Yb1  1  0.25000000  0.35748800  0.87985900  1
  Yb  Yb2  1  0.25000000  0.85748800  0.62014100  1
  Yb  Yb3  1  0.75000000  0.14251200  0.37985900  1
  Si  Si4  1  0.75000000  0.73965100  0.62337500  1
  Si  Si5  1  0.25000000  0.26034900  0.37662500  1
  Si  Si6  1  0.25000000  0.76034900  0.12337500  1
  Si  Si7  1  0.75000000  0.23965100  0.87662500  1
  Si  Si8  1  0.75000000  0.92433400  0.34757300  1
  Si  Si9  1  0.25000000  0.07566600  0.65242700  1
  Si  Si10  1  0.25000000  0.57566600  0.84757300  1
  Si  Si11  1  0.75000000  0.42433400  0.15242700  1
  Si  Si12  1  0.75000000  0.91543800  0.90806300  1
  Si  Si13  1  0.25000000  0.08456200  0.09193700  1
  Si  Si14  1  0.25000000  0.58456200  0.40806300  1
  Si  Si15  1  0.75000000  0.41543800  0.59193700  1
  Pd  Pd16  1  0.75000000  0.80014700  0.32374100  1
  Pd  Pd17  1  0.25000000  0.19985300  0.67625900  1
  Pd  Pd18  1  0.25000000  0.69985300  0.82374100  1
  Pd  Pd19  1  0.75000000  0.30014700  0.17625900  1
  Pd  Pd20  1  0.75000000  0.99180700  0.62629900  1
  Pd  Pd21  1  0.25000000  0.00819300  0.37370100  1
  Pd  Pd22  1  0.25000000  0.50819300  0.12629900  1
  Pd  Pd23  1  0.75000000  0.49180700  0.87370100  1
  Pd  Pd24  1  0.75000000  0.51423300  0.37858100  1
  Pd  Pd25  1  0.25000000  0.48576700  0.62141900  1
  Pd  Pd26  1  0.25000000  0.98576700  0.87858100  1
  Pd  Pd27  1  0.75000000  0.01423300  0.12141900  1
  Pd  Pd28  1  0.75000000  0.79594400  0.92673300  1
  Pd  Pd29  1  0.25000000  0.20405600  0.07326700  1
  Pd  Pd30  1  0.25000000  0.70405600  0.42673300  1
  Pd  Pd31  1  0.75000000  0.29594400  0.57326700  1
  Pd  Pd32  1  0.75000000  0.61666800  0.65054900  1
  Pd  Pd33  1  0.25000000  0.38333100  0.34945100  1
  Pd  Pd34  1  0.25000000  0.88333200  0.15054900  1
  Pd  Pd35  1  0.75000000  0.11666800  0.84945100  1
