# generated using pymatgen
data_TmZn3
_symmetry_space_group_name_H-M   'P 1'
_cell_length_a   4.37244800
_cell_length_b   6.62520000
_cell_length_c   10.01507300
_cell_angle_alpha   90.00000000
_cell_angle_beta   90.00000000
_cell_angle_gamma   90.00000000
_symmetry_Int_Tables_number   1
_chemical_formula_structural   TmZn3
_chemical_formula_sum   'Tm4 Zn12'
_cell_volume   290.12006472
_cell_formula_units_Z   4
loop_
 _symmetry_equiv_pos_site_id
 _symmetry_equiv_pos_as_xyz
  1  'x, y, z'
loop_
 _atom_site_type_symbol
 _atom_site_label
 _atom_site_symmetry_multiplicity
 _atom_site_fract_x
 _atom_site_fract_y
 _atom_site_fract_z
 _atom_site_occupancy
  Tm  Tm0  1  0.25000000  0.27988700  0.66391800  1
  Tm  Tm1  1  0.25000000  0.77988700  0.83608200  1
  Tm  Tm2  1  0.75000000  0.72011300  0.33608200  1
  Tm  Tm3  1  0.75000000  0.22011300  0.16391800  1
  Zn  Zn4  1  0.25000000  0.53611100  0.10347800  1
  Zn  Zn5  1  0.25000000  0.03611100  0.39652200  1
  Zn  Zn6  1  0.75000000  0.46388900  0.89652200  1
  Zn  Zn7  1  0.75000000  0.96388900  0.60347800  1
  Zn  Zn8  1  0.25000000  0.91879900  0.14864900  1
  Zn  Zn9  1  0.25000000  0.41879900  0.35135100  1
  Zn  Zn10  1  0.75000000  0.08120100  0.85135100  1
  Zn  Zn11  1  0.75000000  0.58120100  0.64864900  1
  Zn  Zn12  1  0.25000000  0.21693100  0.95697100  1
  Zn  Zn13  1  0.25000000  0.71693100  0.54302900  1
  Zn  Zn14  1  0.75000000  0.78306900  0.04302900  1
  Zn  Zn15  1  0.75000000  0.28306900  0.45697100  1
