# generated using pymatgen
data_Ho3Pt4
_symmetry_space_group_name_H-M   'P 1'
_cell_length_a   7.85260059
_cell_length_b   7.85260059
_cell_length_c   7.85260028
_cell_angle_alpha   114.32571164
_cell_angle_beta   114.32571164
_cell_angle_gamma   114.32571914
_symmetry_Int_Tables_number   1
_chemical_formula_structural   Ho3Pt4
_chemical_formula_sum   'Ho6 Pt8'
_cell_volume   286.94391311
_cell_formula_units_Z   2
loop_
 _symmetry_equiv_pos_site_id
 _symmetry_equiv_pos_as_xyz
  1  'x, y, z'
loop_
 _atom_site_type_symbol
 _atom_site_label
 _atom_site_symmetry_multiplicity
 _atom_site_fract_x
 _atom_site_fract_y
 _atom_site_fract_z
 _atom_site_occupancy
  Ho  Ho0  1  0.97351100  0.59619900  0.71935000  1
  Ho  Ho1  1  0.71935000  0.97351100  0.59619900  1
  Ho  Ho2  1  0.59619900  0.71935000  0.97351100  1
  Ho  Ho3  1  0.02648900  0.40380100  0.28065000  1
  Ho  Ho4  1  0.28065000  0.02648900  0.40380100  1
  Ho  Ho5  1  0.40380100  0.28065000  0.02648900  1
  Pt  Pt6  1  0.00000000  0.00000000  0.00000000  1
  Pt  Pt7  1  0.50000000  0.50000000  0.50000000  1
  Pt  Pt8  1  0.93871900  0.77433900  0.44714500  1
  Pt  Pt9  1  0.44714500  0.93871900  0.77433900  1
  Pt  Pt10  1  0.77433900  0.44714500  0.93871900  1
  Pt  Pt11  1  0.06128100  0.22566100  0.55285500  1
  Pt  Pt12  1  0.55285500  0.06128100  0.22566100  1
  Pt  Pt13  1  0.22566100  0.55285500  0.06128100  1
