# generated using pymatgen
data_ScVO4
_symmetry_space_group_name_H-M   'P 1'
_cell_length_a   5.75094011
_cell_length_b   5.75094011
_cell_length_c   5.75094011
_cell_angle_alpha   106.72124053
_cell_angle_beta   106.72124053
_cell_angle_gamma   115.12337526
_symmetry_Int_Tables_number   1
_chemical_formula_structural   ScVO4
_chemical_formula_sum   'Sc2 V2 O8'
_cell_volume   145.33883207
_cell_formula_units_Z   2
loop_
 _symmetry_equiv_pos_site_id
 _symmetry_equiv_pos_as_xyz
  1  'x, y, z'
loop_
 _atom_site_type_symbol
 _atom_site_label
 _atom_site_symmetry_multiplicity
 _atom_site_fract_x
 _atom_site_fract_y
 _atom_site_fract_z
 _atom_site_occupancy
  Sc  Sc0  1  0.25000000  0.75000000  0.50000000  1
  Sc  Sc1  1  0.00000000  0.00000000  0.00000000  1
  V  V2  1  0.50000000  0.50000000  0.00000000  1
  V  V3  1  0.75000000  0.25000000  0.50000000  1
  O  O4  1  0.87383900  0.68043600  0.19340300  1
  O  O5  1  0.93043600  0.62383900  0.69340300  1
  O  O6  1  0.93043600  0.23703300  0.30659700  1
  O  O7  1  0.48703300  0.68043600  0.80659700  1
  O  O8  1  0.37616100  0.06956400  0.30659700  1
  O  O9  1  0.31956400  0.12616100  0.80659700  1
  O  O10  1  0.31956400  0.51296700  0.19340300  1
  O  O11  1  0.76296700  0.06956400  0.69340300  1
