# generated using pymatgen
data_HoCrTeO6
_symmetry_space_group_name_H-M   'P 1'
_cell_length_a   5.19590055
_cell_length_b   5.19574461
_cell_length_c   9.73057700
_cell_angle_alpha   90.00185226
_cell_angle_beta   89.99907256
_cell_angle_gamma   119.99901423
_symmetry_Int_Tables_number   1
_chemical_formula_structural   HoCrTeO6
_chemical_formula_sum   'Ho2 Cr2 Te2 O12'
_cell_volume   227.50040033
_cell_formula_units_Z   2
loop_
 _symmetry_equiv_pos_site_id
 _symmetry_equiv_pos_as_xyz
  1  'x, y, z'
loop_
 _atom_site_type_symbol
 _atom_site_label
 _atom_site_symmetry_multiplicity
 _atom_site_fract_x
 _atom_site_fract_y
 _atom_site_fract_z
 _atom_site_occupancy
  Ho  Ho0  1  0.00000000  0.00000000  0.00000000  1
  Ho  Ho1  1  0.00000000  0.00000000  0.50000000  1
  Cr  Cr2  1  0.33331100  0.66665500  0.25000000  1
  Cr  Cr3  1  0.66668900  0.33334500  0.75000000  1
  Te  Te4  1  0.33333200  0.66666600  0.75000000  1
  Te  Te5  1  0.66666800  0.33333400  0.25000000  1
  O  O6  1  0.36343000  0.35338800  0.13883000  1
  O  O7  1  0.64658100  0.01001000  0.13883400  1
  O  O8  1  0.98996500  0.63655300  0.13883300  1
  O  O9  1  0.63657000  0.64661200  0.86117000  1
  O  O10  1  0.35341900  0.98999000  0.86116600  1
  O  O11  1  0.01003500  0.36344700  0.86116700  1
  O  O12  1  0.64658100  0.63657200  0.36116600  1
  O  O13  1  0.36343000  0.01004200  0.36117000  1
  O  O14  1  0.98996500  0.35341200  0.36116700  1
  O  O15  1  0.35341900  0.36342800  0.63883400  1
  O  O16  1  0.63657000  0.98995800  0.63883000  1
  O  O17  1  0.01003500  0.64658800  0.63883300  1
