# generated using pymatgen
data_SmTl(MoO4)2
_symmetry_space_group_name_H-M   'P 1'
_cell_length_a   5.20319700
_cell_length_b   8.26256500
_cell_length_c   19.41994700
_cell_angle_alpha   90.00000000
_cell_angle_beta   90.00000000
_cell_angle_gamma   90.00000000
_symmetry_Int_Tables_number   1
_chemical_formula_structural   SmTl(MoO4)2
_chemical_formula_sum   'Sm4 Tl4 Mo8 O32'
_cell_volume   834.89757286
_cell_formula_units_Z   4
loop_
 _symmetry_equiv_pos_site_id
 _symmetry_equiv_pos_as_xyz
  1  'x, y, z'
loop_
 _atom_site_type_symbol
 _atom_site_label
 _atom_site_symmetry_multiplicity
 _atom_site_fract_x
 _atom_site_fract_y
 _atom_site_fract_z
 _atom_site_occupancy
  Sm  Sm0  1  0.50000000  0.75000000  0.50424600  1
  Sm  Sm1  1  0.00000000  0.25000000  0.99575400  1
  Sm  Sm2  1  0.50000000  0.25000000  0.49575400  1
  Sm  Sm3  1  0.00000000  0.75000000  0.00424600  1
  Tl  Tl4  1  0.00000000  0.75000000  0.77348300  1
  Tl  Tl5  1  0.50000000  0.25000000  0.72651700  1
  Tl  Tl6  1  0.00000000  0.25000000  0.22651700  1
  Tl  Tl7  1  0.50000000  0.75000000  0.27348300  1
  Mo  Mo8  1  0.47925000  0.51028800  0.90061400  1
  Mo  Mo9  1  0.97925000  0.48971200  0.59938600  1
  Mo  Mo10  1  0.02075000  0.01028800  0.59938600  1
  Mo  Mo11  1  0.52075000  0.98971200  0.90061400  1
  Mo  Mo12  1  0.52075000  0.48971200  0.09938600  1
  Mo  Mo13  1  0.02075000  0.51028800  0.40061400  1
  Mo  Mo14  1  0.97925000  0.98971200  0.40061400  1
  Mo  Mo15  1  0.47925000  0.01028800  0.09938600  1
  O  O16  1  0.59947800  0.51565200  0.81590400  1
  O  O17  1  0.09947800  0.48434800  0.68409600  1
  O  O18  1  0.90052200  0.01565200  0.68409600  1
  O  O19  1  0.40052200  0.98434800  0.81590400  1
  O  O20  1  0.40052200  0.48434800  0.18409600  1
  O  O21  1  0.90052200  0.51565200  0.31590400  1
  O  O22  1  0.09947800  0.98434800  0.31590400  1
  O  O23  1  0.59947800  0.01565200  0.18409600  1
  O  O24  1  0.75031100  0.49787500  0.96320600  1
  O  O25  1  0.25031100  0.50212500  0.53679400  1
  O  O26  1  0.74968900  0.99787500  0.53679400  1
  O  O27  1  0.24968900  0.00212500  0.96320600  1
  O  O28  1  0.24968900  0.50212500  0.03679400  1
  O  O29  1  0.74968900  0.49787500  0.46320600  1
  O  O30  1  0.25031100  0.00212500  0.46320600  1
  O  O31  1  0.75031100  0.99787500  0.03679400  1
  O  O32  1  0.27276900  0.83678300  0.09451200  1
  O  O33  1  0.77276900  0.16321700  0.40548800  1
  O  O34  1  0.22723100  0.33678300  0.40548800  1
  O  O35  1  0.72723100  0.66321700  0.09451200  1
  O  O36  1  0.72723100  0.16321700  0.90548800  1
  O  O37  1  0.22723100  0.83678300  0.59451200  1
  O  O38  1  0.77276900  0.66321700  0.59451200  1
  O  O39  1  0.27276900  0.33678300  0.90548800  1
  O  O40  1  0.26229300  0.18134700  0.09042800  1
  O  O41  1  0.76229300  0.81865300  0.40957200  1
  O  O42  1  0.23770700  0.68134700  0.40957200  1
  O  O43  1  0.73770700  0.31865300  0.09042800  1
  O  O44  1  0.73770700  0.81865300  0.90957200  1
  O  O45  1  0.23770700  0.18134700  0.59042800  1
  O  O46  1  0.76229300  0.31865300  0.59042800  1
  O  O47  1  0.26229300  0.68134700  0.90957200  1
