# generated using pymatgen
data_La3Nd11(Si3O13)3
_symmetry_space_group_name_H-M   'P 1'
_cell_length_a   9.66238040
_cell_length_b   9.66238040
_cell_length_c   21.40191500
_cell_angle_alpha   90.00000000
_cell_angle_beta   90.00000000
_cell_angle_gamma   120.00000272
_symmetry_Int_Tables_number   1
_chemical_formula_structural   La3Nd11(Si3O13)3
_chemical_formula_sum   'La6 Nd22 Si18 O78'
_cell_volume   1730.41996438
_cell_formula_units_Z   2
loop_
 _symmetry_equiv_pos_site_id
 _symmetry_equiv_pos_as_xyz
  1  'x, y, z'
loop_
 _atom_site_type_symbol
 _atom_site_label
 _atom_site_symmetry_multiplicity
 _atom_site_fract_x
 _atom_site_fract_y
 _atom_site_fract_z
 _atom_site_occupancy
  La  La0  1  0.66666700  0.33333300  0.84172100  1
  La  La1  1  0.33333300  0.66666700  0.34172100  1
  La  La2  1  0.33333300  0.66666700  0.16897500  1
  La  La3  1  0.66666700  0.33333300  0.66897500  1
  La  La4  1  0.66666700  0.33333300  0.50174400  1
  La  La5  1  0.33333300  0.66666700  0.00174400  1
  Nd  Nd6  1  0.24558100  0.23049300  0.91858500  1
  Nd  Nd7  1  0.76950700  0.01508800  0.91858500  1
  Nd  Nd8  1  0.98491200  0.75441900  0.91858500  1
  Nd  Nd9  1  0.75441900  0.76950700  0.41858500  1
  Nd  Nd10  1  0.23049300  0.98491200  0.41858500  1
  Nd  Nd11  1  0.01508800  0.24558100  0.41858500  1
  Nd  Nd12  1  0.76026800  0.76972000  0.08224700  1
  Nd  Nd13  1  0.23028000  0.99054800  0.08224700  1
  Nd  Nd14  1  0.00945200  0.23973200  0.08224700  1
  Nd  Nd15  1  0.23973200  0.23028000  0.58224700  1
  Nd  Nd16  1  0.76972000  0.00945200  0.58224700  1
  Nd  Nd17  1  0.99054800  0.76026800  0.58224700  1
  Nd  Nd18  1  0.66666700  0.33333300  0.15635800  1
  Nd  Nd19  1  0.33333300  0.66666700  0.65635800  1
  Nd  Nd20  1  0.33333300  0.66666700  0.83200700  1
  Nd  Nd21  1  0.66666700  0.33333300  0.33200700  1
  Nd  Nd22  1  0.24279000  0.23174900  0.24956200  1
  Nd  Nd23  1  0.76825100  0.01104100  0.24956200  1
  Nd  Nd24  1  0.98895900  0.75721000  0.24956200  1
  Nd  Nd25  1  0.75721000  0.76825100  0.74956200  1
  Nd  Nd26  1  0.23174900  0.98895900  0.74956200  1
  Nd  Nd27  1  0.01104100  0.24279000  0.74956200  1
  Si  Si28  1  0.40043700  0.37238800  0.74984800  1
  Si  Si29  1  0.62761200  0.02804900  0.74984800  1
  Si  Si30  1  0.97195100  0.59956300  0.74984800  1
  Si  Si31  1  0.59956300  0.62761200  0.24984800  1
  Si  Si32  1  0.37238800  0.97195100  0.24984800  1
  Si  Si33  1  0.02804900  0.40043700  0.24984800  1
  Si  Si34  1  0.39913100  0.37004900  0.08365200  1
  Si  Si35  1  0.62995100  0.02908200  0.08365200  1
  Si  Si36  1  0.97091800  0.60086900  0.08365200  1
  Si  Si37  1  0.60086900  0.62995100  0.58365200  1
  Si  Si38  1  0.37004900  0.97091800  0.58365200  1
  Si  Si39  1  0.02908200  0.39913100  0.58365200  1
  Si  Si40  1  0.60333200  0.63453700  0.91488100  1
  Si  Si41  1  0.36546300  0.96879500  0.91488100  1
  Si  Si42  1  0.03120500  0.39666800  0.91488100  1
  Si  Si43  1  0.39666800  0.36546300  0.41488100  1
  Si  Si44  1  0.63453700  0.03120500  0.41488100  1
  Si  Si45  1  0.96879500  0.60333200  0.41488100  1
  O  O46  1  0.46513300  0.16076500  0.91035200  1
  O  O47  1  0.83923500  0.30436900  0.91035200  1
  O  O48  1  0.69563100  0.53486700  0.91035200  1
  O  O49  1  0.53486700  0.83923500  0.41035200  1
  O  O50  1  0.16076500  0.69563100  0.41035200  1
  O  O51  1  0.30436900  0.46513300  0.41035200  1
  O  O52  1  0.51694200  0.83089800  0.08488200  1
  O  O53  1  0.16910200  0.68604400  0.08488200  1
  O  O54  1  0.31395600  0.48305800  0.08488200  1
  O  O55  1  0.48305800  0.16910200  0.58488200  1
  O  O56  1  0.83089800  0.31395600  0.58488200  1
  O  O57  1  0.68604400  0.51694200  0.58488200  1
  O  O58  1  0.25505700  0.88835000  0.85143000  1
  O  O59  1  0.11165000  0.36670700  0.85143000  1
  O  O60  1  0.63329300  0.74494300  0.85143000  1
  O  O61  1  0.74494300  0.11165000  0.35143000  1
  O  O62  1  0.88835000  0.63329300  0.35143000  1
  O  O63  1  0.36670700  0.25505700  0.35143000  1
  O  O64  1  0.74247600  0.09929600  0.14745100  1
  O  O65  1  0.90070400  0.64318100  0.14745100  1
  O  O66  1  0.35681900  0.25752400  0.14745100  1
  O  O67  1  0.25752400  0.90070400  0.64745100  1
  O  O68  1  0.09929600  0.35681900  0.64745100  1
  O  O69  1  0.64318100  0.74247600  0.64745100  1
  O  O70  1  0.16508000  0.67289200  0.74815400  1
  O  O71  1  0.32710800  0.49218800  0.74815400  1
  O  O72  1  0.50781200  0.83492000  0.74815400  1
  O  O73  1  0.83492000  0.32710800  0.24815400  1
  O  O74  1  0.67289200  0.50781200  0.24815400  1
  O  O75  1  0.49218800  0.16508000  0.24815400  1
  O  O76  1  0.24064400  0.91412000  0.97431500  1
  O  O77  1  0.08588000  0.32652400  0.97431500  1
  O  O78  1  0.67347600  0.75935600  0.97431500  1
  O  O79  1  0.75935600  0.08588000  0.47431500  1
  O  O80  1  0.91412000  0.67347600  0.47431500  1
  O  O81  1  0.32652400  0.24064400  0.47431500  1
  O  O82  1  0.76111700  0.06602700  0.02772100  1
  O  O83  1  0.93397300  0.69509000  0.02772100  1
  O  O84  1  0.30491000  0.23888300  0.02772100  1
  O  O85  1  0.23888300  0.93397300  0.52772100  1
  O  O86  1  0.06602700  0.30491000  0.52772100  1
  O  O87  1  0.69509000  0.76111700  0.52772100  1
  O  O88  1  0.33830800  0.25267500  0.81088900  1
  O  O89  1  0.74732500  0.08563300  0.81088900  1
  O  O90  1  0.91436700  0.66169200  0.81088900  1
  O  O91  1  0.66169200  0.74732500  0.31088900  1
  O  O92  1  0.25267500  0.91436700  0.31088900  1
  O  O93  1  0.08563300  0.33830800  0.31088900  1
  O  O94  1  0.65617700  0.74903400  0.18897800  1
  O  O95  1  0.25096600  0.90714300  0.18897800  1
  O  O96  1  0.09285700  0.34382300  0.18897800  1
  O  O97  1  0.34382300  0.25096600  0.68897800  1
  O  O98  1  0.74903400  0.09285700  0.68897800  1
  O  O99  1  0.90714300  0.65617700  0.68897800  1
  O  O100  1  0.00000000  0.00000000  0.75029300  1
  O  O101  1  0.00000000  0.00000000  0.25029300  1
  O  O102  1  0.52819000  0.12575700  0.75093500  1
  O  O103  1  0.87424300  0.40243300  0.75093500  1
  O  O104  1  0.59756700  0.47181000  0.75093500  1
  O  O105  1  0.47181000  0.87424300  0.25093500  1
  O  O106  1  0.12575700  0.59756700  0.25093500  1
  O  O107  1  0.40243300  0.52819000  0.25093500  1
  O  O108  1  0.88835700  0.40811200  0.08297700  1
  O  O109  1  0.59188800  0.48024400  0.08297700  1
  O  O110  1  0.51975600  0.11164300  0.08297700  1
  O  O111  1  0.11164300  0.59188800  0.58297700  1
  O  O112  1  0.40811200  0.51975600  0.58297700  1
  O  O113  1  0.48024400  0.88835700  0.58297700  1
  O  O114  1  0.12268100  0.59348000  0.92142900  1
  O  O115  1  0.40652000  0.52920100  0.92142900  1
  O  O116  1  0.47079900  0.87731900  0.92142900  1
  O  O117  1  0.87731900  0.40652000  0.42142900  1
  O  O118  1  0.59348000  0.47079900  0.42142900  1
  O  O119  1  0.52920100  0.12268100  0.42142900  1
  O  O120  1  0.00000000  0.00000000  0.90837500  1
  O  O121  1  0.00000000  0.00000000  0.40837500  1
  O  O122  1  0.00000000  0.00000000  0.09685400  1
  O  O123  1  0.00000000  0.00000000  0.59685400  1
