# generated using pymatgen
data_CsCuS4
_symmetry_space_group_name_H-M   'P 1'
_cell_length_a   5.27976200
_cell_length_b   9.07940700
_cell_length_c   13.95644300
_cell_angle_alpha   90.00000000
_cell_angle_beta   90.00000000
_cell_angle_gamma   90.00000000
_symmetry_Int_Tables_number   1
_chemical_formula_structural   CsCuS4
_chemical_formula_sum   'Cs4 Cu4 S16'
_cell_volume   669.03151624
_cell_formula_units_Z   4
loop_
 _symmetry_equiv_pos_site_id
 _symmetry_equiv_pos_as_xyz
  1  'x, y, z'
loop_
 _atom_site_type_symbol
 _atom_site_label
 _atom_site_symmetry_multiplicity
 _atom_site_fract_x
 _atom_site_fract_y
 _atom_site_fract_z
 _atom_site_occupancy
  Cs  Cs0  1  0.32230500  0.58107300  0.16188200  1
  Cs  Cs1  1  0.82230500  0.91892700  0.83811800  1
  Cs  Cs2  1  0.67769500  0.08107300  0.33811800  1
  Cs  Cs3  1  0.17769500  0.41892700  0.66188200  1
  Cu  Cu4  1  0.46499600  0.64463800  0.43844200  1
  Cu  Cu5  1  0.96499600  0.85536200  0.56155800  1
  Cu  Cu6  1  0.53500400  0.14463800  0.06155800  1
  Cu  Cu7  1  0.03500400  0.35536200  0.93844200  1
  S  S8  1  0.06018300  0.93852100  0.07549400  1
  S  S9  1  0.56018300  0.56147900  0.92450600  1
  S  S10  1  0.93981700  0.43852100  0.42450600  1
  S  S11  1  0.43981700  0.06147900  0.57549400  1
  S  S12  1  0.11586500  0.79054800  0.41075100  1
  S  S13  1  0.61586500  0.70945200  0.58924900  1
  S  S14  1  0.88413500  0.29054800  0.08924900  1
  S  S15  1  0.38413500  0.20945200  0.91075100  1
  S  S16  1  0.35020000  0.85879000  0.64586800  1
  S  S17  1  0.85020000  0.64121000  0.35413200  1
  S  S18  1  0.64980000  0.35879000  0.85413200  1
  S  S19  1  0.14980000  0.14121000  0.14586800  1
  S  S20  1  0.17886500  0.58786900  0.90096600  1
  S  S21  1  0.67886500  0.91213100  0.09903400  1
  S  S22  1  0.82113500  0.08786900  0.59903400  1
  S  S23  1  0.32113500  0.41213100  0.40096600  1
