# generated using pymatgen
data_MgAu2(SO4)4
_symmetry_space_group_name_H-M   'P 1'
_cell_length_a   11.28881521
_cell_length_b   10.05197206
_cell_length_c   9.06086077
_cell_angle_alpha   72.19377986
_cell_angle_beta   57.97114575
_cell_angle_gamma   49.83507438
_symmetry_Int_Tables_number   1
_chemical_formula_structural   MgAu2(SO4)4
_chemical_formula_sum   'Mg2 Au4 S8 O32'
_cell_volume   665.07884838
_cell_formula_units_Z   2
loop_
 _symmetry_equiv_pos_site_id
 _symmetry_equiv_pos_as_xyz
  1  'x, y, z'
loop_
 _atom_site_type_symbol
 _atom_site_label
 _atom_site_symmetry_multiplicity
 _atom_site_fract_x
 _atom_site_fract_y
 _atom_site_fract_z
 _atom_site_occupancy
  Mg  Mg0  1  0.11370800  0.38629200  0.38629200  1
  Mg  Mg1  1  0.86370800  0.13629200  0.13629200  1
  Au  Au2  1  0.44174500  0.80282900  0.37024700  1
  Au  Au3  1  0.38517900  0.37024700  0.80282900  1
  Au  Au4  1  0.87975300  0.86482100  0.80825500  1
  Au  Au5  1  0.44717100  0.80825500  0.86482100  1
  S  S6  1  0.19629300  0.05911900  0.69218200  1
  S  S7  1  0.05240600  0.69218200  0.05911900  1
  S  S8  1  0.55781800  0.19759400  0.05370700  1
  S  S9  1  0.19088100  0.05370700  0.19759400  1
  S  S10  1  0.68871000  0.54906600  0.53574700  1
  S  S11  1  0.22647700  0.53574700  0.54906600  1
  S  S12  1  0.71425300  0.02352300  0.56129000  1
  S  S13  1  0.70093400  0.56129000  0.02352300  1
  O  O14  1  0.34893600  0.00444600  0.71176400  1
  O  O15  1  0.93485500  0.71176400  0.00444600  1
  O  O16  1  0.53823600  0.31514500  0.90106400  1
  O  O17  1  0.24555400  0.90106400  0.31514500  1
  O  O18  1  0.63812700  0.70821500  0.42073100  1
  O  O19  1  0.23292600  0.42073100  0.70821500  1
  O  O20  1  0.82926900  0.01707400  0.61187300  1
  O  O21  1  0.54178500  0.61187300  0.01707400  1
  O  O22  1  0.24874800  0.89960400  0.61972800  1
  O  O23  1  0.23191900  0.61972800  0.89960400  1
  O  O24  1  0.63027200  0.01808100  0.00125200  1
  O  O25  1  0.35039600  0.00125200  0.01808100  1
  O  O26  1  0.53607800  0.61625900  0.72194400  1
  O  O27  1  0.12571900  0.72194400  0.61625900  1
  O  O28  1  0.52805600  0.12428100  0.71392200  1
  O  O29  1  0.63374100  0.71392200  0.12428100  1
  O  O30  1  0.04277200  0.10696600  0.85908400  1
  O  O31  1  0.99117900  0.85908400  0.10696600  1
  O  O32  1  0.39091600  0.25882100  0.20722800  1
  O  O33  1  0.14303400  0.20722800  0.25882100  1
  O  O34  1  0.17513100  0.19399600  0.56752000  1
  O  O35  1  0.06335300  0.56752000  0.19399600  1
  O  O36  1  0.68248000  0.18664700  0.07486900  1
  O  O37  1  0.05600400  0.07486900  0.18664700  1
  O  O38  1  0.69591700  0.41785300  0.49094600  1
  O  O39  1  0.39528400  0.49094600  0.41785300  1
  O  O40  1  0.75905400  0.85471600  0.55408300  1
  O  O41  1  0.83214700  0.55408300  0.85471600  1
  O  O42  1  0.84572400  0.49882700  0.52717500  1
  O  O43  1  0.12827500  0.52717500  0.49882700  1
  O  O44  1  0.72282500  0.12172500  0.40427600  1
  O  O45  1  0.75117300  0.40427600  0.12172500  1
