# generated using pymatgen
data_KSrCeSbO6
_symmetry_space_group_name_H-M   'P 1'
_cell_length_a   8.47630223
_cell_length_b   8.44645010
_cell_length_c   8.43818740
_cell_angle_alpha   90.00000000
_cell_angle_beta   90.00000000
_cell_angle_gamma   90.00000000
_symmetry_Int_Tables_number   1
_chemical_formula_structural   KSrCeSbO6
_chemical_formula_sum   'K4 Sr4 Ce4 Sb4 O24'
_cell_volume   604.12919014
_cell_formula_units_Z   4
loop_
 _symmetry_equiv_pos_site_id
 _symmetry_equiv_pos_as_xyz
  1  'x, y, z'
loop_
 _atom_site_type_symbol
 _atom_site_label
 _atom_site_symmetry_multiplicity
 _atom_site_fract_x
 _atom_site_fract_y
 _atom_site_fract_z
 _atom_site_occupancy
  K  K0  1  0.00000000  0.50000000  0.50000000  1
  K  K1  1  0.50000000  0.00000000  0.50000000  1
  K  K2  1  0.50000000  0.00000000  0.00000000  1
  K  K3  1  0.00000000  0.50000000  0.00000000  1
  Sr  Sr4  1  0.50000000  0.50000000  0.00000000  1
  Sr  Sr5  1  0.00000000  0.00000000  0.50000000  1
  Sr  Sr6  1  0.00000000  0.00000000  0.00000000  1
  Sr  Sr7  1  0.50000000  0.50000000  0.50000000  1
  Ce  Ce8  1  0.75000000  0.75000000  0.75000000  1
  Ce  Ce9  1  0.25000000  0.25000000  0.75000000  1
  Ce  Ce10  1  0.25000000  0.75000000  0.25000000  1
  Ce  Ce11  1  0.75000000  0.25000000  0.25000000  1
  Sb  Sb12  1  0.25000000  0.25000000  0.25000000  1
  Sb  Sb13  1  0.75000000  0.75000000  0.25000000  1
  Sb  Sb14  1  0.75000000  0.25000000  0.75000000  1
  Sb  Sb15  1  0.25000000  0.75000000  0.75000000  1
  O  O16  1  0.01300345  0.22481425  0.26334142  1
  O  O17  1  0.98699655  0.77518575  0.26334142  1
  O  O18  1  0.98699655  0.22481425  0.73665858  1
  O  O19  1  0.01300345  0.77518575  0.73665858  1
  O  O20  1  0.25301812  0.01218053  0.23583257  1
  O  O21  1  0.25301812  0.98781947  0.76416743  1
  O  O22  1  0.74698188  0.98781947  0.23583257  1
  O  O23  1  0.74698188  0.01218053  0.76416743  1
  O  O24  1  0.23694711  0.26207536  0.01269873  1
  O  O25  1  0.76305289  0.26207536  0.98730127  1
  O  O26  1  0.23694711  0.73792464  0.98730127  1
  O  O27  1  0.76305289  0.73792464  0.01269873  1
  O  O28  1  0.48699655  0.27518575  0.23665858  1
  O  O29  1  0.51300345  0.72481425  0.23665858  1
  O  O30  1  0.51300345  0.27518575  0.76334142  1
  O  O31  1  0.48699655  0.72481425  0.76334142  1
  O  O32  1  0.24698188  0.48781947  0.26416743  1
  O  O33  1  0.24698188  0.51218053  0.73583257  1
  O  O34  1  0.75301812  0.51218053  0.26416743  1
  O  O35  1  0.75301812  0.48781947  0.73583257  1
  O  O36  1  0.26305289  0.23792464  0.48730127  1
  O  O37  1  0.73694711  0.23792464  0.51269873  1
  O  O38  1  0.26305289  0.76207536  0.51269873  1
  O  O39  1  0.73694711  0.76207536  0.48730127  1
