# generated using pymatgen
data_Ba2MnGe2O7
_symmetry_space_group_name_H-M   'P 1'
_cell_length_a   8.62291400
_cell_length_b   8.62292300
_cell_length_c   11.23153300
_cell_angle_alpha   90.00013276
_cell_angle_beta   90.00027727
_cell_angle_gamma   90.00031894
_symmetry_Int_Tables_number   1
_chemical_formula_structural   Ba2MnGe2O7
_chemical_formula_sum   'Ba8 Mn4 Ge8 O28'
_cell_volume   835.11753021
_cell_formula_units_Z   4
loop_
 _symmetry_equiv_pos_site_id
 _symmetry_equiv_pos_as_xyz
  1  'x, y, z'
loop_
 _atom_site_type_symbol
 _atom_site_label
 _atom_site_symmetry_multiplicity
 _atom_site_fract_x
 _atom_site_fract_y
 _atom_site_fract_z
 _atom_site_occupancy
  Ba  Ba0  1  0.33447300  0.16552600  0.25396800  1
  Ba  Ba1  1  0.33447500  0.16552600  0.75396500  1
  Ba  Ba2  1  0.16552400  0.66552400  0.24603200  1
  Ba  Ba3  1  0.16553000  0.66552200  0.74603400  1
  Ba  Ba4  1  0.66552300  0.83447300  0.25396800  1
  Ba  Ba5  1  0.66552700  0.83448300  0.75396900  1
  Ba  Ba6  1  0.83447100  0.33447600  0.24603300  1
  Ba  Ba7  1  0.83447600  0.33447400  0.74603600  1
  Mn  Mn8  1  0.49989600  0.49998200  0.50002300  1
  Mn  Mn9  1  0.00002400  0.99992400  0.00005200  1
  Mn  Mn10  1  0.50004100  0.50010500  0.99998200  1
  Mn  Mn11  1  0.00009900  0.00001700  0.49997000  1
  Ge  Ge12  1  0.13931400  0.36068600  0.47704800  1
  Ge  Ge13  1  0.13930800  0.36068900  0.97704900  1
  Ge  Ge14  1  0.36068000  0.86068700  0.02295000  1
  Ge  Ge15  1  0.36068600  0.86068300  0.52295000  1
  Ge  Ge16  1  0.86069000  0.63930800  0.47705000  1
  Ge  Ge17  1  0.86068700  0.63931200  0.97704800  1
  Ge  Ge18  1  0.63931100  0.13930700  0.02295000  1
  Ge  Ge19  1  0.63930600  0.13931200  0.52294900  1
  O  O20  1  0.50000100  0.99999900  0.08279700  1
  O  O21  1  0.50000000  0.00000100  0.58279600  1
  O  O22  1  0.99999700  0.50000200  0.41720300  1
  O  O23  1  0.00000200  0.49999800  0.91720300  1
  O  O24  1  0.13922800  0.36076800  0.13245200  1
  O  O25  1  0.13922900  0.36076800  0.63245300  1
  O  O26  1  0.36076700  0.86076600  0.36754700  1
  O  O27  1  0.36076800  0.86076800  0.86754700  1
  O  O28  1  0.86076600  0.63922900  0.13245200  1
  O  O29  1  0.86076700  0.63923100  0.63245200  1
  O  O30  1  0.63923000  0.13923000  0.36754700  1
  O  O31  1  0.63923000  0.13923100  0.86754700  1
  O  O32  1  0.31115200  0.42156500  0.40256700  1
  O  O33  1  0.31114300  0.42156200  0.90256700  1
  O  O34  1  0.18884400  0.92156300  0.09743000  1
  O  O35  1  0.18885300  0.92156300  0.59743100  1
  O  O36  1  0.68885200  0.57843700  0.40256500  1
  O  O37  1  0.68885700  0.57843800  0.90256400  1
  O  O38  1  0.81114900  0.07843300  0.09743000  1
  O  O39  1  0.81114100  0.07843900  0.59743400  1
  O  O40  1  0.57843500  0.31114300  0.09743100  1
  O  O41  1  0.57843400  0.31115100  0.59743000  1
  O  O42  1  0.92156000  0.81113900  0.40256500  1
  O  O43  1  0.92156400  0.81115300  0.90257000  1
  O  O44  1  0.42155900  0.68885700  0.09743400  1
  O  O45  1  0.42156700  0.68884400  0.59742900  1
  O  O46  1  0.07843400  0.18885300  0.40256600  1
  O  O47  1  0.07843500  0.18885000  0.90256700  1
