# generated using pymatgen
data_SrNi3(P2O7)2
_symmetry_space_group_name_H-M   'P 1'
_cell_length_a   7.76731500
_cell_length_b   7.50633600
_cell_length_c   9.54997449
_cell_angle_alpha   67.73857548
_cell_angle_beta   90.00000000
_cell_angle_gamma   90.00000000
_symmetry_Int_Tables_number   1
_chemical_formula_structural   SrNi3(P2O7)2
_chemical_formula_sum   'Sr2 Ni6 P8 O28'
_cell_volume   515.30116231
_cell_formula_units_Z   2
loop_
 _symmetry_equiv_pos_site_id
 _symmetry_equiv_pos_as_xyz
  1  'x, y, z'
loop_
 _atom_site_type_symbol
 _atom_site_label
 _atom_site_symmetry_multiplicity
 _atom_site_fract_x
 _atom_site_fract_y
 _atom_site_fract_z
 _atom_site_occupancy
  Sr  Sr0  1  0.50000000  0.50000000  0.50000000  1
  Sr  Sr1  1  0.00000000  0.50000000  0.00000000  1
  Ni  Ni2  1  0.50000000  0.00000000  0.50000000  1
  Ni  Ni3  1  0.00000000  0.00000000  0.00000000  1
  Ni  Ni4  1  0.12607000  0.81568200  0.52478000  1
  Ni  Ni5  1  0.62607000  0.18431800  0.97522000  1
  Ni  Ni6  1  0.87393000  0.18431800  0.47522000  1
  Ni  Ni7  1  0.37393000  0.81568200  0.02478000  1
  P  P8  1  0.94173700  0.39630700  0.70128400  1
  P  P9  1  0.44173700  0.60369300  0.79871600  1
  P  P10  1  0.05826300  0.60369300  0.29871600  1
  P  P11  1  0.55826300  0.39630700  0.20128400  1
  P  P12  1  0.20297500  0.11075300  0.69307100  1
  P  P13  1  0.70297500  0.88924700  0.80692900  1
  P  P14  1  0.79702500  0.88924700  0.30692900  1
  P  P15  1  0.29702500  0.11075300  0.19307100  1
  O  O16  1  0.37502400  0.15554700  0.61069300  1
  O  O17  1  0.87502400  0.84445300  0.88930700  1
  O  O18  1  0.62497600  0.84445300  0.38930700  1
  O  O19  1  0.12497600  0.15554700  0.11069300  1
  O  O20  1  0.38354500  0.73133400  0.63442200  1
  O  O21  1  0.88354500  0.26866600  0.86557800  1
  O  O22  1  0.61645500  0.26866600  0.36557800  1
  O  O23  1  0.11645500  0.73133400  0.13442200  1
  O  O24  1  0.81935600  0.37523100  0.58394400  1
  O  O25  1  0.31935600  0.62476900  0.91605600  1
  O  O26  1  0.18064400  0.62476900  0.41605600  1
  O  O27  1  0.68064400  0.37523100  0.08394400  1
  O  O28  1  0.12835800  0.31785400  0.67700700  1
  O  O29  1  0.62835800  0.68214600  0.82299300  1
  O  O30  1  0.87164200  0.68214600  0.32299300  1
  O  O31  1  0.37164200  0.31785400  0.17700700  1
  O  O32  1  0.51892000  0.59961000  0.19278100  1
  O  O33  1  0.01892000  0.40039000  0.30721900  1
  O  O34  1  0.48108000  0.40039000  0.80721900  1
  O  O35  1  0.98108000  0.59961000  0.69278100  1
  O  O36  1  0.79041900  0.99907100  0.13484600  1
  O  O37  1  0.29041900  0.00092900  0.36515400  1
  O  O38  1  0.20958100  0.00092900  0.86515400  1
  O  O39  1  0.70958100  0.99907100  0.63484600  1
  O  O40  1  0.42511800  0.02587100  0.11234900  1
  O  O41  1  0.92511800  0.97412900  0.38765100  1
  O  O42  1  0.57488200  0.97412900  0.88765100  1
  O  O43  1  0.07488200  0.02587100  0.61234900  1
