# generated using pymatgen
data_Pr4CoI5
_symmetry_space_group_name_H-M   'P 1'
_cell_length_a   9.96925211
_cell_length_b   9.96925211
_cell_length_c   9.38275415
_cell_angle_alpha   76.96670434
_cell_angle_beta   76.96670434
_cell_angle_gamma   25.00414341
_symmetry_Int_Tables_number   1
_chemical_formula_structural   Pr4CoI5
_chemical_formula_sum   'Pr4 Co1 I5'
_cell_volume   383.49868043
_cell_formula_units_Z   1
loop_
 _symmetry_equiv_pos_site_id
 _symmetry_equiv_pos_as_xyz
  1  'x, y, z'
loop_
 _atom_site_type_symbol
 _atom_site_label
 _atom_site_symmetry_multiplicity
 _atom_site_fract_x
 _atom_site_fract_y
 _atom_site_fract_z
 _atom_site_occupancy
  Pr  Pr0  1  0.86521700  0.86521700  0.06895400  1
  Pr  Pr1  1  0.13478300  0.13478300  0.93104600  1
  Pr  Pr2  1  0.50080800  0.50080800  0.21329100  1
  Pr  Pr3  1  0.49919200  0.49919200  0.78670900  1
  Co  Co4  1  0.00000000  0.00000000  0.00000000  1
  I  I5  1  0.67260200  0.67260200  0.16862000  1
  I  I6  1  0.32739800  0.32739800  0.83138000  1
  I  I7  1  0.66660000  0.66660000  0.66236400  1
  I  I8  1  0.33340000  0.33340000  0.33763600  1
  I  I9  1  0.00000000  0.00000000  0.50000000  1
