# generated using pymatgen
data_KSb(SO4)2
_symmetry_space_group_name_H-M   'P 1'
_cell_length_a   7.42402600
_cell_length_b   9.03115700
_cell_length_c   10.92923955
_cell_angle_alpha   88.19839350
_cell_angle_beta   90.00000000
_cell_angle_gamma   90.00000000
_symmetry_Int_Tables_number   1
_chemical_formula_structural   KSb(SO4)2
_chemical_formula_sum   'K4 Sb4 S8 O32'
_cell_volume   732.41644604
_cell_formula_units_Z   4
loop_
 _symmetry_equiv_pos_site_id
 _symmetry_equiv_pos_as_xyz
  1  'x, y, z'
loop_
 _atom_site_type_symbol
 _atom_site_label
 _atom_site_symmetry_multiplicity
 _atom_site_fract_x
 _atom_site_fract_y
 _atom_site_fract_z
 _atom_site_occupancy
  K  K0  1  0.66736300  0.31670700  0.88742000  1
  K  K1  1  0.16736300  0.18329300  0.11258000  1
  K  K2  1  0.33263700  0.68329300  0.11258000  1
  K  K3  1  0.83263700  0.81670700  0.88742000  1
  Sb  Sb4  1  0.71474200  0.79606600  0.36835200  1
  Sb  Sb5  1  0.21474200  0.70393400  0.63164800  1
  Sb  Sb6  1  0.28525800  0.20393400  0.63164800  1
  Sb  Sb7  1  0.78525800  0.29606600  0.36835200  1
  S  S8  1  0.70054100  0.07766000  0.61737500  1
  S  S9  1  0.20054100  0.42234000  0.38262500  1
  S  S10  1  0.29945900  0.92234000  0.38262500  1
  S  S11  1  0.79945900  0.57766000  0.61737500  1
  S  S12  1  0.69432500  0.06860600  0.14742100  1
  S  S13  1  0.19432500  0.43139400  0.85257900  1
  S  S14  1  0.30567500  0.93139400  0.85257900  1
  S  S15  1  0.80567500  0.56860600  0.14742100  1
  O  O16  1  0.80563500  0.08360800  0.72892600  1
  O  O17  1  0.30563500  0.41639200  0.27107400  1
  O  O18  1  0.19436500  0.91639200  0.27107400  1
  O  O19  1  0.69436500  0.58360800  0.72892600  1
  O  O20  1  0.60855500  0.93767700  0.59796400  1
  O  O21  1  0.10855500  0.56232300  0.40203600  1
  O  O22  1  0.39144500  0.06232300  0.40203600  1
  O  O23  1  0.89144500  0.43767700  0.59796400  1
  O  O24  1  0.81727000  0.11747800  0.50666900  1
  O  O25  1  0.31727000  0.38252200  0.49333100  1
  O  O26  1  0.18273000  0.88252200  0.49333100  1
  O  O27  1  0.68273000  0.61747800  0.50666900  1
  O  O28  1  0.56117400  0.20932600  0.61859700  1
  O  O29  1  0.06117400  0.29067400  0.38140300  1
  O  O30  1  0.43882600  0.79067400  0.38140300  1
  O  O31  1  0.93882600  0.70932600  0.61859700  1
  O  O32  1  0.54125400  0.16799600  0.13457500  1
  O  O33  1  0.04125400  0.33200400  0.86542500  1
  O  O34  1  0.45874600  0.83200400  0.86542500  1
  O  O35  1  0.95874600  0.66799600  0.13457500  1
  O  O36  1  0.81234400  0.06739200  0.04066800  1
  O  O37  1  0.31234400  0.43260800  0.95933200  1
  O  O38  1  0.18765600  0.93260800  0.95933200  1
  O  O39  1  0.68765600  0.56739200  0.04066800  1
  O  O40  1  0.63780200  0.91279200  0.18466300  1
  O  O41  1  0.13780200  0.58720800  0.81533700  1
  O  O42  1  0.36219800  0.08720800  0.81533700  1
  O  O43  1  0.86219800  0.41279200  0.18466300  1
  O  O44  1  0.81510200  0.11520700  0.25874600  1
  O  O45  1  0.31510200  0.38479300  0.74125400  1
  O  O46  1  0.18489800  0.88479300  0.74125400  1
  O  O47  1  0.68489800  0.61520700  0.25874600  1
