# generated using pymatgen
data_RbCrSe2
_symmetry_space_group_name_H-M   'P 1'
_cell_length_a   3.89019551
_cell_length_b   3.89019551
_cell_length_c   8.09868739
_cell_angle_alpha   76.10316044
_cell_angle_beta   76.10316044
_cell_angle_gamma   60.00000827
_symmetry_Int_Tables_number   1
_chemical_formula_structural   RbCrSe2
_chemical_formula_sum   'Rb1 Cr1 Se2'
_cell_volume   101.97877194
_cell_formula_units_Z   1
loop_
 _symmetry_equiv_pos_site_id
 _symmetry_equiv_pos_as_xyz
  1  'x, y, z'
loop_
 _atom_site_type_symbol
 _atom_site_label
 _atom_site_symmetry_multiplicity
 _atom_site_fract_x
 _atom_site_fract_y
 _atom_site_fract_z
 _atom_site_occupancy
  Rb  Rb0  1  0.83451400  0.83451400  0.49645900  1
  Cr  Cr1  1  0.00195800  0.00195800  0.99412500  1
  Se  Se2  1  0.61233700  0.61233700  0.16298800  1
  Se  Se3  1  0.39119000  0.39119000  0.82642800  1
