# generated using pymatgen
data_Na2B4O7
_symmetry_space_group_name_H-M   'P 1'
_cell_length_a   6.62122900
_cell_length_b   8.76689640
_cell_length_c   10.64452727
_cell_angle_alpha   93.28672780
_cell_angle_beta   94.40119963
_cell_angle_gamma   90.85162257
_symmetry_Int_Tables_number   1
_chemical_formula_structural   Na2B4O7
_chemical_formula_sum   'Na8 B16 O28'
_cell_volume   614.93897130
_cell_formula_units_Z   4
loop_
 _symmetry_equiv_pos_site_id
 _symmetry_equiv_pos_as_xyz
  1  'x, y, z'
loop_
 _atom_site_type_symbol
 _atom_site_label
 _atom_site_symmetry_multiplicity
 _atom_site_fract_x
 _atom_site_fract_y
 _atom_site_fract_z
 _atom_site_occupancy
  Na  Na0  1  0.56215100  0.08118000  0.14369900  1
  Na  Na1  1  0.43784900  0.91882000  0.85630100  1
  Na  Na2  1  0.52184500  0.54203500  0.77135100  1
  Na  Na3  1  0.47815500  0.45796500  0.22864900  1
  Na  Na4  1  0.82695100  0.65877500  0.98070300  1
  Na  Na5  1  0.17304900  0.34122500  0.01929700  1
  Na  Na6  1  0.89021100  0.85885200  0.38843200  1
  Na  Na7  1  0.10978900  0.14114800  0.61156800  1
  B  B8  1  0.65409100  0.25283000  0.59019300  1
  B  B9  1  0.34590900  0.74717000  0.40980700  1
  B  B10  1  0.60655100  0.81283200  0.57714800  1
  B  B11  1  0.39344900  0.18716800  0.42285200  1
  B  B12  1  0.95036800  0.44338900  0.27699500  1
  B  B13  1  0.04963200  0.55661100  0.72300500  1
  B  B14  1  0.83815700  0.05951800  0.86092500  1
  B  B15  1  0.16184300  0.94048200  0.13907500  1
  B  B16  1  0.87709900  0.31957700  0.79815000  1
  B  B17  1  0.12290100  0.68042300  0.20185000  1
  B  B18  1  0.75287400  0.23964000  0.36914900  1
  B  B19  1  0.24712600  0.76036000  0.63085100  1
  B  B20  1  0.92696700  0.82415900  0.72704600  1
  B  B21  1  0.07303300  0.17584100  0.27295400  1
  B  B22  1  0.66650800  0.27705600  0.97163800  1
  B  B23  1  0.33349200  0.72294400  0.02836200  1
  O  O24  1  0.86452400  0.13362500  0.29178000  1
  O  O25  1  0.80079300  0.22858100  0.50823200  1
  O  O26  1  0.21432200  0.59966200  0.66191300  1
  O  O27  1  0.78567800  0.40033800  0.33808700  1
  O  O28  1  0.46814100  0.79480300  0.66393200  1
  O  O29  1  0.19920700  0.77141900  0.49176800  1
  O  O30  1  0.31073500  0.68517800  0.28925400  1
  O  O31  1  0.68926500  0.31482200  0.71074600  1
  O  O32  1  0.04287400  0.83799400  0.19375300  1
  O  O33  1  0.95712600  0.16200600  0.80624700  1
  O  O34  1  0.19109100  0.62475800  0.07676800  1
  O  O35  1  0.80890900  0.37524200  0.92323200  1
  O  O36  1  0.04461700  0.40839300  0.75939000  1
  O  O37  1  0.95538300  0.59160700  0.24061000  1
  O  O38  1  0.45017800  0.21472900  0.55222900  1
  O  O39  1  0.54982200  0.78527100  0.44777100  1
  O  O40  1  0.30958000  0.88574400  0.06051800  1
  O  O41  1  0.69042000  0.11425600  0.93948200  1
  O  O42  1  0.47812600  0.68343400  0.95533900  1
  O  O43  1  0.52187400  0.31656600  0.04466100  1
  O  O44  1  0.90093000  0.65825100  0.75342100  1
  O  O45  1  0.09907000  0.34174900  0.24657900  1
  O  O46  1  0.80267700  0.85596000  0.60802200  1
  O  O47  1  0.19732300  0.14404000  0.39197800  1
  O  O48  1  0.84779000  0.90547400  0.83985900  1
  O  O49  1  0.15221000  0.09452600  0.16014100  1
  O  O50  1  0.53185900  0.20519700  0.33606800  1
  O  O51  1  0.13547600  0.86637500  0.70822000  1
