# generated using pymatgen
data_SrCo(GeO3)2
_symmetry_space_group_name_H-M   'P 1'
_cell_length_a   7.00244472
_cell_length_b   8.01085953
_cell_length_c   9.79925122
_cell_angle_alpha   76.70368675
_cell_angle_beta   79.00365393
_cell_angle_gamma   92.89971971
_symmetry_Int_Tables_number   1
_chemical_formula_structural   SrCo(GeO3)2
_chemical_formula_sum   'Sr4 Co4 Ge8 O24'
_cell_volume   522.56416261
_cell_formula_units_Z   4
loop_
 _symmetry_equiv_pos_site_id
 _symmetry_equiv_pos_as_xyz
  1  'x, y, z'
loop_
 _atom_site_type_symbol
 _atom_site_label
 _atom_site_symmetry_multiplicity
 _atom_site_fract_x
 _atom_site_fract_y
 _atom_site_fract_z
 _atom_site_occupancy
  Sr  Sr0  1  0.19542300  0.27765800  0.52755800  1
  Sr  Sr1  1  0.19496600  0.77708100  0.02799000  1
  Sr  Sr2  1  0.80517000  0.72288400  0.47203800  1
  Sr  Sr3  1  0.80463200  0.22242800  0.97215500  1
  Co  Co4  1  0.59228200  0.57857300  0.82810500  1
  Co  Co5  1  0.40750400  0.92150300  0.67200500  1
  Co  Co6  1  0.59074000  0.07924500  0.32877700  1
  Co  Co7  1  0.40935300  0.42077100  0.17115000  1
  Ge  Ge8  1  0.12275400  0.05233800  0.26241100  1
  Ge  Ge9  1  0.12276200  0.55278800  0.76300300  1
  Ge  Ge10  1  0.87731600  0.94713600  0.73699600  1
  Ge  Ge11  1  0.87713800  0.44764300  0.23758500  1
  Ge  Ge12  1  0.68472800  0.29401400  0.58346500  1
  Ge  Ge13  1  0.68390900  0.79359400  0.08380200  1
  Ge  Ge14  1  0.31614200  0.70653000  0.41613200  1
  Ge  Ge15  1  0.31537100  0.20588500  0.91653000  1
  O  O16  1  0.87563300  0.40855300  0.42783700  1
  O  O17  1  0.87455300  0.90834900  0.92734700  1
  O  O18  1  0.12554600  0.59172100  0.57261300  1
  O  O19  1  0.12423000  0.09143900  0.07213700  1
  O  O20  1  0.16454000  0.82178600  0.30257900  1
  O  O21  1  0.16408000  0.32185500  0.80298400  1
  O  O22  1  0.83610700  0.17804000  0.69699700  1
  O  O23  1  0.83534600  0.67824400  0.19737800  1
  O  O24  1  0.31005300  0.17374300  0.30266700  1
  O  O25  1  0.30920700  0.67324400  0.80496400  1
  O  O26  1  0.69068400  0.82673000  0.69516500  1
  O  O27  1  0.68955100  0.32626300  0.19761200  1
  O  O28  1  0.52294100  0.16108900  0.52973800  1
  O  O29  1  0.52212700  0.65945300  0.03052600  1
  O  O30  1  0.47809300  0.84062600  0.46929000  1
  O  O31  1  0.47717700  0.33875200  0.97032800  1
  O  O32  1  0.88441900  0.04548900  0.35657200  1
  O  O33  1  0.88361300  0.54574400  0.85693400  1
  O  O34  1  0.11651200  0.95428700  0.64305200  1
  O  O35  1  0.11548000  0.45455400  0.14359900  1
  O  O36  1  0.59653200  0.96397900  0.15176300  1
  O  O37  1  0.59708600  0.46349300  0.65285000  1
  O  O38  1  0.40308200  0.03629800  0.84735200  1
  O  O39  1  0.40321900  0.53619900  0.34801300  1
