# generated using pymatgen
data_La23Cd4Ni7
_symmetry_space_group_name_H-M   'P 1'
_cell_length_a   10.09568193
_cell_length_b   10.09568193
_cell_length_c   22.91171500
_cell_angle_alpha   90.00000000
_cell_angle_beta   90.00000000
_cell_angle_gamma   119.99999954
_symmetry_Int_Tables_number   1
_chemical_formula_structural   La23Cd4Ni7
_chemical_formula_sum   'La46 Cd8 Ni14'
_cell_volume   2022.36504873
_cell_formula_units_Z   2
loop_
 _symmetry_equiv_pos_site_id
 _symmetry_equiv_pos_as_xyz
  1  'x, y, z'
loop_
 _atom_site_type_symbol
 _atom_site_label
 _atom_site_symmetry_multiplicity
 _atom_site_fract_x
 _atom_site_fract_y
 _atom_site_fract_z
 _atom_site_occupancy
  La  La0  1  0.20605100  0.41210100  0.71944100  1
  La  La1  1  0.20605100  0.79394900  0.71944100  1
  La  La2  1  0.79394900  0.58789900  0.21944100  1
  La  La3  1  0.58789900  0.79394900  0.71944100  1
  La  La4  1  0.79394900  0.20605100  0.21944100  1
  La  La5  1  0.41210100  0.20605100  0.21944100  1
  La  La6  1  0.79354800  0.58709700  0.94752000  1
  La  La7  1  0.79354800  0.20645200  0.94752000  1
  La  La8  1  0.20645200  0.41290300  0.44752000  1
  La  La9  1  0.41290300  0.20645200  0.94752000  1
  La  La10  1  0.20645200  0.79354800  0.44752000  1
  La  La11  1  0.58709700  0.79354800  0.44752000  1
  La  La12  1  0.21129600  0.42259200  0.99131500  1
  La  La13  1  0.21129600  0.78870400  0.99131500  1
  La  La14  1  0.78870400  0.57740800  0.49131500  1
  La  La15  1  0.57740800  0.78870400  0.99131500  1
  La  La16  1  0.78870400  0.21129600  0.49131500  1
  La  La17  1  0.42259200  0.21129600  0.49131500  1
  La  La18  1  0.87182400  0.74364800  0.63372300  1
  La  La19  1  0.87182400  0.12817600  0.63372300  1
  La  La20  1  0.12817600  0.25635200  0.13372300  1
  La  La21  1  0.25635200  0.12817600  0.63372300  1
  La  La22  1  0.12817600  0.87182400  0.13372300  1
  La  La23  1  0.74364800  0.87182400  0.13372300  1
  La  La24  1  0.45821300  0.91642500  0.85577500  1
  La  La25  1  0.45821300  0.54178700  0.85577500  1
  La  La26  1  0.54178700  0.08357500  0.35577500  1
  La  La27  1  0.08357500  0.54178700  0.85577500  1
  La  La28  1  0.54178700  0.45821300  0.35577500  1
  La  La29  1  0.91642500  0.45821300  0.35577500  1
  La  La30  1  0.00000000  0.00000000  0.99923100  1
  La  La31  1  0.00000000  0.00000000  0.49923100  1
  La  La32  1  0.46047500  0.92094900  0.58565000  1
  La  La33  1  0.46047500  0.53952500  0.58565000  1
  La  La34  1  0.53952500  0.07905100  0.08565000  1
  La  La35  1  0.07905100  0.53952500  0.58565000  1
  La  La36  1  0.53952500  0.46047500  0.08565000  1
  La  La37  1  0.92094900  0.46047500  0.08565000  1
  La  La38  1  0.79601700  0.59203400  0.78227900  1
  La  La39  1  0.79601700  0.20398300  0.78227900  1
  La  La40  1  0.20398300  0.40796600  0.28227900  1
  La  La41  1  0.40796600  0.20398300  0.78227900  1
  La  La42  1  0.20398300  0.79601700  0.28227900  1
  La  La43  1  0.59203400  0.79601700  0.28227900  1
  La  La44  1  0.66666700  0.33333300  0.64534800  1
  La  La45  1  0.33333300  0.66666700  0.14534800  1
  Cd  Cd46  1  0.00000000  0.00000000  0.74928100  1
  Cd  Cd47  1  0.00000000  0.00000000  0.24928100  1
  Cd  Cd48  1  0.10597700  0.21195400  0.86285300  1
  Cd  Cd49  1  0.10597700  0.89402300  0.86285300  1
  Cd  Cd50  1  0.89402300  0.78804600  0.36285300  1
  Cd  Cd51  1  0.78804600  0.89402300  0.86285300  1
  Cd  Cd52  1  0.89402300  0.10597700  0.36285300  1
  Cd  Cd53  1  0.21195400  0.10597700  0.36285300  1
  Ni  Ni54  1  0.52046200  0.04092300  0.71026700  1
  Ni  Ni55  1  0.52046200  0.47953800  0.71026700  1
  Ni  Ni56  1  0.47953800  0.95907700  0.21026700  1
  Ni  Ni57  1  0.95907700  0.47953800  0.71026700  1
  Ni  Ni58  1  0.47953800  0.52046200  0.21026700  1
  Ni  Ni59  1  0.04092300  0.52046200  0.21026700  1
  Ni  Ni60  1  0.66666700  0.33333300  0.86437900  1
  Ni  Ni61  1  0.33333300  0.66666700  0.36437900  1
  Ni  Ni62  1  0.14319700  0.28639300  0.56400400  1
  Ni  Ni63  1  0.14319700  0.85680300  0.56400400  1
  Ni  Ni64  1  0.85680300  0.71360700  0.06400400  1
  Ni  Ni65  1  0.71360700  0.85680300  0.56400400  1
  Ni  Ni66  1  0.85680300  0.14319700  0.06400400  1
  Ni  Ni67  1  0.28639300  0.14319700  0.06400400  1
