# generated using pymatgen
data_CsNa2Mn3P4ClO14
_symmetry_space_group_name_H-M   'P 1'
_cell_length_a   11.13027206
_cell_length_b   11.13027206
_cell_length_c   14.07286211
_cell_angle_alpha   62.48289342
_cell_angle_beta   62.48289342
_cell_angle_gamma   27.81223458
_symmetry_Int_Tables_number   1
_chemical_formula_structural   CsNa2Mn3P4ClO14
_chemical_formula_sum   'Cs2 Na4 Mn6 P8 Cl2 O28'
_cell_volume   715.37623892
_cell_formula_units_Z   2
loop_
 _symmetry_equiv_pos_site_id
 _symmetry_equiv_pos_as_xyz
  1  'x, y, z'
loop_
 _atom_site_type_symbol
 _atom_site_label
 _atom_site_symmetry_multiplicity
 _atom_site_fract_x
 _atom_site_fract_y
 _atom_site_fract_z
 _atom_site_occupancy
  Cs  Cs0  1  0.50000000  0.50000000  0.00000000  1
  Cs  Cs1  1  0.50000000  0.50000000  0.50000000  1
  Na  Na2  1  0.25537800  0.30355100  0.15275200  1
  Na  Na3  1  0.69644900  0.74462200  0.34724800  1
  Na  Na4  1  0.74462200  0.69644900  0.84724800  1
  Na  Na5  1  0.30355100  0.25537800  0.65275200  1
  Mn  Mn6  1  0.67672800  0.64151900  0.15226600  1
  Mn  Mn7  1  0.35848100  0.32327200  0.34773400  1
  Mn  Mn8  1  0.32327200  0.35848100  0.84773400  1
  Mn  Mn9  1  0.64151900  0.67672800  0.65226600  1
  Mn  Mn10  1  0.94104800  0.05895200  0.25000000  1
  Mn  Mn11  1  0.05895200  0.94104800  0.75000000  1
  P  P12  1  0.17429200  0.14226500  0.00581500  1
  P  P13  1  0.85773500  0.82570800  0.49418500  1
  P  P14  1  0.82570800  0.85773500  0.99418500  1
  P  P15  1  0.14226500  0.17429200  0.50581500  1
  P  P16  1  0.87393000  0.88367700  0.17561600  1
  P  P17  1  0.11632300  0.12607100  0.32438400  1
  P  P18  1  0.12607000  0.11632300  0.82438400  1
  P  P19  1  0.88367700  0.87393000  0.67561600  1
  Cl  Cl20  1  0.46301400  0.53698600  0.25000000  1
  Cl  Cl21  1  0.53698600  0.46301400  0.75000000  1
  O  O22  1  0.94726300  0.96322000  0.15306400  1
  O  O23  1  0.03678000  0.05273700  0.34693600  1
  O  O24  1  0.05273700  0.03678000  0.84693600  1
  O  O25  1  0.96322000  0.94726300  0.65306400  1
  O  O26  1  0.07675400  0.14261300  0.94711700  1
  O  O27  1  0.85738700  0.92324600  0.55288300  1
  O  O28  1  0.92324600  0.85738700  0.05288300  1
  O  O29  1  0.14261300  0.07675400  0.44711700  1
  O  O30  1  0.90659100  0.41368300  0.28252300  1
  O  O31  1  0.58631700  0.09340900  0.21747700  1
  O  O32  1  0.09340900  0.58631700  0.71747700  1
  O  O33  1  0.41368300  0.90659100  0.78252300  1
  O  O34  1  0.98258000  0.25593900  0.11107700  1
  O  O35  1  0.74406100  0.01742000  0.38892300  1
  O  O36  1  0.01742000  0.74406100  0.88892300  1
  O  O37  1  0.25593900  0.98258000  0.61107700  1
  O  O38  1  0.45705400  0.85968400  0.02448200  1
  O  O39  1  0.14031600  0.54294600  0.47551800  1
  O  O40  1  0.54294600  0.14031600  0.97551800  1
  O  O41  1  0.85968400  0.45705400  0.52448200  1
  O  O42  1  0.05345900  0.61686700  0.24305100  1
  O  O43  1  0.38313300  0.94654100  0.25694900  1
  O  O44  1  0.94654100  0.38313300  0.75694900  1
  O  O45  1  0.61686700  0.05345900  0.74305100  1
  O  O46  1  0.85792100  0.68081300  0.07153400  1
  O  O47  1  0.31918700  0.14207900  0.42846600  1
  O  O48  1  0.14207900  0.31918700  0.92846600  1
  O  O49  1  0.68081300  0.85792100  0.57153400  1
