# generated using pymatgen
data_EuZnGa
_symmetry_space_group_name_H-M   'P 1'
_cell_length_a   5.85848483
_cell_length_b   5.85848483
_cell_length_c   7.59774981
_cell_angle_alpha   50.13028388
_cell_angle_beta   50.13028388
_cell_angle_gamma   46.61311217
_symmetry_Int_Tables_number   1
_chemical_formula_structural   EuZnGa
_chemical_formula_sum   'Eu2 Zn2 Ga2'
_cell_volume   135.70695097
_cell_formula_units_Z   2
loop_
 _symmetry_equiv_pos_site_id
 _symmetry_equiv_pos_as_xyz
  1  'x, y, z'
loop_
 _atom_site_type_symbol
 _atom_site_label
 _atom_site_symmetry_multiplicity
 _atom_site_fract_x
 _atom_site_fract_y
 _atom_site_fract_z
 _atom_site_occupancy
  Eu  Eu0  1  0.45506000  0.45506000  0.29703600  1
  Eu  Eu1  1  0.54494000  0.54494000  0.70296400  1
  Zn  Zn2  1  0.83568200  0.83568200  0.72387700  1
  Zn  Zn3  1  0.16431800  0.16431800  0.27612300  1
  Ga  Ga4  1  0.16293700  0.16293700  0.89563300  1
  Ga  Ga5  1  0.83706300  0.83706300  0.10436700  1
