# generated using pymatgen
data_SrNdCuS3
_symmetry_space_group_name_H-M   'P 1'
_cell_length_a   4.02064700
_cell_length_b   10.67608300
_cell_length_c   12.99410800
_cell_angle_alpha   90.00000000
_cell_angle_beta   90.00000000
_cell_angle_gamma   90.00000000
_symmetry_Int_Tables_number   1
_chemical_formula_structural   SrNdCuS3
_chemical_formula_sum   'Sr4 Nd4 Cu4 S12'
_cell_volume   557.76898142
_cell_formula_units_Z   4
loop_
 _symmetry_equiv_pos_site_id
 _symmetry_equiv_pos_as_xyz
  1  'x, y, z'
loop_
 _atom_site_type_symbol
 _atom_site_label
 _atom_site_symmetry_multiplicity
 _atom_site_fract_x
 _atom_site_fract_y
 _atom_site_fract_z
 _atom_site_occupancy
  Sr  Sr0  1  0.25000000  0.21202000  0.99720400  1
  Sr  Sr1  1  0.25000000  0.71202000  0.50279600  1
  Sr  Sr2  1  0.75000000  0.78798000  0.00279600  1
  Sr  Sr3  1  0.75000000  0.28798000  0.49720400  1
  Nd  Nd4  1  0.25000000  0.48291100  0.23272400  1
  Nd  Nd5  1  0.25000000  0.98291100  0.26727600  1
  Nd  Nd6  1  0.75000000  0.51708900  0.76727600  1
  Nd  Nd7  1  0.75000000  0.01708900  0.73272400  1
  Cu  Cu8  1  0.25000000  0.26714600  0.72203400  1
  Cu  Cu9  1  0.25000000  0.76714600  0.77796600  1
  Cu  Cu10  1  0.75000000  0.73285400  0.27796600  1
  Cu  Cu11  1  0.75000000  0.23285400  0.22203400  1
  S  S12  1  0.25000000  0.24095200  0.32587800  1
  S  S13  1  0.25000000  0.74095200  0.17412200  1
  S  S14  1  0.75000000  0.75904800  0.67412200  1
  S  S15  1  0.75000000  0.25904800  0.82587800  1
  S  S16  1  0.25000000  0.44824900  0.61997100  1
  S  S17  1  0.25000000  0.94824900  0.88002900  1
  S  S18  1  0.75000000  0.55175100  0.38002900  1
  S  S19  1  0.75000000  0.05175100  0.11997100  1
  S  S20  1  0.25000000  0.10579600  0.60098200  1
  S  S21  1  0.25000000  0.60579600  0.89901800  1
  S  S22  1  0.75000000  0.89420400  0.39901800  1
  S  S23  1  0.75000000  0.39420400  0.10098200  1
