# generated using pymatgen
data_Ba2B11H7O22
_symmetry_space_group_name_H-M   'P 1'
_cell_length_a   6.87960200
_cell_length_b   6.90874957
_cell_length_c   22.04099613
_cell_angle_alpha   84.56679239
_cell_angle_beta   82.57450998
_cell_angle_gamma   60.19205438
_symmetry_Int_Tables_number   1
_chemical_formula_structural   Ba2B11H7O22
_chemical_formula_sum   'Ba4 B22 H14 O44'
_cell_volume   900.80832474
_cell_formula_units_Z   2
loop_
 _symmetry_equiv_pos_site_id
 _symmetry_equiv_pos_as_xyz
  1  'x, y, z'
loop_
 _atom_site_type_symbol
 _atom_site_label
 _atom_site_symmetry_multiplicity
 _atom_site_fract_x
 _atom_site_fract_y
 _atom_site_fract_z
 _atom_site_occupancy
  Ba  Ba0  1  0.65615300  0.64545000  0.05871800  1
  Ba  Ba1  1  0.34384700  0.35455000  0.94128200  1
  Ba  Ba2  1  0.19358400  0.15477500  0.44705000  1
  Ba  Ba3  1  0.80641600  0.84522500  0.55295000  1
  B  B4  1  0.56658600  0.65634900  0.21513200  1
  B  B5  1  0.43341400  0.34365100  0.78486800  1
  B  B6  1  0.29788600  0.31285200  0.09002600  1
  B  B7  1  0.70211400  0.68714800  0.90997400  1
  B  B8  1  0.16092800  0.48540800  0.19050100  1
  B  B9  1  0.83907200  0.51459200  0.80949900  1
  B  B10  1  0.05992300  0.73414000  0.09669300  1
  B  B11  1  0.94007700  0.26586000  0.90330700  1
  B  B12  1  0.13307600  0.05597600  0.07171900  1
  B  B13  1  0.86692400  0.94402400  0.92828100  1
  B  B14  1  0.74528400  0.12496000  0.07633800  1
  B  B15  1  0.25471600  0.87504000  0.92366200  1
  B  B16  1  0.30812200  0.56999700  0.42591300  1
  B  B17  1  0.69187800  0.43000300  0.57408700  1
  B  B18  1  0.62578100  0.64159500  0.42161300  1
  B  B19  1  0.37421900  0.35840500  0.57838700  1
  B  B20  1  0.69893000  0.25511600  0.40385200  1
  B  B21  1  0.30107000  0.74488400  0.59614800  1
  B  B22  1  0.82675800  0.04647000  0.30766100  1
  B  B23  1  0.17324200  0.95353000  0.69233900  1
  B  B24  1  0.88334400  0.83390400  0.40600800  1
  B  B25  1  0.11665600  0.16609600  0.59399200  1
  H  H26  1  0.36254800  0.94250300  0.30930000  1
  H  H27  1  0.63745200  0.05749700  0.69070000  1
  H  H28  1  0.23791800  0.20986300  0.29586400  1
  H  H29  1  0.76208200  0.79013700  0.70413600  1
  H  H30  1  0.74797500  0.31598500  0.20714000  1
  H  H31  1  0.25202500  0.68401500  0.79286000  1
  H  H32  1  0.60431800  0.51490900  0.29861700  1
  H  H33  1  0.39568200  0.48509100  0.70138300  1
  H  H34  1  0.39855400  0.99828000  0.18886100  1
  H  H35  1  0.60144600  0.00172000  0.81113900  1
  H  H36  1  0.07147000  0.59252100  0.27757500  1
  H  H37  1  0.92853000  0.40747900  0.72242500  1
  H  H38  1  0.92227500  0.92427500  0.22078200  1
  H  H39  1  0.07772500  0.07572500  0.77921800  1
  O  O40  1  0.27021700  0.08944900  0.32782400  1
  O  O41  1  0.72978300  0.91055100  0.67217600  1
  O  O42  1  0.68726700  0.46166900  0.18364600  1
  O  O43  1  0.31273300  0.53833100  0.81635400  1
  O  O44  1  0.53664200  0.66577100  0.27801800  1
  O  O45  1  0.46335800  0.33422900  0.72198200  1
  O  O46  1  0.47835900  0.84145100  0.17687000  1
  O  O47  1  0.52164100  0.15854900  0.82313000  1
  O  O48  1  0.12814900  0.52893400  0.06604100  1
  O  O49  1  0.87185100  0.47106600  0.93395900  1
  O  O50  1  0.28814500  0.12840200  0.06243900  1
  O  O51  1  0.71185500  0.87159800  0.93756100  1
  O  O52  1  0.27124000  0.29502700  0.15731500  1
  O  O53  1  0.72876000  0.70497300  0.84268500  1
  O  O54  1  0.15247400  0.45652000  0.25382500  1
  O  O55  1  0.84752600  0.54348000  0.74617500  1
  O  O56  1  0.06196100  0.69713300  0.16438300  1
  O  O57  1  0.93803900  0.30286700  0.83561700  1
  O  O58  1  0.20811600  0.83145900  0.07462000  1
  O  O59  1  0.79188400  0.16854100  0.92538000  1
  O  O60  1  0.90199500  0.20240900  0.07400300  1
  O  O61  1  0.09800500  0.79759100  0.92599700  1
  O  O62  1  0.52894000  0.28676600  0.06821200  1
  O  O63  1  0.47106000  0.71323400  0.93178800  1
  O  O64  1  0.82350100  0.90105800  0.08314500  1
  O  O65  1  0.17649900  0.09894200  0.91685500  1
  O  O66  1  0.39210600  0.71836300  0.42203300  1
  O  O67  1  0.60789400  0.28163700  0.57796700  1
  O  O68  1  0.68075900  0.80249600  0.42870500  1
  O  O69  1  0.31924100  0.19750400  0.57129500  1
  O  O70  1  0.77177400  0.41826500  0.41777700  1
  O  O71  1  0.22822600  0.58173500  0.58222300  1
  O  O72  1  0.71443000  0.24608300  0.33693100  1
  O  O73  1  0.28557000  0.75391700  0.66306900  1
  O  O74  1  0.84649600  0.06237900  0.24437200  1
  O  O75  1  0.15350400  0.93762100  0.75562800  1
  O  O76  1  0.91311900  0.84250600  0.33892500  1
  O  O77  1  0.08688100  0.15749400  0.66107500  1
  O  O78  1  0.08261800  0.63741300  0.43163500  1
  O  O79  1  0.91738200  0.36258700  0.56836500  1
  O  O80  1  0.84249000  0.03956500  0.43286400  1
  O  O81  1  0.15751000  0.96043500  0.56713600  1
  O  O82  1  0.45691400  0.34549100  0.42794800  1
  O  O83  1  0.54308600  0.65450900  0.57205200  1
