# generated using pymatgen
data_K30Ga9Sb19
_symmetry_space_group_name_H-M   'P 1'
_cell_length_a   16.48861919
_cell_length_b   18.88958791
_cell_length_c   18.88923641
_cell_angle_alpha   111.90149669
_cell_angle_beta   106.91775311
_cell_angle_gamma   106.91772587
_symmetry_Int_Tables_number   1
_chemical_formula_structural   K30Ga9Sb19
_chemical_formula_sum   'K60 Ga18 Sb38'
_cell_volume   4663.52760137
_cell_formula_units_Z   2
loop_
 _symmetry_equiv_pos_site_id
 _symmetry_equiv_pos_as_xyz
  1  'x, y, z'
loop_
 _atom_site_type_symbol
 _atom_site_label
 _atom_site_symmetry_multiplicity
 _atom_site_fract_x
 _atom_site_fract_y
 _atom_site_fract_z
 _atom_site_occupancy
  K  K0  1  0.74993109  0.33328653  0.66664640  1
  K  K1  1  0.41669649  0.33335238  0.66665970  1
  K  K2  1  0.08331321  0.33332019  0.66659635  1
  K  K3  1  0.91673591  0.66671347  0.33335360  1
  K  K4  1  0.58335379  0.66667981  0.33340365  1
  K  K5  1  0.24996951  0.66664762  0.33334030  1
  K  K6  1  0.58762807  0.12038621  0.39312997  1
  K  K7  1  0.25471980  0.12050926  0.39365571  1
  K  K8  1  0.92152752  0.12039263  0.39311336  1
  K  K9  1  0.80117208  0.27272791  0.87962344  1
  K  K10  1  0.46722279  0.27272866  0.87961383  1
  K  K11  1  0.13420271  0.27311718  0.87951123  1
  K  K12  1  0.86104044  0.60637750  0.72684089  1
  K  K13  1  0.52848394  0.60693865  0.72733204  1
  K  K14  1  0.19451494  0.60687288  0.72726963  1
  K  K15  1  0.07903893  0.87961379  0.60687003  1
  K  K16  1  0.74513948  0.87960737  0.60688664  1
  K  K17  1  0.41194620  0.87949074  0.60634429  1
  K  K18  1  0.86549492  0.72727209  0.12037656  1
  K  K19  1  0.53246329  0.72688282  0.12048877  1
  K  K20  1  0.19944421  0.72727134  0.12038617  1
  K  K21  1  0.80562556  0.39362250  0.27315911  1
  K  K22  1  0.47215206  0.39312712  0.27273037  1
  K  K23  1  0.13818306  0.39306135  0.27266796  1
  K  K24  1  0.69519361  0.00607307  0.81665742  1
  K  K25  1  0.35350220  0.00618820  0.81673999  1
  K  K26  1  0.02287202  0.00636068  0.81248533  1
  K  K27  1  0.01650285  0.80614003  0.99363391  1
  K  K28  1  0.68909755  0.81057516  0.99393841  1
  K  K29  1  0.34725950  0.81054921  0.99380983  1
  K  K30  1  0.53676535  0.18328821  0.18941814  1
  K  K31  1  0.21037412  0.18748951  0.19387502  1
  K  K32  1  0.87851808  0.18329589  0.18937280  1
  K  K33  1  0.97147339  0.99392693  0.18334258  1
  K  K34  1  0.64379398  0.99363932  0.18751467  1
  K  K35  1  0.31316480  0.99381180  0.18326001  1
  K  K36  1  0.65016315  0.19385997  0.00636609  1
  K  K37  1  0.31940750  0.18945079  0.00619017  1
  K  K38  1  0.97756945  0.18942484  0.00606159  1
  K  K39  1  0.12990165  0.81671179  0.81058186  1
  K  K40  1  0.78814892  0.81670411  0.81062720  1
  K  K41  1  0.45629188  0.81251049  0.80612498  1
  K  K42  1  0.97634606  0.06571487  0.61343663  1
  K  K43  1  0.30973973  0.06566871  0.61388336  1
  K  K44  1  0.64324032  0.06557604  0.61381939  1
  K  K45  1  0.24406289  0.54820203  0.93437826  1
  K  K46  1  0.57760949  0.54822106  0.93441843  1
  K  K47  1  0.91065884  0.54770885  0.93427888  1
  K  K48  1  0.02937255  0.38617748  0.45175451  1
  K  K49  1  0.36293958  0.38658284  0.45231902  1
  K  K50  1  0.69582293  0.38611113  0.45177039  1
  K  K51  1  0.35692727  0.93433129  0.38611664  1
  K  K52  1  0.69032094  0.93428513  0.38656337  1
  K  K53  1  0.02342568  0.93442396  0.38618061  1
  K  K54  1  0.08905651  0.45177894  0.06558157  1
  K  K55  1  0.42260411  0.45179797  0.06562174  1
  K  K56  1  0.75600816  0.45229115  0.06572112  1
  K  K57  1  0.30372742  0.61341716  0.54768098  1
  K  K58  1  0.63729345  0.61382252  0.54824549  1
  K  K59  1  0.97084407  0.61388887  0.54822961  1
  Ga  Ga60  1  0.76812856  0.77696649  0.28046162  1
  Ga  Ga61  1  0.43668793  0.77673239  0.28044319  1
  Ga  Ga62  1  0.10224669  0.77699660  0.27967562  1
  Ga  Ga63  1  0.65996528  0.50371134  0.22328076  1
  Ga  Ga64  1  0.32525831  0.50267708  0.22298191  1
  Ga  Ga65  1  0.99117913  0.50347624  0.22303367  1
  Ga  Ga66  1  0.82259132  0.72031569  0.49732622  1
  Ga  Ga67  1  0.48769363  0.71955360  0.49653255  1
  Ga  Ga68  1  0.15625405  0.71955915  0.49629555  1
  Ga  Ga69  1  0.89853844  0.22303351  0.71953838  1
  Ga  Ga70  1  0.56441931  0.22300340  0.72032438  1
  Ga  Ga71  1  0.22997907  0.22326761  0.71955681  1
  Ga  Ga72  1  0.00670172  0.49628866  0.77671924  1
  Ga  Ga73  1  0.67548787  0.49652376  0.77696633  1
  Ga  Ga74  1  0.34140769  0.49732292  0.77701809  1
  Ga  Ga75  1  0.84407468  0.27968431  0.50267378  1
  Ga  Ga76  1  0.51041295  0.28044085  0.50370445  1
  Ga  Ga77  1  0.17897337  0.28044640  0.50346745  1
  Sb  Sb78  1  0.78726762  0.88684331  0.22791569  1
  Sb  Sb79  1  0.45571629  0.88670572  0.22793389  1
  Sb  Sb80  1  0.12159309  0.88762660  0.22721114  1
  Sb  Sb81  1  0.56901030  0.34121104  0.11327956  1
  Sb  Sb82  1  0.23395852  0.33959070  0.11234844  1
  Sb  Sb83  1  0.90044049  0.34107201  0.11312099  1
  Sb  Sb84  1  0.89433976  0.77277293  0.66040938  1
  Sb  Sb85  1  0.55933678  0.77211763  0.65893338  1
  Sb  Sb86  1  0.22776229  0.77205999  0.65876757  1
  Sb  Sb87  1  0.87939938  0.11315669  0.77208431  1
  Sb  Sb88  1  0.54507391  0.11237340  0.77278886  1
  Sb  Sb89  1  0.21094971  0.11329428  0.77206611  1
  Sb  Sb90  1  0.09765570  0.65878896  0.88672044  1
  Sb  Sb91  1  0.76622651  0.65892799  0.88687901  1
  Sb  Sb92  1  0.43270848  0.66040930  0.88765156  1
  Sb  Sb93  1  0.77232724  0.22722707  0.33959062  1
  Sb  Sb94  1  0.43890371  0.22794001  0.34123243  1
  Sb  Sb95  1  0.10733022  0.22788237  0.34106662  1
  Sb  Sb96  1  0.84604837  0.83829082  0.44940892  1
  Sb  Sb97  1  0.51227949  0.83798044  0.44922645  1
  Sb  Sb98  1  0.17912350  0.83827480  0.44888119  1
  Sb  Sb99  1  0.67425717  0.61124595  0.16204006  1
  Sb  Sb100  1  0.34083263  0.61062727  0.16174145  1
  Sb  Sb101  1  0.00775307  0.61112189  0.16170755  1
  Sb  Sb102  1  0.73025586  0.55105931  0.38935569  1
  Sb  Sb103  1  0.39666311  0.55054526  0.38888807  1
  Sb  Sb104  1  0.06303304  0.55074480  0.38876848  1
  Sb  Sb105  1  0.82061863  0.16170918  0.55059108  1
  Sb  Sb106  1  0.48754250  0.16172520  0.55111881  1
  Sb  Sb107  1  0.15438751  0.16201956  0.55077355  1
  Sb  Sb108  1  0.99240983  0.38875405  0.83795994  1
  Sb  Sb109  1  0.65891393  0.38887811  0.83829245  1
  Sb  Sb110  1  0.32583337  0.38937273  0.83825855  1
  Sb  Sb111  1  0.93641014  0.44894069  0.61064431  1
  Sb  Sb112  1  0.60363396  0.44925520  0.61123152  1
  Sb  Sb113  1  0.27000389  0.44945474  0.61111193  1
  Sb  Sb114  1  0.83333300  -0.00000000  -0.00000000  1
  Sb  Sb115  1  0.33333300  -0.00000000  -0.00000000  1
