# generated using pymatgen
data_Tb14Au51
_symmetry_space_group_name_H-M   'P 1'
_cell_length_a   12.83231991
_cell_length_b   12.83231991
_cell_length_c   9.26647800
_cell_angle_alpha   90.00000000
_cell_angle_beta   90.00000000
_cell_angle_gamma   119.99999951
_symmetry_Int_Tables_number   1
_chemical_formula_structural   Tb14Au51
_chemical_formula_sum   'Tb14 Au51'
_cell_volume   1321.46507180
_cell_formula_units_Z   1
loop_
 _symmetry_equiv_pos_site_id
 _symmetry_equiv_pos_as_xyz
  1  'x, y, z'
loop_
 _atom_site_type_symbol
 _atom_site_label
 _atom_site_symmetry_multiplicity
 _atom_site_fract_x
 _atom_site_fract_y
 _atom_site_fract_z
 _atom_site_occupancy
  Tb  Tb0  1  0.46146600  0.13875400  0.50000000  1
  Tb  Tb1  1  0.86124600  0.32271200  0.50000000  1
  Tb  Tb2  1  0.67728800  0.53853400  0.50000000  1
  Tb  Tb3  1  0.53669300  0.85971100  0.50000000  1
  Tb  Tb4  1  0.14028900  0.67698200  0.50000000  1
  Tb  Tb5  1  0.32301800  0.46330700  0.50000000  1
  Tb  Tb6  1  0.11410500  0.38530000  0.00000000  1
  Tb  Tb7  1  0.61470000  0.72880500  0.00000000  1
  Tb  Tb8  1  0.27119500  0.88589500  0.00000000  1
  Tb  Tb9  1  0.88295700  0.59892800  0.00000000  1
  Tb  Tb10  1  0.40107200  0.28402900  0.00000000  1
  Tb  Tb11  1  0.71597100  0.11704300  0.00000000  1
  Tb  Tb12  1  0.00000000  0.00000000  0.29920600  1
  Tb  Tb13  1  0.00000000  0.00000000  0.70079400  1
  Au  Au14  1  0.49338100  0.11615800  0.15236400  1
  Au  Au15  1  0.88384200  0.37722200  0.15236400  1
  Au  Au16  1  0.62277800  0.50661900  0.15236400  1
  Au  Au17  1  0.50222500  0.88300900  0.15073800  1
  Au  Au18  1  0.11699100  0.61921700  0.15073800  1
  Au  Au19  1  0.38078300  0.49777500  0.15073800  1
  Au  Au20  1  0.50222500  0.88300900  0.84926200  1
  Au  Au21  1  0.11699100  0.61921700  0.84926200  1
  Au  Au22  1  0.38078300  0.49777500  0.84926200  1
  Au  Au23  1  0.49338100  0.11615800  0.84763600  1
  Au  Au24  1  0.88384200  0.37722200  0.84763600  1
  Au  Au25  1  0.62277800  0.50661900  0.84763600  1
  Au  Au26  1  0.66666700  0.33333300  0.00000000  1
  Au  Au27  1  0.33333300  0.66666700  0.00000000  1
  Au  Au28  1  0.10381300  0.44233200  0.33821500  1
  Au  Au29  1  0.55766800  0.66148100  0.33821500  1
  Au  Au30  1  0.33851900  0.89618700  0.33821500  1
  Au  Au31  1  0.89569500  0.55570400  0.33852400  1
  Au  Au32  1  0.44429600  0.33999100  0.33852400  1
  Au  Au33  1  0.66000900  0.10430500  0.33852400  1
  Au  Au34  1  0.89569500  0.55570400  0.66147600  1
  Au  Au35  1  0.44429600  0.33999100  0.66147600  1
  Au  Au36  1  0.66000900  0.10430500  0.66147600  1
  Au  Au37  1  0.10381300  0.44233200  0.66178500  1
  Au  Au38  1  0.55766800  0.66148100  0.66178500  1
  Au  Au39  1  0.33851900  0.89618700  0.66178500  1
  Au  Au40  1  0.19364200  0.27234300  0.23491000  1
  Au  Au41  1  0.72765700  0.92129800  0.23491000  1
  Au  Au42  1  0.07870200  0.80635800  0.23491000  1
  Au  Au43  1  0.80763100  0.73539000  0.22640500  1
  Au  Au44  1  0.26461000  0.07224000  0.22640500  1
  Au  Au45  1  0.92776000  0.19236900  0.22640500  1
  Au  Au46  1  0.80763100  0.73539000  0.77359500  1
  Au  Au47  1  0.26461000  0.07224000  0.77359500  1
  Au  Au48  1  0.92776000  0.19236900  0.77359500  1
  Au  Au49  1  0.19364200  0.27234300  0.76509000  1
  Au  Au50  1  0.72765700  0.92129800  0.76509000  1
  Au  Au51  1  0.07870200  0.80635800  0.76509000  1
  Au  Au52  1  0.66666700  0.33333300  0.31680300  1
  Au  Au53  1  0.33333300  0.66666700  0.31730300  1
  Au  Au54  1  0.33333300  0.66666700  0.68269700  1
  Au  Au55  1  0.66666700  0.33333300  0.68319700  1
  Au  Au56  1  0.05914000  0.23570000  0.50000000  1
  Au  Au57  1  0.76430000  0.82344000  0.50000000  1
  Au  Au58  1  0.17656000  0.94086000  0.50000000  1
  Au  Au59  1  0.93898600  0.76120600  0.50000000  1
  Au  Au60  1  0.23879400  0.17778100  0.50000000  1
  Au  Au61  1  0.82221900  0.06101400  0.50000000  1
  Au  Au62  1  0.13877200  0.11335000  0.00000000  1
  Au  Au63  1  0.88665000  0.02542200  0.00000000  1
  Au  Au64  1  0.97457800  0.86122800  0.00000000  1
