# generated using pymatgen
data_LuNiGe
_symmetry_space_group_name_H-M   'P 1'
_cell_length_a   4.17461400
_cell_length_b   6.74009600
_cell_length_c   7.21571200
_cell_angle_alpha   90.00000000
_cell_angle_beta   90.00000000
_cell_angle_gamma   90.00000000
_symmetry_Int_Tables_number   1
_chemical_formula_structural   LuNiGe
_chemical_formula_sum   'Lu4 Ni4 Ge4'
_cell_volume   203.03064693
_cell_formula_units_Z   4
loop_
 _symmetry_equiv_pos_site_id
 _symmetry_equiv_pos_as_xyz
  1  'x, y, z'
loop_
 _atom_site_type_symbol
 _atom_site_label
 _atom_site_symmetry_multiplicity
 _atom_site_fract_x
 _atom_site_fract_y
 _atom_site_fract_z
 _atom_site_occupancy
  Lu  Lu0  1  0.25000000  0.50673700  0.70688800  1
  Lu  Lu1  1  0.75000000  0.49326300  0.29311200  1
  Lu  Lu2  1  0.25000000  0.00673700  0.79311200  1
  Lu  Lu3  1  0.75000000  0.99326300  0.20688800  1
  Ni  Ni4  1  0.25000000  0.80762200  0.41866300  1
  Ni  Ni5  1  0.75000000  0.69237800  0.91866300  1
  Ni  Ni6  1  0.25000000  0.30762200  0.08133700  1
  Ni  Ni7  1  0.75000000  0.19237800  0.58133700  1
  Ge  Ge8  1  0.25000000  0.19939100  0.41010700  1
  Ge  Ge9  1  0.75000000  0.30060900  0.91010700  1
  Ge  Ge10  1  0.25000000  0.69939100  0.08989300  1
  Ge  Ge11  1  0.75000000  0.80060900  0.58989300  1
