# generated using pymatgen
data_Rb5GeP3
_symmetry_space_group_name_H-M   'P 1'
_cell_length_a   5.49343300
_cell_length_b   14.98090600
_cell_length_c   15.71328400
_cell_angle_alpha   90.00000000
_cell_angle_beta   90.00000000
_cell_angle_gamma   90.00000000
_symmetry_Int_Tables_number   1
_chemical_formula_structural   Rb5GeP3
_chemical_formula_sum   'Rb20 Ge4 P12'
_cell_volume   1293.14990131
_cell_formula_units_Z   4
loop_
 _symmetry_equiv_pos_site_id
 _symmetry_equiv_pos_as_xyz
  1  'x, y, z'
loop_
 _atom_site_type_symbol
 _atom_site_label
 _atom_site_symmetry_multiplicity
 _atom_site_fract_x
 _atom_site_fract_y
 _atom_site_fract_z
 _atom_site_occupancy
  Rb  Rb0  1  0.25000000  0.38062500  0.01541900  1
  Rb  Rb1  1  0.75000000  0.61937500  0.98458100  1
  Rb  Rb2  1  0.25000000  0.11937500  0.51541900  1
  Rb  Rb3  1  0.75000000  0.88062500  0.48458100  1
  Rb  Rb4  1  0.75000000  0.73020800  0.23452100  1
  Rb  Rb5  1  0.25000000  0.26979200  0.76547900  1
  Rb  Rb6  1  0.75000000  0.76979200  0.73452100  1
  Rb  Rb7  1  0.25000000  0.23020800  0.26547900  1
  Rb  Rb8  1  0.75000000  0.05972400  0.69578900  1
  Rb  Rb9  1  0.25000000  0.94027600  0.30421100  1
  Rb  Rb10  1  0.75000000  0.44027600  0.19578900  1
  Rb  Rb11  1  0.25000000  0.55972400  0.80421100  1
  Rb  Rb12  1  0.75000000  0.18427700  0.91569600  1
  Rb  Rb13  1  0.25000000  0.81572300  0.08430400  1
  Rb  Rb14  1  0.75000000  0.31572300  0.41569600  1
  Rb  Rb15  1  0.25000000  0.68427700  0.58430400  1
  Rb  Rb16  1  0.75000000  0.92794000  0.93267500  1
  Rb  Rb17  1  0.25000000  0.07206000  0.06732500  1
  Rb  Rb18  1  0.75000000  0.57206000  0.43267500  1
  Rb  Rb19  1  0.25000000  0.42794000  0.56732500  1
  Ge  Ge20  1  0.75000000  0.08115600  0.21967200  1
  Ge  Ge21  1  0.25000000  0.91884400  0.78032800  1
  Ge  Ge22  1  0.75000000  0.41884400  0.71967200  1
  Ge  Ge23  1  0.25000000  0.58115600  0.28032800  1
  P  P24  1  0.75000000  0.20794000  0.13675600  1
  P  P25  1  0.25000000  0.79206000  0.86324400  1
  P  P26  1  0.75000000  0.29206000  0.63675600  1
  P  P27  1  0.25000000  0.70794000  0.36324400  1
  P  P28  1  0.75000000  0.94439800  0.15500000  1
  P  P29  1  0.25000000  0.05560200  0.84500000  1
  P  P30  1  0.75000000  0.55560200  0.65500000  1
  P  P31  1  0.25000000  0.44439800  0.34500000  1
  P  P32  1  0.75000000  0.08902000  0.36655400  1
  P  P33  1  0.25000000  0.91098000  0.63344600  1
  P  P34  1  0.75000000  0.41098000  0.86655400  1
  P  P35  1  0.25000000  0.58902000  0.13344600  1
