# generated using pymatgen
data_Tm10In20Ni9
_symmetry_space_group_name_H-M   'P 1'
_cell_length_a   13.33731900
_cell_length_b   13.33731900
_cell_length_c   9.11062500
_cell_angle_alpha   90.00000000
_cell_angle_beta   90.00000000
_cell_angle_gamma   90.00000000
_symmetry_Int_Tables_number   1
_chemical_formula_structural   Tm10In20Ni9
_chemical_formula_sum   'Tm20 In40 Ni18'
_cell_volume   1620.63512911
_cell_formula_units_Z   2
loop_
 _symmetry_equiv_pos_site_id
 _symmetry_equiv_pos_as_xyz
  1  'x, y, z'
loop_
 _atom_site_type_symbol
 _atom_site_label
 _atom_site_symmetry_multiplicity
 _atom_site_fract_x
 _atom_site_fract_y
 _atom_site_fract_z
 _atom_site_occupancy
  Tm  Tm0  1  0.50000000  0.00000000  0.36034900  1
  Tm  Tm1  1  0.00000000  0.50000000  0.63965100  1
  Tm  Tm2  1  0.50000000  0.00000000  0.83380600  1
  Tm  Tm3  1  0.00000000  0.50000000  0.16619400  1
  Tm  Tm4  1  0.50000000  0.27730300  0.76714700  1
  Tm  Tm5  1  0.50000000  0.72269700  0.76714700  1
  Tm  Tm6  1  0.77730300  0.00000000  0.76714700  1
  Tm  Tm7  1  0.22269700  0.00000000  0.76714700  1
  Tm  Tm8  1  0.00000000  0.22269700  0.23285300  1
  Tm  Tm9  1  0.00000000  0.77730300  0.23285300  1
  Tm  Tm10  1  0.72269700  0.50000000  0.23285300  1
  Tm  Tm11  1  0.27730300  0.50000000  0.23285300  1
  Tm  Tm12  1  0.70364000  0.20364000  0.26715900  1
  Tm  Tm13  1  0.70364000  0.79636000  0.26715900  1
  Tm  Tm14  1  0.29636000  0.20364000  0.26715900  1
  Tm  Tm15  1  0.29636000  0.79636000  0.26715900  1
  Tm  Tm16  1  0.79636000  0.29636000  0.73284100  1
  Tm  Tm17  1  0.79636000  0.70364000  0.73284100  1
  Tm  Tm18  1  0.20364000  0.29636000  0.73284100  1
  Tm  Tm19  1  0.20364000  0.70364000  0.73284100  1
  In  In20  1  0.34622400  0.65377600  0.00000000  1
  In  In21  1  0.34622400  0.34622400  0.00000000  1
  In  In22  1  0.65377600  0.65377600  0.00000000  1
  In  In23  1  0.65377600  0.34622400  0.00000000  1
  In  In24  1  0.15377600  0.84622400  0.00000000  1
  In  In25  1  0.15377600  0.15377600  0.00000000  1
  In  In26  1  0.84622400  0.84622400  0.00000000  1
  In  In27  1  0.84622400  0.15377600  0.00000000  1
  In  In28  1  0.86945700  0.13054300  0.50000000  1
  In  In29  1  0.86945700  0.86945700  0.50000000  1
  In  In30  1  0.13054300  0.13054300  0.50000000  1
  In  In31  1  0.13054300  0.86945700  0.50000000  1
  In  In32  1  0.63054300  0.36945700  0.50000000  1
  In  In33  1  0.63054300  0.63054300  0.50000000  1
  In  In34  1  0.36945700  0.36945700  0.50000000  1
  In  In35  1  0.36945700  0.63054300  0.50000000  1
  In  In36  1  0.50000000  0.83323900  0.09257000  1
  In  In37  1  0.50000000  0.16676100  0.09257000  1
  In  In38  1  0.33323900  0.00000000  0.09257000  1
  In  In39  1  0.66676100  0.00000000  0.09257000  1
  In  In40  1  0.00000000  0.66676100  0.90743000  1
  In  In41  1  0.00000000  0.33323900  0.90743000  1
  In  In42  1  0.16676100  0.50000000  0.90743000  1
  In  In43  1  0.83323900  0.50000000  0.90743000  1
  In  In44  1  0.63184800  0.13184800  0.58974700  1
  In  In45  1  0.63184800  0.86815200  0.58974700  1
  In  In46  1  0.36815200  0.13184800  0.58974700  1
  In  In47  1  0.36815200  0.86815200  0.58974700  1
  In  In48  1  0.86815200  0.36815200  0.41025300  1
  In  In49  1  0.86815200  0.63184800  0.41025300  1
  In  In50  1  0.13184800  0.36815200  0.41025300  1
  In  In51  1  0.13184800  0.63184800  0.41025300  1
  In  In52  1  0.50000000  0.61575600  0.23551500  1
  In  In53  1  0.50000000  0.38424400  0.23551500  1
  In  In54  1  0.11575600  0.00000000  0.23551500  1
  In  In55  1  0.88424400  0.00000000  0.23551500  1
  In  In56  1  0.00000000  0.88424400  0.76448500  1
  In  In57  1  0.00000000  0.11575600  0.76448500  1
  In  In58  1  0.38424400  0.50000000  0.76448500  1
  In  In59  1  0.61575600  0.50000000  0.76448500  1
  Ni  Ni60  1  0.50000000  0.50000000  0.00000000  1
  Ni  Ni61  1  0.00000000  0.00000000  0.00000000  1
  Ni  Ni62  1  0.50000000  0.77759100  0.40782600  1
  Ni  Ni63  1  0.50000000  0.22240900  0.40782600  1
  Ni  Ni64  1  0.27759100  0.00000000  0.40782600  1
  Ni  Ni65  1  0.72240900  0.00000000  0.40782600  1
  Ni  Ni66  1  0.00000000  0.72240900  0.59217400  1
  Ni  Ni67  1  0.00000000  0.27759100  0.59217400  1
  Ni  Ni68  1  0.22240900  0.50000000  0.59217400  1
  Ni  Ni69  1  0.77759100  0.50000000  0.59217400  1
  Ni  Ni70  1  0.84397800  0.34397800  0.10488100  1
  Ni  Ni71  1  0.84397800  0.65602200  0.10488100  1
  Ni  Ni72  1  0.15602200  0.34397800  0.10488100  1
  Ni  Ni73  1  0.15602200  0.65602200  0.10488100  1
  Ni  Ni74  1  0.65602200  0.15602200  0.89511900  1
  Ni  Ni75  1  0.65602200  0.84397800  0.89511900  1
  Ni  Ni76  1  0.34397800  0.15602200  0.89511900  1
  Ni  Ni77  1  0.34397800  0.84397800  0.89511900  1
