# generated using pymatgen
data_Ca3Hf2AlFeSiO12
_symmetry_space_group_name_H-M   'P 1'
_cell_length_a   10.93064891
_cell_length_b   10.93064891
_cell_length_c   10.93064891
_cell_angle_alpha   109.13487215
_cell_angle_beta   109.13487215
_cell_angle_gamma   110.14603238
_symmetry_Int_Tables_number   1
_chemical_formula_structural   Ca3Hf2AlFeSiO12
_chemical_formula_sum   'Ca12 Hf8 Al4 Fe4 Si4 O48'
_cell_volume   1005.24216913
_cell_formula_units_Z   4
loop_
 _symmetry_equiv_pos_site_id
 _symmetry_equiv_pos_as_xyz
  1  'x, y, z'
loop_
 _atom_site_type_symbol
 _atom_site_label
 _atom_site_symmetry_multiplicity
 _atom_site_fract_x
 _atom_site_fract_y
 _atom_site_fract_z
 _atom_site_occupancy
  Ca  Ca0  1  0.49983200  0.37500000  0.62483200  1
  Ca  Ca1  1  0.75016800  0.87500000  0.37516800  1
  Ca  Ca2  1  0.62500000  0.75092800  0.62592800  1
  Ca  Ca3  1  0.12500000  0.99907200  0.37407200  1
  Ca  Ca4  1  0.49901200  0.99901200  0.50000000  1
  Ca  Ca5  1  0.75098800  0.75098800  0.00000000  1
  Ca  Ca6  1  0.24907200  0.87500000  0.87407200  1
  Ca  Ca7  1  0.00092800  0.37500000  0.12592800  1
  Ca  Ca8  1  0.12500000  0.50016800  0.87516800  1
  Ca  Ca9  1  0.62500000  0.24983200  0.12483200  1
  Ca  Ca10  1  0.24901200  0.24901200  0.00000000  1
  Ca  Ca11  1  0.00098800  0.50098800  0.50000000  1
  Hf  Hf12  1  0.87680000  0.62748700  0.75185200  1
  Hf  Hf13  1  0.37436500  0.12251300  0.74931300  1
  Hf  Hf14  1  0.37320000  0.62505200  0.25068700  1
  Hf  Hf15  1  0.87563500  0.12494800  0.24814800  1
  Hf  Hf16  1  0.37494800  0.62563500  0.74814800  1
  Hf  Hf17  1  0.87505200  0.12320000  0.75068700  1
  Hf  Hf18  1  0.37251300  0.12436500  0.24931300  1
  Hf  Hf19  1  0.87748700  0.62680000  0.25185200  1
  Al  Al20  1  0.99952100  0.87500000  0.62452100  1
  Al  Al21  1  0.25047900  0.37500000  0.37547900  1
  Al  Al22  1  0.12500000  0.74952100  0.12452100  1
  Al  Al23  1  0.62500000  0.00047900  0.87547900  1
  Fe  Fe24  1  0.75076700  0.37500000  0.87576700  1
  Fe  Fe25  1  0.49923300  0.87500000  0.12423300  1
  Fe  Fe26  1  0.62500000  0.50076700  0.37576700  1
  Fe  Fe27  1  0.12500000  0.24923300  0.62423300  1
  Si  Si28  1  0.50000000  0.50000000  0.00000000  1
  Si  Si29  1  0.75000000  0.25000000  0.50000000  1
  Si  Si30  1  0.25000000  0.75000000  0.50000000  1
  Si  Si31  1  0.00000000  0.00000000  0.00000000  1
  O  O32  1  0.75042500  0.53217800  0.83594800  1
  O  O33  1  0.55377000  0.21782200  0.71824600  1
  O  O34  1  0.49957500  0.83552300  0.28175400  1
  O  O35  1  0.69623000  0.91447700  0.16405200  1
  O  O36  1  0.57882500  0.65329800  0.37661300  1
  O  O37  1  0.67117500  0.54778800  0.57447300  1
  O  O38  1  0.27668500  0.20221200  0.62338700  1
  O  O39  1  0.97331500  0.09670200  0.42552700  1
  O  O40  1  0.28656800  0.92428600  0.54824100  1
  O  O41  1  0.37604500  0.73832700  0.45175900  1
  O  O42  1  0.87395500  0.82571400  0.86228200  1
  O  O43  1  0.96343200  0.01167300  0.13771800  1
  O  O44  1  0.99566200  0.72703900  0.66471100  1
  O  O45  1  0.18767200  0.02296100  0.76862400  1
  O  O46  1  0.25433800  0.41904900  0.23137600  1
  O  O47  1  0.06232800  0.33095100  0.33528900  1
  O  O48  1  0.17325500  0.60934600  0.12947500  1
  O  O49  1  0.07674500  0.70622000  0.93609100  1
  O  O50  1  0.47987100  0.04378000  0.87052500  1
  O  O51  1  0.77012900  0.14065400  0.06390900  1
  O  O52  1  0.46170500  0.32428200  0.94859700  1
  O  O53  1  0.37568500  0.51310800  0.05140300  1
  O  O54  1  0.87431500  0.42571800  0.63742300  1
  O  O55  1  0.78829500  0.23689200  0.36257700  1
  O  O56  1  0.16447700  0.44623000  0.66405200  1
  O  O57  1  0.08552300  0.24957500  0.78175400  1
  O  O58  1  0.46782200  0.30377000  0.21824600  1
  O  O59  1  0.78217800  0.50042500  0.33594800  1
  O  O60  1  0.45221200  0.02668500  0.12338700  1
  O  O61  1  0.34670200  0.72331500  0.92552700  1
  O  O62  1  0.90329800  0.32882500  0.87661300  1
  O  O63  1  0.79778800  0.42117500  0.07447300  1
  O  O64  1  0.98832700  0.12604500  0.95175900  1
  O  O65  1  0.17428600  0.03656800  0.04824100  1
  O  O66  1  0.26167300  0.71343200  0.63771800  1
  O  O67  1  0.07571400  0.62395500  0.36228200  1
  O  O68  1  0.58095100  0.81232800  0.83528900  1
  O  O69  1  0.66904900  0.00433800  0.73137600  1
  O  O70  1  0.27296100  0.93767200  0.26862400  1
  O  O71  1  0.97703900  0.74566200  0.16471100  1
  O  O72  1  0.29378000  0.22987100  0.37052500  1
  O  O73  1  0.39065400  0.52012900  0.56390900  1
  O  O74  1  0.85934600  0.92325500  0.62947500  1
  O  O75  1  0.95622000  0.82674500  0.43609100  1
  O  O76  1  0.76310800  0.12568500  0.55140300  1
  O  O77  1  0.57428200  0.21170500  0.44859700  1
  O  O78  1  0.48689200  0.53829500  0.86257700  1
  O  O79  1  0.67571800  0.62431500  0.13742300  1
