# generated using pymatgen
data_CsSc3H6(Se3O10)2
_symmetry_space_group_name_H-M   'P 1'
_cell_length_a   9.74130487
_cell_length_b   13.47565744
_cell_length_c   16.98038409
_cell_angle_alpha   90.00000000
_cell_angle_beta   90.00000000
_cell_angle_gamma   90.00000000
_symmetry_Int_Tables_number   1
_chemical_formula_structural   CsSc3H6(Se3O10)2
_chemical_formula_sum   'Cs4 Sc12 H24 Se24 O80'
_cell_volume   2229.02329653
_cell_formula_units_Z   4
loop_
 _symmetry_equiv_pos_site_id
 _symmetry_equiv_pos_as_xyz
  1  'x, y, z'
loop_
 _atom_site_type_symbol
 _atom_site_label
 _atom_site_symmetry_multiplicity
 _atom_site_fract_x
 _atom_site_fract_y
 _atom_site_fract_z
 _atom_site_occupancy
  Cs  Cs0  1  0.48932190  0.25000000  0.70913159  1
  Cs  Cs1  1  0.01067810  0.25000000  0.20913159  1
  Cs  Cs2  1  0.51067810  0.75000000  0.29086841  1
  Cs  Cs3  1  0.98932190  0.75000000  0.79086841  1
  Sc  Sc4  1  0.05404147  0.25000000  0.93696101  1
  Sc  Sc5  1  0.44595853  0.25000000  0.43696101  1
  Sc  Sc6  1  0.94595853  0.75000000  0.06303899  1
  Sc  Sc7  1  0.55404147  0.75000000  0.56303899  1
  Sc  Sc8  1  0.67792567  0.50023033  0.87380138  1
  Sc  Sc9  1  0.82207433  0.99976967  0.37380138  1
  Sc  Sc10  1  0.32207433  0.00023033  0.12619862  1
  Sc  Sc11  1  0.17792567  0.49976967  0.62619862  1
  Sc  Sc12  1  0.32207433  0.49976967  0.12619862  1
  Sc  Sc13  1  0.17792567  0.00023033  0.62619862  1
  Sc  Sc14  1  0.67792567  0.99976967  0.87380138  1
  Sc  Sc15  1  0.82207433  0.50023033  0.37380138  1
  H  H16  1  0.90831767  0.39930629  0.02377954  1
  H  H17  1  0.59168233  0.10069371  0.52377954  1
  H  H18  1  0.09168233  0.89930629  0.97622046  1
  H  H19  1  0.40831767  0.60069371  0.47622046  1
  H  H20  1  0.09168233  0.60069371  0.97622046  1
  H  H21  1  0.40831767  0.89930629  0.47622046  1
  H  H22  1  0.90831767  0.10069371  0.02377954  1
  H  H23  1  0.59168233  0.39930629  0.52377954  1
  H  H24  1  0.06852809  0.41460626  0.03718551  1
  H  H25  1  0.43147191  0.08539374  0.53718551  1
  H  H26  1  0.93147191  0.91460626  0.96281449  1
  H  H27  1  0.56852809  0.58539374  0.46281449  1
  H  H28  1  0.93147191  0.58539374  0.96281449  1
  H  H29  1  0.56852809  0.91460626  0.46281449  1
  H  H30  1  0.06852809  0.08539374  0.03718551  1
  H  H31  1  0.43147191  0.41460626  0.53718551  1
  H  H32  1  0.80956219  0.46199209  0.18564870  1
  H  H33  1  0.69043781  0.03800791  0.68564870  1
  H  H34  1  0.19043781  0.96199209  0.81435130  1
  H  H35  1  0.30956219  0.53800791  0.31435130  1
  H  H36  1  0.19043781  0.53800791  0.81435130  1
  H  H37  1  0.30956219  0.96199209  0.31435130  1
  H  H38  1  0.80956219  0.03800791  0.18564870  1
  H  H39  1  0.69043781  0.46199209  0.68564870  1
  Se  Se40  1  0.98644076  0.40632118  0.78504860  1
  Se  Se41  1  0.51355924  0.09367882  0.28504860  1
  Se  Se42  1  0.01355924  0.90632118  0.21495140  1
  Se  Se43  1  0.48644076  0.59367882  0.71495140  1
  Se  Se44  1  0.01355924  0.59367882  0.21495140  1
  Se  Se45  1  0.48644076  0.90632118  0.71495140  1
  Se  Se46  1  0.98644076  0.09367882  0.78504860  1
  Se  Se47  1  0.51355924  0.40632118  0.28504860  1
  Se  Se48  1  0.67633062  0.25000000  0.92411352  1
  Se  Se49  1  0.82366938  0.25000000  0.42411352  1
  Se  Se50  1  0.32366938  0.75000000  0.07588648  1
  Se  Se51  1  0.17633062  0.75000000  0.57588648  1
  Se  Se52  1  0.66825836  0.51058014  0.08155946  1
  Se  Se53  1  0.83174164  0.98941986  0.58155946  1
  Se  Se54  1  0.33174164  0.01058014  0.91844054  1
  Se  Se55  1  0.16825836  0.48941986  0.41844054  1
  Se  Se56  1  0.33174164  0.48941986  0.91844054  1
  Se  Se57  1  0.16825836  0.01058014  0.41844054  1
  Se  Se58  1  0.66825836  0.98941986  0.08155946  1
  Se  Se59  1  0.83174164  0.51058014  0.58155946  1
  Se  Se60  1  0.65529895  0.75000000  0.93024432  1
  Se  Se61  1  0.84470105  0.75000000  0.43024432  1
  Se  Se62  1  0.34470105  0.25000000  0.06975568  1
  Se  Se63  1  0.15529895  0.25000000  0.56975568  1
  O  O64  1  0.72687722  0.65257280  0.87891346  1
  O  O65  1  0.77312278  0.84742720  0.37891346  1
  O  O66  1  0.27312278  0.15257280  0.12108654  1
  O  O67  1  0.22687722  0.34742720  0.62108654  1
  O  O68  1  0.27312278  0.34742720  0.12108654  1
  O  O69  1  0.22687722  0.15257280  0.62108654  1
  O  O70  1  0.72687722  0.84742720  0.87891346  1
  O  O71  1  0.77312278  0.65257280  0.37891346  1
  O  O72  1  0.51382976  0.45161512  0.07895807  1
  O  O73  1  0.98617024  0.04838488  0.57895807  1
  O  O74  1  0.48617024  0.95161512  0.92104193  1
  O  O75  1  0.01382976  0.54838488  0.42104193  1
  O  O76  1  0.48617024  0.54838488  0.92104193  1
  O  O77  1  0.01382976  0.95161512  0.42104193  1
  O  O78  1  0.51382976  0.04838488  0.07895807  1
  O  O79  1  0.98617024  0.45161512  0.57895807  1
  O  O80  1  0.74838786  0.47515099  0.99501862  1
  O  O81  1  0.75161214  0.02484901  0.49501862  1
  O  O82  1  0.25161214  0.97515099  0.00498138  1
  O  O83  1  0.24838786  0.52484901  0.50498138  1
  O  O84  1  0.25161214  0.52484901  0.00498138  1
  O  O85  1  0.24838786  0.97515099  0.50498138  1
  O  O86  1  0.74838786  0.02484901  0.99501862  1
  O  O87  1  0.75161214  0.47515099  0.49501862  1
  O  O88  1  0.09390783  0.36510807  0.85918338  1
  O  O89  1  0.40609217  0.13489193  0.35918338  1
  O  O90  1  0.90609217  0.86510807  0.14081662  1
  O  O91  1  0.59390783  0.63489193  0.64081662  1
  O  O92  1  0.90609217  0.63489193  0.14081662  1
  O  O93  1  0.59390783  0.86510807  0.64081662  1
  O  O94  1  0.09390783  0.13489193  0.85918338  1
  O  O95  1  0.40609217  0.36510807  0.35918338  1
  O  O96  1  0.85103627  0.25000000  0.90642541  1
  O  O97  1  0.64896373  0.25000000  0.40642541  1
  O  O98  1  0.14896373  0.75000000  0.09357459  1
  O  O99  1  0.35103627  0.75000000  0.59357459  1
  O  O100  1  0.09723728  0.49286172  0.74298377  1
  O  O101  1  0.40276272  0.00713828  0.24298377  1
  O  O102  1  0.90276272  0.99286172  0.25701623  1
  O  O103  1  0.59723728  0.50713828  0.75701623  1
  O  O104  1  0.90276272  0.50713828  0.25701623  1
  O  O105  1  0.59723728  0.99286172  0.75701623  1
  O  O106  1  0.09723728  0.00713828  0.74298377  1
  O  O107  1  0.40276272  0.49286172  0.24298377  1
  O  O108  1  0.99733827  0.36399604  0.02854148  1
  O  O109  1  0.50266173  0.13600396  0.52854148  1
  O  O110  1  0.00266173  0.86399604  0.97145852  1
  O  O111  1  0.49733827  0.63600396  0.47145852  1
  O  O112  1  0.00266173  0.63600396  0.97145852  1
  O  O113  1  0.49733827  0.86399604  0.47145852  1
  O  O114  1  0.99733827  0.13600396  0.02854148  1
  O  O115  1  0.50266173  0.36399604  0.52854148  1
  O  O116  1  0.75227642  0.75000000  0.01594482  1
  O  O117  1  0.74772358  0.75000000  0.51594482  1
  O  O118  1  0.24772358  0.25000000  0.98405518  1
  O  O119  1  0.25227642  0.25000000  0.48405518  1
  O  O120  1  0.62396813  0.34844441  0.86655457  1
  O  O121  1  0.87603187  0.15155559  0.36655457  1
  O  O122  1  0.37603187  0.84844441  0.13344543  1
  O  O123  1  0.12396813  0.65155559  0.63344543  1
  O  O124  1  0.37603187  0.65155559  0.13344543  1
  O  O125  1  0.12396813  0.84844441  0.63344543  1
  O  O126  1  0.62396813  0.15155559  0.86655457  1
  O  O127  1  0.87603187  0.34844441  0.36655457  1
  O  O128  1  0.87832959  0.48530188  0.83407130  1
  O  O129  1  0.62167041  0.01469812  0.33407130  1
  O  O130  1  0.12167041  0.98530188  0.16592870  1
  O  O131  1  0.37832959  0.51469812  0.66592870  1
  O  O132  1  0.12167041  0.51469812  0.16592870  1
  O  O133  1  0.37832959  0.98530188  0.66592870  1
  O  O134  1  0.87832959  0.01469812  0.83407130  1
  O  O135  1  0.62167041  0.48530188  0.33407130  1
  O  O136  1  0.75254673  0.42371222  0.14543511  1
  O  O137  1  0.74745327  0.07628778  0.64543511  1
  O  O138  1  0.24745327  0.92371222  0.85456489  1
  O  O139  1  0.25254673  0.57628778  0.35456489  1
  O  O140  1  0.24745327  0.57628778  0.85456489  1
  O  O141  1  0.25254673  0.92371222  0.35456489  1
  O  O142  1  0.75254673  0.07628778  0.14543511  1
  O  O143  1  0.74745327  0.42371222  0.64543511  1
