# generated using pymatgen
data_Pr3CoBr3
_symmetry_space_group_name_H-M   'P 1'
_cell_length_a   10.39215242
_cell_length_b   10.39215242
_cell_length_c   10.39215242
_cell_angle_alpha   109.47122063
_cell_angle_beta   109.47122063
_cell_angle_gamma   109.47122063
_symmetry_Int_Tables_number   1
_chemical_formula_structural   Pr3CoBr3
_chemical_formula_sum   'Pr12 Co4 Br12'
_cell_volume   863.96198456
_cell_formula_units_Z   4
loop_
 _symmetry_equiv_pos_site_id
 _symmetry_equiv_pos_as_xyz
  1  'x, y, z'
loop_
 _atom_site_type_symbol
 _atom_site_label
 _atom_site_symmetry_multiplicity
 _atom_site_fract_x
 _atom_site_fract_y
 _atom_site_fract_z
 _atom_site_occupancy
  Pr  Pr0  1  0.46351900  0.48176000  0.23176000  1
  Pr  Pr1  1  0.75000000  0.23176000  0.26824000  1
  Pr  Pr2  1  0.75000000  0.01824000  0.48176000  1
  Pr  Pr3  1  0.23176000  0.46351900  0.48176000  1
  Pr  Pr4  1  0.26824000  0.75000000  0.23176000  1
  Pr  Pr5  1  0.03648100  0.26824000  0.01824000  1
  Pr  Pr6  1  0.01824000  0.03648100  0.26824000  1
  Pr  Pr7  1  0.48176000  0.75000000  0.01824000  1
  Pr  Pr8  1  0.48176000  0.23176000  0.46351900  1
  Pr  Pr9  1  0.01824000  0.48176000  0.75000000  1
  Pr  Pr10  1  0.26824000  0.01824000  0.03648100  1
  Pr  Pr11  1  0.23176000  0.26824000  0.75000000  1
  Co  Co12  1  0.25000000  0.25000000  0.25000000  1
  Co  Co13  1  0.50000000  0.00000000  0.25000000  1
  Co  Co14  1  0.00000000  0.25000000  0.50000000  1
  Co  Co15  1  0.25000000  0.50000000  0.00000000  1
  Br  Br16  1  0.25000000  0.75763500  0.74236500  1
  Br  Br17  1  0.51527000  0.50763500  0.75763500  1
  Br  Br18  1  0.98473000  0.74236500  0.99236500  1
  Br  Br19  1  0.74236500  0.25000000  0.75763500  1
  Br  Br20  1  0.99236500  0.98473000  0.74236500  1
  Br  Br21  1  0.25000000  0.99236500  0.50763500  1
  Br  Br22  1  0.75763500  0.51527000  0.50763500  1
  Br  Br23  1  0.50763500  0.25000000  0.99236500  1
  Br  Br24  1  0.75763500  0.74236500  0.25000000  1
  Br  Br25  1  0.74236500  0.99236500  0.98473000  1
  Br  Br26  1  0.99236500  0.50763500  0.25000000  1
  Br  Br27  1  0.50763500  0.75763500  0.51527000  1
