# generated using pymatgen
data_Sm3Ga2
_symmetry_space_group_name_H-M   'P 1'
_cell_length_a   11.34837214
_cell_length_b   11.34837214
_cell_length_c   11.34837214
_cell_angle_alpha   116.94126428
_cell_angle_beta   116.94126428
_cell_angle_gamma   95.38491958
_symmetry_Int_Tables_number   1
_chemical_formula_structural   Sm3Ga2
_chemical_formula_sum   'Sm24 Ga16'
_cell_volume   1076.07598822
_cell_formula_units_Z   8
loop_
 _symmetry_equiv_pos_site_id
 _symmetry_equiv_pos_as_xyz
  1  'x, y, z'
loop_
 _atom_site_type_symbol
 _atom_site_label
 _atom_site_symmetry_multiplicity
 _atom_site_fract_x
 _atom_site_fract_y
 _atom_site_fract_z
 _atom_site_occupancy
  Sm  Sm0  1  0.14830500  0.64830500  0.50000000  1
  Sm  Sm1  1  0.64830500  0.14830500  0.50000000  1
  Sm  Sm2  1  0.85169500  0.35169500  0.50000000  1
  Sm  Sm3  1  0.35169500  0.85169500  0.50000000  1
  Sm  Sm4  1  0.66827300  0.16827300  0.83654500  1
  Sm  Sm5  1  0.33172700  0.83172700  0.16345500  1
  Sm  Sm6  1  0.16827300  0.33172700  0.50000000  1
  Sm  Sm7  1  0.83172700  0.66827300  0.50000000  1
  Sm  Sm8  1  0.06656400  0.93138500  0.27002400  1
  Sm  Sm9  1  0.66136100  0.79654000  0.72997600  1
  Sm  Sm10  1  0.56656400  0.29654000  0.13517900  1
  Sm  Sm11  1  0.16136100  0.43138500  0.86482100  1
  Sm  Sm12  1  0.79654000  0.06656400  0.13517900  1
  Sm  Sm13  1  0.93138500  0.66136100  0.86482100  1
  Sm  Sm14  1  0.43138500  0.56656400  0.27002400  1
  Sm  Sm15  1  0.29654000  0.16136100  0.72997600  1
  Sm  Sm16  1  0.93343600  0.06861500  0.72997600  1
  Sm  Sm17  1  0.33863900  0.20346000  0.27002400  1
  Sm  Sm18  1  0.43343600  0.70346000  0.86482100  1
  Sm  Sm19  1  0.83863900  0.56861500  0.13517900  1
  Sm  Sm20  1  0.20346000  0.93343600  0.86482100  1
  Sm  Sm21  1  0.06861500  0.33863900  0.13517900  1
  Sm  Sm22  1  0.56861500  0.43343600  0.72997600  1
  Sm  Sm23  1  0.70346000  0.83863900  0.27002400  1
  Ga  Ga24  1  0.75000000  0.75000000  0.00000000  1
  Ga  Ga25  1  0.25000000  0.25000000  0.00000000  1
  Ga  Ga26  1  0.00000000  0.00000000  0.00000000  1
  Ga  Ga27  1  0.50000000  0.50000000  0.00000000  1
  Ga  Ga28  1  0.11583600  0.61583600  0.73167200  1
  Ga  Ga29  1  0.88416400  0.38416400  0.26832800  1
  Ga  Ga30  1  0.61583600  0.88416400  0.50000000  1
  Ga  Ga31  1  0.38416400  0.11583600  0.50000000  1
  Ga  Ga32  1  0.87949700  0.37949700  0.85641800  1
  Ga  Ga33  1  0.52307900  0.02307900  0.14358200  1
  Ga  Ga34  1  0.37949700  0.52307900  0.50000000  1
  Ga  Ga35  1  0.02307900  0.87949700  0.50000000  1
  Ga  Ga36  1  0.12050300  0.62050300  0.14358200  1
  Ga  Ga37  1  0.47692100  0.97692100  0.85641800  1
  Ga  Ga38  1  0.62050300  0.47692100  0.50000000  1
  Ga  Ga39  1  0.97692100  0.12050300  0.50000000  1
