# generated using pymatgen
data_EuNpO3
_symmetry_space_group_name_H-M   'P 1'
_cell_length_a   5.98570600
_cell_length_b   6.14107100
_cell_length_c   8.58523100
_cell_angle_alpha   90.00000000
_cell_angle_beta   90.00000000
_cell_angle_gamma   90.00000000
_symmetry_Int_Tables_number   1
_chemical_formula_structural   EuNpO3
_chemical_formula_sum   'Eu4 Np4 O12'
_cell_volume   315.58146313
_cell_formula_units_Z   4
loop_
 _symmetry_equiv_pos_site_id
 _symmetry_equiv_pos_as_xyz
  1  'x, y, z'
loop_
 _atom_site_type_symbol
 _atom_site_label
 _atom_site_symmetry_multiplicity
 _atom_site_fract_x
 _atom_site_fract_y
 _atom_site_fract_z
 _atom_site_occupancy
  Eu  Eu0  1  0.01183500  0.44987800  0.25000000  1
  Eu  Eu1  1  0.98816500  0.55012200  0.75000000  1
  Eu  Eu2  1  0.51183500  0.05012200  0.75000000  1
  Eu  Eu3  1  0.48816500  0.94987800  0.25000000  1
  Np  Np4  1  0.00000000  0.00000000  0.00000000  1
  Np  Np5  1  0.50000000  0.50000000  0.00000000  1
  Np  Np6  1  0.00000000  0.00000000  0.50000000  1
  Np  Np7  1  0.50000000  0.50000000  0.50000000  1
  O  O8  1  0.30713900  0.19595200  0.06060500  1
  O  O9  1  0.69286100  0.80404800  0.93939500  1
  O  O10  1  0.80713900  0.30404800  0.93939500  1
  O  O11  1  0.69286100  0.80404800  0.56060500  1
  O  O12  1  0.19286100  0.69595200  0.06060500  1
  O  O13  1  0.30713900  0.19595200  0.43939500  1
  O  O14  1  0.19286100  0.69595200  0.43939500  1
  O  O15  1  0.80713900  0.30404800  0.56060500  1
  O  O16  1  0.61506800  0.54879500  0.25000000  1
  O  O17  1  0.38493200  0.45120500  0.75000000  1
  O  O18  1  0.11506800  0.95120500  0.75000000  1
  O  O19  1  0.88493200  0.04879500  0.25000000  1
