# generated using pymatgen
data_ZrBr4
_symmetry_space_group_name_H-M   'P 1'
_cell_length_a   12.94788800
_cell_length_b   12.94788800
_cell_length_c   12.94788800
_cell_angle_alpha   90.00000000
_cell_angle_beta   90.00000000
_cell_angle_gamma   90.00000000
_symmetry_Int_Tables_number   1
_chemical_formula_structural   ZrBr4
_chemical_formula_sum   'Zr8 Br32'
_cell_volume   2170.68498524
_cell_formula_units_Z   8
loop_
 _symmetry_equiv_pos_site_id
 _symmetry_equiv_pos_as_xyz
  1  'x, y, z'
loop_
 _atom_site_type_symbol
 _atom_site_label
 _atom_site_symmetry_multiplicity
 _atom_site_fract_x
 _atom_site_fract_y
 _atom_site_fract_z
 _atom_site_occupancy
  Zr  Zr0  1  0.12722900  0.12722900  0.12722900  1
  Zr  Zr1  1  0.87277100  0.87277100  0.87277100  1
  Zr  Zr2  1  0.37277100  0.87277100  0.62722900  1
  Zr  Zr3  1  0.87277100  0.62722900  0.37277100  1
  Zr  Zr4  1  0.62722900  0.12722900  0.37277100  1
  Zr  Zr5  1  0.12722900  0.37277100  0.62722900  1
  Zr  Zr6  1  0.62722900  0.37277100  0.87277100  1
  Zr  Zr7  1  0.37277100  0.62722900  0.12722900  1
  Br  Br8  1  0.98230100  0.51449600  0.26221100  1
  Br  Br9  1  0.01769900  0.48550400  0.73778900  1
  Br  Br10  1  0.51769900  0.48550400  0.76221100  1
  Br  Br11  1  0.01769900  0.01449600  0.23778900  1
  Br  Br12  1  0.26221100  0.98230100  0.51449600  1
  Br  Br13  1  0.48230100  0.51449600  0.23778900  1
  Br  Br14  1  0.98230100  0.98550400  0.76221100  1
  Br  Br15  1  0.73778900  0.01769900  0.48550400  1
  Br  Br16  1  0.48230100  0.98550400  0.73778900  1
  Br  Br17  1  0.76221100  0.51769900  0.48550400  1
  Br  Br18  1  0.51769900  0.01449600  0.26221100  1
  Br  Br19  1  0.23778900  0.48230100  0.51449600  1
  Br  Br20  1  0.23778900  0.01769900  0.01449600  1
  Br  Br21  1  0.76221100  0.98230100  0.98550400  1
  Br  Br22  1  0.73778900  0.48230100  0.98550400  1
  Br  Br23  1  0.26221100  0.51769900  0.01449600  1
  Br  Br24  1  0.51449600  0.26221100  0.98230100  1
  Br  Br25  1  0.48550400  0.73778900  0.01769900  1
  Br  Br26  1  0.01449600  0.23778900  0.01769900  1
  Br  Br27  1  0.98550400  0.76221100  0.98230100  1
  Br  Br28  1  0.98550400  0.73778900  0.48230100  1
  Br  Br29  1  0.01449600  0.26221100  0.51769900  1
  Br  Br30  1  0.48550400  0.76221100  0.51769900  1
  Br  Br31  1  0.51449600  0.23778900  0.48230100  1
  Br  Br32  1  0.23813100  0.23813100  0.23813100  1
  Br  Br33  1  0.76186900  0.76186900  0.76186900  1
  Br  Br34  1  0.26186900  0.76186900  0.73813100  1
  Br  Br35  1  0.76186900  0.73813100  0.26186900  1
  Br  Br36  1  0.73813100  0.23813100  0.26186900  1
  Br  Br37  1  0.23813100  0.26186900  0.73813100  1
  Br  Br38  1  0.73813100  0.26186900  0.76186900  1
  Br  Br39  1  0.26186900  0.73813100  0.23813100  1
