# generated using pymatgen
data_Rb3LuCl6
_symmetry_space_group_name_H-M   'P 1'
_cell_length_a   13.65341070
_cell_length_b   13.65341070
_cell_length_c   12.88247349
_cell_angle_alpha   80.83324478
_cell_angle_beta   80.83324478
_cell_angle_gamma   34.05222340
_symmetry_Int_Tables_number   1
_chemical_formula_structural   Rb3LuCl6
_chemical_formula_sum   'Rb12 Lu4 Cl24'
_cell_volume   1325.91732375
_cell_formula_units_Z   4
loop_
 _symmetry_equiv_pos_site_id
 _symmetry_equiv_pos_as_xyz
  1  'x, y, z'
loop_
 _atom_site_type_symbol
 _atom_site_label
 _atom_site_symmetry_multiplicity
 _atom_site_fract_x
 _atom_site_fract_y
 _atom_site_fract_z
 _atom_site_occupancy
  Rb  Rb0  1  0.30448900  0.79458600  0.56789400  1
  Rb  Rb1  1  0.69551100  0.20541400  0.43210600  1
  Rb  Rb2  1  0.20541400  0.69551100  0.93210600  1
  Rb  Rb3  1  0.79458600  0.30448900  0.06789400  1
  Rb  Rb4  1  0.46712900  0.84040400  0.85489500  1
  Rb  Rb5  1  0.53287100  0.15959600  0.14510500  1
  Rb  Rb6  1  0.15959600  0.53287100  0.64510500  1
  Rb  Rb7  1  0.84040400  0.46712900  0.35489500  1
  Rb  Rb8  1  0.65172000  0.02537200  0.79850900  1
  Rb  Rb9  1  0.34828000  0.97462800  0.20149100  1
  Rb  Rb10  1  0.97462800  0.34828000  0.70149100  1
  Rb  Rb11  1  0.02537200  0.65172000  0.29850900  1
  Lu  Lu12  1  0.78381300  0.21618700  0.75000000  1
  Lu  Lu13  1  0.21618700  0.78381300  0.25000000  1
  Lu  Lu14  1  0.50000000  0.00000000  0.50000000  1
  Lu  Lu15  1  0.00000000  0.50000000  0.00000000  1
  Cl  Cl16  1  0.61907100  0.72868100  0.58065800  1
  Cl  Cl17  1  0.38092900  0.27131800  0.41934200  1
  Cl  Cl18  1  0.27131900  0.38092900  0.91934200  1
  Cl  Cl19  1  0.72868100  0.61907100  0.08065800  1
  Cl  Cl20  1  0.49929800  0.38640900  0.68162500  1
  Cl  Cl21  1  0.50070200  0.61359100  0.31837500  1
  Cl  Cl22  1  0.61359100  0.50070200  0.81837500  1
  Cl  Cl23  1  0.38640900  0.49929800  0.18162500  1
  Cl  Cl24  1  0.77648400  0.86798000  0.53519500  1
  Cl  Cl25  1  0.22351600  0.13202000  0.46480500  1
  Cl  Cl26  1  0.13202000  0.22351600  0.96480500  1
  Cl  Cl27  1  0.86798000  0.77648400  0.03519500  1
  Cl  Cl28  1  0.91928800  0.96609600  0.19442100  1
  Cl  Cl29  1  0.08071200  0.03390400  0.80557900  1
  Cl  Cl30  1  0.03390400  0.08071200  0.30557900  1
  Cl  Cl31  1  0.96609600  0.91928800  0.69442100  1
  Cl  Cl32  1  0.71722700  0.16808700  0.93254300  1
  Cl  Cl33  1  0.28277300  0.83191300  0.06745700  1
  Cl  Cl34  1  0.83191300  0.28277300  0.56745700  1
  Cl  Cl35  1  0.16808700  0.71722700  0.43254300  1
  Cl  Cl36  1  0.36335600  0.13779800  0.68355100  1
  Cl  Cl37  1  0.63664400  0.86220200  0.31644900  1
  Cl  Cl38  1  0.86220200  0.63664400  0.81644900  1
  Cl  Cl39  1  0.13779800  0.36335600  0.18355100  1
