# generated using pymatgen
data_CsMo2P3O13
_symmetry_space_group_name_H-M   'P 1'
_cell_length_a   19.89425300
_cell_length_b   6.50182500
_cell_length_c   10.04529588
_cell_angle_alpha   73.02689900
_cell_angle_beta   90.00000000
_cell_angle_gamma   90.00000000
_symmetry_Int_Tables_number   1
_chemical_formula_structural   CsMo2P3O13
_chemical_formula_sum   'Cs4 Mo8 P12 O52'
_cell_volume   1242.75135410
_cell_formula_units_Z   4
loop_
 _symmetry_equiv_pos_site_id
 _symmetry_equiv_pos_as_xyz
  1  'x, y, z'
loop_
 _atom_site_type_symbol
 _atom_site_label
 _atom_site_symmetry_multiplicity
 _atom_site_fract_x
 _atom_site_fract_y
 _atom_site_fract_z
 _atom_site_occupancy
  Cs  Cs0  1  0.08634400  0.73307700  0.99592100  1
  Cs  Cs1  1  0.58634400  0.26692300  0.00407900  1
  Cs  Cs2  1  0.25524100  0.71473400  0.36629100  1
  Cs  Cs3  1  0.75524100  0.28526600  0.63370900  1
  Mo  Mo4  1  0.96671700  0.43886500  0.38904900  1
  Mo  Mo5  1  0.46671700  0.56113500  0.61095100  1
  Mo  Mo6  1  0.25431200  0.35513400  0.06996700  1
  Mo  Mo7  1  0.75431200  0.64486600  0.93003300  1
  Mo  Mo8  1  0.20855200  0.06003100  0.63090900  1
  Mo  Mo9  1  0.70855200  0.93996900  0.36909100  1
  Mo  Mo10  1  0.92764100  0.14220400  0.94693600  1
  Mo  Mo11  1  0.42764100  0.85779600  0.05306400  1
  P  P12  1  0.12311500  0.23616100  0.30853400  1
  P  P13  1  0.62311500  0.76383900  0.69146600  1
  P  P14  1  0.26794500  0.90115300  0.96784700  1
  P  P15  1  0.76794500  0.09884700  0.03215300  1
  P  P16  1  0.17622800  0.51002900  0.72153900  1
  P  P17  1  0.67622800  0.48997100  0.27846100  1
  P  P18  1  0.05456200  0.26033200  0.70700100  1
  P  P19  1  0.55456200  0.73966800  0.29299900  1
  P  P20  1  0.91133600  0.59762200  0.04329300  1
  P  P21  1  0.41133600  0.40237800  0.95670700  1
  P  P22  1  0.00061800  0.98507400  0.29870200  1
  P  P23  1  0.50061800  0.01492600  0.70129800  1
  O  O24  1  0.00441700  0.33555100  0.58947400  1
  O  O25  1  0.50441700  0.66444900  0.41052600  1
  O  O26  1  0.88562300  0.43247100  0.44401000  1
  O  O27  1  0.38562300  0.56752900  0.55599000  1
  O  O28  1  0.99286100  0.74760300  0.38090800  1
  O  O29  1  0.49286100  0.25239700  0.61909200  1
  O  O30  1  0.94772100  0.54679000  0.18395200  1
  O  O31  1  0.44772100  0.45321000  0.81604800  1
  O  O32  1  0.07438100  0.40752500  0.32639800  1
  O  O33  1  0.57438100  0.59247500  0.67360200  1
  O  O34  1  0.17471800  0.16005800  0.42493000  1
  O  O35  1  0.67471800  0.83994200  0.57507000  1
  O  O36  1  0.08175500  0.02206200  0.30662500  1
  O  O37  1  0.58175500  0.97793800  0.69337500  1
  O  O38  1  0.15919400  0.31215500  0.16693500  1
  O  O39  1  0.65919400  0.68784500  0.83306500  1
  O  O40  1  0.33444100  0.41881900  0.93509500  1
  O  O41  1  0.83444100  0.58118100  0.06490500  1
  O  O42  1  0.29856700  0.28971400  0.22164300  1
  O  O43  1  0.79856700  0.71028600  0.77835700  1
  O  O44  1  0.24612200  0.67474300  0.06021500  1
  O  O45  1  0.74612200  0.32525700  0.93978500  1
  O  O46  1  0.19465100  0.45265700  0.87465300  1
  O  O47  1  0.69465100  0.54734300  0.12534700  1
  O  O48  1  0.24760800  0.04887900  0.05747700  1
  O  O49  1  0.74760800  0.95112100  0.94252300  1
  O  O50  1  0.22318000  0.95798800  0.83784500  1
  O  O51  1  0.72318000  0.04201200  0.16215500  1
  O  O52  1  0.21195200  0.37781300  0.63810700  1
  O  O53  1  0.71195200  0.62218700  0.36189300  1
  O  O54  1  0.18396300  0.74846100  0.63971900  1
  O  O55  1  0.68396300  0.25153900  0.36028100  1
  O  O56  1  0.09625500  0.47306500  0.71191400  1
  O  O57  1  0.59625500  0.52693500  0.28808600  1
  O  O58  1  0.28982100  0.05754000  0.57810600  1
  O  O59  1  0.78982100  0.94246000  0.42189400  1
  O  O60  1  0.10495600  0.09461800  0.68706300  1
  O  O61  1  0.60495600  0.90538200  0.31293700  1
  O  O62  1  0.02139300  0.17836000  0.85047900  1
  O  O63  1  0.52139300  0.82164000  0.14952100  1
  O  O64  1  0.84263000  0.08450000  0.07286400  1
  O  O65  1  0.34263000  0.91550000  0.92713600  1
  O  O66  1  0.88280700  0.21759200  0.79578500  1
  O  O67  1  0.38280700  0.78240800  0.20421500  1
  O  O68  1  0.93394300  0.82418000  0.95536200  1
  O  O69  1  0.43394300  0.17582000  0.04463800  1
  O  O70  1  0.98316100  0.03894500  0.14468000  1
  O  O71  1  0.48316100  0.96105500  0.85532000  1
  O  O72  1  0.93876400  0.44436100  0.96416200  1
  O  O73  1  0.43876400  0.55563900  0.03583800  1
  O  O74  1  0.96640400  0.12569800  0.37701700  1
  O  O75  1  0.46640400  0.87430200  0.62298300  1
