# generated using pymatgen
data_NdMoBrO4
_symmetry_space_group_name_H-M   'P 1'
_cell_length_a   7.05219800
_cell_length_b   7.51724407
_cell_length_c   11.34637093
_cell_angle_alpha   106.19939156
_cell_angle_beta   106.71945991
_cell_angle_gamma   92.45064336
_symmetry_Int_Tables_number   1
_chemical_formula_structural   NdMoBrO4
_chemical_formula_sum   'Nd4 Mo4 Br4 O16'
_cell_volume   548.23412795
_cell_formula_units_Z   4
loop_
 _symmetry_equiv_pos_site_id
 _symmetry_equiv_pos_as_xyz
  1  'x, y, z'
loop_
 _atom_site_type_symbol
 _atom_site_label
 _atom_site_symmetry_multiplicity
 _atom_site_fract_x
 _atom_site_fract_y
 _atom_site_fract_z
 _atom_site_occupancy
  Nd  Nd0  1  0.64428400  0.12653900  0.73030900  1
  Nd  Nd1  1  0.35571600  0.87346100  0.26969100  1
  Nd  Nd2  1  0.39524400  0.64586200  0.76890800  1
  Nd  Nd3  1  0.60475600  0.35413800  0.23109200  1
  Mo  Mo4  1  0.73453800  0.81740300  0.13406300  1
  Mo  Mo5  1  0.26546200  0.18259700  0.86593700  1
  Mo  Mo6  1  0.77563700  0.59273700  0.63060400  1
  Mo  Mo7  1  0.22436300  0.40726300  0.36939600  1
  Br  Br8  1  0.25709400  0.96879500  0.51824100  1
  Br  Br9  1  0.74290600  0.03120500  0.48175900  1
  Br  Br10  1  0.19462400  0.71224900  0.98063300  1
  Br  Br11  1  0.80537600  0.28775100  0.01936700  1
  O  O12  1  0.67538600  0.73220800  0.96339900  1
  O  O13  1  0.32461400  0.26779200  0.03660100  1
  O  O14  1  0.99785100  0.86680100  0.20655700  1
  O  O15  1  0.00214900  0.13319900  0.79344300  1
  O  O16  1  0.62376400  0.65865200  0.19957800  1
  O  O17  1  0.37623600  0.34134800  0.80042200  1
  O  O18  1  0.39191200  0.98000200  0.82045900  1
  O  O19  1  0.60808800  0.01999800  0.17954100  1
  O  O20  1  0.03982200  0.63911500  0.67715900  1
  O  O21  1  0.96017800  0.36088500  0.32284100  1
  O  O22  1  0.69749000  0.42934400  0.70298400  1
  O  O23  1  0.30251000  0.57065600  0.29701600  1
  O  O24  1  0.68125300  0.51039800  0.45873500  1
  O  O25  1  0.31874700  0.48960200  0.54126500  1
  O  O26  1  0.66154900  0.79566900  0.69721800  1
  O  O27  1  0.33845100  0.20433100  0.30278200  1
