# generated using pymatgen
data_ScFeGe2
_symmetry_space_group_name_H-M   'P 1'
_cell_length_a   8.04681800
_cell_length_b   9.25485700
_cell_length_c   10.04885400
_cell_angle_alpha   90.00000000
_cell_angle_beta   90.00000000
_cell_angle_gamma   90.00000000
_symmetry_Int_Tables_number   1
_chemical_formula_structural   ScFeGe2
_chemical_formula_sum   'Sc12 Fe12 Ge24'
_cell_volume   748.35976136
_cell_formula_units_Z   12
loop_
 _symmetry_equiv_pos_site_id
 _symmetry_equiv_pos_as_xyz
  1  'x, y, z'
loop_
 _atom_site_type_symbol
 _atom_site_label
 _atom_site_symmetry_multiplicity
 _atom_site_fract_x
 _atom_site_fract_y
 _atom_site_fract_z
 _atom_site_occupancy
  Sc  Sc0  1  0.74074800  0.82786800  0.04690600  1
  Sc  Sc1  1  0.74074800  0.17213200  0.95309400  1
  Sc  Sc2  1  0.25925200  0.67213200  0.54690600  1
  Sc  Sc3  1  0.25925200  0.32786800  0.45309400  1
  Sc  Sc4  1  0.25925200  0.17213200  0.95309400  1
  Sc  Sc5  1  0.25925200  0.82786800  0.04690600  1
  Sc  Sc6  1  0.74074800  0.32786800  0.45309400  1
  Sc  Sc7  1  0.74074800  0.67213200  0.54690600  1
  Sc  Sc8  1  0.50000000  0.83564900  0.32210800  1
  Sc  Sc9  1  0.50000000  0.16435100  0.67789200  1
  Sc  Sc10  1  0.50000000  0.66435100  0.82210800  1
  Sc  Sc11  1  0.50000000  0.33564900  0.17789200  1
  Fe  Fe12  1  0.75067200  0.58534400  0.24952000  1
  Fe  Fe13  1  0.75067200  0.41465600  0.75048000  1
  Fe  Fe14  1  0.24932800  0.91465600  0.74952000  1
  Fe  Fe15  1  0.24932800  0.08534400  0.25048000  1
  Fe  Fe16  1  0.24932800  0.41465600  0.75048000  1
  Fe  Fe17  1  0.24932800  0.58534400  0.24952000  1
  Fe  Fe18  1  0.75067200  0.08534400  0.25048000  1
  Fe  Fe19  1  0.75067200  0.91465600  0.74952000  1
  Fe  Fe20  1  0.74527600  0.00000000  0.50000000  1
  Fe  Fe21  1  0.25472400  0.50000000  0.00000000  1
  Fe  Fe22  1  0.25472400  0.00000000  0.50000000  1
  Fe  Fe23  1  0.74527600  0.50000000  0.00000000  1
  Ge  Ge24  1  0.84234700  0.83673000  0.31894900  1
  Ge  Ge25  1  0.84234700  0.16327000  0.68105100  1
  Ge  Ge26  1  0.15765300  0.66327000  0.81894900  1
  Ge  Ge27  1  0.15765300  0.33673000  0.18105100  1
  Ge  Ge28  1  0.15765300  0.16327000  0.68105100  1
  Ge  Ge29  1  0.15765300  0.83673000  0.31894900  1
  Ge  Ge30  1  0.84234700  0.33673000  0.18105100  1
  Ge  Ge31  1  0.84234700  0.66327000  0.81894900  1
  Ge  Ge32  1  0.50000000  0.54126000  0.37624400  1
  Ge  Ge33  1  0.50000000  0.45874000  0.62375600  1
  Ge  Ge34  1  0.50000000  0.95874000  0.87624400  1
  Ge  Ge35  1  0.50000000  0.04126000  0.12375600  1
  Ge  Ge36  1  0.00000000  0.54245600  0.37388100  1
  Ge  Ge37  1  0.00000000  0.45754400  0.62611900  1
  Ge  Ge38  1  0.00000000  0.95754400  0.87388100  1
  Ge  Ge39  1  0.00000000  0.04245600  0.12611900  1
  Ge  Ge40  1  0.50000000  0.63034400  0.10150800  1
  Ge  Ge41  1  0.50000000  0.36965600  0.89849200  1
  Ge  Ge42  1  0.50000000  0.86965600  0.60150800  1
  Ge  Ge43  1  0.50000000  0.13034400  0.39849200  1
  Ge  Ge44  1  0.00000000  0.62618500  0.09419200  1
  Ge  Ge45  1  0.00000000  0.37381500  0.90580800  1
  Ge  Ge46  1  0.00000000  0.87381500  0.59419200  1
  Ge  Ge47  1  0.00000000  0.12618500  0.40580800  1
