# generated using pymatgen
data_Dy4Ga21Ni10
_symmetry_space_group_name_H-M   'P 1'
_cell_length_a   10.68444855
_cell_length_b   10.68444855
_cell_length_c   15.53075274
_cell_angle_alpha   55.70475274
_cell_angle_beta   55.70475274
_cell_angle_gamma   22.01793071
_symmetry_Int_Tables_number   1
_chemical_formula_structural   Dy4Ga21Ni10
_chemical_formula_sum   'Dy4 Ga21 Ni10'
_cell_volume   544.26164168
_cell_formula_units_Z   1
loop_
 _symmetry_equiv_pos_site_id
 _symmetry_equiv_pos_as_xyz
  1  'x, y, z'
loop_
 _atom_site_type_symbol
 _atom_site_label
 _atom_site_symmetry_multiplicity
 _atom_site_fract_x
 _atom_site_fract_y
 _atom_site_fract_z
 _atom_site_occupancy
  Dy  Dy0  1  0.77059000  0.77059000  0.32362200  1
  Dy  Dy1  1  0.22941000  0.22941000  0.67637800  1
  Dy  Dy2  1  0.12052000  0.12052000  0.16628100  1
  Dy  Dy3  1  0.87948000  0.87948000  0.83371900  1
  Ga  Ga4  1  0.39868100  0.39868100  0.49717100  1
  Ga  Ga5  1  0.60131900  0.60131900  0.50282900  1
  Ga  Ga6  1  0.38598900  0.38598900  0.20468300  1
  Ga  Ga7  1  0.61401100  0.61401100  0.79531700  1
  Ga  Ga8  1  0.24810700  0.24810700  0.20587600  1
  Ga  Ga9  1  0.75189300  0.75189300  0.79412400  1
  Ga  Ga10  1  0.00659900  0.00659900  0.40913900  1
  Ga  Ga11  1  0.99340100  0.99340100  0.59086100  1
  Ga  Ga12  1  0.62708100  0.62708100  0.30563700  1
  Ga  Ga13  1  0.37291900  0.37291900  0.69436300  1
  Ga  Ga14  1  0.93555500  0.93555500  0.29485100  1
  Ga  Ga15  1  0.06444500  0.06444500  0.70514900  1
  Ga  Ga16  1  0.53996600  0.53996600  0.13154200  1
  Ga  Ga17  1  0.46003400  0.46003400  0.86845800  1
  Ga  Ga18  1  0.88191600  0.88191600  0.05510200  1
  Ga  Ga19  1  0.11808400  0.11808400  0.94489800  1
  Ga  Ga20  1  0.50000000  0.50000000  0.00000000  1
  Ga  Ga21  1  0.29753200  0.29753200  0.00317600  1
  Ga  Ga22  1  0.70246800  0.70246800  0.99682400  1
  Ga  Ga23  1  0.79991600  0.79991600  0.50164600  1
  Ga  Ga24  1  0.20008400  0.20008400  0.49835400  1
  Ni  Ni25  1  0.97573400  0.97573400  0.10594600  1
  Ni  Ni26  1  0.02426600  0.02426600  0.89405400  1
  Ni  Ni27  1  0.34713400  0.34713400  0.38926300  1
  Ni  Ni28  1  0.65286600  0.65286600  0.61073700  1
  Ni  Ni29  1  0.74940600  0.74940600  0.11538800  1
  Ni  Ni30  1  0.25059400  0.25059400  0.88461200  1
  Ni  Ni31  1  0.13220700  0.13220700  0.39742100  1
  Ni  Ni32  1  0.86779300  0.86779300  0.60257900  1
  Ni  Ni33  1  0.50271800  0.50271800  0.31442900  1
  Ni  Ni34  1  0.49728200  0.49728200  0.68557100  1
