# generated using pymatgen
data_CsBS2
_symmetry_space_group_name_H-M   'P 1'
_cell_length_a   4.78414500
_cell_length_b   6.27459100
_cell_length_c   9.82300376
_cell_angle_alpha   71.37441785
_cell_angle_beta   75.90576843
_cell_angle_gamma   90.00000000
_symmetry_Int_Tables_number   1
_chemical_formula_structural   CsBS2
_chemical_formula_sum   'Cs2 B2 S4'
_cell_volume   270.04483294
_cell_formula_units_Z   2
loop_
 _symmetry_equiv_pos_site_id
 _symmetry_equiv_pos_as_xyz
  1  'x, y, z'
loop_
 _atom_site_type_symbol
 _atom_site_label
 _atom_site_symmetry_multiplicity
 _atom_site_fract_x
 _atom_site_fract_y
 _atom_site_fract_z
 _atom_site_occupancy
  Cs  Cs0  1  0.14163800  0.14163800  0.71672500  1
  Cs  Cs1  1  0.85836200  0.85836200  0.28327500  1
  B  B2  1  0.56713900  0.56713900  0.86572200  1
  B  B3  1  0.43286100  0.43286100  0.13427800  1
  S  S4  1  0.66381400  0.66381400  0.67237100  1
  S  S5  1  0.33618600  0.33618600  0.32762900  1
  S  S6  1  0.50000000  0.27302400  0.00000000  1
  S  S7  1  0.50000000  0.72697600  0.00000000  1
