# generated using pymatgen
data_Tb3Ge5
_symmetry_space_group_name_H-M   'P 1'
_cell_length_a   6.93315357
_cell_length_b   6.93315357
_cell_length_c   8.40250300
_cell_angle_alpha   90.00000000
_cell_angle_beta   90.00000000
_cell_angle_gamma   119.99999593
_symmetry_Int_Tables_number   1
_chemical_formula_structural   Tb3Ge5
_chemical_formula_sum   'Tb6 Ge10'
_cell_volume   349.78482652
_cell_formula_units_Z   2
loop_
 _symmetry_equiv_pos_site_id
 _symmetry_equiv_pos_as_xyz
  1  'x, y, z'
loop_
 _atom_site_type_symbol
 _atom_site_label
 _atom_site_symmetry_multiplicity
 _atom_site_fract_x
 _atom_site_fract_y
 _atom_site_fract_z
 _atom_site_occupancy
  Tb  Tb0  1  0.33132200  0.00000000  0.50000000  1
  Tb  Tb1  1  0.66867800  0.66867800  0.50000000  1
  Tb  Tb2  1  0.00000000  0.33132200  0.50000000  1
  Tb  Tb3  1  0.00000000  0.33132200  0.00000000  1
  Tb  Tb4  1  0.66867800  0.66867800  0.00000000  1
  Tb  Tb5  1  0.33132200  0.00000000  0.00000000  1
  Ge  Ge6  1  0.00000000  0.00000000  0.75000000  1
  Ge  Ge7  1  0.66857400  0.07050600  0.75000000  1
  Ge  Ge8  1  0.40193200  0.33142600  0.75000000  1
  Ge  Ge9  1  0.92949400  0.59806800  0.75000000  1
  Ge  Ge10  1  0.33333300  0.66666700  0.75000000  1
  Ge  Ge11  1  0.00000000  0.00000000  0.25000000  1
  Ge  Ge12  1  0.66666700  0.33333300  0.25000000  1
  Ge  Ge13  1  0.33142600  0.40193200  0.25000000  1
  Ge  Ge14  1  0.07050600  0.66857400  0.25000000  1
  Ge  Ge15  1  0.59806800  0.92949400  0.25000000  1
