# generated using pymatgen
data_CsSbH4O5
_symmetry_space_group_name_H-M   'P 1'
_cell_length_a   6.75093961
_cell_length_b   6.78027078
_cell_length_c   7.59697690
_cell_angle_alpha   90.30051283
_cell_angle_beta   109.97257628
_cell_angle_gamma   113.63429862
_symmetry_Int_Tables_number   1
_chemical_formula_structural   CsSbH4O5
_chemical_formula_sum   'Cs2 Sb2 H8 O10'
_cell_volume   295.30034483
_cell_formula_units_Z   2
loop_
 _symmetry_equiv_pos_site_id
 _symmetry_equiv_pos_as_xyz
  1  'x, y, z'
loop_
 _atom_site_type_symbol
 _atom_site_label
 _atom_site_symmetry_multiplicity
 _atom_site_fract_x
 _atom_site_fract_y
 _atom_site_fract_z
 _atom_site_occupancy
  Cs  Cs0  1  0.82813100  0.99141000  0.71419700  1
  Cs  Cs1  1  0.17186900  0.00859000  0.28580300  1
  Sb  Sb2  1  0.53717600  0.36686200  0.85896900  1
  Sb  Sb3  1  0.46282400  0.63313800  0.14103100  1
  H  H4  1  0.28631200  0.54244400  0.68442900  1
  H  H5  1  0.71368800  0.45755600  0.31557100  1
  H  H6  1  0.90458900  0.37391100  0.11972900  1
  H  H7  1  0.09541100  0.62608900  0.88027100  1
  H  H8  1  0.71971000  0.48028300  0.61449000  1
  H  H9  1  0.28029000  0.51971700  0.38551000  1
  H  H10  1  0.34153100  0.95439600  0.80989200  1
  H  H11  1  0.65846900  0.04560400  0.19010800  1
  O  O12  1  0.31411800  0.32789100  0.99262300  1
  O  O13  1  0.68588200  0.67210900  0.00737700  1
  O  O14  1  0.34047200  0.45233700  0.62886600  1
  O  O15  1  0.65952800  0.54766300  0.37113400  1
  O  O16  1  0.73855600  0.26579000  0.06796000  1
  O  O17  1  0.26144400  0.73421000  0.93204000  1
  O  O18  1  0.77951500  0.44113000  0.74191800  1
  O  O19  1  0.22048500  0.55887000  0.25808200  1
  O  O20  1  0.35747300  0.06050500  0.71956500  1
  O  O21  1  0.64252700  0.93949500  0.28043500  1
