# generated using pymatgen
data_Na3MnO4
_symmetry_space_group_name_H-M   'P 1'
_cell_length_a   5.65314300
_cell_length_b   7.14966600
_cell_length_c   12.23968000
_cell_angle_alpha   90.00000000
_cell_angle_beta   90.00000000
_cell_angle_gamma   90.00000000
_symmetry_Int_Tables_number   1
_chemical_formula_structural   Na3MnO4
_chemical_formula_sum   'Na12 Mn4 O16'
_cell_volume   494.70441805
_cell_formula_units_Z   4
loop_
 _symmetry_equiv_pos_site_id
 _symmetry_equiv_pos_as_xyz
  1  'x, y, z'
loop_
 _atom_site_type_symbol
 _atom_site_label
 _atom_site_symmetry_multiplicity
 _atom_site_fract_x
 _atom_site_fract_y
 _atom_site_fract_z
 _atom_site_occupancy
  Na  Na0  1  0.70290600  0.49919000  0.66288300  1
  Na  Na1  1  0.29709400  0.50081000  0.33711700  1
  Na  Na2  1  0.20290600  0.50081000  0.83711700  1
  Na  Na3  1  0.29709400  0.99919000  0.33711700  1
  Na  Na4  1  0.79709400  0.49919000  0.16288300  1
  Na  Na5  1  0.70290600  0.00081000  0.66288300  1
  Na  Na6  1  0.79709400  0.00081000  0.16288300  1
  Na  Na7  1  0.20290600  0.99919000  0.83711700  1
  Na  Na8  1  0.28751700  0.75000000  0.57392500  1
  Na  Na9  1  0.71248400  0.25000000  0.42607500  1
  Na  Na10  1  0.78751600  0.25000000  0.92607500  1
  Na  Na11  1  0.21248300  0.75000000  0.07392500  1
  Mn  Mn12  1  0.69442400  0.75000000  0.91141700  1
  Mn  Mn13  1  0.30557600  0.25000000  0.08858300  1
  Mn  Mn14  1  0.19442400  0.25000000  0.58858300  1
  Mn  Mn15  1  0.80557600  0.75000000  0.41141700  1
  O  O16  1  0.38954900  0.75000000  0.90906100  1
  O  O17  1  0.61045100  0.25000000  0.09093900  1
  O  O18  1  0.88954900  0.25000000  0.59093900  1
  O  O19  1  0.11045100  0.75000000  0.40906100  1
  O  O20  1  0.79198100  0.94845400  0.84446600  1
  O  O21  1  0.20801900  0.05154600  0.15553400  1
  O  O22  1  0.29198100  0.05154600  0.65553400  1
  O  O23  1  0.20801900  0.44845400  0.15553400  1
  O  O24  1  0.70801900  0.94845400  0.34446600  1
  O  O25  1  0.79198100  0.55154600  0.84446600  1
  O  O26  1  0.70801900  0.55154600  0.34446600  1
  O  O27  1  0.29198100  0.44845400  0.65553400  1
  O  O28  1  0.70663200  0.75000000  0.54479900  1
  O  O29  1  0.29336800  0.25000000  0.45520100  1
  O  O30  1  0.20663200  0.25000000  0.95520100  1
  O  O31  1  0.79336800  0.75000000  0.04479900  1
