# generated using pymatgen
data_TmGaPt
_symmetry_space_group_name_H-M   'P 1'
_cell_length_a   4.42371900
_cell_length_b   6.81299300
_cell_length_c   7.66793500
_cell_angle_alpha   90.00000000
_cell_angle_beta   90.00000000
_cell_angle_gamma   90.00000000
_symmetry_Int_Tables_number   1
_chemical_formula_structural   TmGaPt
_chemical_formula_sum   'Tm4 Ga4 Pt4'
_cell_volume   231.10210312
_cell_formula_units_Z   4
loop_
 _symmetry_equiv_pos_site_id
 _symmetry_equiv_pos_as_xyz
  1  'x, y, z'
loop_
 _atom_site_type_symbol
 _atom_site_label
 _atom_site_symmetry_multiplicity
 _atom_site_fract_x
 _atom_site_fract_y
 _atom_site_fract_z
 _atom_site_occupancy
  Tm  Tm0  1  0.25000000  0.98574900  0.30222300  1
  Tm  Tm1  1  0.25000000  0.48574900  0.19777700  1
  Tm  Tm2  1  0.75000000  0.01425100  0.69777700  1
  Tm  Tm3  1  0.75000000  0.51425100  0.80222300  1
  Ga  Ga4  1  0.25000000  0.32702000  0.57362500  1
  Ga  Ga5  1  0.25000000  0.82702000  0.92637500  1
  Ga  Ga6  1  0.75000000  0.67298000  0.42637500  1
  Ga  Ga7  1  0.75000000  0.17298000  0.07362500  1
  Pt  Pt8  1  0.25000000  0.22583100  0.90055700  1
  Pt  Pt9  1  0.25000000  0.72583100  0.59944300  1
  Pt  Pt10  1  0.75000000  0.77416900  0.09944300  1
  Pt  Pt11  1  0.75000000  0.27416900  0.40055700  1
