# generated using pymatgen
data_LaCuNi4
_symmetry_space_group_name_H-M   'P 1'
_cell_length_a   5.01988754
_cell_length_b   5.01988754
_cell_length_c   3.99690400
_cell_angle_alpha   90.00000000
_cell_angle_beta   90.00000000
_cell_angle_gamma   119.99999393
_symmetry_Int_Tables_number   1
_chemical_formula_structural   LaCuNi4
_chemical_formula_sum   'La1 Cu1 Ni4'
_cell_volume   87.22527573
_cell_formula_units_Z   1
loop_
 _symmetry_equiv_pos_site_id
 _symmetry_equiv_pos_as_xyz
  1  'x, y, z'
loop_
 _atom_site_type_symbol
 _atom_site_label
 _atom_site_symmetry_multiplicity
 _atom_site_fract_x
 _atom_site_fract_y
 _atom_site_fract_z
 _atom_site_occupancy
  La  La0  1  0.33333300  0.66666700  0.00000000  1
  Cu  Cu1  1  0.66666700  0.33333300  0.00000000  1
  Ni  Ni2  1  0.00000000  0.00000000  0.00000000  1
  Ni  Ni3  1  0.33123700  0.16561900  0.50000000  1
  Ni  Ni4  1  0.83438100  0.16561900  0.50000000  1
  Ni  Ni5  1  0.83438100  0.66876300  0.50000000  1
