# generated using pymatgen
data_Sr2Ti2As2OF2
_symmetry_space_group_name_H-M   'P 1'
_cell_length_a   10.27223323
_cell_length_b   10.27223323
_cell_length_c   10.27223323
_cell_angle_alpha   157.20603477
_cell_angle_beta   157.20603477
_cell_angle_gamma   32.45556111
_symmetry_Int_Tables_number   1
_chemical_formula_structural   Sr2Ti2As2OF2
_chemical_formula_sum   'Sr2 Ti2 As2 O1 F2'
_cell_volume   162.55354731
_cell_formula_units_Z   1
loop_
 _symmetry_equiv_pos_site_id
 _symmetry_equiv_pos_as_xyz
  1  'x, y, z'
loop_
 _atom_site_type_symbol
 _atom_site_label
 _atom_site_symmetry_multiplicity
 _atom_site_fract_x
 _atom_site_fract_y
 _atom_site_fract_z
 _atom_site_occupancy
  Sr  Sr0  1  0.32329700  0.32329700  0.00000000  1
  Sr  Sr1  1  0.67670300  0.67670300  0.00000000  1
  Ti  Ti2  1  0.50000000  0.00000000  0.50000000  1
  Ti  Ti3  1  0.00000000  0.50000000  0.50000000  1
  As  As4  1  0.90850500  0.90850500  0.00000000  1
  As  As5  1  0.09149500  0.09149500  0.00000000  1
  O  O6  1  0.50000000  0.50000000  0.00000000  1
  F  F7  1  0.25000000  0.75000000  0.50000000  1
  F  F8  1  0.75000000  0.25000000  0.50000000  1
