# generated using pymatgen
data_H12PdC2(N3Cl2)2
_symmetry_space_group_name_H-M   'P 1'
_cell_length_a   10.85333900
_cell_length_b   10.85333900
_cell_length_c   11.27547500
_cell_angle_alpha   90.00000000
_cell_angle_beta   90.00000000
_cell_angle_gamma   90.00000000
_symmetry_Int_Tables_number   1
_chemical_formula_structural   H12PdC2(N3Cl2)2
_chemical_formula_sum   'H48 Pd4 C8 N24 Cl16'
_cell_volume   1328.19421060
_cell_formula_units_Z   4
loop_
 _symmetry_equiv_pos_site_id
 _symmetry_equiv_pos_as_xyz
  1  'x, y, z'
loop_
 _atom_site_type_symbol
 _atom_site_label
 _atom_site_symmetry_multiplicity
 _atom_site_fract_x
 _atom_site_fract_y
 _atom_site_fract_z
 _atom_site_occupancy
  H  H0  1  0.35022400  0.03137600  0.19841900  1
  H  H1  1  0.64977600  0.96862400  0.19841900  1
  H  H2  1  0.53137600  0.14977600  0.69841900  1
  H  H3  1  0.46862400  0.85022400  0.69841900  1
  H  H4  1  0.14977600  0.46862400  0.30158100  1
  H  H5  1  0.85022400  0.53137600  0.30158100  1
  H  H6  1  0.96862400  0.35022400  0.80158100  1
  H  H7  1  0.03137600  0.64977600  0.80158100  1
  H  H8  1  0.34831100  0.12646900  0.07193200  1
  H  H9  1  0.65168900  0.87353100  0.07193200  1
  H  H10  1  0.62646900  0.15168900  0.57193200  1
  H  H11  1  0.37353100  0.84831100  0.57193200  1
  H  H12  1  0.15168900  0.37353100  0.42806800  1
  H  H13  1  0.84831100  0.62646900  0.42806800  1
  H  H14  1  0.87353100  0.34831100  0.92806800  1
  H  H15  1  0.12646900  0.65168900  0.92806800  1
  H  H16  1  0.05390500  0.25443600  0.13737700  1
  H  H17  1  0.94609500  0.74556400  0.13737700  1
  H  H18  1  0.75443600  0.44609500  0.63737700  1
  H  H19  1  0.24556400  0.55390500  0.63737700  1
  H  H20  1  0.44609500  0.24556400  0.36262300  1
  H  H21  1  0.55390500  0.75443600  0.36262300  1
  H  H22  1  0.74556400  0.05390500  0.86262300  1
  H  H23  1  0.25443600  0.94609500  0.86262300  1
  H  H24  1  0.17283400  0.25029100  0.03435000  1
  H  H25  1  0.82716600  0.74970900  0.03435000  1
  H  H26  1  0.75029100  0.32716600  0.53435000  1
  H  H27  1  0.24970900  0.67283400  0.53435000  1
  H  H28  1  0.32716600  0.24970900  0.46565000  1
  H  H29  1  0.67283400  0.75029100  0.46565000  1
  H  H30  1  0.74970900  0.17283400  0.96565000  1
  H  H31  1  0.25029100  0.82716600  0.96565000  1
  H  H32  1  0.05975700  0.12498200  0.30635800  1
  H  H33  1  0.94024300  0.87501800  0.30635800  1
  H  H34  1  0.62498200  0.44024300  0.80635800  1
  H  H35  1  0.37501800  0.55975700  0.80635800  1
  H  H36  1  0.44024300  0.37501800  0.19364200  1
  H  H37  1  0.55975700  0.62498200  0.19364200  1
  H  H38  1  0.87501800  0.05975700  0.69364200  1
  H  H39  1  0.12498200  0.94024300  0.69364200  1
  H  H40  1  0.19017500  0.03203900  0.32862000  1
  H  H41  1  0.80982500  0.96796100  0.32862000  1
  H  H42  1  0.53203900  0.30982500  0.82862000  1
  H  H43  1  0.46796100  0.69017500  0.82862000  1
  H  H44  1  0.30982500  0.46796100  0.17138000  1
  H  H45  1  0.69017500  0.53203900  0.17138000  1
  H  H46  1  0.96796100  0.19017500  0.67138000  1
  H  H47  1  0.03203900  0.80982500  0.67138000  1
  Pd  Pd48  1  0.25000000  0.75000000  0.25000000  1
  Pd  Pd49  1  0.75000000  0.25000000  0.25000000  1
  Pd  Pd50  1  0.25000000  0.25000000  0.75000000  1
  Pd  Pd51  1  0.75000000  0.75000000  0.75000000  1
  C  C52  1  0.19286600  0.13217600  0.17570600  1
  C  C53  1  0.80713400  0.86782400  0.17570600  1
  C  C54  1  0.63217600  0.30713400  0.67570600  1
  C  C55  1  0.36782400  0.69286600  0.67570600  1
  C  C56  1  0.30713400  0.36782400  0.32429400  1
  C  C57  1  0.69286600  0.63217600  0.32429400  1
  C  C58  1  0.86782400  0.19286600  0.82429400  1
  C  C59  1  0.13217600  0.80713400  0.82429400  1
  N  N60  1  0.30477200  0.09198500  0.14470300  1
  N  N61  1  0.69522800  0.90801500  0.14470300  1
  N  N62  1  0.59198500  0.19522800  0.64470300  1
  N  N63  1  0.40801500  0.80477200  0.64470300  1
  N  N64  1  0.19522800  0.40801500  0.35529700  1
  N  N65  1  0.80477200  0.59198500  0.35529700  1
  N  N66  1  0.90801500  0.30477200  0.85529700  1
  N  N67  1  0.09198500  0.69522800  0.85529700  1
  N  N68  1  0.13179300  0.21204900  0.10711800  1
  N  N69  1  0.86820700  0.78795100  0.10711800  1
  N  N70  1  0.71204900  0.36820700  0.60711800  1
  N  N71  1  0.28795100  0.63179300  0.60711800  1
  N  N72  1  0.36820700  0.28795100  0.39288200  1
  N  N73  1  0.63179300  0.71204900  0.39288200  1
  N  N74  1  0.78795100  0.13179300  0.89288200  1
  N  N75  1  0.21204900  0.86820700  0.89288200  1
  N  N76  1  0.14122200  0.08997700  0.27583100  1
  N  N77  1  0.85877800  0.91002300  0.27583100  1
  N  N78  1  0.58997700  0.35877800  0.77583100  1
  N  N79  1  0.41002300  0.64122200  0.77583100  1
  N  N80  1  0.35877800  0.41002300  0.22416900  1
  N  N81  1  0.64122200  0.58997700  0.22416900  1
  N  N82  1  0.91002300  0.14122200  0.72416900  1
  N  N83  1  0.08997700  0.85877800  0.72416900  1
  Cl  Cl84  1  0.39734600  0.73176800  0.10032600  1
  Cl  Cl85  1  0.60265400  0.26823200  0.10032600  1
  Cl  Cl86  1  0.23176800  0.10265400  0.60032600  1
  Cl  Cl87  1  0.76823200  0.89734600  0.60032600  1
  Cl  Cl88  1  0.10265400  0.76823200  0.39967400  1
  Cl  Cl89  1  0.89734600  0.23176800  0.39967400  1
  Cl  Cl90  1  0.26823200  0.39734600  0.89967400  1
  Cl  Cl91  1  0.73176800  0.60265400  0.89967400  1
  Cl  Cl92  1  0.12204000  0.61297300  0.14839500  1
  Cl  Cl93  1  0.87796000  0.38702700  0.14839500  1
  Cl  Cl94  1  0.11297300  0.37796000  0.64839500  1
  Cl  Cl95  1  0.88702700  0.62204000  0.64839500  1
  Cl  Cl96  1  0.37796000  0.88702700  0.35160500  1
  Cl  Cl97  1  0.62204000  0.11297300  0.35160500  1
  Cl  Cl98  1  0.38702700  0.12204000  0.85160500  1
  Cl  Cl99  1  0.61297300  0.87796000  0.85160500  1
