# generated using pymatgen
data_SnPO4F
_symmetry_space_group_name_H-M   'P 1'
_cell_length_a   6.44638400
_cell_length_b   7.37770500
_cell_length_c   7.86012100
_cell_angle_alpha   90.00000000
_cell_angle_beta   90.00000000
_cell_angle_gamma   90.00000000
_symmetry_Int_Tables_number   1
_chemical_formula_structural   SnPO4F
_chemical_formula_sum   'Sn4 P4 O16 F4'
_cell_volume   373.82357773
_cell_formula_units_Z   4
loop_
 _symmetry_equiv_pos_site_id
 _symmetry_equiv_pos_as_xyz
  1  'x, y, z'
loop_
 _atom_site_type_symbol
 _atom_site_label
 _atom_site_symmetry_multiplicity
 _atom_site_fract_x
 _atom_site_fract_y
 _atom_site_fract_z
 _atom_site_occupancy
  Sn  Sn0  1  0.75000000  0.24547200  0.87206100  1
  Sn  Sn1  1  0.75000000  0.25452800  0.37206100  1
  Sn  Sn2  1  0.25000000  0.75452800  0.12793900  1
  Sn  Sn3  1  0.25000000  0.74547200  0.62793900  1
  P  P4  1  0.75000000  0.87491100  0.12825400  1
  P  P5  1  0.75000000  0.62508900  0.62825400  1
  P  P6  1  0.25000000  0.12508900  0.87174600  1
  P  P7  1  0.25000000  0.37491100  0.37174600  1
  O  O8  1  0.75000000  0.98689400  0.96151900  1
  O  O9  1  0.75000000  0.51310600  0.46151900  1
  O  O10  1  0.25000000  0.01310600  0.03848100  1
  O  O11  1  0.25000000  0.48689400  0.53848100  1
  O  O12  1  0.93798000  0.74496400  0.13075400  1
  O  O13  1  0.56202000  0.75503600  0.63075400  1
  O  O14  1  0.43798000  0.25503600  0.86924600  1
  O  O15  1  0.06202000  0.24496400  0.36924600  1
  O  O16  1  0.06202000  0.25503600  0.86924600  1
  O  O17  1  0.43798000  0.24496400  0.36924600  1
  O  O18  1  0.56202000  0.74496400  0.13075400  1
  O  O19  1  0.93798000  0.75503600  0.63075400  1
  O  O20  1  0.75000000  0.99504900  0.28877000  1
  O  O21  1  0.75000000  0.50495100  0.78877000  1
  O  O22  1  0.25000000  0.00495100  0.71123000  1
  O  O23  1  0.25000000  0.49504900  0.21123000  1
  F  F24  1  0.75000000  0.34727000  0.12041200  1
  F  F25  1  0.75000000  0.15273000  0.62041200  1
  F  F26  1  0.25000000  0.65273000  0.87958800  1
  F  F27  1  0.25000000  0.84727000  0.37958800  1
