# generated using pymatgen
data_La4Ti3(SO2)4
_symmetry_space_group_name_H-M   'P 1'
_cell_length_a   9.52494708
_cell_length_b   9.52494708
_cell_length_c   18.02294666
_cell_angle_alpha   70.37826317
_cell_angle_beta   70.37826317
_cell_angle_gamma   23.59653323
_symmetry_Int_Tables_number   1
_chemical_formula_structural   La4Ti3(SO2)4
_chemical_formula_sum   'La8 Ti6 S8 O16'
_cell_volume   614.80971718
_cell_formula_units_Z   2
loop_
 _symmetry_equiv_pos_site_id
 _symmetry_equiv_pos_as_xyz
  1  'x, y, z'
loop_
 _atom_site_type_symbol
 _atom_site_label
 _atom_site_symmetry_multiplicity
 _atom_site_fract_x
 _atom_site_fract_y
 _atom_site_fract_z
 _atom_site_occupancy
  La  La0  1  0.69034400  0.68743300  0.82310900  1
  La  La1  1  0.31256700  0.30965600  0.17689100  1
  La  La2  1  0.44985200  0.44974700  0.68437900  1
  La  La3  1  0.55025300  0.55014800  0.31562100  1
  La  La4  1  0.20259400  0.20255900  0.42904600  1
  La  La5  1  0.79744100  0.79740600  0.57095400  1
  La  La6  1  0.35790000  0.37317200  0.93744500  1
  La  La7  1  0.62682800  0.64210000  0.06255500  1
  Ti  Ti8  1  0.01635700  0.00378000  0.81152900  1
  Ti  Ti9  1  0.99622000  0.98364300  0.18847100  1
  Ti  Ti10  1  0.00009500  0.99990500  0.50000000  1
  Ti  Ti11  1  0.14986600  0.15030700  0.67115700  1
  Ti  Ti12  1  0.84969300  0.85013400  0.32884300  1
  Ti  Ti13  1  0.81639300  0.18360700  0.00000000  1
  S  S14  1  0.13238600  0.13470400  0.19052700  1
  S  S15  1  0.86529600  0.86761400  0.80947300  1
  S  S16  1  0.28328800  0.28341400  0.69815200  1
  S  S17  1  0.71658600  0.71671200  0.30184800  1
  S  S18  1  0.42289100  0.42294500  0.47171100  1
  S  S19  1  0.57705500  0.57710900  0.52828900  1
  S  S20  1  0.21464600  0.20840100  0.93575500  1
  S  S21  1  0.79159900  0.78535400  0.06424500  1
  O  O22  1  0.04188500  0.04457900  0.69294600  1
  O  O23  1  0.95542100  0.95811500  0.30705400  1
  O  O24  1  0.21547100  0.21533200  0.56488300  1
  O  O25  1  0.78466800  0.78452900  0.43511700  1
  O  O26  1  0.06739100  0.06733500  0.39512100  1
  O  O27  1  0.93266500  0.93260900  0.60487900  1
  O  O28  1  0.11510600  0.11296400  0.79748600  1
  O  O29  1  0.88703600  0.88489400  0.20251400  1
  O  O30  1  0.48899400  0.49802300  0.80939600  1
  O  O31  1  0.50197700  0.51100600  0.19060400  1
  O  O32  1  0.60120600  0.54756300  0.94838600  1
  O  O33  1  0.45243700  0.39879400  0.05161400  1
  O  O34  1  0.66501900  0.66476900  0.67815200  1
  O  O35  1  0.33523100  0.33498100  0.32184800  1
  O  O36  1  0.03237400  0.05283000  0.07564400  1
  O  O37  1  0.94717000  0.96762600  0.92435600  1
