# generated using pymatgen
data_K4MoO5
_symmetry_space_group_name_H-M   'P 1'
_cell_length_a   6.35817600
_cell_length_b   10.34093057
_cell_length_c   17.13259178
_cell_angle_alpha   94.29369525
_cell_angle_beta   92.55590296
_cell_angle_gamma   96.12802133
_symmetry_Int_Tables_number   1
_chemical_formula_structural   K4MoO5
_chemical_formula_sum   'K24 Mo6 O30'
_cell_volume   1115.30639218
_cell_formula_units_Z   6
loop_
 _symmetry_equiv_pos_site_id
 _symmetry_equiv_pos_as_xyz
  1  'x, y, z'
loop_
 _atom_site_type_symbol
 _atom_site_label
 _atom_site_symmetry_multiplicity
 _atom_site_fract_x
 _atom_site_fract_y
 _atom_site_fract_z
 _atom_site_occupancy
  K  K0  1  0.00937500  0.51109200  0.17924500  1
  K  K1  1  0.99062500  0.48890800  0.82075500  1
  K  K2  1  0.54153700  0.20255200  0.50441700  1
  K  K3  1  0.45846300  0.79744800  0.49558300  1
  K  K4  1  0.07555300  0.69195500  0.00399300  1
  K  K5  1  0.92444700  0.30804500  0.99600700  1
  K  K6  1  0.07624700  0.85102200  0.21856900  1
  K  K7  1  0.92375300  0.14897800  0.78143100  1
  K  K8  1  0.55353600  0.00120500  0.32005500  1
  K  K9  1  0.44646400  0.99879500  0.67994500  1
  K  K10  1  0.23059300  0.03793500  0.05792300  1
  K  K11  1  0.76940700  0.96206500  0.94207700  1
  K  K12  1  0.43316300  0.41045400  0.09452400  1
  K  K13  1  0.56683700  0.58954600  0.90547600  1
  K  K14  1  0.72151800  0.38585200  0.34625500  1
  K  K15  1  0.27848200  0.61414800  0.65374500  1
  K  K16  1  0.24579800  0.45469800  0.42853500  1
  K  K17  1  0.75420200  0.54530200  0.57146500  1
  K  K18  1  0.73309300  0.09572300  0.14723600  1
  K  K19  1  0.26690700  0.90427700  0.85276400  1
  K  K20  1  0.05797700  0.07994100  0.41628000  1
  K  K21  1  0.94202300  0.92005900  0.58372000  1
  K  K22  1  0.44953200  0.66264700  0.28956200  1
  K  K23  1  0.55046800  0.33735300  0.71043800  1
  Mo  Mo24  1  0.06338400  0.27405600  0.59205800  1
  Mo  Mo25  1  0.93661600  0.72594400  0.40794200  1
  Mo  Mo26  1  0.59998400  0.75670800  0.09658800  1
  Mo  Mo27  1  0.40001600  0.24329200  0.90341200  1
  Mo  Mo28  1  0.21787400  0.23385800  0.24919900  1
  Mo  Mo29  1  0.78212600  0.76614200  0.75080100  1
  O  O30  1  0.07050900  0.68341000  0.49920700  1
  O  O31  1  0.92949100  0.31659000  0.50079300  1
  O  O32  1  0.14009900  0.13457500  0.92410600  1
  O  O33  1  0.85990100  0.86542500  0.07589400  1
  O  O34  1  0.36069600  0.21788600  0.35089100  1
  O  O35  1  0.63930400  0.78211400  0.64910900  1
  O  O36  1  0.21496900  0.12779200  0.58227200  1
  O  O37  1  0.78503100  0.87220800  0.41772800  1
  O  O38  1  0.08562900  0.26052600  0.14628100  1
  O  O39  1  0.91437100  0.73947400  0.85371900  1
  O  O40  1  0.34372500  0.09461600  0.20560100  1
  O  O41  1  0.65627500  0.90538400  0.79439900  1
  O  O42  1  0.34032800  0.65892100  0.12415900  1
  O  O43  1  0.65967200  0.34107900  0.87584100  1
  O  O44  1  0.37319500  0.16068200  0.80238100  1
  O  O45  1  0.62680500  0.83931800  0.19761900  1
  O  O46  1  0.45824600  0.82001700  0.01152600  1
  O  O47  1  0.54175400  0.17998300  0.98847400  1
  O  O48  1  0.18367900  0.83876300  0.38061700  1
  O  O49  1  0.81632100  0.16123700  0.61938300  1
  O  O50  1  0.32451000  0.38327200  0.57313600  1
  O  O51  1  0.67549000  0.61672800  0.42686400  1
  O  O52  1  0.72709300  0.60406100  0.07314200  1
  O  O53  1  0.27290700  0.39593900  0.92685800  1
  O  O54  1  0.95208800  0.19345900  0.28790300  1
  O  O55  1  0.04791200  0.80654100  0.71209700  1
  O  O56  1  0.03777300  0.38066700  0.68345200  1
  O  O57  1  0.96222700  0.61933300  0.31654800  1
  O  O58  1  0.35189800  0.40469900  0.25261100  1
  O  O59  1  0.64810200  0.59530100  0.74738900  1
