# generated using pymatgen
data_Dy4CdNi
_symmetry_space_group_name_H-M   'P 1'
_cell_length_a   9.53028620
_cell_length_b   9.53028620
_cell_length_c   9.53028620
_cell_angle_alpha   60.00000000
_cell_angle_beta   60.00000000
_cell_angle_gamma   60.00000000
_symmetry_Int_Tables_number   1
_chemical_formula_structural   Dy4CdNi
_chemical_formula_sum   'Dy16 Cd4 Ni4'
_cell_volume   612.07244911
_cell_formula_units_Z   4
loop_
 _symmetry_equiv_pos_site_id
 _symmetry_equiv_pos_as_xyz
  1  'x, y, z'
loop_
 _atom_site_type_symbol
 _atom_site_label
 _atom_site_symmetry_multiplicity
 _atom_site_fract_x
 _atom_site_fract_y
 _atom_site_fract_z
 _atom_site_occupancy
  Dy  Dy0  1  0.59850000  0.59850000  0.59850000  1
  Dy  Dy1  1  0.59850000  0.59850000  0.20450100  1
  Dy  Dy2  1  0.59850000  0.20450100  0.59850000  1
  Dy  Dy3  1  0.20450100  0.59850000  0.59850000  1
  Dy  Dy4  1  0.06188200  0.43811800  0.43811800  1
  Dy  Dy5  1  0.43811800  0.06188200  0.06188200  1
  Dy  Dy6  1  0.43811800  0.06188200  0.43811800  1
  Dy  Dy7  1  0.06188200  0.43811800  0.06188200  1
  Dy  Dy8  1  0.43811800  0.43811800  0.06188200  1
  Dy  Dy9  1  0.06188200  0.06188200  0.43811800  1
  Dy  Dy10  1  0.18593400  0.81406600  0.81406600  1
  Dy  Dy11  1  0.81406600  0.18593400  0.18593400  1
  Dy  Dy12  1  0.81406600  0.18593400  0.81406600  1
  Dy  Dy13  1  0.18593400  0.81406600  0.18593400  1
  Dy  Dy14  1  0.81406600  0.81406600  0.18593400  1
  Dy  Dy15  1  0.18593400  0.18593400  0.81406600  1
  Cd  Cd16  1  0.83142700  0.83142700  0.83142700  1
  Cd  Cd17  1  0.83142700  0.83142700  0.50571900  1
  Cd  Cd18  1  0.83142700  0.50571900  0.83142700  1
  Cd  Cd19  1  0.50571900  0.83142700  0.83142700  1
  Ni  Ni20  1  0.39231000  0.39231000  0.39231000  1
  Ni  Ni21  1  0.39231000  0.39231000  0.82307000  1
  Ni  Ni22  1  0.39231000  0.82307000  0.39231000  1
  Ni  Ni23  1  0.82307000  0.39231000  0.39231000  1
