# generated using pymatgen
data_Na2Sr3P4
_symmetry_space_group_name_H-M   'P 1'
_cell_length_a   7.37551100
_cell_length_b   8.01130700
_cell_length_c   17.26478375
_cell_angle_alpha   62.37578296
_cell_angle_beta   90.00000000
_cell_angle_gamma   90.00000000
_symmetry_Int_Tables_number   1
_chemical_formula_structural   Na2Sr3P4
_chemical_formula_sum   'Na8 Sr12 P16'
_cell_volume   903.84533143
_cell_formula_units_Z   4
loop_
 _symmetry_equiv_pos_site_id
 _symmetry_equiv_pos_as_xyz
  1  'x, y, z'
loop_
 _atom_site_type_symbol
 _atom_site_label
 _atom_site_symmetry_multiplicity
 _atom_site_fract_x
 _atom_site_fract_y
 _atom_site_fract_z
 _atom_site_occupancy
  Na  Na0  1  0.86361300  0.25890300  0.25029900  1
  Na  Na1  1  0.36361300  0.74109700  0.24970100  1
  Na  Na2  1  0.13638700  0.74109700  0.74970100  1
  Na  Na3  1  0.63638700  0.25890300  0.75029900  1
  Na  Na4  1  0.68400900  0.05723500  0.12540400  1
  Na  Na5  1  0.18400900  0.94276500  0.37459600  1
  Na  Na6  1  0.31599100  0.94276500  0.87459600  1
  Na  Na7  1  0.81599100  0.05723500  0.62540400  1
  Sr  Sr8  1  0.53677300  0.59225200  0.10207500  1
  Sr  Sr9  1  0.03677300  0.40774800  0.39792500  1
  Sr  Sr10  1  0.46282100  0.70670400  0.60214300  1
  Sr  Sr11  1  0.96282100  0.29329600  0.89785700  1
  Sr  Sr12  1  0.46322700  0.40774800  0.89792500  1
  Sr  Sr13  1  0.96322700  0.59225200  0.60207500  1
  Sr  Sr14  1  0.53717900  0.29329600  0.39785700  1
  Sr  Sr15  1  0.03717900  0.70670400  0.10214300  1
  Sr  Sr16  1  0.31577800  0.18639800  0.62731000  1
  Sr  Sr17  1  0.81577800  0.81360200  0.87269000  1
  Sr  Sr18  1  0.68422200  0.81360200  0.37269000  1
  Sr  Sr19  1  0.18422200  0.18639800  0.12731000  1
  P  P20  1  0.86498000  0.43731100  0.03509900  1
  P  P21  1  0.36498000  0.56268900  0.46490100  1
  P  P22  1  0.13321100  0.99382700  0.53490100  1
  P  P23  1  0.63321100  0.00617300  0.96509900  1
  P  P24  1  0.13502000  0.56268900  0.96490100  1
  P  P25  1  0.63502000  0.43731100  0.53509900  1
  P  P26  1  0.86678900  0.00617300  0.46509900  1
  P  P27  1  0.36678900  0.99382700  0.03490100  1
  P  P28  1  0.97944300  0.82910900  0.24936400  1
  P  P29  1  0.47944300  0.17089100  0.25063600  1
  P  P30  1  0.02055700  0.17089100  0.75063600  1
  P  P31  1  0.52055700  0.82910900  0.74936400  1
  P  P32  1  0.75667100  0.63143700  0.25072700  1
  P  P33  1  0.25667100  0.36856300  0.24927300  1
  P  P34  1  0.24332900  0.36856300  0.74927300  1
  P  P35  1  0.74332900  0.63143700  0.75072700  1
