# generated using pymatgen
data_YbRhO3
_symmetry_space_group_name_H-M   'P 1'
_cell_length_a   5.27023700
_cell_length_b   5.64609100
_cell_length_c   7.60758200
_cell_angle_alpha   90.00000000
_cell_angle_beta   90.00000000
_cell_angle_gamma   90.00000000
_symmetry_Int_Tables_number   1
_chemical_formula_structural   YbRhO3
_chemical_formula_sum   'Yb4 Rh4 O12'
_cell_volume   226.37301827
_cell_formula_units_Z   4
loop_
 _symmetry_equiv_pos_site_id
 _symmetry_equiv_pos_as_xyz
  1  'x, y, z'
loop_
 _atom_site_type_symbol
 _atom_site_label
 _atom_site_symmetry_multiplicity
 _atom_site_fract_x
 _atom_site_fract_y
 _atom_site_fract_z
 _atom_site_occupancy
  Yb  Yb0  1  0.02219500  0.42739800  0.25000000  1
  Yb  Yb1  1  0.97780500  0.57260200  0.75000000  1
  Yb  Yb2  1  0.52219500  0.07260200  0.75000000  1
  Yb  Yb3  1  0.47780500  0.92739800  0.25000000  1
  Rh  Rh4  1  0.00000000  0.00000000  0.00000000  1
  Rh  Rh5  1  0.50000000  0.50000000  0.00000000  1
  Rh  Rh6  1  0.00000000  0.00000000  0.50000000  1
  Rh  Rh7  1  0.50000000  0.50000000  0.50000000  1
  O  O8  1  0.31313500  0.19462100  0.05600900  1
  O  O9  1  0.68686500  0.80537900  0.94399100  1
  O  O10  1  0.81313500  0.30537900  0.94399100  1
  O  O11  1  0.68686500  0.80537900  0.55600900  1
  O  O12  1  0.18686500  0.69462100  0.05600900  1
  O  O13  1  0.31313500  0.19462100  0.44399100  1
  O  O14  1  0.18686500  0.69462100  0.44399100  1
  O  O15  1  0.81313500  0.30537900  0.55600900  1
  O  O16  1  0.61318600  0.53976900  0.25000000  1
  O  O17  1  0.38681400  0.46023100  0.75000000  1
  O  O18  1  0.11318600  0.96023100  0.75000000  1
  O  O19  1  0.88681400  0.03976900  0.25000000  1
