# generated using pymatgen
data_VAg3O4
_symmetry_space_group_name_H-M   'P 1'
_cell_length_a   5.84125592
_cell_length_b   5.84125592
_cell_length_c   10.29693533
_cell_angle_alpha   66.47177400
_cell_angle_beta   66.47177400
_cell_angle_gamma   51.79740414
_symmetry_Int_Tables_number   1
_chemical_formula_structural   VAg3O4
_chemical_formula_sum   'V2 Ag6 O8'
_cell_volume   247.41426750
_cell_formula_units_Z   2
loop_
 _symmetry_equiv_pos_site_id
 _symmetry_equiv_pos_as_xyz
  1  'x, y, z'
loop_
 _atom_site_type_symbol
 _atom_site_label
 _atom_site_symmetry_multiplicity
 _atom_site_fract_x
 _atom_site_fract_y
 _atom_site_fract_z
 _atom_site_occupancy
  V  V0  1  0.44808300  0.55191700  0.75000000  1
  V  V1  1  0.55191700  0.44808300  0.25000000  1
  Ag  Ag2  1  0.78483300  0.69929400  0.90262500  1
  Ag  Ag3  1  0.69929400  0.78483300  0.40262500  1
  Ag  Ag4  1  0.21516700  0.30070600  0.09737500  1
  Ag  Ag5  1  0.30070600  0.21516700  0.59737500  1
  Ag  Ag6  1  0.00000000  0.00000000  0.00000000  1
  Ag  Ag7  1  0.00000000  0.00000000  0.50000000  1
  O  O8  1  0.63367700  0.13520600  0.20652200  1
  O  O9  1  0.86479400  0.36632300  0.29347800  1
  O  O10  1  0.36632300  0.86479400  0.79347800  1
  O  O11  1  0.13520600  0.63367700  0.70652200  1
  O  O12  1  0.55528600  0.25104300  0.89711000  1
  O  O13  1  0.44471400  0.74895700  0.10289000  1
  O  O14  1  0.74895700  0.44471400  0.60289000  1
  O  O15  1  0.25104300  0.55528600  0.39711000  1
