# generated using pymatgen
data_Y3Mn2Sb3O14
_symmetry_space_group_name_H-M   'P 1'
_cell_length_a   7.25509186
_cell_length_b   7.25506543
_cell_length_c   7.25505823
_cell_angle_alpha   117.98740876
_cell_angle_beta   62.01257651
_cell_angle_gamma   117.98735341
_symmetry_Int_Tables_number   1
_chemical_formula_structural   Y3Mn2Sb3O14
_chemical_formula_sum   'Y3 Mn2 Sb3 O14'
_cell_volume   282.18363884
_cell_formula_units_Z   1
loop_
 _symmetry_equiv_pos_site_id
 _symmetry_equiv_pos_as_xyz
  1  'x, y, z'
loop_
 _atom_site_type_symbol
 _atom_site_label
 _atom_site_symmetry_multiplicity
 _atom_site_fract_x
 _atom_site_fract_y
 _atom_site_fract_z
 _atom_site_occupancy
  Y  Y0  1  0.99999400  0.49999700  0.00000300  1
  Y  Y1  1  0.50000600  0.00000300  0.00000000  1
  Y  Y2  1  0.49999600  0.49999700  0.50000000  1
  Mn  Mn3  1  0.49998900  0.50002000  0.99998600  1
  Mn  Mn4  1  0.00002300  0.00001700  0.50000600  1
  Sb  Sb5  1  0.49999800  0.99999900  0.50000000  1
  Sb  Sb6  1  0.00000100  0.49999700  0.50000200  1
  Sb  Sb7  1  0.00000000  0.99999900  0.99999900  1
  O  O8  1  0.61913800  0.38086200  0.11914400  1
  O  O9  1  0.38086000  0.61913700  0.88085800  1
  O  O10  1  0.08341500  0.32221300  0.17778800  1
  O  O11  1  0.67778600  0.91658300  0.17778600  1
  O  O12  1  0.67778800  0.32221200  0.58341600  1
  O  O13  1  0.91658400  0.67778400  0.82221200  1
  O  O14  1  0.32221400  0.08341300  0.82221500  1
  O  O15  1  0.32221400  0.67778600  0.41658500  1
  O  O16  1  0.64132600  0.90300400  0.59699100  1
  O  O17  1  0.09699300  0.35866900  0.59699100  1
  O  O18  1  0.09699100  0.90300300  0.14132700  1
  O  O19  1  0.35867100  0.09699100  0.40301000  1
  O  O20  1  0.90300800  0.64132600  0.40301000  1
  O  O21  1  0.90300600  0.09699000  0.85867100  1
