# generated using pymatgen
data_Hf4GeSb7
_symmetry_space_group_name_H-M   'P 1'
_cell_length_a   3.97645000
_cell_length_b   7.37766300
_cell_length_c   9.56251720
_cell_angle_alpha   89.51457024
_cell_angle_beta   90.00000000
_cell_angle_gamma   90.00000000
_symmetry_Int_Tables_number   1
_chemical_formula_structural   Hf4GeSb7
_chemical_formula_sum   'Hf4 Ge1 Sb7'
_cell_volume   280.52461927
_cell_formula_units_Z   1
loop_
 _symmetry_equiv_pos_site_id
 _symmetry_equiv_pos_as_xyz
  1  'x, y, z'
loop_
 _atom_site_type_symbol
 _atom_site_label
 _atom_site_symmetry_multiplicity
 _atom_site_fract_x
 _atom_site_fract_y
 _atom_site_fract_z
 _atom_site_occupancy
  Hf  Hf0  1  0.00000000  0.75805700  0.65945200  1
  Hf  Hf1  1  0.00000000  0.26441600  0.83186000  1
  Hf  Hf2  1  0.50000000  0.24152200  0.34284800  1
  Hf  Hf3  1  0.50000000  0.73966700  0.16466000  1
  Ge  Ge4  1  0.00000000  0.36808100  0.54642800  1
  Sb  Sb5  1  0.00000000  0.43455900  0.15034300  1
  Sb  Sb6  1  0.00000000  0.93248600  0.35397600  1
  Sb  Sb7  1  0.50000000  0.56711100  0.84896900  1
  Sb  Sb8  1  0.50000000  0.07700400  0.64242400  1
  Sb  Sb9  1  0.00000000  0.86936800  0.95241100  1
  Sb  Sb10  1  0.50000000  0.61356800  0.45990600  1
  Sb  Sb11  1  0.50000000  0.13415800  0.04672300  1
