# generated using pymatgen
data_Ti11CuP8
_symmetry_space_group_name_H-M   'P 1'
_cell_length_a   3.42848500
_cell_length_b   9.42162700
_cell_length_c   18.46981200
_cell_angle_alpha   90.00000000
_cell_angle_beta   90.00000000
_cell_angle_gamma   90.00000000
_symmetry_Int_Tables_number   1
_chemical_formula_structural   Ti11CuP8
_chemical_formula_sum   'Ti22 Cu2 P16'
_cell_volume   596.61014667
_cell_formula_units_Z   2
loop_
 _symmetry_equiv_pos_site_id
 _symmetry_equiv_pos_as_xyz
  1  'x, y, z'
loop_
 _atom_site_type_symbol
 _atom_site_label
 _atom_site_symmetry_multiplicity
 _atom_site_fract_x
 _atom_site_fract_y
 _atom_site_fract_z
 _atom_site_occupancy
  Ti  Ti0  1  0.50000000  0.27072600  0.30258100  1
  Ti  Ti1  1  0.50000000  0.72927400  0.69741900  1
  Ti  Ti2  1  0.50000000  0.22927400  0.80258100  1
  Ti  Ti3  1  0.50000000  0.77072600  0.19741900  1
  Ti  Ti4  1  0.00000000  0.18803100  0.43146200  1
  Ti  Ti5  1  0.00000000  0.81196900  0.56853800  1
  Ti  Ti6  1  0.00000000  0.31196900  0.93146200  1
  Ti  Ti7  1  0.00000000  0.68803100  0.06853800  1
  Ti  Ti8  1  0.00000000  0.35559100  0.08772900  1
  Ti  Ti9  1  0.00000000  0.64440900  0.91227100  1
  Ti  Ti10  1  0.00000000  0.14440900  0.58772900  1
  Ti  Ti11  1  0.00000000  0.85559100  0.41227100  1
  Ti  Ti12  1  0.50000000  0.10189800  0.14392900  1
  Ti  Ti13  1  0.50000000  0.89810200  0.85607100  1
  Ti  Ti14  1  0.50000000  0.39810200  0.64392900  1
  Ti  Ti15  1  0.50000000  0.60189800  0.35607100  1
  Ti  Ti16  1  0.00000000  0.00886900  0.27052200  1
  Ti  Ti17  1  0.00000000  0.99113100  0.72947800  1
  Ti  Ti18  1  0.00000000  0.49113100  0.77052200  1
  Ti  Ti19  1  0.00000000  0.50886900  0.22947800  1
  Ti  Ti20  1  0.00000000  0.00000000  0.00000000  1
  Ti  Ti21  1  0.00000000  0.50000000  0.50000000  1
  Cu  Cu22  1  0.50000000  0.00000000  0.50000000  1
  Cu  Cu23  1  0.50000000  0.50000000  0.00000000  1
  P  P24  1  0.00000000  0.24735600  0.20696500  1
  P  P25  1  0.00000000  0.75264400  0.79303500  1
  P  P26  1  0.00000000  0.25264400  0.70696500  1
  P  P27  1  0.00000000  0.74735600  0.29303500  1
  P  P28  1  0.50000000  0.03937300  0.36822300  1
  P  P29  1  0.50000000  0.96062700  0.63177700  1
  P  P30  1  0.50000000  0.46062700  0.86822300  1
  P  P31  1  0.50000000  0.53937300  0.13177700  1
  P  P32  1  0.50000000  0.20711700  0.01925200  1
  P  P33  1  0.50000000  0.79288300  0.98074800  1
  P  P34  1  0.50000000  0.29288300  0.51925200  1
  P  P35  1  0.50000000  0.70711700  0.48074800  1
  P  P36  1  0.00000000  0.41621200  0.36803900  1
  P  P37  1  0.00000000  0.58378800  0.63196100  1
  P  P38  1  0.00000000  0.08378800  0.86803900  1
  P  P39  1  0.00000000  0.91621200  0.13196100  1
