# generated using pymatgen
data_UTaN2
_symmetry_space_group_name_H-M   'P 1'
_cell_length_a   3.23316900
_cell_length_b   5.64134100
_cell_length_c   11.06262500
_cell_angle_alpha   90.00000000
_cell_angle_beta   90.00000000
_cell_angle_gamma   90.00000000
_symmetry_Int_Tables_number   1
_chemical_formula_structural   UTaN2
_chemical_formula_sum   'U4 Ta4 N8'
_cell_volume   201.77574021
_cell_formula_units_Z   4
loop_
 _symmetry_equiv_pos_site_id
 _symmetry_equiv_pos_as_xyz
  1  'x, y, z'
loop_
 _atom_site_type_symbol
 _atom_site_label
 _atom_site_symmetry_multiplicity
 _atom_site_fract_x
 _atom_site_fract_y
 _atom_site_fract_z
 _atom_site_occupancy
  U  U0  1  0.25000000  0.57928000  0.85701900  1
  U  U1  1  0.75000000  0.42072000  0.14298100  1
  U  U2  1  0.75000000  0.92072000  0.35701900  1
  U  U3  1  0.25000000  0.07928000  0.64298100  1
  Ta  Ta4  1  0.25000000  0.92317200  0.10263000  1
  Ta  Ta5  1  0.75000000  0.07682800  0.89737000  1
  Ta  Ta6  1  0.75000000  0.57682800  0.60263000  1
  Ta  Ta7  1  0.25000000  0.42317200  0.39737000  1
  N  N8  1  0.25000000  0.66216000  0.24507900  1
  N  N9  1  0.75000000  0.33784000  0.75492100  1
  N  N10  1  0.75000000  0.83784000  0.74507900  1
  N  N11  1  0.25000000  0.16216000  0.25492100  1
  N  N12  1  0.25000000  0.75914300  0.50422600  1
  N  N13  1  0.75000000  0.24085700  0.49577400  1
  N  N14  1  0.75000000  0.74085700  0.00422600  1
  N  N15  1  0.25000000  0.25914300  0.99577400  1
