# generated using pymatgen
data_Nd2C3
_symmetry_space_group_name_H-M   'P 1'
_cell_length_a   7.46237116
_cell_length_b   7.46237116
_cell_length_c   7.46237116
_cell_angle_alpha   109.47122063
_cell_angle_beta   109.47122063
_cell_angle_gamma   109.47122063
_symmetry_Int_Tables_number   1
_chemical_formula_structural   Nd2C3
_chemical_formula_sum   'Nd8 C12'
_cell_volume   319.89588076
_cell_formula_units_Z   4
loop_
 _symmetry_equiv_pos_site_id
 _symmetry_equiv_pos_as_xyz
  1  'x, y, z'
loop_
 _atom_site_type_symbol
 _atom_site_label
 _atom_site_symmetry_multiplicity
 _atom_site_fract_x
 _atom_site_fract_y
 _atom_site_fract_z
 _atom_site_occupancy
  Nd  Nd0  1  0.50000000  0.00000000  0.60336400  1
  Nd  Nd1  1  0.10336400  0.50000000  0.00000000  1
  Nd  Nd2  1  0.39663600  0.39663600  0.39663600  1
  Nd  Nd3  1  0.00000000  0.10336400  0.50000000  1
  Nd  Nd4  1  0.89663600  0.89663600  0.89663600  1
  Nd  Nd5  1  0.00000000  0.60336400  0.50000000  1
  Nd  Nd6  1  0.60336400  0.50000000  0.00000000  1
  Nd  Nd7  1  0.50000000  0.00000000  0.10336400  1
  C  C8  1  0.79781700  0.25000000  0.04781700  1
  C  C9  1  0.95218300  0.25000000  0.20218300  1
  C  C10  1  0.75000000  0.29781700  0.54781700  1
  C  C11  1  0.20218300  0.95218300  0.25000000  1
  C  C12  1  0.25000000  0.20218300  0.95218300  1
  C  C13  1  0.29781700  0.54781700  0.75000000  1
  C  C14  1  0.70218300  0.75000000  0.45218300  1
  C  C15  1  0.04781700  0.79781700  0.25000000  1
  C  C16  1  0.54781700  0.75000000  0.29781700  1
  C  C17  1  0.75000000  0.45218300  0.70218300  1
  C  C18  1  0.25000000  0.04781700  0.79781700  1
  C  C19  1  0.45218300  0.70218300  0.75000000  1
