# generated using pymatgen
data_KCr3O8
_symmetry_space_group_name_H-M   'P 1'
_cell_length_a   5.23204083
_cell_length_b   5.23204051
_cell_length_c   15.72842237
_cell_angle_alpha   86.89365899
_cell_angle_beta   86.89368361
_cell_angle_gamma   63.86079532
_symmetry_Int_Tables_number   1
_chemical_formula_structural   KCr3O8
_chemical_formula_sum   'K2 Cr6 O16'
_cell_volume   385.73075420
_cell_formula_units_Z   2
loop_
 _symmetry_equiv_pos_site_id
 _symmetry_equiv_pos_as_xyz
  1  'x, y, z'
loop_
 _atom_site_type_symbol
 _atom_site_label
 _atom_site_symmetry_multiplicity
 _atom_site_fract_x
 _atom_site_fract_y
 _atom_site_fract_z
 _atom_site_occupancy
  K  K0  1  0.00000200  0.00000300  0.00000500  1
  K  K1  1  0.00000500  0.00000200  0.49999500  1
  Cr  Cr2  1  0.99999400  0.99999900  0.25000100  1
  Cr  Cr3  1  0.99999600  0.99999300  0.75000000  1
  Cr  Cr4  1  0.36673400  0.36674000  0.64756800  1
  Cr  Cr5  1  0.63326600  0.63326600  0.35241900  1
  Cr  Cr6  1  0.63326600  0.63326200  0.85245300  1
  Cr  Cr7  1  0.36674000  0.36673700  0.14756400  1
  O  O8  1  0.22046900  0.22046400  0.21883300  1
  O  O9  1  0.22047600  0.22047800  0.71883300  1
  O  O10  1  0.77952500  0.77952500  0.28116000  1
  O  O11  1  0.77952500  0.77952200  0.78117300  1
  O  O12  1  0.68815900  0.68815800  0.44893700  1
  O  O13  1  0.68815400  0.68815300  0.94894000  1
  O  O14  1  0.31184600  0.31184500  0.05106500  1
  O  O15  1  0.31184300  0.31184400  0.55105800  1
  O  O16  1  0.77876500  0.27655700  0.34001900  1
  O  O17  1  0.77876900  0.27654800  0.84002600  1
  O  O18  1  0.72345100  0.22123600  0.15997200  1
  O  O19  1  0.72344600  0.22123100  0.65998100  1
  O  O20  1  0.22123200  0.72345700  0.15997200  1
  O  O21  1  0.22123400  0.72344400  0.65998100  1
  O  O22  1  0.27655700  0.77876700  0.34001900  1
  O  O23  1  0.27654700  0.77876700  0.84002600  1
