# generated using pymatgen
data_KSi2BO6
_symmetry_space_group_name_H-M   'P 1'
_cell_length_a   4.77684000
_cell_length_b   10.09677300
_cell_length_c   10.56476500
_cell_angle_alpha   90.00000000
_cell_angle_beta   90.00000000
_cell_angle_gamma   90.00000000
_symmetry_Int_Tables_number   1
_chemical_formula_structural   KSi2BO6
_chemical_formula_sum   'K4 Si8 B4 O24'
_cell_volume   509.54568523
_cell_formula_units_Z   4
loop_
 _symmetry_equiv_pos_site_id
 _symmetry_equiv_pos_as_xyz
  1  'x, y, z'
loop_
 _atom_site_type_symbol
 _atom_site_label
 _atom_site_symmetry_multiplicity
 _atom_site_fract_x
 _atom_site_fract_y
 _atom_site_fract_z
 _atom_site_occupancy
  K  K0  1  0.79751000  0.96564300  0.81108500  1
  K  K1  1  0.70249000  0.03435700  0.31108500  1
  K  K2  1  0.29751000  0.53435700  0.18891500  1
  K  K3  1  0.20249000  0.46564300  0.68891500  1
  Si  Si4  1  0.78570100  0.60901300  0.93506300  1
  Si  Si5  1  0.71429900  0.39098700  0.43506300  1
  Si  Si6  1  0.28570100  0.89098700  0.06493700  1
  Si  Si7  1  0.21429900  0.10901300  0.56493700  1
  Si  Si8  1  0.26609900  0.80198400  0.57554700  1
  Si  Si9  1  0.23390100  0.19801600  0.07554700  1
  Si  Si10  1  0.76609900  0.69801600  0.42445300  1
  Si  Si11  1  0.73390100  0.30198400  0.92445300  1
  B  B12  1  0.28908700  0.73133300  0.84310800  1
  B  B13  1  0.21091300  0.26866700  0.34310800  1
  B  B14  1  0.78908700  0.76866700  0.15689200  1
  B  B15  1  0.71091300  0.23133300  0.65689200  1
  O  O16  1  0.98929600  0.69386400  0.84185300  1
  O  O17  1  0.51070400  0.30613600  0.34185300  1
  O  O18  1  0.48929600  0.80613600  0.15814700  1
  O  O19  1  0.01070400  0.19386400  0.65814700  1
  O  O20  1  0.33041700  0.85630600  0.91492300  1
  O  O21  1  0.16958300  0.14369400  0.41492300  1
  O  O22  1  0.83041700  0.64369400  0.08507700  1
  O  O23  1  0.66958300  0.35630600  0.58507700  1
  O  O24  1  0.45737200  0.62148900  0.89475400  1
  O  O25  1  0.04262800  0.37851100  0.39475400  1
  O  O26  1  0.95737200  0.87851100  0.10524600  1
  O  O27  1  0.54262800  0.12148900  0.60524600  1
  O  O28  1  0.38249500  0.75551900  0.71126400  1
  O  O29  1  0.11750500  0.24448100  0.21126400  1
  O  O30  1  0.88249500  0.74448100  0.28873600  1
  O  O31  1  0.61750500  0.25551900  0.78873600  1
  O  O32  1  0.02477900  0.69760700  0.52684900  1
  O  O33  1  0.47522100  0.30239300  0.02684900  1
  O  O34  1  0.52477900  0.80239300  0.47315100  1
  O  O35  1  0.97522100  0.19760700  0.97315100  1
  O  O36  1  0.12920000  0.95044500  0.57927900  1
  O  O37  1  0.37080000  0.04955500  0.07927900  1
  O  O38  1  0.62920000  0.54955500  0.42072100  1
  O  O39  1  0.87080000  0.45044500  0.92072100  1
