# generated using pymatgen
data_EuGe3Rh
_symmetry_space_group_name_H-M   'P 1'
_cell_length_a   5.98046615
_cell_length_b   5.98046615
_cell_length_c   5.98046615
_cell_angle_alpha   136.33384667
_cell_angle_beta   136.33384667
_cell_angle_gamma   63.46462322
_symmetry_Int_Tables_number   1
_chemical_formula_structural   EuGe3Rh
_chemical_formula_sum   'Eu1 Ge3 Rh1'
_cell_volume   100.64868177
_cell_formula_units_Z   1
loop_
 _symmetry_equiv_pos_site_id
 _symmetry_equiv_pos_as_xyz
  1  'x, y, z'
loop_
 _atom_site_type_symbol
 _atom_site_label
 _atom_site_symmetry_multiplicity
 _atom_site_fract_x
 _atom_site_fract_y
 _atom_site_fract_z
 _atom_site_occupancy
  Eu  Eu0  1  0.00055800  0.00055800  0.00000000  1
  Ge  Ge1  1  0.24548700  0.74548700  0.50000000  1
  Ge  Ge2  1  0.74548700  0.24548700  0.50000000  1
  Ge  Ge3  1  0.58587100  0.58587100  0.00000000  1
  Rh  Rh4  1  0.34839700  0.34839700  0.00000000  1
