# generated using pymatgen
data_BaTh2S5
_symmetry_space_group_name_H-M   'P 1'
_cell_length_a   7.69538700
_cell_length_b   8.67420100
_cell_length_c   12.16835936
_cell_angle_alpha   89.70493038
_cell_angle_beta   90.00000000
_cell_angle_gamma   90.00000000
_symmetry_Int_Tables_number   1
_chemical_formula_structural   BaTh2S5
_chemical_formula_sum   'Ba4 Th8 S20'
_cell_volume   812.24344414
_cell_formula_units_Z   4
loop_
 _symmetry_equiv_pos_site_id
 _symmetry_equiv_pos_as_xyz
  1  'x, y, z'
loop_
 _atom_site_type_symbol
 _atom_site_label
 _atom_site_symmetry_multiplicity
 _atom_site_fract_x
 _atom_site_fract_y
 _atom_site_fract_z
 _atom_site_occupancy
  Ba  Ba0  1  0.05096300  0.49058500  0.33149400  1
  Ba  Ba1  1  0.55096300  0.50941500  0.16850600  1
  Ba  Ba2  1  0.94903700  0.50941500  0.66850600  1
  Ba  Ba3  1  0.44903700  0.49058500  0.83149400  1
  Th  Th4  1  0.02106500  0.99814200  0.32116400  1
  Th  Th5  1  0.52106500  0.00185800  0.17883600  1
  Th  Th6  1  0.97893500  0.00185800  0.67883600  1
  Th  Th7  1  0.47893500  0.99814200  0.82116400  1
  Th  Th8  1  0.06930600  0.75286400  0.00890200  1
  Th  Th9  1  0.56930600  0.24713600  0.49109800  1
  Th  Th10  1  0.93069400  0.24713600  0.99109800  1
  Th  Th11  1  0.43069400  0.75286400  0.50890200  1
  S  S12  1  0.66058700  0.95942700  0.39950300  1
  S  S13  1  0.16058700  0.04057300  0.10049700  1
  S  S14  1  0.33941300  0.04057300  0.60049700  1
  S  S15  1  0.83941300  0.95942700  0.89950300  1
  S  S16  1  0.45151100  0.78960300  0.00190300  1
  S  S17  1  0.95151100  0.21039700  0.49809700  1
  S  S18  1  0.54848900  0.21039700  0.99809700  1
  S  S19  1  0.04848900  0.78960300  0.50190300  1
  S  S20  1  0.83491300  0.78486800  0.18768000  1
  S  S21  1  0.33491300  0.21513200  0.31232000  1
  S  S22  1  0.16508700  0.21513200  0.81232000  1
  S  S23  1  0.66508700  0.78486800  0.68768000  1
  S  S24  1  0.30893100  0.77412800  0.28413300  1
  S  S25  1  0.80893100  0.22587200  0.21586700  1
  S  S26  1  0.69106900  0.22587200  0.71586700  1
  S  S27  1  0.19106900  0.77412800  0.78413300  1
  S  S28  1  0.17504000  0.46338100  0.07714600  1
  S  S29  1  0.67504000  0.53661900  0.42285400  1
  S  S30  1  0.82496000  0.53661900  0.92285400  1
  S  S31  1  0.32496000  0.46338100  0.57714600  1
