# generated using pymatgen
data_Nd(TmS2)3
_symmetry_space_group_name_H-M   'P 1'
_cell_length_a   3.95216600
_cell_length_b   10.99265100
_cell_length_c   11.27326352
_cell_angle_alpha   71.07098509
_cell_angle_beta   90.00000000
_cell_angle_gamma   90.00000000
_symmetry_Int_Tables_number   1
_chemical_formula_structural   Nd(TmS2)3
_chemical_formula_sum   'Nd2 Tm6 S12'
_cell_volume   463.27859780
_cell_formula_units_Z   2
loop_
 _symmetry_equiv_pos_site_id
 _symmetry_equiv_pos_as_xyz
  1  'x, y, z'
loop_
 _atom_site_type_symbol
 _atom_site_label
 _atom_site_symmetry_multiplicity
 _atom_site_fract_x
 _atom_site_fract_y
 _atom_site_fract_z
 _atom_site_occupancy
  Nd  Nd0  1  0.25000000  0.94950800  0.69606600  1
  Nd  Nd1  1  0.75000000  0.05049200  0.30393400  1
  Tm  Tm2  1  0.25000000  0.55621300  0.83364100  1
  Tm  Tm3  1  0.75000000  0.44378700  0.16635900  1
  Tm  Tm4  1  0.25000000  0.32007700  0.50121500  1
  Tm  Tm5  1  0.75000000  0.67992300  0.49878500  1
  Tm  Tm6  1  0.25000000  0.83929900  0.08699700  1
  Tm  Tm7  1  0.75000000  0.16070100  0.91300300  1
  S  S8  1  0.25000000  0.52096100  0.61206800  1
  S  S9  1  0.75000000  0.47903900  0.38793200  1
  S  S10  1  0.25000000  0.08222100  0.09322400  1
  S  S11  1  0.75000000  0.91777900  0.90677600  1
  S  S12  1  0.25000000  0.60687600  0.05661000  1
  S  S13  1  0.75000000  0.39312400  0.94339000  1
  S  S14  1  0.25000000  0.26757000  0.27055200  1
  S  S15  1  0.75000000  0.73243000  0.72944800  1
  S  S16  1  0.25000000  0.88071700  0.46358700  1
  S  S17  1  0.75000000  0.11928300  0.53641300  1
  S  S18  1  0.25000000  0.19735100  0.75117100  1
  S  S19  1  0.75000000  0.80264900  0.24882900  1
