# generated using pymatgen
data_LaGa2Ni
_symmetry_space_group_name_H-M   'P 1'
_cell_length_a   9.05551195
_cell_length_b   9.05551195
_cell_length_c   4.22499100
_cell_angle_alpha   90.00000000
_cell_angle_beta   90.00000000
_cell_angle_gamma   152.56584305
_symmetry_Int_Tables_number   1
_chemical_formula_structural   LaGa2Ni
_chemical_formula_sum   'La2 Ga4 Ni2'
_cell_volume   159.62368429
_cell_formula_units_Z   2
loop_
 _symmetry_equiv_pos_site_id
 _symmetry_equiv_pos_as_xyz
  1  'x, y, z'
loop_
 _atom_site_type_symbol
 _atom_site_label
 _atom_site_symmetry_multiplicity
 _atom_site_fract_x
 _atom_site_fract_y
 _atom_site_fract_z
 _atom_site_occupancy
  La  La0  1  0.14094500  0.85905500  0.00000000  1
  La  La1  1  0.85905500  0.14094500  0.00000000  1
  Ga  Ga2  1  0.50000000  0.50000000  0.00000000  1
  Ga  Ga3  1  0.00000000  0.00000000  0.50000000  1
  Ga  Ga4  1  0.29119900  0.70880100  0.50000000  1
  Ga  Ga5  1  0.70880100  0.29119900  0.50000000  1
  Ni  Ni6  1  0.42921400  0.57078600  0.50000000  1
  Ni  Ni7  1  0.57078600  0.42921400  0.50000000  1
