# generated using pymatgen
data_Sm2(Ga3Rh)3
_symmetry_space_group_name_H-M   'P 1'
_cell_length_a   7.60205145
_cell_length_b   7.60205145
_cell_length_c   9.61859800
_cell_angle_alpha   90.00000000
_cell_angle_beta   90.00000000
_cell_angle_gamma   119.40996785
_symmetry_Int_Tables_number   1
_chemical_formula_structural   Sm2(Ga3Rh)3
_chemical_formula_sum   'Sm4 Ga18 Rh6'
_cell_volume   484.23430456
_cell_formula_units_Z   2
loop_
 _symmetry_equiv_pos_site_id
 _symmetry_equiv_pos_as_xyz
  1  'x, y, z'
loop_
 _atom_site_type_symbol
 _atom_site_label
 _atom_site_symmetry_multiplicity
 _atom_site_fract_x
 _atom_site_fract_y
 _atom_site_fract_z
 _atom_site_occupancy
  Sm  Sm0  1  0.99655200  0.66807400  0.25000000  1
  Sm  Sm1  1  0.00344800  0.33192600  0.75000000  1
  Sm  Sm2  1  0.66807400  0.99655200  0.25000000  1
  Sm  Sm3  1  0.33192600  0.00344800  0.75000000  1
  Ga  Ga4  1  0.12564900  0.12564900  0.25000000  1
  Ga  Ga5  1  0.87435100  0.87435100  0.75000000  1
  Ga  Ga6  1  0.00242200  0.33487800  0.07663000  1
  Ga  Ga7  1  0.99757800  0.66512200  0.92337000  1
  Ga  Ga8  1  0.99757800  0.66512200  0.57663000  1
  Ga  Ga9  1  0.33487800  0.00242200  0.42337000  1
  Ga  Ga10  1  0.00242200  0.33487800  0.42337000  1
  Ga  Ga11  1  0.66512200  0.99757800  0.57663000  1
  Ga  Ga12  1  0.66512200  0.99757800  0.92337000  1
  Ga  Ga13  1  0.33487800  0.00242200  0.07663000  1
  Ga  Ga14  1  0.33351100  0.33351100  0.56017900  1
  Ga  Ga15  1  0.66648900  0.66648900  0.43982100  1
  Ga  Ga16  1  0.66648900  0.66648900  0.06017900  1
  Ga  Ga17  1  0.33351100  0.33351100  0.93982100  1
  Ga  Ga18  1  0.33694700  0.54609800  0.25000000  1
  Ga  Ga19  1  0.66305300  0.45390200  0.75000000  1
  Ga  Ga20  1  0.54609800  0.33694700  0.25000000  1
  Ga  Ga21  1  0.45390200  0.66305300  0.75000000  1
  Rh  Rh22  1  0.67118300  0.32881700  0.00000000  1
  Rh  Rh23  1  0.32881700  0.67118300  0.00000000  1
  Rh  Rh24  1  0.32881700  0.67118300  0.50000000  1
  Rh  Rh25  1  0.67118300  0.32881700  0.50000000  1
  Rh  Rh26  1  0.00000000  0.00000000  0.00000000  1
  Rh  Rh27  1  0.00000000  0.00000000  0.50000000  1
