# generated using pymatgen
data_Tb2MnGa6
_symmetry_space_group_name_H-M   'P 1'
_cell_length_a   6.20664250
_cell_length_b   6.20664250
_cell_length_c   6.20664250
_cell_angle_alpha   60.00000000
_cell_angle_beta   60.00000000
_cell_angle_gamma   60.00000000
_symmetry_Int_Tables_number   1
_chemical_formula_structural   Tb2MnGa6
_chemical_formula_sum   'Tb2 Mn1 Ga6'
_cell_volume   169.06557851
_cell_formula_units_Z   1
loop_
 _symmetry_equiv_pos_site_id
 _symmetry_equiv_pos_as_xyz
  1  'x, y, z'
loop_
 _atom_site_type_symbol
 _atom_site_label
 _atom_site_symmetry_multiplicity
 _atom_site_fract_x
 _atom_site_fract_y
 _atom_site_fract_z
 _atom_site_occupancy
  Tb  Tb0  1  0.75000000  0.75000000  0.75000000  1
  Tb  Tb1  1  0.25000000  0.25000000  0.25000000  1
  Mn  Mn2  1  0.50000000  0.50000000  0.50000000  1
  Ga  Ga3  1  0.78134000  0.78134000  0.21866000  1
  Ga  Ga4  1  0.21866000  0.78134000  0.21866000  1
  Ga  Ga5  1  0.78134000  0.21866000  0.21866000  1
  Ga  Ga6  1  0.21866000  0.21866000  0.78134000  1
  Ga  Ga7  1  0.78134000  0.21866000  0.78134000  1
  Ga  Ga8  1  0.21866000  0.78134000  0.78134000  1
