# generated using pymatgen
data_BaCrO4
_symmetry_space_group_name_H-M   'P 1'
_cell_length_a   5.68648200
_cell_length_b   7.45999700
_cell_length_c   9.20838800
_cell_angle_alpha   90.00000000
_cell_angle_beta   90.00000000
_cell_angle_gamma   90.00000000
_symmetry_Int_Tables_number   1
_chemical_formula_structural   BaCrO4
_chemical_formula_sum   'Ba4 Cr4 O16'
_cell_volume   390.63030419
_cell_formula_units_Z   4
loop_
 _symmetry_equiv_pos_site_id
 _symmetry_equiv_pos_as_xyz
  1  'x, y, z'
loop_
 _atom_site_type_symbol
 _atom_site_label
 _atom_site_symmetry_multiplicity
 _atom_site_fract_x
 _atom_site_fract_y
 _atom_site_fract_z
 _atom_site_occupancy
  Ba  Ba0  1  0.25000000  0.34516100  0.68353000  1
  Ba  Ba1  1  0.75000000  0.65483900  0.31647000  1
  Ba  Ba2  1  0.75000000  0.84516100  0.81647000  1
  Ba  Ba3  1  0.25000000  0.15483900  0.18353000  1
  Cr  Cr4  1  0.25000000  0.69231500  0.05644100  1
  Cr  Cr5  1  0.75000000  0.30768500  0.94355900  1
  Cr  Cr6  1  0.75000000  0.19231500  0.44355900  1
  Cr  Cr7  1  0.25000000  0.80768500  0.55644100  1
  O  O8  1  0.51100300  0.18000700  0.91954900  1
  O  O9  1  0.01100300  0.81999300  0.08045100  1
  O  O10  1  0.48899700  0.68000700  0.58045100  1
  O  O11  1  0.98899700  0.31999300  0.41954900  1
  O  O12  1  0.48899700  0.81999300  0.08045100  1
  O  O13  1  0.98899700  0.18000700  0.91954900  1
  O  O14  1  0.51100300  0.31999300  0.41954900  1
  O  O15  1  0.01100300  0.68000700  0.58045100  1
  O  O16  1  0.25000000  0.88589500  0.38841500  1
  O  O17  1  0.75000000  0.11410500  0.61158500  1
  O  O18  1  0.75000000  0.38589500  0.11158500  1
  O  O19  1  0.25000000  0.61410500  0.88841500  1
  O  O20  1  0.25000000  0.96994100  0.67938500  1
  O  O21  1  0.75000000  0.03005900  0.32061500  1
  O  O22  1  0.75000000  0.46994100  0.82061500  1
  O  O23  1  0.25000000  0.53005900  0.17938500  1
