# generated using pymatgen
data_YCdAu
_symmetry_space_group_name_H-M   'P 1'
_cell_length_a   7.86606378
_cell_length_b   7.86606378
_cell_length_c   3.88713000
_cell_angle_alpha   90.00000000
_cell_angle_beta   90.00000000
_cell_angle_gamma   119.99999817
_symmetry_Int_Tables_number   1
_chemical_formula_structural   YCdAu
_chemical_formula_sum   'Y3 Cd3 Au3'
_cell_volume   208.29297941
_cell_formula_units_Z   3
loop_
 _symmetry_equiv_pos_site_id
 _symmetry_equiv_pos_as_xyz
  1  'x, y, z'
loop_
 _atom_site_type_symbol
 _atom_site_label
 _atom_site_symmetry_multiplicity
 _atom_site_fract_x
 _atom_site_fract_y
 _atom_site_fract_z
 _atom_site_occupancy
  Y  Y0  1  0.59230900  0.00000000  0.00000000  1
  Y  Y1  1  0.00000000  0.59230900  0.00000000  1
  Y  Y2  1  0.40769100  0.40769100  0.00000000  1
  Cd  Cd3  1  0.26296500  0.00000000  0.50000000  1
  Cd  Cd4  1  0.00000000  0.26296500  0.50000000  1
  Cd  Cd5  1  0.73703500  0.73703500  0.50000000  1
  Au  Au6  1  0.33333300  0.66666700  0.50000000  1
  Au  Au7  1  0.66666700  0.33333300  0.50000000  1
  Au  Au8  1  0.00000000  0.00000000  0.00000000  1
