# generated using pymatgen
data_MgCo2(PO4)2
_symmetry_space_group_name_H-M   'P 1'
_cell_length_a   5.10377198
_cell_length_b   7.72062201
_cell_length_c   8.41345822
_cell_angle_alpha   90.02547903
_cell_angle_beta   90.00393551
_cell_angle_gamma   94.45409964
_symmetry_Int_Tables_number   1
_chemical_formula_structural   MgCo2(PO4)2
_chemical_formula_sum   'Mg2 Co4 P4 O16'
_cell_volume   330.52509617
_cell_formula_units_Z   2
loop_
 _symmetry_equiv_pos_site_id
 _symmetry_equiv_pos_as_xyz
  1  'x, y, z'
loop_
 _atom_site_type_symbol
 _atom_site_label
 _atom_site_symmetry_multiplicity
 _atom_site_fract_x
 _atom_site_fract_y
 _atom_site_fract_z
 _atom_site_occupancy
  Mg  Mg0  1  0.00000700  0.50000400  0.50000400  1
  Mg  Mg1  1  0.50001700  0.99999500  0.99998700  1
  Co  Co2  1  0.90893500  0.38615900  0.85867000  1
  Co  Co3  1  0.09107600  0.61383200  0.14134300  1
  Co  Co4  1  0.40916800  0.88617900  0.64128500  1
  Co  Co5  1  0.59081600  0.11384800  0.35869300  1
  P  P6  1  0.46443800  0.30012300  0.69345500  1
  P  P7  1  0.96476500  0.80014900  0.80648700  1
  P  P8  1  0.53557600  0.69988400  0.30652600  1
  P  P9  1  0.03523200  0.19984500  0.19353700  1
  O  O10  1  0.45038400  0.14074400  0.57866100  1
  O  O11  1  0.95089400  0.64074600  0.92124800  1
  O  O12  1  0.54960200  0.85928600  0.42129200  1
  O  O13  1  0.04904200  0.35925000  0.07878000  1
  O  O14  1  0.55434900  0.24140900  0.86167800  1
  O  O15  1  0.05463100  0.74129100  0.63829200  1
  O  O16  1  0.44571300  0.75856100  0.13828200  1
  O  O17  1  0.94544500  0.25869900  0.36174900  1
  O  O18  1  0.19176100  0.37503900  0.69387400  1
  O  O19  1  0.69211200  0.87507700  0.80610800  1
  O  O20  1  0.80824800  0.62495300  0.30613800  1
  O  O21  1  0.30787300  0.12489700  0.19386900  1
  O  O22  1  0.67985100  0.43876200  0.63897000  1
  O  O23  1  0.18008800  0.93893700  0.86091900  1
  O  O24  1  0.32013000  0.56126100  0.36101200  1
  O  O25  1  0.81984800  0.06107000  0.13914300  1
