# generated using pymatgen
data_Er3Ir
_symmetry_space_group_name_H-M   'P 1'
_cell_length_a   6.31806600
_cell_length_b   7.21694400
_cell_length_c   9.16961700
_cell_angle_alpha   90.00000000
_cell_angle_beta   90.00000000
_cell_angle_gamma   90.00000000
_symmetry_Int_Tables_number   1
_chemical_formula_structural   Er3Ir
_chemical_formula_sum   'Er12 Ir4'
_cell_volume   418.10820474
_cell_formula_units_Z   4
loop_
 _symmetry_equiv_pos_site_id
 _symmetry_equiv_pos_as_xyz
  1  'x, y, z'
loop_
 _atom_site_type_symbol
 _atom_site_label
 _atom_site_symmetry_multiplicity
 _atom_site_fract_x
 _atom_site_fract_y
 _atom_site_fract_z
 _atom_site_occupancy
  Er  Er0  1  0.32874000  0.67660200  0.06267100  1
  Er  Er1  1  0.17126000  0.17660200  0.43732900  1
  Er  Er2  1  0.67126000  0.32339800  0.56267100  1
  Er  Er3  1  0.82874000  0.82339800  0.93732900  1
  Er  Er4  1  0.67126000  0.32339800  0.93732900  1
  Er  Er5  1  0.82874000  0.82339800  0.56267100  1
  Er  Er6  1  0.32874000  0.67660200  0.43732900  1
  Er  Er7  1  0.17126000  0.17660200  0.06267100  1
  Er  Er8  1  0.86625800  0.53513900  0.25000000  1
  Er  Er9  1  0.63374200  0.03513900  0.25000000  1
  Er  Er10  1  0.13374200  0.46486100  0.75000000  1
  Er  Er11  1  0.36625800  0.96486100  0.75000000  1
  Ir  Ir12  1  0.04724900  0.88193500  0.25000000  1
  Ir  Ir13  1  0.45275100  0.38193500  0.25000000  1
  Ir  Ir14  1  0.95275100  0.11806500  0.75000000  1
  Ir  Ir15  1  0.54724900  0.61806500  0.75000000  1
