# generated using pymatgen
data_Lu3Ga5O12
_symmetry_space_group_name_H-M   'P 1'
_cell_length_a   10.62386099
_cell_length_b   10.62386099
_cell_length_c   10.62386099
_cell_angle_alpha   109.47122063
_cell_angle_beta   109.47122063
_cell_angle_gamma   109.47122063
_symmetry_Int_Tables_number   1
_chemical_formula_structural   Lu3Ga5O12
_chemical_formula_sum   'Lu12 Ga20 O48'
_cell_volume   923.05004347
_cell_formula_units_Z   4
loop_
 _symmetry_equiv_pos_site_id
 _symmetry_equiv_pos_as_xyz
  1  'x, y, z'
loop_
 _atom_site_type_symbol
 _atom_site_label
 _atom_site_symmetry_multiplicity
 _atom_site_fract_x
 _atom_site_fract_y
 _atom_site_fract_z
 _atom_site_occupancy
  Lu  Lu0  1  0.37500000  0.12500000  0.25000000  1
  Lu  Lu1  1  0.75000000  0.12500000  0.37500000  1
  Lu  Lu2  1  0.25000000  0.37500000  0.12500000  1
  Lu  Lu3  1  0.12500000  0.25000000  0.37500000  1
  Lu  Lu4  1  0.37500000  0.75000000  0.12500000  1
  Lu  Lu5  1  0.12500000  0.37500000  0.75000000  1
  Lu  Lu6  1  0.62500000  0.87500000  0.75000000  1
  Lu  Lu7  1  0.25000000  0.87500000  0.62500000  1
  Lu  Lu8  1  0.75000000  0.62500000  0.87500000  1
  Lu  Lu9  1  0.87500000  0.75000000  0.62500000  1
  Lu  Lu10  1  0.62500000  0.25000000  0.87500000  1
  Lu  Lu11  1  0.87500000  0.62500000  0.25000000  1
  Ga  Ga12  1  0.00000000  0.00000000  0.00000000  1
  Ga  Ga13  1  0.50000000  0.00000000  0.00000000  1
  Ga  Ga14  1  0.00000000  0.50000000  0.00000000  1
  Ga  Ga15  1  0.00000000  0.00000000  0.50000000  1
  Ga  Ga16  1  0.50000000  0.50000000  0.00000000  1
  Ga  Ga17  1  0.00000000  0.50000000  0.50000000  1
  Ga  Ga18  1  0.50000000  0.00000000  0.50000000  1
  Ga  Ga19  1  0.50000000  0.50000000  0.50000000  1
  Ga  Ga20  1  0.62500000  0.37500000  0.25000000  1
  Ga  Ga21  1  0.75000000  0.37500000  0.62500000  1
  Ga  Ga22  1  0.25000000  0.12500000  0.87500000  1
  Ga  Ga23  1  0.87500000  0.25000000  0.12500000  1
  Ga  Ga24  1  0.12500000  0.87500000  0.25000000  1
  Ga  Ga25  1  0.87500000  0.12500000  0.75000000  1
  Ga  Ga26  1  0.25000000  0.62500000  0.37500000  1
  Ga  Ga27  1  0.37500000  0.25000000  0.62500000  1
  Ga  Ga28  1  0.75000000  0.87500000  0.12500000  1
  Ga  Ga29  1  0.12500000  0.75000000  0.87500000  1
  Ga  Ga30  1  0.37500000  0.62500000  0.75000000  1
  Ga  Ga31  1  0.62500000  0.75000000  0.37500000  1
  O  O32  1  0.41678700  0.82317800  0.79093100  1
  O  O33  1  0.87414500  0.40639100  0.08321400  1
  O  O34  1  0.09360900  0.96775400  0.67682200  1
  O  O35  1  0.53224600  0.62585500  0.70906900  1
  O  O36  1  0.67682200  0.08321300  0.70906900  1
  O  O37  1  0.62585500  0.70906900  0.53224600  1
  O  O38  1  0.62585500  0.41678600  0.09360900  1
  O  O39  1  0.70906900  0.53224600  0.62585500  1
  O  O40  1  0.82317800  0.53224600  0.40639100  1
  O  O41  1  0.96775400  0.79093100  0.87414500  1
  O  O42  1  0.79093100  0.87414500  0.96775400  1
  O  O43  1  0.70906900  0.67682200  0.08321300  1
  O  O44  1  0.41678600  0.09360900  0.62585500  1
  O  O45  1  0.40639100  0.82317800  0.53224600  1
  O  O46  1  0.08321400  0.70906900  0.67682200  1
  O  O47  1  0.09360900  0.62585500  0.41678600  1
  O  O48  1  0.53224600  0.40639100  0.82317800  1
  O  O49  1  0.08321400  0.87414500  0.40639100  1
  O  O50  1  0.96775400  0.67682200  0.09360900  1
  O  O51  1  0.17682200  0.46775400  0.59360900  1
  O  O52  1  0.67682200  0.09360900  0.96775400  1
  O  O53  1  0.79093100  0.41678600  0.82317800  1
  O  O54  1  0.40639100  0.08321300  0.87414500  1
  O  O55  1  0.87414500  0.96775400  0.79093100  1
  O  O56  1  0.58321400  0.17682200  0.20906900  1
  O  O57  1  0.12585500  0.59360900  0.91678700  1
  O  O58  1  0.90639100  0.03224600  0.32317800  1
  O  O59  1  0.46775400  0.37414500  0.29093100  1
  O  O60  1  0.32317800  0.91678600  0.29093100  1
  O  O61  1  0.37414500  0.29093100  0.46775400  1
  O  O62  1  0.37414500  0.58321300  0.90639100  1
  O  O63  1  0.29093100  0.46775400  0.37414500  1
  O  O64  1  0.12585500  0.03224600  0.20906900  1
  O  O65  1  0.59360900  0.91678600  0.12585500  1
  O  O66  1  0.20906900  0.58321400  0.17682200  1
  O  O67  1  0.17682200  0.20906900  0.58321400  1
  O  O68  1  0.32317800  0.90639100  0.03224600  1
  O  O69  1  0.03224600  0.32317800  0.90639100  1
  O  O70  1  0.91678600  0.12585500  0.59360900  1
  O  O71  1  0.46775400  0.59360900  0.17682200  1
  O  O72  1  0.90639100  0.37414500  0.58321400  1
  O  O73  1  0.91678600  0.29093100  0.32317800  1
  O  O74  1  0.59360900  0.17682200  0.46775400  1
  O  O75  1  0.58321400  0.90639100  0.37414500  1
  O  O76  1  0.29093100  0.32317800  0.91678600  1
  O  O77  1  0.20906900  0.12585500  0.03224600  1
  O  O78  1  0.03224600  0.20906900  0.12585500  1
  O  O79  1  0.82317800  0.79093100  0.41678700  1
