# generated using pymatgen
data_Li2MoO4
_symmetry_space_group_name_H-M   'P 1'
_cell_length_a   9.03741105
_cell_length_b   9.03741105
_cell_length_c   9.03741083
_cell_angle_alpha   107.84515961
_cell_angle_beta   107.84515961
_cell_angle_gamma   107.84516815
_symmetry_Int_Tables_number   1
_chemical_formula_structural   Li2MoO4
_chemical_formula_sum   'Li12 Mo6 O24'
_cell_volume   599.98426691
_cell_formula_units_Z   6
loop_
 _symmetry_equiv_pos_site_id
 _symmetry_equiv_pos_as_xyz
  1  'x, y, z'
loop_
 _atom_site_type_symbol
 _atom_site_label
 _atom_site_symmetry_multiplicity
 _atom_site_fract_x
 _atom_site_fract_y
 _atom_site_fract_z
 _atom_site_occupancy
  Li  Li0  1  0.62871100  0.22392900  0.39344200  1
  Li  Li1  1  0.93302400  0.70256500  0.10759900  1
  Li  Li2  1  0.06697600  0.29743500  0.89240100  1
  Li  Li3  1  0.39344200  0.62871100  0.22392900  1
  Li  Li4  1  0.10759900  0.93302400  0.70256500  1
  Li  Li5  1  0.70256500  0.10759900  0.93302400  1
  Li  Li6  1  0.60655800  0.37128900  0.77607100  1
  Li  Li7  1  0.22392900  0.39344200  0.62871100  1
  Li  Li8  1  0.29743500  0.89240100  0.06697600  1
  Li  Li9  1  0.77607100  0.60655800  0.37128900  1
  Li  Li10  1  0.89240100  0.06697600  0.29743500  1
  Li  Li11  1  0.37128900  0.77607100  0.60655800  1
  Mo  Mo12  1  0.96408500  0.55530000  0.73231900  1
  Mo  Mo13  1  0.03591500  0.44470000  0.26768100  1
  Mo  Mo14  1  0.55530000  0.73231900  0.96408500  1
  Mo  Mo15  1  0.26768100  0.03591500  0.44470000  1
  Mo  Mo16  1  0.73231900  0.96408500  0.55530000  1
  Mo  Mo17  1  0.44470000  0.26768100  0.03591500  1
  O  O18  1  0.81044300  0.47181400  0.51010900  1
  O  O19  1  0.81697700  0.11647900  0.77770100  1
  O  O20  1  0.51010900  0.81044300  0.47181400  1
  O  O21  1  0.45997800  0.13857400  0.15164800  1
  O  O22  1  0.84835200  0.54002200  0.86142600  1
  O  O23  1  0.86142600  0.84835200  0.54002200  1
  O  O24  1  0.22229900  0.18302300  0.88352100  1
  O  O25  1  0.48989100  0.18955700  0.52818600  1
  O  O26  1  0.77770100  0.81697700  0.11647900  1
  O  O27  1  0.25069000  0.92119000  0.57401700  1
  O  O28  1  0.88352100  0.22229900  0.18302300  1
  O  O29  1  0.11647900  0.77770100  0.81697700  1
  O  O30  1  0.47181400  0.51010900  0.81044300  1
  O  O31  1  0.18955700  0.52818600  0.48989100  1
  O  O32  1  0.13857400  0.15164800  0.45997800  1
  O  O33  1  0.18302300  0.88352100  0.22229900  1
  O  O34  1  0.92119000  0.57401700  0.25069000  1
  O  O35  1  0.52818600  0.48989100  0.18955700  1
  O  O36  1  0.54002200  0.86142600  0.84835200  1
  O  O37  1  0.74931000  0.07881000  0.42598300  1
  O  O38  1  0.15164800  0.45997800  0.13857400  1
  O  O39  1  0.42598300  0.74931000  0.07881000  1
  O  O40  1  0.57401700  0.25069000  0.92119000  1
  O  O41  1  0.07881000  0.42598300  0.74931000  1
