# generated using pymatgen
data_K2Na2Sm4Ta2O13
_symmetry_space_group_name_H-M   'P 1'
_cell_length_a   12.54388616
_cell_length_b   12.54388616
_cell_length_c   11.32647549
_cell_angle_alpha   64.32219605
_cell_angle_beta   64.32219605
_cell_angle_gamma   26.36068312
_symmetry_Int_Tables_number   1
_chemical_formula_structural   K2Na2Sm4Ta2O13
_chemical_formula_sum   'K4 Na4 Sm8 Ta4 O26'
_cell_volume   708.65411554
_cell_formula_units_Z   2
loop_
 _symmetry_equiv_pos_site_id
 _symmetry_equiv_pos_as_xyz
  1  'x, y, z'
loop_
 _atom_site_type_symbol
 _atom_site_label
 _atom_site_symmetry_multiplicity
 _atom_site_fract_x
 _atom_site_fract_y
 _atom_site_fract_z
 _atom_site_occupancy
  K  K0  1  0.80038000  0.69802000  0.36732200  1
  K  K1  1  0.30198000  0.19962000  0.13267800  1
  K  K2  1  0.19962000  0.30198000  0.63267800  1
  K  K3  1  0.69802000  0.80038000  0.86732200  1
  Na  Na4  1  0.87733800  0.80415500  0.02361300  1
  Na  Na5  1  0.19584500  0.12266200  0.47638700  1
  Na  Na6  1  0.12266200  0.19584500  0.97638700  1
  Na  Na7  1  0.80415500  0.87733800  0.52361300  1
  Sm  Sm8  1  0.60857000  0.51721800  0.54999400  1
  Sm  Sm9  1  0.48278200  0.39143000  0.95000600  1
  Sm  Sm10  1  0.39143000  0.48278200  0.45000600  1
  Sm  Sm11  1  0.51721800  0.60857000  0.04999400  1
  Sm  Sm12  1  0.97411800  0.90076700  0.17205200  1
  Sm  Sm13  1  0.09923300  0.02588200  0.32794800  1
  Sm  Sm14  1  0.02588200  0.09923300  0.82794800  1
  Sm  Sm15  1  0.90076700  0.97411800  0.67205200  1
  Ta  Ta16  1  0.68383900  0.61740800  0.21775400  1
  Ta  Ta17  1  0.38259200  0.31616100  0.28224600  1
  Ta  Ta18  1  0.31616100  0.38259200  0.78224600  1
  Ta  Ta19  1  0.61740800  0.68383900  0.71775400  1
  O  O20  1  0.90501300  0.35827600  0.35933900  1
  O  O21  1  0.64172400  0.09498700  0.14066100  1
  O  O22  1  0.09498700  0.64172400  0.64066100  1
  O  O23  1  0.35827600  0.90501300  0.85933900  1
  O  O24  1  0.85921400  0.41006000  0.62291300  1
  O  O25  1  0.58994000  0.14078600  0.87708700  1
  O  O26  1  0.14078600  0.58994000  0.37708700  1
  O  O27  1  0.41006000  0.85921400  0.12291300  1
  O  O28  1  0.17912900  0.56072100  0.13820600  1
  O  O29  1  0.43927900  0.82087100  0.36179400  1
  O  O30  1  0.82087100  0.43927900  0.86179400  1
  O  O31  1  0.56072100  0.17912900  0.63820600  1
  O  O32  1  0.79746300  0.67244200  0.12441000  1
  O  O33  1  0.32755800  0.20253700  0.37559000  1
  O  O34  1  0.20253700  0.32755800  0.87559000  1
  O  O35  1  0.67244200  0.79746300  0.62441000  1
  O  O36  1  0.24092500  0.75907500  0.25000000  1
  O  O37  1  0.75907500  0.24092500  0.75000000  1
  O  O38  1  0.37095500  0.83131800  0.65956400  1
  O  O39  1  0.16868200  0.62904500  0.84043600  1
  O  O40  1  0.62904500  0.16868200  0.34043600  1
  O  O41  1  0.83131800  0.37095500  0.15956400  1
  O  O42  1  0.75042800  0.24728300  0.47716200  1
  O  O43  1  0.75271700  0.24957200  0.02283800  1
  O  O44  1  0.24957200  0.75271700  0.52283800  1
  O  O45  1  0.24728300  0.75042800  0.97716200  1
