# generated using pymatgen
data_KBaNbS4
_symmetry_space_group_name_H-M   'P 1'
_cell_length_a   7.07453800
_cell_length_b   9.33424200
_cell_length_c   12.76918900
_cell_angle_alpha   90.00000000
_cell_angle_beta   90.00000000
_cell_angle_gamma   90.00000000
_symmetry_Int_Tables_number   1
_chemical_formula_structural   KBaNbS4
_chemical_formula_sum   'K4 Ba4 Nb4 S16'
_cell_volume   843.21913830
_cell_formula_units_Z   4
loop_
 _symmetry_equiv_pos_site_id
 _symmetry_equiv_pos_as_xyz
  1  'x, y, z'
loop_
 _atom_site_type_symbol
 _atom_site_label
 _atom_site_symmetry_multiplicity
 _atom_site_fract_x
 _atom_site_fract_y
 _atom_site_fract_z
 _atom_site_occupancy
  K  K0  1  0.25000000  0.63558300  0.57469600  1
  K  K1  1  0.75000000  0.36441700  0.42530400  1
  K  K2  1  0.25000000  0.13558300  0.92530400  1
  K  K3  1  0.75000000  0.86441700  0.07469600  1
  Ba  Ba4  1  0.75000000  0.02051300  0.67603500  1
  Ba  Ba5  1  0.75000000  0.52051300  0.82396500  1
  Ba  Ba6  1  0.25000000  0.47948700  0.17603500  1
  Ba  Ba7  1  0.25000000  0.97948700  0.32396500  1
  Nb  Nb8  1  0.25000000  0.72925200  0.92349300  1
  Nb  Nb9  1  0.75000000  0.77074800  0.42349300  1
  Nb  Nb10  1  0.75000000  0.27074800  0.07650700  1
  Nb  Nb11  1  0.25000000  0.22925200  0.57650700  1
  S  S12  1  0.25000000  0.98418200  0.58267900  1
  S  S13  1  0.75000000  0.01581800  0.41732100  1
  S  S14  1  0.25000000  0.48418200  0.91732100  1
  S  S15  1  0.75000000  0.51581800  0.08267900  1
  S  S16  1  0.49019200  0.68104700  0.34135700  1
  S  S17  1  0.99019200  0.31895300  0.65864300  1
  S  S18  1  0.00980800  0.18104700  0.15864300  1
  S  S19  1  0.50980800  0.81895300  0.84135700  1
  S  S20  1  0.50980800  0.31895300  0.65864300  1
  S  S21  1  0.00980800  0.68104700  0.34135700  1
  S  S22  1  0.99019200  0.81895300  0.84135700  1
  S  S23  1  0.49019200  0.18104700  0.15864300  1
  S  S24  1  0.75000000  0.19416700  0.90576500  1
  S  S25  1  0.25000000  0.80583300  0.09423500  1
  S  S26  1  0.75000000  0.69416700  0.59423500  1
  S  S27  1  0.25000000  0.30583300  0.40576500  1
