# generated using pymatgen
data_Th14Ag51
_symmetry_space_group_name_H-M   'P 1'
_cell_length_a   13.00067181
_cell_length_b   13.00067181
_cell_length_c   9.52367000
_cell_angle_alpha   90.00000000
_cell_angle_beta   90.00000000
_cell_angle_gamma   119.99999904
_symmetry_Int_Tables_number   1
_chemical_formula_structural   Th14Ag51
_chemical_formula_sum   'Th14 Ag51'
_cell_volume   1394.01216779
_cell_formula_units_Z   1
loop_
 _symmetry_equiv_pos_site_id
 _symmetry_equiv_pos_as_xyz
  1  'x, y, z'
loop_
 _atom_site_type_symbol
 _atom_site_label
 _atom_site_symmetry_multiplicity
 _atom_site_fract_x
 _atom_site_fract_y
 _atom_site_fract_z
 _atom_site_occupancy
  Th  Th0  1  0.66666700  0.33333300  0.30604800  1
  Th  Th1  1  0.66666700  0.33333300  0.69395200  1
  Th  Th2  1  0.93623400  0.22343400  0.00000000  1
  Th  Th3  1  0.77656600  0.71280000  0.00000000  1
  Th  Th4  1  0.28720000  0.06376600  0.00000000  1
  Th  Th5  1  0.38061400  0.44748300  0.00000000  1
  Th  Th6  1  0.55251700  0.93313000  0.00000000  1
  Th  Th7  1  0.06687000  0.61938600  0.00000000  1
  Th  Th8  1  0.34150500  0.86294800  0.50000000  1
  Th  Th9  1  0.13705200  0.47855700  0.50000000  1
  Th  Th10  1  0.52144300  0.65849500  0.50000000  1
  Th  Th11  1  0.99302100  0.80553200  0.50000000  1
  Th  Th12  1  0.19446800  0.18748900  0.50000000  1
  Th  Th13  1  0.81251100  0.00697900  0.50000000  1
  Ag  Ag14  1  0.28965100  0.84168400  0.15294400  1
  Ag  Ag15  1  0.15831600  0.44796700  0.15294400  1
  Ag  Ag16  1  0.55203300  0.71034900  0.15294400  1
  Ag  Ag17  1  0.04822400  0.83174200  0.15112500  1
  Ag  Ag18  1  0.16825800  0.21648200  0.15112500  1
  Ag  Ag19  1  0.78351800  0.95177600  0.15112500  1
  Ag  Ag20  1  0.04822400  0.83174200  0.84887500  1
  Ag  Ag21  1  0.16825800  0.21648200  0.84887500  1
  Ag  Ag22  1  0.78351800  0.95177600  0.84887500  1
  Ag  Ag23  1  0.28965100  0.84168400  0.84705600  1
  Ag  Ag24  1  0.15831600  0.44796700  0.84705600  1
  Ag  Ag25  1  0.55203300  0.71034900  0.84705600  1
  Ag  Ag26  1  0.00154900  0.23190200  0.33106300  1
  Ag  Ag27  1  0.76809800  0.76964700  0.33106300  1
  Ag  Ag28  1  0.23035300  0.99845100  0.33106300  1
  Ag  Ag29  1  0.32818800  0.43435400  0.33209200  1
  Ag  Ag30  1  0.56564600  0.89383400  0.33209200  1
  Ag  Ag31  1  0.10616600  0.67181200  0.33209200  1
  Ag  Ag32  1  0.32818800  0.43435400  0.66790800  1
  Ag  Ag33  1  0.56564600  0.89383400  0.66790800  1
  Ag  Ag34  1  0.10616600  0.67181200  0.66790800  1
  Ag  Ag35  1  0.00154900  0.23190200  0.66893700  1
  Ag  Ag36  1  0.76809800  0.76964700  0.66893700  1
  Ag  Ag37  1  0.23035300  0.99845100  0.66893700  1
  Ag  Ag38  1  0.33333300  0.66666700  0.00000000  1
  Ag  Ag39  1  0.00000000  0.00000000  0.00000000  1
  Ag  Ag40  1  0.33333300  0.66666700  0.29611300  1
  Ag  Ag41  1  0.00000000  0.00000000  0.29631000  1
  Ag  Ag42  1  0.00000000  0.00000000  0.70369000  1
  Ag  Ag43  1  0.33333300  0.66666700  0.70388700  1
  Ag  Ag44  1  0.47656900  0.06799700  0.23372800  1
  Ag  Ag45  1  0.93200300  0.40857300  0.23372800  1
  Ag  Ag46  1  0.59142700  0.52343100  0.23372800  1
  Ag  Ag47  1  0.86152500  0.60280200  0.23858600  1
  Ag  Ag48  1  0.39719800  0.25872400  0.23858600  1
  Ag  Ag49  1  0.74127600  0.13847500  0.23858600  1
  Ag  Ag50  1  0.86152500  0.60280200  0.76141400  1
  Ag  Ag51  1  0.39719800  0.25872400  0.76141400  1
  Ag  Ag52  1  0.74127600  0.13847500  0.76141400  1
  Ag  Ag53  1  0.47656900  0.06799700  0.76627200  1
  Ag  Ag54  1  0.93200300  0.40857300  0.76627200  1
  Ag  Ag55  1  0.59142700  0.52343100  0.76627200  1
  Ag  Ag56  1  0.84632600  0.27423700  0.50000000  1
  Ag  Ag57  1  0.72576300  0.57208900  0.50000000  1
  Ag  Ag58  1  0.42791100  0.15367400  0.50000000  1
  Ag  Ag59  1  0.48588300  0.39352100  0.50000000  1
  Ag  Ag60  1  0.60647900  0.09236200  0.50000000  1
  Ag  Ag61  1  0.90763800  0.51411700  0.50000000  1
  Ag  Ag62  1  0.63913000  0.19739500  0.00000000  1
  Ag  Ag63  1  0.80260500  0.44173500  0.00000000  1
  Ag  Ag64  1  0.55826500  0.36087000  0.00000000  1
