# generated using pymatgen
data_ErAlCu
_symmetry_space_group_name_H-M   'P 1'
_cell_length_a   6.96113187
_cell_length_b   6.96113187
_cell_length_c   4.01617500
_cell_angle_alpha   90.00000000
_cell_angle_beta   90.00000000
_cell_angle_gamma   119.99999876
_symmetry_Int_Tables_number   1
_chemical_formula_structural   ErAlCu
_chemical_formula_sum   'Er3 Al3 Cu3'
_cell_volume   168.53999917
_cell_formula_units_Z   3
loop_
 _symmetry_equiv_pos_site_id
 _symmetry_equiv_pos_as_xyz
  1  'x, y, z'
loop_
 _atom_site_type_symbol
 _atom_site_label
 _atom_site_symmetry_multiplicity
 _atom_site_fract_x
 _atom_site_fract_y
 _atom_site_fract_z
 _atom_site_occupancy
  Er  Er0  1  0.41439700  0.00000000  0.50000000  1
  Er  Er1  1  0.00000000  0.41439700  0.50000000  1
  Er  Er2  1  0.58560300  0.58560300  0.50000000  1
  Al  Al3  1  0.76496500  0.00000000  0.00000000  1
  Al  Al4  1  0.00000000  0.76496500  0.00000000  1
  Al  Al5  1  0.23503500  0.23503500  0.00000000  1
  Cu  Cu6  1  0.33333300  0.66666700  0.00000000  1
  Cu  Cu7  1  0.66666700  0.33333300  0.00000000  1
  Cu  Cu8  1  0.00000000  0.00000000  0.50000000  1
