# generated using pymatgen
data_MgMoO4
_symmetry_space_group_name_H-M   'P 1'
_cell_length_a   7.03379117
_cell_length_b   7.03379117
_cell_length_c   7.11871537
_cell_angle_alpha   77.78325717
_cell_angle_beta   77.78325717
_cell_angle_gamma   84.27887591
_symmetry_Int_Tables_number   1
_chemical_formula_structural   MgMoO4
_chemical_formula_sum   'Mg4 Mo4 O16'
_cell_volume   335.86579337
_cell_formula_units_Z   4
loop_
 _symmetry_equiv_pos_site_id
 _symmetry_equiv_pos_as_xyz
  1  'x, y, z'
loop_
 _atom_site_type_symbol
 _atom_site_label
 _atom_site_symmetry_multiplicity
 _atom_site_fract_x
 _atom_site_fract_y
 _atom_site_fract_z
 _atom_site_occupancy
  Mg  Mg0  1  0.70126600  0.70126600  0.64175000  1
  Mg  Mg1  1  0.29873400  0.29873400  0.35825000  1
  Mg  Mg2  1  0.32042100  0.67957900  0.00000000  1
  Mg  Mg3  1  0.67957900  0.32042100  0.00000000  1
  Mo  Mo4  1  0.77107100  0.77107100  0.09430100  1
  Mo  Mo5  1  0.22892900  0.22892900  0.90569900  1
  Mo  Mo6  1  0.24895300  0.75104700  0.50000000  1
  Mo  Mo7  1  0.75104700  0.24895300  0.50000000  1
  O  O8  1  0.70278400  0.70278400  0.35329000  1
  O  O9  1  0.29721600  0.29721600  0.64671000  1
  O  O10  1  0.28854500  0.97803700  0.97221300  1
  O  O11  1  0.02196300  0.71145500  0.02778700  1
  O  O12  1  0.71145500  0.02196300  0.02778700  1
  O  O13  1  0.97803700  0.28854500  0.97221300  1
  O  O14  1  0.64051500  0.64051500  0.96091700  1
  O  O15  1  0.35948500  0.35948500  0.03908300  1
  O  O16  1  0.69562500  0.38964400  0.69531700  1
  O  O17  1  0.61035600  0.30437500  0.30468300  1
  O  O18  1  0.30437500  0.61035600  0.30468300  1
  O  O19  1  0.38964400  0.69562500  0.69531700  1
  O  O20  1  0.71563600  0.00233400  0.60773000  1
  O  O21  1  0.99766600  0.28436400  0.39227000  1
  O  O22  1  0.28436400  0.99766600  0.39227000  1
  O  O23  1  0.00233400  0.71563600  0.60773000  1
