# generated using pymatgen
data_LiCaSi2
_symmetry_space_group_name_H-M   'P 1'
_cell_length_a   3.80493900
_cell_length_b   7.93583700
_cell_length_c   10.65881700
_cell_angle_alpha   90.00000000
_cell_angle_beta   90.00000000
_cell_angle_gamma   90.00000000
_symmetry_Int_Tables_number   1
_chemical_formula_structural   LiCaSi2
_chemical_formula_sum   'Li4 Ca4 Si8'
_cell_volume   321.84698382
_cell_formula_units_Z   4
loop_
 _symmetry_equiv_pos_site_id
 _symmetry_equiv_pos_as_xyz
  1  'x, y, z'
loop_
 _atom_site_type_symbol
 _atom_site_label
 _atom_site_symmetry_multiplicity
 _atom_site_fract_x
 _atom_site_fract_y
 _atom_site_fract_z
 _atom_site_occupancy
  Li  Li0  1  0.25000000  0.99853500  0.38817200  1
  Li  Li1  1  0.75000000  0.00146500  0.61182800  1
  Li  Li2  1  0.25000000  0.49853500  0.11182800  1
  Li  Li3  1  0.75000000  0.50146500  0.88817200  1
  Ca  Ca4  1  0.25000000  0.13406100  0.86417400  1
  Ca  Ca5  1  0.75000000  0.86593900  0.13582600  1
  Ca  Ca6  1  0.25000000  0.63406100  0.63582600  1
  Ca  Ca7  1  0.75000000  0.36593900  0.36417400  1
  Si  Si8  1  0.75000000  0.26873400  0.06745100  1
  Si  Si9  1  0.25000000  0.73126600  0.93254900  1
  Si  Si10  1  0.75000000  0.76873400  0.43254900  1
  Si  Si11  1  0.25000000  0.23126600  0.56745100  1
  Si  Si12  1  0.75000000  0.83316900  0.82545600  1
  Si  Si13  1  0.25000000  0.16683100  0.17454400  1
  Si  Si14  1  0.75000000  0.33316900  0.67454400  1
  Si  Si15  1  0.25000000  0.66683100  0.32545600  1
