# generated using pymatgen
data_CaAg2
_symmetry_space_group_name_H-M   'P 1'
_cell_length_a   6.01475564
_cell_length_b   6.01475564
_cell_length_c   6.01475564
_cell_angle_alpha   133.81047788
_cell_angle_beta   104.72459687
_cell_angle_gamma   93.06975374
_symmetry_Int_Tables_number   1
_chemical_formula_structural   CaAg2
_chemical_formula_sum   'Ca2 Ag4'
_cell_volume   143.42263531
_cell_formula_units_Z   2
loop_
 _symmetry_equiv_pos_site_id
 _symmetry_equiv_pos_as_xyz
  1  'x, y, z'
loop_
 _atom_site_type_symbol
 _atom_site_label
 _atom_site_symmetry_multiplicity
 _atom_site_fract_x
 _atom_site_fract_y
 _atom_site_fract_z
 _atom_site_occupancy
  Ca  Ca0  1  0.29736600  0.54736600  0.75000000  1
  Ca  Ca1  1  0.70263400  0.45263400  0.25000000  1
  Ag  Ag2  1  0.28772600  0.83844100  0.44928500  1
  Ag  Ag3  1  0.71227400  0.16155900  0.55071500  1
  Ag  Ag4  1  0.11084400  0.16155900  0.94928500  1
  Ag  Ag5  1  0.88915600  0.83844100  0.05071500  1
