# generated using pymatgen
data_Mn2PHO3F2
_symmetry_space_group_name_H-M   'P 1'
_cell_length_a   5.69337000
_cell_length_b   7.67101700
_cell_length_c   10.32440000
_cell_angle_alpha   90.00000000
_cell_angle_beta   90.00000000
_cell_angle_gamma   90.00000000
_symmetry_Int_Tables_number   1
_chemical_formula_structural   Mn2PHO3F2
_chemical_formula_sum   'Mn8 P4 H4 O12 F8'
_cell_volume   450.90720608
_cell_formula_units_Z   4
loop_
 _symmetry_equiv_pos_site_id
 _symmetry_equiv_pos_as_xyz
  1  'x, y, z'
loop_
 _atom_site_type_symbol
 _atom_site_label
 _atom_site_symmetry_multiplicity
 _atom_site_fract_x
 _atom_site_fract_y
 _atom_site_fract_z
 _atom_site_occupancy
  Mn  Mn0  1  0.25007900  0.59798400  0.43989300  1
  Mn  Mn1  1  0.24992100  0.09798400  0.06010700  1
  Mn  Mn2  1  0.74992100  0.40201600  0.93989300  1
  Mn  Mn3  1  0.75007900  0.90201600  0.56010700  1
  Mn  Mn4  1  0.74992100  0.40201600  0.56010700  1
  Mn  Mn5  1  0.75007900  0.90201600  0.93989300  1
  Mn  Mn6  1  0.25007900  0.59798400  0.06010700  1
  Mn  Mn7  1  0.24992100  0.09798400  0.43989300  1
  P  P8  1  0.42818800  0.66289100  0.75000000  1
  P  P9  1  0.07181200  0.16289100  0.75000000  1
  P  P10  1  0.57181200  0.33710900  0.25000000  1
  P  P11  1  0.92818800  0.83710900  0.25000000  1
  H  H12  1  0.20208400  0.73407200  0.75000000  1
  H  H13  1  0.29791600  0.23407200  0.75000000  1
  H  H14  1  0.79791600  0.26592800  0.25000000  1
  H  H15  1  0.70208400  0.76592800  0.25000000  1
  O  O16  1  0.44947500  0.55103000  0.62618700  1
  O  O17  1  0.05052500  0.05103000  0.87381300  1
  O  O18  1  0.55052500  0.44897000  0.12618700  1
  O  O19  1  0.94947500  0.94897000  0.37381300  1
  O  O20  1  0.55052500  0.44897000  0.37381300  1
  O  O21  1  0.94947500  0.94897000  0.12618700  1
  O  O22  1  0.44947500  0.55103000  0.87381300  1
  O  O23  1  0.05052500  0.05103000  0.62618700  1
  O  O24  1  0.10640600  0.68371200  0.25000000  1
  O  O25  1  0.39359400  0.18371200  0.25000000  1
  O  O26  1  0.89359400  0.31628800  0.75000000  1
  O  O27  1  0.60640600  0.81628800  0.75000000  1
  F  F28  1  0.42663100  0.84575100  0.45657900  1
  F  F29  1  0.07336900  0.34575100  0.04342100  1
  F  F30  1  0.57336900  0.15424900  0.95657900  1
  F  F31  1  0.92663100  0.65424900  0.54342100  1
  F  F32  1  0.57336900  0.15424900  0.54342100  1
  F  F33  1  0.92663100  0.65424900  0.95657900  1
  F  F34  1  0.42663100  0.84575100  0.04342100  1
  F  F35  1  0.07336900  0.34575100  0.45657900  1
