# generated using pymatgen
data_Li3AsH16(SO2)4
_symmetry_space_group_name_H-M   'P 1'
_cell_length_a   10.07449700
_cell_length_b   10.25791100
_cell_length_c   14.47172513
_cell_angle_alpha   72.87445189
_cell_angle_beta   90.00000000
_cell_angle_gamma   90.00000000
_symmetry_Int_Tables_number   1
_chemical_formula_structural   Li3AsH16(SO2)4
_chemical_formula_sum   'Li12 As4 H64 S16 O32'
_cell_volume   1429.24550118
_cell_formula_units_Z   4
loop_
 _symmetry_equiv_pos_site_id
 _symmetry_equiv_pos_as_xyz
  1  'x, y, z'
loop_
 _atom_site_type_symbol
 _atom_site_label
 _atom_site_symmetry_multiplicity
 _atom_site_fract_x
 _atom_site_fract_y
 _atom_site_fract_z
 _atom_site_occupancy
  Li  Li0  1  0.50000000  0.50000000  0.00000000  1
  Li  Li1  1  0.50000000  0.50000000  0.50000000  1
  Li  Li2  1  0.72203500  0.72093700  0.00690900  1
  Li  Li3  1  0.72203500  0.27906300  0.49309100  1
  Li  Li4  1  0.27796500  0.27906300  0.99309100  1
  Li  Li5  1  0.27796500  0.72093700  0.50690900  1
  Li  Li6  1  0.59948800  0.50000000  0.25000000  1
  Li  Li7  1  0.40051200  0.50000000  0.75000000  1
  Li  Li8  1  0.88071900  0.92368400  0.91557800  1
  Li  Li9  1  0.88071900  0.07631600  0.58442200  1
  Li  Li10  1  0.11928100  0.07631600  0.08442200  1
  Li  Li11  1  0.11928100  0.92368400  0.41557800  1
  As  As12  1  0.40809700  0.00000000  0.75000000  1
  As  As13  1  0.59190300  0.00000000  0.25000000  1
  As  As14  1  0.91630900  0.50000000  0.75000000  1
  As  As15  1  0.08369100  0.50000000  0.25000000  1
  H  H16  1  0.46164200  0.34358300  0.19335400  1
  H  H17  1  0.46164200  0.65641700  0.30664600  1
  H  H18  1  0.53835800  0.65641700  0.80664600  1
  H  H19  1  0.53835800  0.34358300  0.69335400  1
  H  H20  1  0.38662000  0.48561900  0.16337600  1
  H  H21  1  0.38662000  0.51438100  0.33662400  1
  H  H22  1  0.61338000  0.51438100  0.83662400  1
  H  H23  1  0.61338000  0.48561900  0.66337600  1
  H  H24  1  0.48557600  0.73080100  0.05879300  1
  H  H25  1  0.48557600  0.26919900  0.44120700  1
  H  H26  1  0.51442400  0.26919900  0.94120700  1
  H  H27  1  0.51442400  0.73080100  0.55879300  1
  H  H28  1  0.44739300  0.76566400  0.95076500  1
  H  H29  1  0.44739300  0.23433600  0.54923500  1
  H  H30  1  0.55260700  0.23433600  0.04923500  1
  H  H31  1  0.55260700  0.76566400  0.45076500  1
  H  H32  1  0.77360600  0.46719500  0.07465700  1
  H  H33  1  0.77360600  0.53280500  0.42534300  1
  H  H34  1  0.22639400  0.53280500  0.92534300  1
  H  H35  1  0.22639400  0.46719500  0.57465700  1
  H  H36  1  0.75732300  0.47864700  0.96530900  1
  H  H37  1  0.75732300  0.52135300  0.53469100  1
  H  H38  1  0.24267700  0.52135300  0.03469100  1
  H  H39  1  0.24267700  0.47864700  0.46530900  1
  H  H40  1  0.65251900  0.73835300  0.18208800  1
  H  H41  1  0.65251900  0.26164700  0.31791200  1
  H  H42  1  0.34748100  0.26164700  0.81791200  1
  H  H43  1  0.34748100  0.73835300  0.68208800  1
  H  H44  1  0.79005600  0.66044100  0.20608400  1
  H  H45  1  0.79005600  0.33955900  0.29391600  1
  H  H46  1  0.20994400  0.33955900  0.79391600  1
  H  H47  1  0.20994400  0.66044100  0.70608400  1
  H  H48  1  0.65292500  0.99297600  0.93754700  1
  H  H49  1  0.65292500  0.00702400  0.56245300  1
  H  H50  1  0.34707500  0.00702400  0.06245300  1
  H  H51  1  0.34707500  0.99297600  0.43754700  1
  H  H52  1  0.71946300  0.99262400  0.03604400  1
  H  H53  1  0.71946300  0.00737600  0.46395600  1
  H  H54  1  0.28053700  0.00737600  0.96395600  1
  H  H55  1  0.28053700  0.99262400  0.53604400  1
  H  H56  1  0.97563600  0.68880600  0.95544300  1
  H  H57  1  0.97563600  0.31119400  0.54455700  1
  H  H58  1  0.02436400  0.31119400  0.04455700  1
  H  H59  1  0.02436400  0.68880600  0.45544300  1
  H  H60  1  0.01417000  0.72620300  0.04858500  1
  H  H61  1  0.01417000  0.27379700  0.45141500  1
  H  H62  1  0.98583000  0.27379700  0.95141500  1
  H  H63  1  0.98583000  0.72620300  0.54858500  1
  H  H64  1  0.70454000  0.84113400  0.79725900  1
  H  H65  1  0.70454000  0.15886600  0.70274100  1
  H  H66  1  0.29546000  0.15886600  0.20274100  1
  H  H67  1  0.29546000  0.84113400  0.29725900  1
  H  H68  1  0.83878400  0.75824400  0.81882700  1
  H  H69  1  0.83878400  0.24175600  0.68117300  1
  H  H70  1  0.16121600  0.24175600  0.18117300  1
  H  H71  1  0.16121600  0.75824400  0.31882700  1
  H  H72  1  0.10061800  0.01242200  0.84809700  1
  H  H73  1  0.10061800  0.98757800  0.65190300  1
  H  H74  1  0.89938200  0.98757800  0.15190300  1
  H  H75  1  0.89938200  0.01242200  0.34809700  1
  H  H76  1  0.01241800  0.14491400  0.81273600  1
  H  H77  1  0.01241800  0.85508600  0.68726400  1
  H  H78  1  0.98758200  0.85508600  0.18726400  1
  H  H79  1  0.98758200  0.14491400  0.31273600  1
  S  S80  1  0.53792500  0.13498400  0.80416300  1
  S  S81  1  0.53792500  0.86501600  0.69583700  1
  S  S82  1  0.46207500  0.86501600  0.19583700  1
  S  S83  1  0.46207500  0.13498400  0.30416300  1
  S  S84  1  0.28314600  0.87704300  0.86587500  1
  S  S85  1  0.28314600  0.12295700  0.63412500  1
  S  S86  1  0.71685400  0.12295700  0.13412500  1
  S  S87  1  0.71685400  0.87704300  0.36587500  1
  S  S88  1  0.04014200  0.64036100  0.80362300  1
  S  S89  1  0.04014200  0.35963900  0.69637700  1
  S  S90  1  0.95985800  0.35963900  0.19637700  1
  S  S91  1  0.95985800  0.64036100  0.30362300  1
  S  S92  1  0.79262900  0.36885000  0.86354300  1
  S  S93  1  0.79262900  0.63115000  0.63645700  1
  S  S94  1  0.20737100  0.63115000  0.13645700  1
  S  S95  1  0.20737100  0.36885000  0.36354300  1
  O  O96  1  0.47421500  0.44240900  0.16005800  1
  O  O97  1  0.47421500  0.55759100  0.33994200  1
  O  O98  1  0.52578500  0.55759100  0.83994200  1
  O  O99  1  0.52578500  0.44240900  0.66005800  1
  O  O100  1  0.51072300  0.70941100  0.99982500  1
  O  O101  1  0.51072300  0.29058900  0.50017500  1
  O  O102  1  0.48927700  0.29058900  0.00017500  1
  O  O103  1  0.48927700  0.70941100  0.49982500  1
  O  O104  1  0.72179000  0.51514500  0.01731600  1
  O  O105  1  0.72179000  0.48485500  0.48268400  1
  O  O106  1  0.27821000  0.48485500  0.98268400  1
  O  O107  1  0.27821000  0.51514500  0.51731600  1
  O  O108  1  0.70392600  0.66171600  0.17134000  1
  O  O109  1  0.70392600  0.33828400  0.32866000  1
  O  O110  1  0.29607400  0.33828400  0.82866000  1
  O  O111  1  0.29607400  0.66171600  0.67134000  1
  O  O112  1  0.71912600  0.94384800  0.98581600  1
  O  O113  1  0.71912600  0.05615200  0.51418400  1
  O  O114  1  0.28087400  0.05615200  0.01418400  1
  O  O115  1  0.28087400  0.94384800  0.48581600  1
  O  O116  1  0.94476700  0.74154800  0.99831500  1
  O  O117  1  0.94476700  0.25845200  0.50168500  1
  O  O118  1  0.05523300  0.25845200  0.00168500  1
  O  O119  1  0.05523300  0.74154800  0.49831500  1
  O  O120  1  0.77654400  0.81175200  0.84601500  1
  O  O121  1  0.77654400  0.18824800  0.65398500  1
  O  O122  1  0.22345600  0.18824800  0.15398500  1
  O  O123  1  0.22345600  0.81175200  0.34601500  1
  O  O124  1  0.01631600  0.05417400  0.86069800  1
  O  O125  1  0.01631600  0.94582600  0.63930200  1
  O  O126  1  0.98368400  0.94582600  0.13930200  1
  O  O127  1  0.98368400  0.05417400  0.36069800  1
