# generated using pymatgen
data_CsGaO2
_symmetry_space_group_name_H-M   'P 1'
_cell_length_a   5.87202300
_cell_length_b   11.77141800
_cell_length_c   16.86018000
_cell_angle_alpha   90.00000000
_cell_angle_beta   90.00000000
_cell_angle_gamma   90.00000000
_symmetry_Int_Tables_number   1
_chemical_formula_structural   CsGaO2
_chemical_formula_sum   'Cs16 Ga16 O32'
_cell_volume   1165.40998981
_cell_formula_units_Z   16
loop_
 _symmetry_equiv_pos_site_id
 _symmetry_equiv_pos_as_xyz
  1  'x, y, z'
loop_
 _atom_site_type_symbol
 _atom_site_label
 _atom_site_symmetry_multiplicity
 _atom_site_fract_x
 _atom_site_fract_y
 _atom_site_fract_z
 _atom_site_occupancy
  Cs  Cs0  1  0.29990300  0.26288500  0.18608500  1
  Cs  Cs1  1  0.70009700  0.73711500  0.81391500  1
  Cs  Cs2  1  0.20009700  0.73711500  0.68608500  1
  Cs  Cs3  1  0.70009700  0.76288500  0.31391500  1
  Cs  Cs4  1  0.79990300  0.26288500  0.31391500  1
  Cs  Cs5  1  0.29990300  0.23711500  0.68608500  1
  Cs  Cs6  1  0.79990300  0.23711500  0.81391500  1
  Cs  Cs7  1  0.20009700  0.76288500  0.18608500  1
  Cs  Cs8  1  0.25346900  0.01294100  0.06316100  1
  Cs  Cs9  1  0.74653100  0.98705900  0.93683900  1
  Cs  Cs10  1  0.24653100  0.98705900  0.56316100  1
  Cs  Cs11  1  0.74653100  0.51294100  0.43683900  1
  Cs  Cs12  1  0.75346900  0.01294100  0.43683900  1
  Cs  Cs13  1  0.25346900  0.48705900  0.56316100  1
  Cs  Cs14  1  0.75346900  0.48705900  0.93683900  1
  Cs  Cs15  1  0.24653100  0.51294100  0.06316100  1
  Ga  Ga16  1  0.25837300  0.00917000  0.31193100  1
  Ga  Ga17  1  0.74162700  0.99083000  0.68806900  1
  Ga  Ga18  1  0.24162700  0.99083000  0.81193100  1
  Ga  Ga19  1  0.74162700  0.50917000  0.18806900  1
  Ga  Ga20  1  0.75837300  0.00917000  0.18806900  1
  Ga  Ga21  1  0.25837300  0.49083000  0.81193100  1
  Ga  Ga22  1  0.75837300  0.49083000  0.68806900  1
  Ga  Ga23  1  0.24162700  0.50917000  0.31193100  1
  Ga  Ga24  1  0.28108900  0.25976000  0.43667300  1
  Ga  Ga25  1  0.71891100  0.74024000  0.56332700  1
  Ga  Ga26  1  0.21891100  0.74024000  0.93667300  1
  Ga  Ga27  1  0.71891100  0.75976000  0.06332700  1
  Ga  Ga28  1  0.78108900  0.25976000  0.06332700  1
  Ga  Ga29  1  0.28108900  0.24024000  0.93667300  1
  Ga  Ga30  1  0.78108900  0.24024000  0.56332700  1
  Ga  Ga31  1  0.21891100  0.75976000  0.43667300  1
  O  O32  1  0.03813500  0.48929800  0.22704600  1
  O  O33  1  0.96186500  0.51070200  0.77295400  1
  O  O34  1  0.46186500  0.51070200  0.72704600  1
  O  O35  1  0.96186500  0.98929800  0.27295400  1
  O  O36  1  0.53813500  0.48929800  0.27295400  1
  O  O37  1  0.03813500  0.01070200  0.72704600  1
  O  O38  1  0.53813500  0.01070200  0.77295400  1
  O  O39  1  0.46186500  0.98929800  0.22704600  1
  O  O40  1  0.06084400  0.28299800  0.01153000  1
  O  O41  1  0.93915600  0.71700200  0.98847000  1
  O  O42  1  0.43915600  0.71700200  0.51153000  1
  O  O43  1  0.93915600  0.78299800  0.48847000  1
  O  O44  1  0.56084400  0.28299800  0.48847000  1
  O  O45  1  0.06084400  0.21700200  0.51153000  1
  O  O46  1  0.56084400  0.21700200  0.98847000  1
  O  O47  1  0.43915600  0.78299800  0.01153000  1
  O  O48  1  0.31100600  0.15509700  0.35370600  1
  O  O49  1  0.68899400  0.84490300  0.64629400  1
  O  O50  1  0.18899400  0.84490300  0.85370600  1
  O  O51  1  0.68899400  0.65509700  0.14629400  1
  O  O52  1  0.81100600  0.15509700  0.14629400  1
  O  O53  1  0.31100600  0.34490300  0.85370600  1
  O  O54  1  0.81100600  0.34490300  0.64629400  1
  O  O55  1  0.18899400  0.65509700  0.35370600  1
  O  O56  1  0.19394500  0.40041900  0.39206900  1
  O  O57  1  0.80605500  0.59958100  0.60793100  1
  O  O58  1  0.30605500  0.59958100  0.89206900  1
  O  O59  1  0.80605500  0.90041900  0.10793100  1
  O  O60  1  0.69394500  0.40041900  0.10793100  1
  O  O61  1  0.19394500  0.09958100  0.89206900  1
  O  O62  1  0.69394500  0.09958100  0.60793100  1
  O  O63  1  0.30605500  0.90041900  0.39206900  1
