# generated using pymatgen
data_Er4CdNi
_symmetry_space_group_name_H-M   'P 1'
_cell_length_a   9.48326360
_cell_length_b   9.48326360
_cell_length_c   9.48326360
_cell_angle_alpha   60.00000000
_cell_angle_beta   60.00000000
_cell_angle_gamma   60.00000000
_symmetry_Int_Tables_number   1
_chemical_formula_structural   Er4CdNi
_chemical_formula_sum   'Er16 Cd4 Ni4'
_cell_volume   603.05714851
_cell_formula_units_Z   4
loop_
 _symmetry_equiv_pos_site_id
 _symmetry_equiv_pos_as_xyz
  1  'x, y, z'
loop_
 _atom_site_type_symbol
 _atom_site_label
 _atom_site_symmetry_multiplicity
 _atom_site_fract_x
 _atom_site_fract_y
 _atom_site_fract_z
 _atom_site_occupancy
  Er  Er0  1  0.34937100  0.34937100  0.34937100  1
  Er  Er1  1  0.34937100  0.34937100  0.95188800  1
  Er  Er2  1  0.34937100  0.95188800  0.34937100  1
  Er  Er3  1  0.95188800  0.34937100  0.34937100  1
  Er  Er4  1  0.81041900  0.18958100  0.18958100  1
  Er  Er5  1  0.18958100  0.81041900  0.81041900  1
  Er  Er6  1  0.18958100  0.81041900  0.18958100  1
  Er  Er7  1  0.81041900  0.18958100  0.81041900  1
  Er  Er8  1  0.18958100  0.18958100  0.81041900  1
  Er  Er9  1  0.81041900  0.81041900  0.18958100  1
  Er  Er10  1  0.93702900  0.56297100  0.56297100  1
  Er  Er11  1  0.56297100  0.93702900  0.93702900  1
  Er  Er12  1  0.56297100  0.93702900  0.56297100  1
  Er  Er13  1  0.93702900  0.56297100  0.93702900  1
  Er  Er14  1  0.56297100  0.56297100  0.93702900  1
  Er  Er15  1  0.93702900  0.93702900  0.56297100  1
  Cd  Cd16  1  0.58175700  0.58175700  0.58175700  1
  Cd  Cd17  1  0.58175700  0.58175700  0.25472800  1
  Cd  Cd18  1  0.58175700  0.25472800  0.58175700  1
  Cd  Cd19  1  0.25472800  0.58175700  0.58175700  1
  Ni  Ni20  1  0.14247300  0.14247300  0.14247300  1
  Ni  Ni21  1  0.14247300  0.14247300  0.57258100  1
  Ni  Ni22  1  0.14247300  0.57258100  0.14247300  1
  Ni  Ni23  1  0.57258100  0.14247300  0.14247300  1
