# generated using pymatgen
data_RbY(SeO3)2
_symmetry_space_group_name_H-M   'P 1'
_cell_length_a   5.86168500
_cell_length_b   8.95031400
_cell_length_c   14.02784000
_cell_angle_alpha   90.00000000
_cell_angle_beta   90.00000000
_cell_angle_gamma   90.00000000
_symmetry_Int_Tables_number   1
_chemical_formula_structural   RbY(SeO3)2
_chemical_formula_sum   'Rb4 Y4 Se8 O24'
_cell_volume   735.95549404
_cell_formula_units_Z   4
loop_
 _symmetry_equiv_pos_site_id
 _symmetry_equiv_pos_as_xyz
  1  'x, y, z'
loop_
 _atom_site_type_symbol
 _atom_site_label
 _atom_site_symmetry_multiplicity
 _atom_site_fract_x
 _atom_site_fract_y
 _atom_site_fract_z
 _atom_site_occupancy
  Rb  Rb0  1  0.25000000  0.99180900  0.62684700  1
  Rb  Rb1  1  0.25000000  0.50819100  0.12684700  1
  Rb  Rb2  1  0.75000000  0.00819100  0.37315300  1
  Rb  Rb3  1  0.75000000  0.49180900  0.87315300  1
  Y  Y4  1  0.25000000  0.81084900  0.89911900  1
  Y  Y5  1  0.25000000  0.68915100  0.39911900  1
  Y  Y6  1  0.75000000  0.18915100  0.10088100  1
  Y  Y7  1  0.75000000  0.31084900  0.60088100  1
  Se  Se8  1  0.75000000  0.01763300  0.79747500  1
  Se  Se9  1  0.75000000  0.48236700  0.29747500  1
  Se  Se10  1  0.25000000  0.98236700  0.20252500  1
  Se  Se11  1  0.25000000  0.51763300  0.70252500  1
  Se  Se12  1  0.75000000  0.71485100  0.56187900  1
  Se  Se13  1  0.75000000  0.78514900  0.06187900  1
  Se  Se14  1  0.25000000  0.28514900  0.43812100  1
  Se  Se15  1  0.25000000  0.21485100  0.93812100  1
  O  O16  1  0.97948400  0.89712000  0.79531400  1
  O  O17  1  0.52051600  0.60288000  0.29531400  1
  O  O18  1  0.47948400  0.10288000  0.20468600  1
  O  O19  1  0.02051600  0.39712000  0.70468600  1
  O  O20  1  0.02051600  0.10288000  0.20468600  1
  O  O21  1  0.47948400  0.39712000  0.70468600  1
  O  O22  1  0.52051600  0.89712000  0.79531400  1
  O  O23  1  0.97948400  0.60288000  0.29531400  1
  O  O24  1  0.75000000  0.08484400  0.68131500  1
  O  O25  1  0.75000000  0.41515600  0.18131500  1
  O  O26  1  0.25000000  0.91515600  0.31868500  1
  O  O27  1  0.25000000  0.58484400  0.81868500  1
  O  O28  1  0.97995600  0.78780200  0.49991900  1
  O  O29  1  0.52004400  0.71219800  0.99991900  1
  O  O30  1  0.47995600  0.21219800  0.50008100  1
  O  O31  1  0.02004400  0.28780200  0.00008100  1
  O  O32  1  0.02004400  0.21219800  0.50008100  1
  O  O33  1  0.47995600  0.28780200  0.00008100  1
  O  O34  1  0.52004400  0.78780200  0.49991900  1
  O  O35  1  0.97995600  0.71219800  0.99991900  1
  O  O36  1  0.75000000  0.53221600  0.52604500  1
  O  O37  1  0.75000000  0.96778400  0.02604500  1
  O  O38  1  0.25000000  0.46778400  0.47395500  1
  O  O39  1  0.25000000  0.03221600  0.97395500  1
