# generated using pymatgen
data_Ba(TaN2)2
_symmetry_space_group_name_H-M   'P 1'
_cell_length_a   11.31410500
_cell_length_b   11.31410500
_cell_length_c   11.31410500
_cell_angle_alpha   90.00000000
_cell_angle_beta   90.00000000
_cell_angle_gamma   90.00000000
_symmetry_Int_Tables_number   1
_chemical_formula_structural   Ba(TaN2)2
_chemical_formula_sum   'Ba12 Ta24 N48'
_cell_volume   1448.30694960
_cell_formula_units_Z   12
loop_
 _symmetry_equiv_pos_site_id
 _symmetry_equiv_pos_as_xyz
  1  'x, y, z'
loop_
 _atom_site_type_symbol
 _atom_site_label
 _atom_site_symmetry_multiplicity
 _atom_site_fract_x
 _atom_site_fract_y
 _atom_site_fract_z
 _atom_site_occupancy
  Ba  Ba0  1  0.50000000  0.50000000  0.00000000  1
  Ba  Ba1  1  0.50000000  0.00000000  0.50000000  1
  Ba  Ba2  1  0.00000000  0.50000000  0.50000000  1
  Ba  Ba3  1  0.00000000  0.00000000  0.00000000  1
  Ba  Ba4  1  0.12072600  0.87927400  0.37927400  1
  Ba  Ba5  1  0.87927400  0.37927400  0.12072600  1
  Ba  Ba6  1  0.37927400  0.12072600  0.87927400  1
  Ba  Ba7  1  0.62072600  0.62072600  0.62072600  1
  Ba  Ba8  1  0.87927400  0.12072600  0.62072600  1
  Ba  Ba9  1  0.12072600  0.62072600  0.87927400  1
  Ba  Ba10  1  0.62072600  0.87927400  0.12072600  1
  Ba  Ba11  1  0.37927400  0.37927400  0.37927400  1
  Ta  Ta12  1  0.39156500  0.70649200  0.34881600  1
  Ta  Ta13  1  0.60843500  0.20649200  0.15118400  1
  Ta  Ta14  1  0.10843500  0.29350800  0.84881600  1
  Ta  Ta15  1  0.89156500  0.79350800  0.65118400  1
  Ta  Ta16  1  0.34881600  0.39156500  0.70649200  1
  Ta  Ta17  1  0.15118400  0.60843500  0.20649200  1
  Ta  Ta18  1  0.84881600  0.10843500  0.29350800  1
  Ta  Ta19  1  0.65118400  0.89156500  0.79350800  1
  Ta  Ta20  1  0.70649200  0.34881600  0.39156500  1
  Ta  Ta21  1  0.20649200  0.15118400  0.60843500  1
  Ta  Ta22  1  0.29350800  0.84881600  0.10843500  1
  Ta  Ta23  1  0.79350800  0.65118400  0.89156500  1
  Ta  Ta24  1  0.60843500  0.29350800  0.65118400  1
  Ta  Ta25  1  0.39156500  0.79350800  0.84881600  1
  Ta  Ta26  1  0.89156500  0.70649200  0.15118400  1
  Ta  Ta27  1  0.10843500  0.20649200  0.34881600  1
  Ta  Ta28  1  0.65118400  0.60843500  0.29350800  1
  Ta  Ta29  1  0.84881600  0.39156500  0.79350800  1
  Ta  Ta30  1  0.15118400  0.89156500  0.70649200  1
  Ta  Ta31  1  0.34881600  0.10843500  0.20649200  1
  Ta  Ta32  1  0.29350800  0.65118400  0.60843500  1
  Ta  Ta33  1  0.79350800  0.84881600  0.39156500  1
  Ta  Ta34  1  0.70649200  0.15118400  0.89156500  1
  Ta  Ta35  1  0.20649200  0.34881600  0.10843500  1
  N  N36  1  0.36262400  0.85832000  0.26593400  1
  N  N37  1  0.63737600  0.35832000  0.23406600  1
  N  N38  1  0.13737600  0.14168000  0.76593400  1
  N  N39  1  0.86262400  0.64168000  0.73406600  1
  N  N40  1  0.26593400  0.36262400  0.85832000  1
  N  N41  1  0.23406600  0.63737600  0.35832000  1
  N  N42  1  0.76593400  0.13737600  0.14168000  1
  N  N43  1  0.73406600  0.86262400  0.64168000  1
  N  N44  1  0.85832000  0.26593400  0.36262400  1
  N  N45  1  0.35832000  0.23406600  0.63737600  1
  N  N46  1  0.14168000  0.76593400  0.13737600  1
  N  N47  1  0.64168000  0.73406600  0.86262400  1
  N  N48  1  0.63737600  0.14168000  0.73406600  1
  N  N49  1  0.36262400  0.64168000  0.76593400  1
  N  N50  1  0.86262400  0.85832000  0.23406600  1
  N  N51  1  0.13737600  0.35832000  0.26593400  1
  N  N52  1  0.73406600  0.63737600  0.14168000  1
  N  N53  1  0.76593400  0.36262400  0.64168000  1
  N  N54  1  0.23406600  0.86262400  0.85832000  1
  N  N55  1  0.26593400  0.13737600  0.35832000  1
  N  N56  1  0.14168000  0.73406600  0.63737600  1
  N  N57  1  0.64168000  0.76593400  0.36262400  1
  N  N58  1  0.85832000  0.23406600  0.86262400  1
  N  N59  1  0.35832000  0.26593400  0.13737600  1
  N  N60  1  0.41909400  0.72925100  0.51654800  1
  N  N61  1  0.58090600  0.22925100  0.98345200  1
  N  N62  1  0.08090600  0.27074900  0.01654800  1
  N  N63  1  0.91909400  0.77074900  0.48345200  1
  N  N64  1  0.51654800  0.41909400  0.72925100  1
  N  N65  1  0.98345200  0.58090600  0.22925100  1
  N  N66  1  0.01654800  0.08090600  0.27074900  1
  N  N67  1  0.48345200  0.91909400  0.77074900  1
  N  N68  1  0.72925100  0.51654800  0.41909400  1
  N  N69  1  0.22925100  0.98345200  0.58090600  1
  N  N70  1  0.27074900  0.01654800  0.08090600  1
  N  N71  1  0.77074900  0.48345200  0.91909400  1
  N  N72  1  0.58090600  0.27074900  0.48345200  1
  N  N73  1  0.41909400  0.77074900  0.01654800  1
  N  N74  1  0.91909400  0.72925100  0.98345200  1
  N  N75  1  0.08090600  0.22925100  0.51654800  1
  N  N76  1  0.48345200  0.58090600  0.27074900  1
  N  N77  1  0.01654800  0.41909400  0.77074900  1
  N  N78  1  0.98345200  0.91909400  0.72925100  1
  N  N79  1  0.51654800  0.08090600  0.22925100  1
  N  N80  1  0.27074900  0.48345200  0.58090600  1
  N  N81  1  0.77074900  0.01654800  0.41909400  1
  N  N82  1  0.72925100  0.98345200  0.91909400  1
  N  N83  1  0.22925100  0.51654800  0.08090600  1
