# generated using pymatgen
data_Zr4TaGe4
_symmetry_space_group_name_H-M   'P 1'
_cell_length_a   7.18533700
_cell_length_b   7.18533700
_cell_length_c   13.17180800
_cell_angle_alpha   90.00000000
_cell_angle_beta   90.00000000
_cell_angle_gamma   90.00000000
_symmetry_Int_Tables_number   1
_chemical_formula_structural   Zr4TaGe4
_chemical_formula_sum   'Zr16 Ta4 Ge16'
_cell_volume   680.04816833
_cell_formula_units_Z   4
loop_
 _symmetry_equiv_pos_site_id
 _symmetry_equiv_pos_as_xyz
  1  'x, y, z'
loop_
 _atom_site_type_symbol
 _atom_site_label
 _atom_site_symmetry_multiplicity
 _atom_site_fract_x
 _atom_site_fract_y
 _atom_site_fract_z
 _atom_site_occupancy
  Zr  Zr0  1  0.99945500  0.84025200  0.52798600  1
  Zr  Zr1  1  0.00054500  0.15974800  0.02798600  1
  Zr  Zr2  1  0.84025200  0.00054500  0.27798600  1
  Zr  Zr3  1  0.15974800  0.99945500  0.77798600  1
  Zr  Zr4  1  0.65625200  0.49901900  0.97173400  1
  Zr  Zr5  1  0.34374800  0.50098100  0.47173400  1
  Zr  Zr6  1  0.49901900  0.34374800  0.72173400  1
  Zr  Zr7  1  0.50098100  0.65625200  0.22173400  1
  Zr  Zr8  1  0.65426600  0.99939600  0.87751100  1
  Zr  Zr9  1  0.34573400  0.00060400  0.37751100  1
  Zr  Zr10  1  0.99939600  0.34573400  0.62751100  1
  Zr  Zr11  1  0.00060400  0.65426600  0.12751100  1
  Zr  Zr12  1  0.83005300  0.67034100  0.74974100  1
  Zr  Zr13  1  0.16994700  0.32965900  0.24974100  1
  Zr  Zr14  1  0.67034100  0.16994700  0.49974100  1
  Zr  Zr15  1  0.32965900  0.83005300  0.99974100  1
  Ta  Ta16  1  0.50293600  0.84386100  0.62318300  1
  Ta  Ta17  1  0.49706400  0.15613900  0.12318300  1
  Ta  Ta18  1  0.84386100  0.49706400  0.37318300  1
  Ta  Ta19  1  0.15613900  0.50293600  0.87318300  1
  Ge  Ge20  1  0.69741900  0.54208300  0.56464600  1
  Ge  Ge21  1  0.30258100  0.45791700  0.06464600  1
  Ge  Ge22  1  0.54208300  0.30258100  0.31464600  1
  Ge  Ge23  1  0.45791700  0.69741900  0.81464600  1
  Ge  Ge24  1  0.96324500  0.79973000  0.93300500  1
  Ge  Ge25  1  0.03675500  0.20027000  0.43300500  1
  Ge  Ge26  1  0.79973000  0.03675500  0.68300500  1
  Ge  Ge27  1  0.20027000  0.96324500  0.18300500  1
  Ge  Ge28  1  0.64163900  0.79498000  0.42336400  1
  Ge  Ge29  1  0.35836100  0.20502000  0.92336400  1
  Ge  Ge30  1  0.79498000  0.35836100  0.17336400  1
  Ge  Ge31  1  0.20502000  0.64163900  0.67336400  1
  Ge  Ge32  1  0.69810600  0.86434700  0.07883200  1
  Ge  Ge33  1  0.30189400  0.13565300  0.57883200  1
  Ge  Ge34  1  0.86434700  0.30189400  0.82883200  1
  Ge  Ge35  1  0.13565300  0.69810600  0.32883200  1
