# generated using pymatgen
data_Sr2TaInO6
_symmetry_space_group_name_H-M   'P 1'
_cell_length_a   5.78917030
_cell_length_b   5.81645700
_cell_length_c   8.20777581
_cell_angle_alpha   90.00000000
_cell_angle_beta   90.13270009
_cell_angle_gamma   90.00000000
_symmetry_Int_Tables_number   1
_chemical_formula_structural   Sr2TaInO6
_chemical_formula_sum   'Sr4 Ta2 In2 O12'
_cell_volume   276.37526213
_cell_formula_units_Z   2
loop_
 _symmetry_equiv_pos_site_id
 _symmetry_equiv_pos_as_xyz
  1  'x, y, z'
loop_
 _atom_site_type_symbol
 _atom_site_label
 _atom_site_symmetry_multiplicity
 _atom_site_fract_x
 _atom_site_fract_y
 _atom_site_fract_z
 _atom_site_occupancy
  Sr  Sr0  1  0.99328200  0.47251000  0.24980500  1
  Sr  Sr1  1  0.49328200  0.02749000  0.74980500  1
  Sr  Sr2  1  0.00671800  0.52749000  0.75019500  1
  Sr  Sr3  1  0.50671800  0.97251000  0.25019500  1
  Ta  Ta4  1  0.50000000  0.50000000  0.00000000  1
  Ta  Ta5  1  0.00000000  0.00000000  0.50000000  1
  In  In6  1  0.50000000  0.50000000  0.50000000  1
  In  In7  1  0.00000000  0.00000000  0.00000000  1
  O  O8  1  0.20147700  0.27521300  0.53818600  1
  O  O9  1  0.70147700  0.22478700  0.03818600  1
  O  O10  1  0.79852300  0.72478700  0.46181400  1
  O  O11  1  0.29852300  0.77521300  0.96181400  1
  O  O12  1  0.27385200  0.79606000  0.53572600  1
  O  O13  1  0.77385200  0.70394000  0.03572600  1
  O  O14  1  0.72614800  0.20394000  0.46427400  1
  O  O15  1  0.22614800  0.29606000  0.96427400  1
  O  O16  1  0.42999400  0.51646500  0.23860000  1
  O  O17  1  0.92999400  0.98353500  0.73860000  1
  O  O18  1  0.57000600  0.48353500  0.76140000  1
  O  O19  1  0.07000600  0.01646500  0.26140000  1
