# generated using pymatgen
data_BaSrTbSbO6
_symmetry_space_group_name_H-M   'P 1'
_cell_length_a   5.97640740
_cell_length_b   5.97650075
_cell_length_c   8.44359797
_cell_angle_alpha   90.22490450
_cell_angle_beta   89.80109724
_cell_angle_gamma   89.79608776
_symmetry_Int_Tables_number   1
_chemical_formula_structural   BaSrTbSbO6
_chemical_formula_sum   'Ba2 Sr2 Tb2 Sb2 O12'
_cell_volume   301.58239501
_cell_formula_units_Z   2
loop_
 _symmetry_equiv_pos_site_id
 _symmetry_equiv_pos_as_xyz
  1  'x, y, z'
loop_
 _atom_site_type_symbol
 _atom_site_label
 _atom_site_symmetry_multiplicity
 _atom_site_fract_x
 _atom_site_fract_y
 _atom_site_fract_z
 _atom_site_occupancy
  Ba  Ba0  1  0.99638308  0.01523152  0.24983743  1
  Ba  Ba1  1  0.00361692  0.98476848  0.75016257  1
  Sr  Sr2  1  0.50288786  0.52531184  0.25140313  1
  Sr  Sr3  1  0.49711214  0.47468816  0.74859687  1
  Tb  Tb4  1  0.50000000  0.00000000  -0.00000000  1
  Tb  Tb5  1  -0.00000000  0.50000000  0.50000000  1
  Sb  Sb6  1  -0.00000000  0.50000000  -0.00000000  1
  Sb  Sb7  1  0.50000000  0.00000000  0.50000000  1
  O  O8  1  0.21297973  0.24154961  0.97161485  1
  O  O9  1  0.29518174  0.73416704  0.53184162  1
  O  O10  1  0.78702027  0.75845039  0.02838515  1
  O  O11  1  0.70481826  0.26583296  0.46815838  1
  O  O12  1  0.26252096  0.70770716  0.96561899  1
  O  O13  1  0.24183847  0.21396486  0.52400596  1
  O  O14  1  0.73747904  0.29229284  0.03438101  1
  O  O15  1  0.75816153  0.78603514  0.47599404  1
  O  O16  1  0.45275339  0.97715988  0.26442026  1
  O  O17  1  0.06581906  0.49975993  0.23500917  1
  O  O18  1  0.54724661  0.02284012  0.73557974  1
  O  O19  1  0.93418094  0.50024007  0.76499083  1
