# generated using pymatgen
data_RbNd(PO3)4
_symmetry_space_group_name_H-M   'P 1'
_cell_length_a   13.26510842
_cell_length_b   13.26510842
_cell_length_c   13.27005202
_cell_angle_alpha   70.53171666
_cell_angle_beta   70.53171666
_cell_angle_gamma   109.46043834
_symmetry_Int_Tables_number   1
_chemical_formula_structural   RbNd(PO3)4
_chemical_formula_sum   'Rb6 Nd6 P24 O72'
_cell_volume   1797.88366084
_cell_formula_units_Z   6
loop_
 _symmetry_equiv_pos_site_id
 _symmetry_equiv_pos_as_xyz
  1  'x, y, z'
loop_
 _atom_site_type_symbol
 _atom_site_label
 _atom_site_symmetry_multiplicity
 _atom_site_fract_x
 _atom_site_fract_y
 _atom_site_fract_z
 _atom_site_occupancy
  Rb  Rb0  1  0.50089300  0.27837400  0.49853300  1
  Rb  Rb1  1  0.72252500  0.22289000  0.77859100  1
  Rb  Rb2  1  0.99921100  0.99830800  0.72310300  1
  Rb  Rb3  1  0.27837400  0.50089300  0.99853300  1
  Rb  Rb4  1  0.22289000  0.72252500  0.27859100  1
  Rb  Rb5  1  0.99830800  0.99921100  0.22310300  1
  Nd  Nd6  1  0.62411200  0.87313900  0.74768900  1
  Nd  Nd7  1  0.87313900  0.62411200  0.24768900  1
  Nd  Nd8  1  0.12497100  0.74761300  0.62736300  1
  Nd  Nd9  1  0.37602000  0.25113800  0.87487700  1
  Nd  Nd10  1  0.25113800  0.37602000  0.37487700  1
  Nd  Nd11  1  0.74761300  0.12497100  0.12736300  1
  P  P12  1  0.57870900  0.58713800  0.73744600  1
  P  P13  1  0.32414400  0.81563300  0.76137100  1
  P  P14  1  0.92136000  0.68416800  0.49212700  1
  P  P15  1  0.17550500  0.91346600  0.00744800  1
  P  P16  1  0.58713800  0.57870900  0.23744600  1
  P  P17  1  0.81563300  0.32414400  0.26137100  1
  P  P18  1  0.68416800  0.92136000  0.99212700  1
  P  P19  1  0.91346600  0.17550500  0.50744800  1
  P  P20  1  0.41390700  0.99105000  0.32451900  1
  P  P21  1  0.18373600  0.50856100  0.57867300  1
  P  P22  1  0.31693800  0.23780100  0.17566400  1
  P  P23  1  0.08604200  0.26264000  0.92146600  1
  P  P24  1  0.42139200  0.00750300  0.81600100  1
  P  P25  1  0.67574400  0.49257600  0.58649400  1
  P  P26  1  0.07757600  0.76087600  0.91381300  1
  P  P27  1  0.82412600  0.73686200  0.68488100  1
  P  P28  1  0.00750300  0.42139200  0.31600100  1
  P  P29  1  0.49257600  0.67574400  0.08649400  1
  P  P30  1  0.76087600  0.07757600  0.41381300  1
  P  P31  1  0.73686200  0.82412600  0.18488100  1
  P  P32  1  0.99105000  0.41390700  0.82451900  1
  P  P33  1  0.50856100  0.18373600  0.07867300  1
  P  P34  1  0.23780100  0.31693800  0.67566400  1
  P  P35  1  0.26264000  0.08604200  0.42146600  1
  O  O36  1  0.62815500  0.58495600  0.60846900  1
  O  O37  1  0.19338200  0.73631700  0.89209800  1
  O  O38  1  0.87117600  0.76341800  0.54304000  1
  O  O39  1  0.30685800  0.91504600  0.95697200  1
  O  O40  1  0.58495600  0.62815500  0.10846900  1
  O  O41  1  0.73631700  0.19338200  0.39209800  1
  O  O42  1  0.76341800  0.87117600  0.04304000  1
  O  O43  1  0.91504600  0.30685800  0.45697200  1
  O  O44  1  0.41379200  0.04302700  0.19367600  1
  O  O45  1  0.26329100  0.45664900  0.62832900  1
  O  O46  1  0.23608400  0.10827700  0.30677300  1
  O  O47  1  0.08507100  0.39181000  0.87197500  1
  O  O48  1  0.37203400  0.95703600  0.73617200  1
  O  O49  1  0.80672300  0.54286100  0.58501100  1
  O  O50  1  0.12845700  0.89213500  0.91453400  1
  O  O51  1  0.69368300  0.60798300  0.76287700  1
  O  O52  1  0.95703600  0.37203400  0.23617200  1
  O  O53  1  0.54286100  0.80672300  0.08501100  1
  O  O54  1  0.89213500  0.12845700  0.41453400  1
  O  O55  1  0.60798300  0.69368300  0.26287700  1
  O  O56  1  0.04302700  0.41379200  0.69367600  1
  O  O57  1  0.45664900  0.26329100  0.12832900  1
  O  O58  1  0.10827700  0.23608400  0.80677300  1
  O  O59  1  0.39181000  0.08507100  0.37197500  1
  O  O60  1  0.47194700  0.46116800  0.83975800  1
  O  O61  1  0.29973300  0.81286700  0.66004600  1
  O  O62  1  0.02823800  0.68762700  0.51006700  1
  O  O63  1  0.19855300  0.03890200  0.98932600  1
  O  O64  1  0.46116800  0.47194700  0.33975800  1
  O  O65  1  0.81286700  0.29973300  0.16004600  1
  O  O66  1  0.68762700  0.02823800  0.01006700  1
  O  O67  1  0.03890200  0.19855300  0.48932600  1
  O  O68  1  0.54002300  0.01304400  0.29967500  1
  O  O69  1  0.18779700  0.48867600  0.47224300  1
  O  O70  1  0.31164900  0.34016000  0.19851400  1
  O  O71  1  0.96155700  0.15914500  0.02832600  1
  O  O72  1  0.52843400  0.98971900  0.81237700  1
  O  O73  1  0.69819100  0.50998500  0.46159900  1
  O  O74  1  0.97315300  0.66049100  0.04037000  1
  O  O75  1  0.80140000  0.84015600  0.68775000  1
  O  O76  1  0.98971900  0.52843400  0.31237700  1
  O  O77  1  0.50998500  0.69819100  0.96159900  1
  O  O78  1  0.66049100  0.97315300  0.54037000  1
  O  O79  1  0.84015600  0.80140000  0.18775000  1
  O  O80  1  0.01304400  0.54002300  0.79967500  1
  O  O81  1  0.48867600  0.18779700  0.97224300  1
  O  O82  1  0.34016000  0.31164900  0.69851400  1
  O  O83  1  0.15914500  0.96155700  0.52832600  1
  O  O84  1  0.56346300  0.69774000  0.71261700  1
  O  O85  1  0.40688300  0.77368000  0.79220600  1
  O  O86  1  0.93629500  0.72630700  0.36580800  1
  O  O87  1  0.09283700  0.80268000  0.13417300  1
  O  O88  1  0.69774100  0.56346300  0.21261700  1
  O  O89  1  0.77368000  0.40688300  0.29220600  1
  O  O90  1  0.72630700  0.93629500  0.86580800  1
  O  O91  1  0.80268000  0.09283700  0.63417300  1
  O  O92  1  0.30070900  0.86651700  0.40707100  1
  O  O93  1  0.22399900  0.63417600  0.56345100  1
  O  O94  1  0.27311800  0.20993000  0.09259100  1
  O  O95  1  0.19776500  0.29001100  0.93615600  1
  O  O96  1  0.43616900  0.13389300  0.77368100  1
  O  O97  1  0.59240300  0.36568700  0.69752300  1
  O  O98  1  0.06521900  0.79217500  0.80129900  1
  O  O99  1  0.91072800  0.71254400  0.72339000  1
  O  O100  1  0.13389300  0.43616900  0.27368100  1
  O  O101  1  0.36568700  0.59240300  0.19752300  1
  O  O102  1  0.79217500  0.06522000  0.30129900  1
  O  O103  1  0.71254400  0.91072800  0.22339000  1
  O  O104  1  0.86651700  0.30070900  0.90707100  1
  O  O105  1  0.63417600  0.22399900  0.06345100  1
  O  O106  1  0.20993000  0.27311800  0.59259100  1
  O  O107  1  0.29001100  0.19776500  0.43615600  1
