# generated using pymatgen
data_CeAl6Pd
_symmetry_space_group_name_H-M   'P 1'
_cell_length_a   4.29287700
_cell_length_b   4.29287700
_cell_length_c   8.31486000
_cell_angle_alpha   90.00000000
_cell_angle_beta   90.00000000
_cell_angle_gamma   90.00000000
_symmetry_Int_Tables_number   1
_chemical_formula_structural   CeAl6Pd
_chemical_formula_sum   'Ce1 Al6 Pd1'
_cell_volume   153.23283324
_cell_formula_units_Z   1
loop_
 _symmetry_equiv_pos_site_id
 _symmetry_equiv_pos_as_xyz
  1  'x, y, z'
loop_
 _atom_site_type_symbol
 _atom_site_label
 _atom_site_symmetry_multiplicity
 _atom_site_fract_x
 _atom_site_fract_y
 _atom_site_fract_z
 _atom_site_occupancy
  Ce  Ce0  1  0.00000000  0.00000000  0.50000000  1
  Al  Al1  1  0.50000000  0.50000000  0.35267400  1
  Al  Al2  1  0.50000000  0.50000000  0.64732600  1
  Al  Al3  1  0.00000000  0.50000000  0.16868600  1
  Al  Al4  1  0.00000000  0.50000000  0.83131400  1
  Al  Al5  1  0.50000000  0.00000000  0.16868600  1
  Al  Al6  1  0.50000000  0.00000000  0.83131400  1
  Pd  Pd7  1  0.00000000  0.00000000  0.00000000  1
