# generated using pymatgen
data_LaMg2Pd
_symmetry_space_group_name_H-M   'P 1'
_cell_length_a   5.69299189
_cell_length_b   5.69299189
_cell_length_c   8.40615800
_cell_angle_alpha   90.00000000
_cell_angle_beta   90.00000000
_cell_angle_gamma   135.20269010
_symmetry_Int_Tables_number   1
_chemical_formula_structural   LaMg2Pd
_chemical_formula_sum   'La2 Mg4 Pd2'
_cell_volume   191.96491859
_cell_formula_units_Z   2
loop_
 _symmetry_equiv_pos_site_id
 _symmetry_equiv_pos_as_xyz
  1  'x, y, z'
loop_
 _atom_site_type_symbol
 _atom_site_label
 _atom_site_symmetry_multiplicity
 _atom_site_fract_x
 _atom_site_fract_y
 _atom_site_fract_z
 _atom_site_occupancy
  La  La0  1  0.43917600  0.56082400  0.25000000  1
  La  La1  1  0.56082400  0.43917600  0.75000000  1
  Mg  Mg2  1  0.15289200  0.84710800  0.44608400  1
  Mg  Mg3  1  0.84710800  0.15289200  0.55391600  1
  Mg  Mg4  1  0.84710800  0.15289200  0.94608400  1
  Mg  Mg5  1  0.15289200  0.84710800  0.05391600  1
  Pd  Pd6  1  0.72367800  0.27632200  0.25000000  1
  Pd  Pd7  1  0.27632200  0.72367800  0.75000000  1
