# generated using pymatgen
data_LaAlGe
_symmetry_space_group_name_H-M   'P 1'
_cell_length_a   8.04203170
_cell_length_b   8.04203170
_cell_length_c   8.04203170
_cell_angle_alpha   148.46376631
_cell_angle_beta   148.46376631
_cell_angle_gamma   45.20121728
_symmetry_Int_Tables_number   1
_chemical_formula_structural   LaAlGe
_chemical_formula_sum   'La2 Al2 Ge2'
_cell_volume   141.83335697
_cell_formula_units_Z   2
loop_
 _symmetry_equiv_pos_site_id
 _symmetry_equiv_pos_as_xyz
  1  'x, y, z'
loop_
 _atom_site_type_symbol
 _atom_site_label
 _atom_site_symmetry_multiplicity
 _atom_site_fract_x
 _atom_site_fract_y
 _atom_site_fract_z
 _atom_site_occupancy
  La  La0  1  0.50055400  0.00055400  0.50000000  1
  La  La1  1  0.75055400  0.75055400  0.00000000  1
  Al  Al2  1  0.91719400  0.41719400  0.50000000  1
  Al  Al3  1  0.16719400  0.16719400  0.00000000  1
  Ge  Ge4  1  0.08395200  0.58395200  0.50000000  1
  Ge  Ge5  1  0.33395200  0.33395200  0.00000000  1
