# generated using pymatgen
data_Sm2Mo2C3
_symmetry_space_group_name_H-M   'P 1'
_cell_length_a   5.94894933
_cell_length_b   5.94894933
_cell_length_c   5.83243267
_cell_angle_alpha   74.29675450
_cell_angle_beta   74.29675450
_cell_angle_gamma   33.85571677
_symmetry_Int_Tables_number   1
_chemical_formula_structural   Sm2Mo2C3
_chemical_formula_sum   'Sm2 Mo2 C3'
_cell_volume   110.29368296
_cell_formula_units_Z   1
loop_
 _symmetry_equiv_pos_site_id
 _symmetry_equiv_pos_as_xyz
  1  'x, y, z'
loop_
 _atom_site_type_symbol
 _atom_site_label
 _atom_site_symmetry_multiplicity
 _atom_site_fract_x
 _atom_site_fract_y
 _atom_site_fract_z
 _atom_site_occupancy
  Sm  Sm0  1  0.38887600  0.38887600  0.82374500  1
  Sm  Sm1  1  0.61112400  0.61112400  0.17625500  1
  Mo  Mo2  1  0.15241700  0.15241700  0.61775900  1
  Mo  Mo3  1  0.84758300  0.84758300  0.38224100  1
  C  C4  1  0.00000000  0.00000000  0.50000000  1
  C  C5  1  0.27542700  0.27542700  0.26605500  1
  C  C6  1  0.72457300  0.72457300  0.73394500  1
