# generated using pymatgen
data_Dy(NiB)2
_symmetry_space_group_name_H-M   'P 1'
_cell_length_a   4.94822960
_cell_length_b   4.94822960
_cell_length_c   6.87292850
_cell_angle_alpha   59.28942339
_cell_angle_beta   59.28942339
_cell_angle_gamma   64.13319479
_symmetry_Int_Tables_number   1
_chemical_formula_structural   Dy(NiB)2
_chemical_formula_sum   'Dy2 Ni4 B4'
_cell_volume   120.83703767
_cell_formula_units_Z   2
loop_
 _symmetry_equiv_pos_site_id
 _symmetry_equiv_pos_as_xyz
  1  'x, y, z'
loop_
 _atom_site_type_symbol
 _atom_site_label
 _atom_site_symmetry_multiplicity
 _atom_site_fract_x
 _atom_site_fract_y
 _atom_site_fract_z
 _atom_site_occupancy
  Dy  Dy0  1  0.11919200  0.88080800  0.25000000  1
  Dy  Dy1  1  0.88080800  0.11919200  0.75000000  1
  Ni  Ni2  1  0.46677800  0.27915600  0.19974800  1
  Ni  Ni3  1  0.72084400  0.53322200  0.30025200  1
  Ni  Ni4  1  0.53322200  0.72084400  0.80025200  1
  Ni  Ni5  1  0.27915600  0.46677800  0.69974800  1
  B  B6  1  0.15537900  0.50326200  0.02234400  1
  B  B7  1  0.49673800  0.84462100  0.47765600  1
  B  B8  1  0.84462100  0.49673800  0.97765600  1
  B  B9  1  0.50326200  0.15537900  0.52234400  1
