# generated using pymatgen
data_Rb8Ti3Cr2Ni3(P2O7)8
_symmetry_space_group_name_H-M   'P 1'
_cell_length_a   7.65960517
_cell_length_b   8.38356104
_cell_length_c   20.24913997
_cell_angle_alpha   90.03659543
_cell_angle_beta   90.03274547
_cell_angle_gamma   105.80263576
_symmetry_Int_Tables_number   1
_chemical_formula_structural   Rb8Ti3Cr2Ni3(P2O7)8
_chemical_formula_sum   'Rb8 Ti3 Cr2 Ni3 P16 O56'
_cell_volume   1251.14918709
_cell_formula_units_Z   1
loop_
 _symmetry_equiv_pos_site_id
 _symmetry_equiv_pos_as_xyz
  1  'x, y, z'
loop_
 _atom_site_type_symbol
 _atom_site_label
 _atom_site_symmetry_multiplicity
 _atom_site_fract_x
 _atom_site_fract_y
 _atom_site_fract_z
 _atom_site_occupancy
  Rb  Rb0  1  0.18231300  0.55123400  0.40302500  1
  Rb  Rb1  1  0.19103500  0.54242200  0.90478000  1
  Rb  Rb2  1  0.18689800  0.06118200  0.34373400  1
  Rb  Rb3  1  0.19166100  0.04860200  0.84244100  1
  Rb  Rb4  1  0.81313900  0.96337700  0.15747200  1
  Rb  Rb5  1  0.80968600  0.94386900  0.65629700  1
  Rb  Rb6  1  0.80773600  0.43714600  0.09694100  1
  Rb  Rb7  1  0.81338000  0.45441300  0.59688700  1
  Ti  Ti8  1  0.23843500  0.75868900  0.20109400  1
  Ti  Ti9  1  0.23875800  0.25791400  0.55054400  1
  Ti  Ti10  1  0.76249200  0.74142000  0.95075000  1
  Cr  Cr11  1  0.75920600  0.74095800  0.44826100  1
  Cr  Cr12  1  0.76278000  0.24032900  0.79906200  1
  Ni  Ni13  1  0.23776700  0.75966400  0.70079700  1
  Ni  Ni14  1  0.23723000  0.25942400  0.04970900  1
  Ni  Ni15  1  0.76092700  0.24115900  0.30140300  1
  P  P16  1  0.12729900  0.83249300  0.04833900  1
  P  P17  1  0.12701500  0.82884000  0.54778600  1
  P  P18  1  0.13208800  0.32931600  0.20214800  1
  P  P19  1  0.12857800  0.33165700  0.70267100  1
  P  P20  1  0.42620700  0.68846500  0.06366700  1
  P  P21  1  0.43105000  0.68524700  0.56553100  1
  P  P22  1  0.57464800  0.81235500  0.31428000  1
  P  P23  1  0.56730400  0.81323900  0.81602700  1
  P  P24  1  0.43546100  0.18409100  0.18242600  1
  P  P25  1  0.43031900  0.18877000  0.68667700  1
  P  P26  1  0.57425800  0.31581600  0.43574400  1
  P  P27  1  0.56505400  0.31337600  0.93231700  1
  P  P28  1  0.87178700  0.66856000  0.29790100  1
  P  P29  1  0.86814800  0.66821800  0.79838000  1
  P  P30  1  0.87136300  0.16776700  0.45251300  1
  P  P31  1  0.86814300  0.17080300  0.95106300  1
  O  O32  1  0.01894700  0.77322900  0.24978700  1
  O  O33  1  0.00580300  0.77867100  0.75317700  1
  O  O34  1  0.09073700  0.75658700  0.11859000  1
  O  O35  1  0.07859200  0.76537900  0.61729400  1
  O  O36  1  0.00435100  0.27360900  0.99866700  1
  O  O37  1  0.01587300  0.26573200  0.50283900  1
  O  O38  1  0.16510800  0.52111000  0.20698400  1
  O  O39  1  0.13998200  0.51131200  0.70563000  1
  O  O40  1  0.08070100  0.26869200  0.13221900  1
  O  O41  1  0.09468100  0.25974200  0.63106100  1
  O  O42  1  0.31909000  0.80452000  0.02442100  1
  O  O43  1  0.31813400  0.79533600  0.52561400  1
  O  O44  1  0.13714700  0.01111000  0.04404300  1
  O  O45  1  0.16037800  0.01814400  0.54199300  1
  O  O46  1  0.38305500  0.76276800  0.28232000  1
  O  O47  1  0.37320100  0.76443000  0.79254100  1
  O  O48  1  0.32459000  0.51275600  0.05024000  1
  O  O49  1  0.32213600  0.50354600  0.55128700  1
  O  O50  1  0.43681700  0.74493600  0.13694800  1
  O  O51  1  0.44466700  0.73283200  0.63782700  1
  O  O52  1  0.32682000  0.29883600  0.22166400  1
  O  O53  1  0.32325300  0.30596100  0.72510600  1
  O  O54  1  0.38675300  0.26965000  0.47072300  1
  O  O55  1  0.37399400  0.26833100  0.95866900  1
  O  O56  1  0.32230600  0.00163300  0.19800900  1
  O  O57  1  0.32668100  0.01299400  0.70025000  1
  O  O58  1  0.55429800  0.75242800  0.38661500  1
  O  O59  1  0.57149300  0.76514700  0.89084700  1
  O  O60  1  0.44126800  0.22641900  0.10948500  1
  O  O61  1  0.43349500  0.24100400  0.61238700  1
  O  O62  1  0.67940200  0.98811100  0.30223200  1
  O  O63  1  0.67854800  0.98931500  0.80128400  1
  O  O64  1  0.61901000  0.73117500  0.53362700  1
  O  O65  1  0.61939200  0.74071500  0.03396900  1
  O  O66  1  0.68076700  0.69747100  0.27354700  1
  O  O67  1  0.67083600  0.69246800  0.77863700  1
  O  O68  1  0.55007600  0.26198800  0.36428200  1
  O  O69  1  0.56399400  0.26730400  0.85861900  1
  O  O70  1  0.68326600  0.49308800  0.44969000  1
  O  O71  1  0.67441200  0.49462200  0.94804500  1
  O  O72  1  0.62322800  0.22598200  0.21243000  1
  O  O73  1  0.62586600  0.24325300  0.71230400  1
  O  O74  1  0.84687200  0.98409700  0.45849300  1
  O  O75  1  0.84335400  0.98216900  0.95601900  1
  O  O76  1  0.68234800  0.20224200  0.47624200  1
  O  O77  1  0.67270800  0.19784700  0.97124800  1
  O  O78  1  0.91446800  0.74858100  0.36670900  1
  O  O79  1  0.90455600  0.73363300  0.87122200  1
  O  O80  1  0.85814700  0.48886100  0.29381900  1
  O  O81  1  0.85399300  0.48571200  0.79526100  1
  O  O82  1  0.98881800  0.73140300  0.49755700  1
  O  O83  1  0.98040100  0.72420700  0.00173300  1
  O  O84  1  0.92140500  0.24248700  0.38481600  1
  O  O85  1  0.91238600  0.23328300  0.87982400  1
  O  O86  1  0.99992700  0.23335000  0.25290800  1
  O  O87  1  0.98530800  0.21897800  0.74758200  1
