# generated using pymatgen
data_Rb2U6Pd4S17
_symmetry_space_group_name_H-M   'P 1'
_cell_length_a   10.31240600
_cell_length_b   10.31240600
_cell_length_c   12.71458300
_cell_angle_alpha   90.00000000
_cell_angle_beta   90.00000000
_cell_angle_gamma   90.00000000
_symmetry_Int_Tables_number   1
_chemical_formula_structural   Rb2U6Pd4S17
_chemical_formula_sum   'Rb4 U12 Pd8 S34'
_cell_volume   1352.14145196
_cell_formula_units_Z   2
loop_
 _symmetry_equiv_pos_site_id
 _symmetry_equiv_pos_as_xyz
  1  'x, y, z'
loop_
 _atom_site_type_symbol
 _atom_site_label
 _atom_site_symmetry_multiplicity
 _atom_site_fract_x
 _atom_site_fract_y
 _atom_site_fract_z
 _atom_site_occupancy
  Rb  Rb0  1  0.50000000  0.50000000  0.21554900  1
  Rb  Rb1  1  0.00000000  0.00000000  0.71554900  1
  Rb  Rb2  1  0.50000000  0.50000000  0.78445100  1
  Rb  Rb3  1  0.00000000  0.00000000  0.28445100  1
  U  U4  1  0.61824900  0.73877900  0.50000000  1
  U  U5  1  0.38175100  0.26122100  0.50000000  1
  U  U6  1  0.88175100  0.23877900  0.00000000  1
  U  U7  1  0.11824900  0.76122100  0.00000000  1
  U  U8  1  0.73877900  0.38175100  0.50000000  1
  U  U9  1  0.26122100  0.61824900  0.50000000  1
  U  U10  1  0.23877900  0.11824900  0.00000000  1
  U  U11  1  0.76122100  0.88175100  0.00000000  1
  U  U12  1  0.00000000  0.50000000  0.25000000  1
  U  U13  1  0.50000000  0.00000000  0.75000000  1
  U  U14  1  0.50000000  0.00000000  0.25000000  1
  U  U15  1  0.00000000  0.50000000  0.75000000  1
  Pd  Pd16  1  0.93603500  0.63851900  0.50000000  1
  Pd  Pd17  1  0.06396500  0.36148100  0.50000000  1
  Pd  Pd18  1  0.56396500  0.13851900  0.00000000  1
  Pd  Pd19  1  0.43603500  0.86148100  0.00000000  1
  Pd  Pd20  1  0.63851900  0.06396500  0.50000000  1
  Pd  Pd21  1  0.36148100  0.93603500  0.50000000  1
  Pd  Pd22  1  0.13851900  0.43603500  0.00000000  1
  Pd  Pd23  1  0.86148100  0.56396500  0.00000000  1
  S  S24  1  0.77562300  0.58984500  0.36734000  1
  S  S25  1  0.22437700  0.41015500  0.36734000  1
  S  S26  1  0.72437700  0.08984500  0.86734000  1
  S  S27  1  0.27562300  0.91015500  0.86734000  1
  S  S28  1  0.58984500  0.22437700  0.36734000  1
  S  S29  1  0.41015500  0.77562300  0.36734000  1
  S  S30  1  0.08984500  0.27562300  0.86734000  1
  S  S31  1  0.91015500  0.72437700  0.86734000  1
  S  S32  1  0.22437700  0.41015500  0.63266000  1
  S  S33  1  0.77562300  0.58984500  0.63266000  1
  S  S34  1  0.27562300  0.91015500  0.13266000  1
  S  S35  1  0.72437700  0.08984500  0.13266000  1
  S  S36  1  0.41015500  0.77562300  0.63266000  1
  S  S37  1  0.58984500  0.22437700  0.63266000  1
  S  S38  1  0.91015500  0.72437700  0.13266000  1
  S  S39  1  0.08984500  0.27562300  0.13266000  1
  S  S40  1  0.58158000  0.79349000  0.13368500  1
  S  S41  1  0.41842000  0.20651000  0.13368500  1
  S  S42  1  0.91842000  0.29349000  0.63368500  1
  S  S43  1  0.08158000  0.70651000  0.63368500  1
  S  S44  1  0.79349000  0.41842000  0.13368500  1
  S  S45  1  0.20651000  0.58158000  0.13368500  1
  S  S46  1  0.29349000  0.08158000  0.63368500  1
  S  S47  1  0.70651000  0.91842000  0.63368500  1
  S  S48  1  0.41842000  0.20651000  0.86631500  1
  S  S49  1  0.58158000  0.79349000  0.86631500  1
  S  S50  1  0.08158000  0.70651000  0.36631500  1
  S  S51  1  0.91842000  0.29349000  0.36631500  1
  S  S52  1  0.20651000  0.58158000  0.86631500  1
  S  S53  1  0.79349000  0.41842000  0.86631500  1
  S  S54  1  0.70651000  0.91842000  0.36631500  1
  S  S55  1  0.29349000  0.08158000  0.36631500  1
  S  S56  1  0.50000000  0.50000000  0.50000000  1
  S  S57  1  0.00000000  0.00000000  0.00000000  1
