# generated using pymatgen
data_KB(SO4)2
_symmetry_space_group_name_H-M   'P 1'
_cell_length_a   9.22610600
_cell_length_b   9.22610600
_cell_length_c   7.54276800
_cell_angle_alpha   90.00000000
_cell_angle_beta   90.00000000
_cell_angle_gamma   90.00000000
_symmetry_Int_Tables_number   1
_chemical_formula_structural   KB(SO4)2
_chemical_formula_sum   'K4 B4 S8 O32'
_cell_volume   642.04819572
_cell_formula_units_Z   4
loop_
 _symmetry_equiv_pos_site_id
 _symmetry_equiv_pos_as_xyz
  1  'x, y, z'
loop_
 _atom_site_type_symbol
 _atom_site_label
 _atom_site_symmetry_multiplicity
 _atom_site_fract_x
 _atom_site_fract_y
 _atom_site_fract_z
 _atom_site_occupancy
  K  K0  1  0.50000000  0.00000000  0.43626200  1
  K  K1  1  0.50000000  0.00000000  0.93626200  1
  K  K2  1  0.00000000  0.50000000  0.56373800  1
  K  K3  1  0.00000000  0.50000000  0.06373800  1
  B  B4  1  0.00000000  0.00000000  0.50000000  1
  B  B5  1  0.00000000  0.00000000  0.00000000  1
  B  B6  1  0.50000000  0.50000000  0.00000000  1
  B  B7  1  0.50000000  0.50000000  0.50000000  1
  S  S8  1  0.84611600  0.15388400  0.25000000  1
  S  S9  1  0.84611600  0.84611600  0.75000000  1
  S  S10  1  0.15388400  0.15388400  0.75000000  1
  S  S11  1  0.15388400  0.84611600  0.25000000  1
  S  S12  1  0.65388400  0.34611600  0.75000000  1
  S  S13  1  0.65388400  0.65388400  0.25000000  1
  S  S14  1  0.34611600  0.34611600  0.25000000  1
  S  S15  1  0.34611600  0.65388400  0.75000000  1
  O  O16  1  0.29566000  0.87403900  0.17806200  1
  O  O17  1  0.29566000  0.12596100  0.67806200  1
  O  O18  1  0.70434000  0.87403900  0.67806200  1
  O  O19  1  0.70434000  0.12596100  0.17806200  1
  O  O20  1  0.37403900  0.79566000  0.67806200  1
  O  O21  1  0.37403900  0.20434000  0.17806200  1
  O  O22  1  0.62596100  0.79566000  0.17806200  1
  O  O23  1  0.62596100  0.20434000  0.67806200  1
  O  O24  1  0.20434000  0.62596100  0.82193800  1
  O  O25  1  0.20434000  0.37403900  0.32193800  1
  O  O26  1  0.79566000  0.62596100  0.32193800  1
  O  O27  1  0.79566000  0.37403900  0.82193800  1
  O  O28  1  0.12596100  0.70434000  0.32193800  1
  O  O29  1  0.12596100  0.29566000  0.82193800  1
  O  O30  1  0.87403900  0.70434000  0.82193800  1
  O  O31  1  0.87403900  0.29566000  0.32193800  1
  O  O32  1  0.46700500  0.37076900  0.39153200  1
  O  O33  1  0.46700500  0.62923100  0.89153200  1
  O  O34  1  0.53299500  0.37076900  0.89153200  1
  O  O35  1  0.53299500  0.62923100  0.39153200  1
  O  O36  1  0.87076900  0.96700500  0.89153200  1
  O  O37  1  0.87076900  0.03299500  0.39153200  1
  O  O38  1  0.12923100  0.96700500  0.39153200  1
  O  O39  1  0.12923100  0.03299500  0.89153200  1
  O  O40  1  0.03299500  0.12923100  0.60846800  1
  O  O41  1  0.03299500  0.87076900  0.10846800  1
  O  O42  1  0.96700500  0.12923100  0.10846800  1
  O  O43  1  0.96700500  0.87076900  0.60846800  1
  O  O44  1  0.62923100  0.53299500  0.10846800  1
  O  O45  1  0.62923100  0.46700500  0.60846800  1
  O  O46  1  0.37076900  0.53299500  0.60846800  1
  O  O47  1  0.37076900  0.46700500  0.10846800  1
