# generated using pymatgen
data_Rb2Pu(Cl2O)2
_symmetry_space_group_name_H-M   'P 1'
_cell_length_a   5.78991231
_cell_length_b   7.21457690
_cell_length_c   7.21457690
_cell_angle_alpha   63.44591825
_cell_angle_beta   88.99315701
_cell_angle_gamma   88.99315701
_symmetry_Int_Tables_number   1
_chemical_formula_structural   Rb2Pu(Cl2O)2
_chemical_formula_sum   'Rb2 Pu1 Cl4 O2'
_cell_volume   269.51788384
_cell_formula_units_Z   1
loop_
 _symmetry_equiv_pos_site_id
 _symmetry_equiv_pos_as_xyz
  1  'x, y, z'
loop_
 _atom_site_type_symbol
 _atom_site_label
 _atom_site_symmetry_multiplicity
 _atom_site_fract_x
 _atom_site_fract_y
 _atom_site_fract_z
 _atom_site_occupancy
  Rb  Rb0  1  0.78045200  0.84311300  0.84311300  1
  Rb  Rb1  1  0.21954800  0.15688700  0.15688700  1
  Pu  Pu2  1  0.50000000  0.50000000  0.50000000  1
  Cl  Cl3  1  0.71762600  0.86178300  0.35645900  1
  Cl  Cl4  1  0.71762600  0.35645900  0.86178300  1
  Cl  Cl5  1  0.28237400  0.13821700  0.64354100  1
  Cl  Cl6  1  0.28237400  0.64354100  0.13821700  1
  O  O7  1  0.71251600  0.39339000  0.39339000  1
  O  O8  1  0.28748400  0.60661000  0.60661000  1
