# generated using pymatgen
data_BaPO3F
_symmetry_space_group_name_H-M   'P 1'
_cell_length_a   8.84421900
_cell_length_b   9.37494800
_cell_length_c   9.40863680
_cell_angle_alpha   75.55146881
_cell_angle_beta   90.00000000
_cell_angle_gamma   90.00000000
_symmetry_Int_Tables_number   1
_chemical_formula_structural   BaPO3F
_chemical_formula_sum   'Ba8 P8 O24 F8'
_cell_volume   755.43544405
_cell_formula_units_Z   8
loop_
 _symmetry_equiv_pos_site_id
 _symmetry_equiv_pos_as_xyz
  1  'x, y, z'
loop_
 _atom_site_type_symbol
 _atom_site_label
 _atom_site_symmetry_multiplicity
 _atom_site_fract_x
 _atom_site_fract_y
 _atom_site_fract_z
 _atom_site_occupancy
  Ba  Ba0  1  0.17851600  0.20969600  0.93183900  1
  Ba  Ba1  1  0.67851600  0.29030400  0.06816100  1
  Ba  Ba2  1  0.82148400  0.79030400  0.06816100  1
  Ba  Ba3  1  0.32148400  0.70969600  0.93183900  1
  Ba  Ba4  1  0.32344600  0.19229400  0.47232200  1
  Ba  Ba5  1  0.82344600  0.30770600  0.52767800  1
  Ba  Ba6  1  0.67655400  0.80770600  0.52767800  1
  Ba  Ba7  1  0.17655400  0.69229400  0.47232200  1
  P  P8  1  0.44341400  0.97998900  0.22253400  1
  P  P9  1  0.94341400  0.52001100  0.77746600  1
  P  P10  1  0.55658600  0.02001100  0.77746600  1
  P  P11  1  0.05658600  0.47998900  0.22253400  1
  P  P12  1  0.07265600  0.96852800  0.72207400  1
  P  P13  1  0.57265600  0.53147200  0.27792600  1
  P  P14  1  0.92734400  0.03147200  0.27792600  1
  P  P15  1  0.42734400  0.46852800  0.72207400  1
  O  O16  1  0.40017900  0.14188900  0.16642700  1
  O  O17  1  0.90017900  0.35811100  0.83357300  1
  O  O18  1  0.59982100  0.85811100  0.83357300  1
  O  O19  1  0.09982100  0.64188900  0.16642700  1
  O  O20  1  0.40740400  0.91695100  0.38544200  1
  O  O21  1  0.90740400  0.58304900  0.61455800  1
  O  O22  1  0.59259600  0.08304900  0.61455800  1
  O  O23  1  0.09259600  0.41695100  0.38544200  1
  O  O24  1  0.59800300  0.94037000  0.17523100  1
  O  O25  1  0.09800300  0.55963000  0.82476900  1
  O  O26  1  0.40199700  0.05963000  0.82476900  1
  O  O27  1  0.90199700  0.44037000  0.17523100  1
  O  O28  1  0.07163300  0.91489100  0.88876800  1
  O  O29  1  0.57163300  0.58510900  0.11123200  1
  O  O30  1  0.92836700  0.08510900  0.11123200  1
  O  O31  1  0.42836700  0.41489100  0.88876800  1
  O  O32  1  0.06788800  0.13626400  0.66555600  1
  O  O33  1  0.56788800  0.36373600  0.33444400  1
  O  O34  1  0.93211200  0.86373600  0.33444400  1
  O  O35  1  0.43211200  0.63626400  0.66555600  1
  O  O36  1  0.18734200  0.89379700  0.64459500  1
  O  O37  1  0.68734200  0.60620300  0.35540500  1
  O  O38  1  0.81265800  0.10620300  0.35540500  1
  O  O39  1  0.31265800  0.39379700  0.64459500  1
  F  F40  1  0.32047200  0.89361700  0.14189500  1
  F  F41  1  0.82047200  0.60638300  0.85810500  1
  F  F42  1  0.67952800  0.10638300  0.85810500  1
  F  F43  1  0.17952800  0.39361700  0.14189500  1
  F  F44  1  0.90752800  0.91719900  0.67337900  1
  F  F45  1  0.40752800  0.58280100  0.32662100  1
  F  F46  1  0.09247200  0.08280100  0.32662100  1
  F  F47  1  0.59247200  0.41719900  0.67337900  1
