# generated using pymatgen
data_KUCuS3
_symmetry_space_group_name_H-M   'P 1'
_cell_length_a   7.34636692
_cell_length_b   7.34636692
_cell_length_c   10.29570800
_cell_angle_alpha   90.00000000
_cell_angle_beta   90.00000000
_cell_angle_gamma   148.71261350
_symmetry_Int_Tables_number   1
_chemical_formula_structural   KUCuS3
_chemical_formula_sum   'K2 U2 Cu2 S6'
_cell_volume   288.56635228
_cell_formula_units_Z   2
loop_
 _symmetry_equiv_pos_site_id
 _symmetry_equiv_pos_as_xyz
  1  'x, y, z'
loop_
 _atom_site_type_symbol
 _atom_site_label
 _atom_site_symmetry_multiplicity
 _atom_site_fract_x
 _atom_site_fract_y
 _atom_site_fract_z
 _atom_site_occupancy
  K  K0  1  0.74338000  0.25662000  0.25000000  1
  K  K1  1  0.25662000  0.74338000  0.75000000  1
  U  U2  1  0.00000000  0.00000000  0.50000000  1
  U  U3  1  0.00000000  0.00000000  0.00000000  1
  Cu  Cu4  1  0.53273000  0.46727000  0.75000000  1
  Cu  Cu5  1  0.46727000  0.53273000  0.25000000  1
  S  S6  1  0.62240100  0.37759900  0.56286200  1
  S  S7  1  0.37759900  0.62240100  0.43713800  1
  S  S8  1  0.37759900  0.62240100  0.06286200  1
  S  S9  1  0.93860500  0.06139500  0.75000000  1
  S  S10  1  0.06139500  0.93860500  0.25000000  1
  S  S11  1  0.62240100  0.37759900  0.93713800  1
