# generated using pymatgen
data_Mg149Pt
_symmetry_space_group_name_H-M   'P 1'
_cell_length_a   15.93370551
_cell_length_b   15.93371047
_cell_length_c   15.64406526
_cell_angle_alpha   90.00000000
_cell_angle_beta   90.00000000
_cell_angle_gamma   120.00001028
_symmetry_Int_Tables_number   1
_chemical_formula_structural   Mg149Pt
_chemical_formula_sum   'Mg149 Pt1'
_cell_volume   3439.64730630
_cell_formula_units_Z   1
loop_
 _symmetry_equiv_pos_site_id
 _symmetry_equiv_pos_as_xyz
  1  'x, y, z'
loop_
 _atom_site_type_symbol
 _atom_site_label
 _atom_site_symmetry_multiplicity
 _atom_site_fract_x
 _atom_site_fract_y
 _atom_site_fract_z
 _atom_site_occupancy
  Mg  Mg0  1  0.60179581  0.00015243  -0.00000000  1
  Mg  Mg1  1  0.39835762  0.00015243  -0.00000000  1
  Mg  Mg2  1  0.19169051  0.00201566  -0.00000000  1
  Mg  Mg3  1  0.81032615  0.00201566  -0.00000000  1
  Mg  Mg4  1  0.19169051  0.18967385  -0.00000000  1
  Mg  Mg5  1  0.99798434  0.18967485  -0.00000000  1
  Mg  Mg6  1  0.80114371  0.19885529  -0.00000000  1
  Mg  Mg7  1  0.39771158  0.19885629  -0.00000000  1
  Mg  Mg8  1  0.59979637  0.19959274  0.00000000  1
  Mg  Mg9  1  0.19826230  0.39652359  -0.00000000  1
  Mg  Mg10  1  0.99984757  0.39820419  0.00000000  1
  Mg  Mg11  1  0.39835762  0.39820519  0.00000000  1
  Mg  Mg12  1  0.80040726  0.40020363  -0.00000000  1
  Mg  Mg13  1  0.59979637  0.40020363  0.00000000  1
  Mg  Mg14  1  0.40018886  0.59981114  0.00000000  1
  Mg  Mg15  1  0.19962227  0.59981114  0.00000000  1
  Mg  Mg16  1  0.99984757  0.60164238  0.00000000  1
  Mg  Mg17  1  0.60179581  0.60164238  -0.00000000  1
  Mg  Mg18  1  0.80114371  0.60228842  -0.00000000  1
  Mg  Mg19  1  0.40018886  0.80037873  0.00000000  1
  Mg  Mg20  1  0.60347641  0.80173870  -0.00000000  1
  Mg  Mg21  1  0.19826230  0.80173870  -0.00000000  1
  Mg  Mg22  1  0.99798434  0.80830949  -0.00000000  1
  Mg  Mg23  1  0.81032615  0.80830949  -0.00000000  1
  Mg  Mg24  1  0.06356628  0.12713155  0.15842937  1
  Mg  Mg25  1  0.87286745  0.93643372  0.15842937  1
  Mg  Mg26  1  0.06356628  0.93643472  0.15842937  1
  Mg  Mg27  1  0.26483037  0.33064744  0.16536549  1
  Mg  Mg28  1  0.06581708  0.33064744  0.16536549  1
  Mg  Mg29  1  0.66935256  0.73516963  0.16536549  1
  Mg  Mg30  1  0.06581708  0.73516963  0.16536549  1
  Mg  Mg31  1  0.66935256  0.93418292  0.16536549  1
  Mg  Mg32  1  0.26483037  0.93418292  0.16536549  1
  Mg  Mg33  1  0.06658109  0.53329055  0.16607333  1
  Mg  Mg34  1  0.46670945  0.53329055  0.16607333  1
  Mg  Mg35  1  0.46670945  0.93341891  0.16607333  1
  Mg  Mg36  1  0.26621181  0.53242261  0.16605596  1
  Mg  Mg37  1  0.26621181  0.73378819  0.16605596  1
  Mg  Mg38  1  0.46757739  0.73378819  0.16605596  1
  Mg  Mg39  1  0.46717563  0.13359947  0.16660808  1
  Mg  Mg40  1  0.66642384  0.13359947  0.16660808  1
  Mg  Mg41  1  0.86639953  0.33357616  0.16660808  1
  Mg  Mg42  1  0.46717563  0.33357616  0.16660808  1
  Mg  Mg43  1  0.86639953  0.53282337  0.16660808  1
  Mg  Mg44  1  0.66642384  0.53282437  0.16660808  1
  Mg  Mg45  1  0.66666700  0.33333300  0.16671205  1
  Mg  Mg46  1  0.86572601  0.13427499  0.16748603  1
  Mg  Mg47  1  0.26854899  0.13427499  0.16748603  1
  Mg  Mg48  1  0.86572601  0.73145101  0.16748603  1
  Mg  Mg49  1  0.00000000  0.00000000  0.33102636  1
  Mg  Mg50  1  0.00036427  0.19910562  0.33174979  1
  Mg  Mg51  1  0.19874136  0.19910662  0.33174979  1
  Mg  Mg52  1  0.00036427  0.80125764  0.33174979  1
  Mg  Mg53  1  0.80089438  0.80125764  0.33174979  1
  Mg  Mg54  1  0.80089438  0.99963573  0.33174979  1
  Mg  Mg55  1  0.19874136  0.99963573  0.33174979  1
  Mg  Mg56  1  0.60038147  0.99980940  0.33272310  1
  Mg  Mg57  1  0.39942893  0.99980940  0.33272310  1
  Mg  Mg58  1  0.00018960  0.39961853  0.33272310  1
  Mg  Mg59  1  0.39942893  0.39961853  0.33272310  1
  Mg  Mg60  1  0.00018960  0.60057207  0.33272310  1
  Mg  Mg61  1  0.60038147  0.60057207  0.33272310  1
  Mg  Mg62  1  0.19985289  0.39970379  0.33279156  1
  Mg  Mg63  1  0.19985289  0.80014811  0.33279156  1
  Mg  Mg64  1  0.60029621  0.80014811  0.33279156  1
  Mg  Mg65  1  0.20002365  0.60001233  0.33310824  1
  Mg  Mg66  1  0.39998867  0.60001233  0.33310824  1
  Mg  Mg67  1  0.39998867  0.79997635  0.33310824  1
  Mg  Mg68  1  0.59988064  0.19976128  0.33340657  1
  Mg  Mg69  1  0.59988064  0.40011936  0.33340657  1
  Mg  Mg70  1  0.80023872  0.40011936  0.33340657  1
  Mg  Mg71  1  0.39983096  0.19991598  0.33359895  1
  Mg  Mg72  1  0.80008402  0.19991598  0.33359895  1
  Mg  Mg73  1  0.80008402  0.60016804  0.33359895  1
  Mg  Mg74  1  0.06651777  0.13303655  0.50000000  1
  Mg  Mg75  1  0.86691839  0.13308061  0.50000000  1
  Mg  Mg76  1  0.26616223  0.13308161  0.50000000  1
  Mg  Mg77  1  0.46666913  0.13321217  0.50000000  1
  Mg  Mg78  1  0.66654304  0.13321217  0.50000000  1
  Mg  Mg79  1  0.26642703  0.33279251  0.50000000  1
  Mg  Mg80  1  0.06636548  0.33279251  0.50000000  1
  Mg  Mg81  1  0.66666700  0.33333300  0.50000000  1
  Mg  Mg82  1  0.46666913  0.33345696  0.50000000  1
  Mg  Mg83  1  0.86678783  0.33345796  0.50000000  1
  Mg  Mg84  1  0.26649105  0.53298211  0.50000000  1
  Mg  Mg85  1  0.46674836  0.53325164  0.50000000  1
  Mg  Mg86  1  0.06650327  0.53325164  0.50000000  1
  Mg  Mg87  1  0.66654304  0.53332987  0.50000000  1
  Mg  Mg88  1  0.86678783  0.53332987  0.50000000  1
  Mg  Mg89  1  0.26649105  0.73350895  0.50000000  1
  Mg  Mg90  1  0.46701789  0.73350895  0.50000000  1
  Mg  Mg91  1  0.06636548  0.73357297  0.50000000  1
  Mg  Mg92  1  0.66720749  0.73357297  0.50000000  1
  Mg  Mg93  1  0.86691839  0.73383777  0.50000000  1
  Mg  Mg94  1  0.46674836  0.93349673  0.50000000  1
  Mg  Mg95  1  0.06651777  0.93348223  0.50000000  1
  Mg  Mg96  1  0.86696345  0.93348223  0.50000000  1
  Mg  Mg97  1  0.26642703  0.93363452  0.50000000  1
  Mg  Mg98  1  0.66720749  0.93363452  0.50000000  1
  Mg  Mg99  1  0.39983096  0.19991598  0.66640105  1
  Mg  Mg100  1  0.80008402  0.19991598  0.66640105  1
  Mg  Mg101  1  0.80008402  0.60016804  0.66640105  1
  Mg  Mg102  1  0.59988064  0.19976128  0.66659243  1
  Mg  Mg103  1  0.59988064  0.40011936  0.66659243  1
  Mg  Mg104  1  0.80023872  0.40011936  0.66659243  1
  Mg  Mg105  1  0.20002365  0.60001233  0.66689076  1
  Mg  Mg106  1  0.39998867  0.60001233  0.66689076  1
  Mg  Mg107  1  0.39998867  0.79997635  0.66689076  1
  Mg  Mg108  1  0.19985289  0.39970379  0.66720744  1
  Mg  Mg109  1  0.19985289  0.80014811  0.66720744  1
  Mg  Mg110  1  0.60029621  0.80014811  0.66720744  1
  Mg  Mg111  1  0.60038147  0.99980940  0.66727690  1
  Mg  Mg112  1  0.39942893  0.99980940  0.66727690  1
  Mg  Mg113  1  0.00018960  0.39961853  0.66727690  1
  Mg  Mg114  1  0.39942893  0.39961853  0.66727690  1
  Mg  Mg115  1  0.00018960  0.60057207  0.66727690  1
  Mg  Mg116  1  0.60038147  0.60057207  0.66727690  1
  Mg  Mg117  1  0.00036427  0.19910562  0.66825021  1
  Mg  Mg118  1  0.19874136  0.19910662  0.66825021  1
  Mg  Mg119  1  0.00036427  0.80125764  0.66825021  1
  Mg  Mg120  1  0.80089438  0.80125764  0.66825021  1
  Mg  Mg121  1  0.80089438  0.99963573  0.66825021  1
  Mg  Mg122  1  0.19874136  0.99963573  0.66825021  1
  Mg  Mg123  1  0.00000000  0.00000000  0.66897364  1
  Mg  Mg124  1  0.86572601  0.13427499  0.83251397  1
  Mg  Mg125  1  0.26854899  0.13427499  0.83251397  1
  Mg  Mg126  1  0.86572601  0.73145101  0.83251397  1
  Mg  Mg127  1  0.66666700  0.33333300  0.83328895  1
  Mg  Mg128  1  0.46717563  0.13359947  0.83339192  1
  Mg  Mg129  1  0.66642384  0.13359947  0.83339192  1
  Mg  Mg130  1  0.86639953  0.33357616  0.83339192  1
  Mg  Mg131  1  0.46717563  0.33357616  0.83339192  1
  Mg  Mg132  1  0.86639953  0.53282337  0.83339192  1
  Mg  Mg133  1  0.66642384  0.53282437  0.83339192  1
  Mg  Mg134  1  0.26621181  0.53242261  0.83394304  1
  Mg  Mg135  1  0.26621181  0.73378819  0.83394304  1
  Mg  Mg136  1  0.46757739  0.73378819  0.83394304  1
  Mg  Mg137  1  0.06658109  0.53329055  0.83392567  1
  Mg  Mg138  1  0.46670945  0.53329055  0.83392567  1
  Mg  Mg139  1  0.46670945  0.93341891  0.83392567  1
  Mg  Mg140  1  0.26483037  0.33064744  0.83463351  1
  Mg  Mg141  1  0.06581708  0.33064744  0.83463351  1
  Mg  Mg142  1  0.66935256  0.73516963  0.83463351  1
  Mg  Mg143  1  0.06581708  0.73516963  0.83463351  1
  Mg  Mg144  1  0.66935256  0.93418292  0.83463351  1
  Mg  Mg145  1  0.26483037  0.93418292  0.83463351  1
  Mg  Mg146  1  0.06356628  0.12713155  0.84157063  1
  Mg  Mg147  1  0.87286745  0.93643372  0.84157063  1
  Mg  Mg148  1  0.06356628  0.93643472  0.84157063  1
  Pt  Pt149  1  0.00000000  0.00000000  0.00000000  1
