# generated using pymatgen
data_Sm4In21Pd10
_symmetry_space_group_name_H-M   'P 1'
_cell_length_a   11.85848712
_cell_length_b   11.85848712
_cell_length_c   17.50231391
_cell_angle_alpha   57.04451808
_cell_angle_beta   57.04451808
_cell_angle_gamma   21.91029724
_symmetry_Int_Tables_number   1
_chemical_formula_structural   Sm4In21Pd10
_chemical_formula_sum   'Sm4 In21 Pd10'
_cell_volume   764.55067078
_cell_formula_units_Z   1
loop_
 _symmetry_equiv_pos_site_id
 _symmetry_equiv_pos_as_xyz
  1  'x, y, z'
loop_
 _atom_site_type_symbol
 _atom_site_label
 _atom_site_symmetry_multiplicity
 _atom_site_fract_x
 _atom_site_fract_y
 _atom_site_fract_z
 _atom_site_occupancy
  Sm  Sm0  1  0.23025700  0.23025700  0.67233100  1
  Sm  Sm1  1  0.76974300  0.76974300  0.32766900  1
  Sm  Sm2  1  0.87813500  0.87813500  0.83215200  1
  Sm  Sm3  1  0.12186500  0.12186500  0.16784800  1
  In  In4  1  0.50000000  0.50000000  0.00000000  1
  In  In5  1  0.11546000  0.11546000  0.94936400  1
  In  In6  1  0.88454000  0.88454000  0.05063600  1
  In  In7  1  0.45761100  0.45761100  0.86714500  1
  In  In8  1  0.54238900  0.54238900  0.13285500  1
  In  In9  1  0.06363600  0.06363600  0.70314900  1
  In  In10  1  0.93636400  0.93636400  0.29685100  1
  In  In11  1  0.36797800  0.36797800  0.70000200  1
  In  In12  1  0.63202200  0.63202200  0.29999800  1
  In  In13  1  0.98833200  0.98833200  0.59409100  1
  In  In14  1  0.01166800  0.01166800  0.40590900  1
  In  In15  1  0.74881800  0.74881800  0.79407100  1
  In  In16  1  0.25118200  0.25118200  0.20592900  1
  In  In17  1  0.61635400  0.61635400  0.79526900  1
  In  In18  1  0.38364600  0.38364600  0.20473100  1
  In  In19  1  0.60125900  0.60125900  0.50429700  1
  In  In20  1  0.39874100  0.39874100  0.49570300  1
  In  In21  1  0.20241000  0.20241000  0.49534100  1
  In  In22  1  0.79759000  0.79759000  0.50465900  1
  In  In23  1  0.70062500  0.70062500  0.99995500  1
  In  In24  1  0.29937500  0.29937500  0.00004500  1
  Pd  Pd25  1  0.25090000  0.25090000  0.88493900  1
  Pd  Pd26  1  0.74910000  0.74910000  0.11506100  1
  Pd  Pd27  1  0.02528400  0.02528400  0.88793000  1
  Pd  Pd28  1  0.97471600  0.97471600  0.11207000  1
  Pd  Pd29  1  0.65345500  0.65345500  0.61484500  1
  Pd  Pd30  1  0.34654500  0.34654500  0.38515500  1
  Pd  Pd31  1  0.86068500  0.86068500  0.60737800  1
  Pd  Pd32  1  0.13931500  0.13931500  0.39262200  1
  Pd  Pd33  1  0.49343000  0.49343000  0.68764600  1
  Pd  Pd34  1  0.50657000  0.50657000  0.31235400  1
