# generated using pymatgen
data_RbNaCaTh(Si2O5)4
_symmetry_space_group_name_H-M   'P 1'
_cell_length_a   7.68326400
_cell_length_b   7.68326400
_cell_length_c   14.86363600
_cell_angle_alpha   90.00000000
_cell_angle_beta   90.00000000
_cell_angle_gamma   90.00000000
_symmetry_Int_Tables_number   1
_chemical_formula_structural   RbNaCaTh(Si2O5)4
_chemical_formula_sum   'Rb2 Na2 Ca2 Th2 Si16 O40'
_cell_volume   877.43827134
_cell_formula_units_Z   2
loop_
 _symmetry_equiv_pos_site_id
 _symmetry_equiv_pos_as_xyz
  1  'x, y, z'
loop_
 _atom_site_type_symbol
 _atom_site_label
 _atom_site_symmetry_multiplicity
 _atom_site_fract_x
 _atom_site_fract_y
 _atom_site_fract_z
 _atom_site_occupancy
  Rb  Rb0  1  0.00000000  0.00000000  0.50000000  1
  Rb  Rb1  1  0.00000000  0.00000000  0.00000000  1
  Na  Na2  1  0.50000000  0.00000000  0.25000000  1
  Na  Na3  1  0.00000000  0.50000000  0.75000000  1
  Ca  Ca4  1  0.00000000  0.50000000  0.25000000  1
  Ca  Ca5  1  0.50000000  0.00000000  0.75000000  1
  Th  Th6  1  0.00000000  0.00000000  0.25000000  1
  Th  Th7  1  0.00000000  0.00000000  0.75000000  1
  Si  Si8  1  0.33307000  0.26217000  0.39063800  1
  Si  Si9  1  0.66693000  0.73783000  0.39063800  1
  Si  Si10  1  0.73396900  0.33497400  0.39108900  1
  Si  Si11  1  0.26603100  0.66502600  0.39108900  1
  Si  Si12  1  0.66502600  0.26603100  0.89108900  1
  Si  Si13  1  0.33497400  0.73396900  0.89108900  1
  Si  Si14  1  0.26217000  0.33307000  0.89063800  1
  Si  Si15  1  0.73783000  0.66693000  0.89063800  1
  Si  Si16  1  0.66502600  0.73396900  0.60891100  1
  Si  Si17  1  0.33497400  0.26603100  0.60891100  1
  Si  Si18  1  0.26217000  0.66693000  0.60936200  1
  Si  Si19  1  0.73783000  0.33307000  0.60936200  1
  Si  Si20  1  0.33307000  0.73783000  0.10936200  1
  Si  Si21  1  0.66693000  0.26217000  0.10936200  1
  Si  Si22  1  0.73396900  0.66502600  0.10891100  1
  Si  Si23  1  0.26603100  0.33497400  0.10891100  1
  O  O24  1  0.25458100  0.45589300  0.36241600  1
  O  O25  1  0.74541900  0.54410700  0.36241600  1
  O  O26  1  0.54140000  0.25867800  0.36366700  1
  O  O27  1  0.45860000  0.74132200  0.36366700  1
  O  O28  1  0.74132200  0.45860000  0.86366700  1
  O  O29  1  0.25867800  0.54140000  0.86366700  1
  O  O30  1  0.45589300  0.25458100  0.86241600  1
  O  O31  1  0.54410700  0.74541900  0.86241600  1
  O  O32  1  0.74132200  0.54140000  0.63633300  1
  O  O33  1  0.25867800  0.45860000  0.63633300  1
  O  O34  1  0.45589300  0.74541900  0.63758400  1
  O  O35  1  0.54410700  0.25458100  0.63758400  1
  O  O36  1  0.25458100  0.54410700  0.13758400  1
  O  O37  1  0.74541900  0.45589300  0.13758400  1
  O  O38  1  0.54140000  0.74132200  0.13633300  1
  O  O39  1  0.45860000  0.25867800  0.13633300  1
  O  O40  1  0.31181600  0.24342100  0.50013400  1
  O  O41  1  0.68818400  0.75657900  0.50013400  1
  O  O42  1  0.75657900  0.31181600  0.49986600  1
  O  O43  1  0.24342100  0.68818400  0.49986600  1
  O  O44  1  0.68818400  0.24342100  0.99986600  1
  O  O45  1  0.31181600  0.75657900  0.99986600  1
  O  O46  1  0.24342100  0.31181600  0.00013400  1
  O  O47  1  0.75657900  0.68818400  0.00013400  1
  O  O48  1  0.23727300  0.10714600  0.33913500  1
  O  O49  1  0.76272700  0.89285400  0.33913500  1
  O  O50  1  0.89283300  0.25064700  0.33623600  1
  O  O51  1  0.10716700  0.74935300  0.33623600  1
  O  O52  1  0.74935300  0.10716700  0.83623600  1
  O  O53  1  0.25064700  0.89283300  0.83623600  1
  O  O54  1  0.10714600  0.23727300  0.83913500  1
  O  O55  1  0.89285400  0.76272700  0.83913500  1
  O  O56  1  0.74935300  0.89283300  0.66376400  1
  O  O57  1  0.25064700  0.10716700  0.66376400  1
  O  O58  1  0.10714600  0.76272700  0.66086500  1
  O  O59  1  0.89285400  0.23727300  0.66086500  1
  O  O60  1  0.23727300  0.89285400  0.16086500  1
  O  O61  1  0.76272700  0.10714600  0.16086500  1
  O  O62  1  0.89283300  0.74935300  0.16376400  1
  O  O63  1  0.10716700  0.25064700  0.16376400  1
