# generated using pymatgen
data_CsBe2P2HO8
_symmetry_space_group_name_H-M   'P 1'
_cell_length_a   4.96878875
_cell_length_b   10.84832743
_cell_length_c   13.25761069
_cell_angle_alpha   92.96091900
_cell_angle_beta   92.85504537
_cell_angle_gamma   91.04318265
_symmetry_Int_Tables_number   1
_chemical_formula_structural   CsBe2P2HO8
_chemical_formula_sum   'Cs4 Be8 P8 H4 O32'
_cell_volume   712.63105375
_cell_formula_units_Z   4
loop_
 _symmetry_equiv_pos_site_id
 _symmetry_equiv_pos_as_xyz
  1  'x, y, z'
loop_
 _atom_site_type_symbol
 _atom_site_label
 _atom_site_symmetry_multiplicity
 _atom_site_fract_x
 _atom_site_fract_y
 _atom_site_fract_z
 _atom_site_occupancy
  Cs  Cs0  1  0.25502500  0.72141800  0.84432600  1
  Cs  Cs1  1  0.74497500  0.27858200  0.15567400  1
  Cs  Cs2  1  0.26906900  0.25770900  0.67211100  1
  Cs  Cs3  1  0.73093100  0.74229100  0.32788900  1
  Be  Be4  1  0.72460100  0.45366300  0.87217500  1
  Be  Be5  1  0.27539900  0.54633700  0.12782500  1
  Be  Be6  1  0.18604200  0.56450900  0.53732600  1
  Be  Be7  1  0.81395800  0.43549100  0.46267400  1
  Be  Be8  1  0.78453100  0.83149200  0.66486400  1
  Be  Be9  1  0.21546900  0.16850800  0.33513600  1
  Be  Be10  1  0.33236600  0.06746300  0.95830700  1
  Be  Be11  1  0.66763400  0.93253700  0.04169300  1
  P  P12  1  0.22728800  0.34575800  0.95673400  1
  P  P13  1  0.77271200  0.65424200  0.04326600  1
  P  P14  1  0.68961700  0.55534300  0.66219800  1
  P  P15  1  0.31038300  0.44465700  0.33780200  1
  P  P16  1  0.27410600  0.83123200  0.54549300  1
  P  P17  1  0.72589400  0.16876800  0.45450700  1
  P  P18  1  0.82394100  0.01803100  0.84238600  1
  P  P19  1  0.17605900  0.98196900  0.15761400  1
  H  H20  1  0.26295600  0.99464400  0.45225200  1
  H  H21  1  0.73704400  0.00535600  0.54774800  1
  H  H22  1  0.83814500  0.22358200  0.84639600  1
  H  H23  1  0.16185500  0.77641800  0.15360400  1
  O  O24  1  0.41959600  0.40181000  0.88334300  1
  O  O25  1  0.58040400  0.59819000  0.11665700  1
  O  O26  1  0.93552600  0.34187100  0.90493500  1
  O  O27  1  0.06447400  0.65812900  0.09506500  1
  O  O28  1  0.30468900  0.21144300  0.97787900  1
  O  O29  1  0.69531100  0.78855700  0.02212100  1
  O  O30  1  0.22336600  0.41836100  0.05948500  1
  O  O31  1  0.77663400  0.58163900  0.94051500  1
  O  O32  1  0.87092900  0.52853000  0.56882500  1
  O  O33  1  0.12907100  0.47147000  0.43117500  1
  O  O34  1  0.39648600  0.52381800  0.62329400  1
  O  O35  1  0.60351400  0.47618200  0.37670600  1
  O  O36  1  0.72894600  0.69162700  0.69697600  1
  O  O37  1  0.27105400  0.30837300  0.30302400  1
  O  O38  1  0.76948300  0.47334400  0.74923600  1
  O  O39  1  0.23051700  0.52665600  0.25076400  1
  O  O40  1  0.09651000  0.85609800  0.63473500  1
  O  O41  1  0.90349000  0.14390200  0.36526500  1
  O  O42  1  0.57407600  0.86731600  0.57098100  1
  O  O43  1  0.42592400  0.13268400  0.42901900  1
  O  O44  1  0.23791900  0.69865700  0.50025600  1
  O  O45  1  0.76208100  0.30134300  0.49974400  1
  O  O46  1  0.18384000  0.90948000  0.45173700  1
  O  O47  1  0.81616000  0.09052000  0.54826300  1
  O  O48  1  0.72855900  0.91924300  0.76406900  1
  O  O49  1  0.27144100  0.08075700  0.23593100  1
  O  O50  1  0.64388800  0.01435600  0.93610200  1
  O  O51  1  0.35611200  0.98564400  0.06389800  1
  O  O52  1  0.11824800  0.00295600  0.87842300  1
  O  O53  1  0.88175200  0.99704400  0.12157700  1
  O  O54  1  0.77916400  0.14862600  0.79782300  1
  O  O55  1  0.22083600  0.85137400  0.20217700  1
