# generated using pymatgen
data_Ho6Al43Cr4
_symmetry_space_group_name_H-M   'P 1'
_cell_length_a   10.92044097
_cell_length_b   10.92044097
_cell_length_c   17.47125800
_cell_angle_alpha   90.00000000
_cell_angle_beta   90.00000000
_cell_angle_gamma   119.99999374
_symmetry_Int_Tables_number   1
_chemical_formula_structural   Ho6Al43Cr4
_chemical_formula_sum   'Ho12 Al86 Cr8'
_cell_volume   1804.40984164
_cell_formula_units_Z   2
loop_
 _symmetry_equiv_pos_site_id
 _symmetry_equiv_pos_as_xyz
  1  'x, y, z'
loop_
 _atom_site_type_symbol
 _atom_site_label
 _atom_site_symmetry_multiplicity
 _atom_site_fract_x
 _atom_site_fract_y
 _atom_site_fract_z
 _atom_site_occupancy
  Ho  Ho0  1  0.47007900  0.47007900  0.90466900  1
  Ho  Ho1  1  0.52992100  0.00000000  0.90466900  1
  Ho  Ho2  1  0.00000000  0.52992100  0.90466900  1
  Ho  Ho3  1  0.52992100  0.52992100  0.09533100  1
  Ho  Ho4  1  0.47007900  0.00000000  0.09533100  1
  Ho  Ho5  1  0.00000000  0.47007900  0.09533100  1
  Ho  Ho6  1  0.52992100  0.52992100  0.40466900  1
  Ho  Ho7  1  0.47007900  0.00000000  0.40466900  1
  Ho  Ho8  1  0.00000000  0.47007900  0.40466900  1
  Ho  Ho9  1  0.47007900  0.47007900  0.59533100  1
  Ho  Ho10  1  0.52992100  0.00000000  0.59533100  1
  Ho  Ho11  1  0.00000000  0.52992100  0.59533100  1
  Al  Al12  1  0.84127800  0.23179500  0.83448400  1
  Al  Al13  1  0.76820500  0.60948200  0.83448400  1
  Al  Al14  1  0.39051800  0.15872200  0.83448400  1
  Al  Al15  1  0.23179500  0.84127800  0.83448400  1
  Al  Al16  1  0.60948200  0.76820500  0.83448400  1
  Al  Al17  1  0.15872200  0.39051800  0.83448400  1
  Al  Al18  1  0.15872200  0.76820500  0.16551600  1
  Al  Al19  1  0.23179500  0.39051800  0.16551600  1
  Al  Al20  1  0.60948200  0.84127800  0.16551600  1
  Al  Al21  1  0.76820500  0.15872200  0.16551600  1
  Al  Al22  1  0.39051800  0.23179500  0.16551600  1
  Al  Al23  1  0.84127800  0.60948200  0.16551600  1
  Al  Al24  1  0.15872200  0.76820500  0.33448400  1
  Al  Al25  1  0.23179500  0.39051800  0.33448400  1
  Al  Al26  1  0.60948200  0.84127800  0.33448400  1
  Al  Al27  1  0.76820500  0.15872200  0.33448400  1
  Al  Al28  1  0.39051800  0.23179500  0.33448400  1
  Al  Al29  1  0.84127800  0.60948200  0.33448400  1
  Al  Al30  1  0.84127800  0.23179500  0.66551600  1
  Al  Al31  1  0.76820500  0.60948200  0.66551600  1
  Al  Al32  1  0.39051800  0.15872200  0.66551600  1
  Al  Al33  1  0.23179500  0.84127800  0.66551600  1
  Al  Al34  1  0.60948200  0.76820500  0.66551600  1
  Al  Al35  1  0.15872200  0.39051800  0.66551600  1
  Al  Al36  1  0.84502000  0.84502000  0.38391500  1
  Al  Al37  1  0.15498000  0.00000000  0.38391500  1
  Al  Al38  1  0.00000000  0.15498000  0.38391500  1
  Al  Al39  1  0.15498000  0.15498000  0.61608500  1
  Al  Al40  1  0.84502000  0.00000000  0.61608500  1
  Al  Al41  1  0.00000000  0.84502000  0.61608500  1
  Al  Al42  1  0.15498000  0.15498000  0.88391500  1
  Al  Al43  1  0.84502000  0.00000000  0.88391500  1
  Al  Al44  1  0.00000000  0.84502000  0.88391500  1
  Al  Al45  1  0.84502000  0.84502000  0.11608500  1
  Al  Al46  1  0.15498000  0.00000000  0.11608500  1
  Al  Al47  1  0.00000000  0.15498000  0.11608500  1
  Al  Al48  1  0.74859100  0.74859100  0.96934000  1
  Al  Al49  1  0.25140900  0.00000000  0.96934000  1
  Al  Al50  1  0.00000000  0.25140900  0.96934000  1
  Al  Al51  1  0.25140900  0.25140900  0.03066000  1
  Al  Al52  1  0.74859100  0.00000000  0.03066000  1
  Al  Al53  1  0.00000000  0.74859100  0.03066000  1
  Al  Al54  1  0.25140900  0.25140900  0.46934000  1
  Al  Al55  1  0.74859100  0.00000000  0.46934000  1
  Al  Al56  1  0.00000000  0.74859100  0.46934000  1
  Al  Al57  1  0.74859100  0.74859100  0.53066000  1
  Al  Al58  1  0.25140900  0.00000000  0.53066000  1
  Al  Al59  1  0.00000000  0.25140900  0.53066000  1
  Al  Al60  1  0.85535900  0.45175500  0.75000000  1
  Al  Al61  1  0.54824500  0.40360400  0.75000000  1
  Al  Al62  1  0.59639600  0.14464100  0.75000000  1
  Al  Al63  1  0.45175500  0.85535900  0.75000000  1
  Al  Al64  1  0.40360400  0.54824500  0.75000000  1
  Al  Al65  1  0.14464100  0.59639600  0.75000000  1
  Al  Al66  1  0.14464100  0.54824500  0.25000000  1
  Al  Al67  1  0.45175500  0.59639600  0.25000000  1
  Al  Al68  1  0.40360400  0.85535900  0.25000000  1
  Al  Al69  1  0.54824500  0.14464100  0.25000000  1
  Al  Al70  1  0.59639600  0.45175500  0.25000000  1
  Al  Al71  1  0.85535900  0.40360400  0.25000000  1
  Al  Al72  1  0.75327900  0.24672100  0.00000000  1
  Al  Al73  1  0.75327900  0.50655900  0.00000000  1
  Al  Al74  1  0.49344100  0.24672100  0.00000000  1
  Al  Al75  1  0.24672100  0.75327900  0.00000000  1
  Al  Al76  1  0.50655900  0.75327900  0.00000000  1
  Al  Al77  1  0.24672100  0.49344100  0.00000000  1
  Al  Al78  1  0.24672100  0.75327900  0.50000000  1
  Al  Al79  1  0.24672100  0.49344100  0.50000000  1
  Al  Al80  1  0.50655900  0.75327900  0.50000000  1
  Al  Al81  1  0.75327900  0.24672100  0.50000000  1
  Al  Al82  1  0.49344100  0.24672100  0.50000000  1
  Al  Al83  1  0.75327900  0.50655900  0.50000000  1
  Al  Al84  1  0.66666700  0.33333300  0.87245300  1
  Al  Al85  1  0.33333300  0.66666700  0.87245300  1
  Al  Al86  1  0.33333300  0.66666700  0.12754700  1
  Al  Al87  1  0.66666700  0.33333300  0.12754700  1
  Al  Al88  1  0.33333300  0.66666700  0.37245300  1
  Al  Al89  1  0.66666700  0.33333300  0.37245300  1
  Al  Al90  1  0.66666700  0.33333300  0.62754700  1
  Al  Al91  1  0.33333300  0.66666700  0.62754700  1
  Al  Al92  1  0.85518200  0.85518200  0.75000000  1
  Al  Al93  1  0.14481800  0.00000000  0.75000000  1
  Al  Al94  1  0.00000000  0.14481800  0.75000000  1
  Al  Al95  1  0.14481800  0.14481800  0.25000000  1
  Al  Al96  1  0.85518200  0.00000000  0.25000000  1
  Al  Al97  1  0.00000000  0.85518200  0.25000000  1
  Cr  Cr98  1  0.26999300  0.26999300  0.75000000  1
  Cr  Cr99  1  0.73000700  0.00000000  0.75000000  1
  Cr  Cr100  1  0.00000000  0.73000700  0.75000000  1
  Cr  Cr101  1  0.73000700  0.73000700  0.25000000  1
  Cr  Cr102  1  0.26999300  0.00000000  0.25000000  1
  Cr  Cr103  1  0.00000000  0.26999300  0.25000000  1
  Cr  Cr104  1  0.00000000  0.00000000  0.00000000  1
  Cr  Cr105  1  0.00000000  0.00000000  0.50000000  1
