# generated using pymatgen
data_Sr2TcO4
_symmetry_space_group_name_H-M   'P 1'
_cell_length_a   7.09554715
_cell_length_b   7.09554715
_cell_length_c   7.09554715
_cell_angle_alpha   148.18293123
_cell_angle_beta   148.18293123
_cell_angle_gamma   45.61539479
_symmetry_Int_Tables_number   1
_chemical_formula_structural   Sr2TcO4
_chemical_formula_sum   'Sr2 Tc1 O4'
_cell_volume   98.96587884
_cell_formula_units_Z   1
loop_
 _symmetry_equiv_pos_site_id
 _symmetry_equiv_pos_as_xyz
  1  'x, y, z'
loop_
 _atom_site_type_symbol
 _atom_site_label
 _atom_site_symmetry_multiplicity
 _atom_site_fract_x
 _atom_site_fract_y
 _atom_site_fract_z
 _atom_site_occupancy
  Sr  Sr0  1  0.64943600  0.64943600  0.00000000  1
  Sr  Sr1  1  0.35056400  0.35056400  0.00000000  1
  Tc  Tc2  1  0.00000000  0.00000000  0.00000000  1
  O  O3  1  0.00000000  0.50000000  0.50000000  1
  O  O4  1  0.50000000  0.00000000  0.50000000  1
  O  O5  1  0.83639800  0.83639800  0.00000000  1
  O  O6  1  0.16360200  0.16360200  0.00000000  1
