# generated using pymatgen
data_Er2ReB6
_symmetry_space_group_name_H-M   'P 1'
_cell_length_a   3.65133700
_cell_length_b   9.13606300
_cell_length_c   11.51455100
_cell_angle_alpha   90.00000000
_cell_angle_beta   90.00000000
_cell_angle_gamma   90.00000000
_symmetry_Int_Tables_number   1
_chemical_formula_structural   Er2ReB6
_chemical_formula_sum   'Er8 Re4 B24'
_cell_volume   384.11212051
_cell_formula_units_Z   4
loop_
 _symmetry_equiv_pos_site_id
 _symmetry_equiv_pos_as_xyz
  1  'x, y, z'
loop_
 _atom_site_type_symbol
 _atom_site_label
 _atom_site_symmetry_multiplicity
 _atom_site_fract_x
 _atom_site_fract_y
 _atom_site_fract_z
 _atom_site_occupancy
  Er  Er0  1  0.00000000  0.32400400  0.41383600  1
  Er  Er1  1  0.00000000  0.67599600  0.58616400  1
  Er  Er2  1  0.00000000  0.82400400  0.08616400  1
  Er  Er3  1  0.00000000  0.17599600  0.91383600  1
  Er  Er4  1  0.00000000  0.94376000  0.37011600  1
  Er  Er5  1  0.00000000  0.05624000  0.62988400  1
  Er  Er6  1  0.00000000  0.44376000  0.12988400  1
  Er  Er7  1  0.00000000  0.55624000  0.87011600  1
  Re  Re8  1  0.00000000  0.63880500  0.32106200  1
  Re  Re9  1  0.00000000  0.36119500  0.67893800  1
  Re  Re10  1  0.00000000  0.13880500  0.17893800  1
  Re  Re11  1  0.00000000  0.86119500  0.82106200  1
  B  B12  1  0.50000000  0.55340400  0.43321500  1
  B  B13  1  0.50000000  0.44659600  0.56678500  1
  B  B14  1  0.50000000  0.05340400  0.06678500  1
  B  B15  1  0.50000000  0.94659600  0.93321500  1
  B  B16  1  0.50000000  0.75019300  0.41967300  1
  B  B17  1  0.50000000  0.24980700  0.58032700  1
  B  B18  1  0.50000000  0.25019300  0.08032700  1
  B  B19  1  0.50000000  0.74980700  0.91967300  1
  B  B20  1  0.50000000  0.79314900  0.26579200  1
  B  B21  1  0.50000000  0.20685100  0.73420800  1
  B  B22  1  0.50000000  0.29314900  0.23420800  1
  B  B23  1  0.50000000  0.70685100  0.76579200  1
  B  B24  1  0.50000000  0.63166600  0.18561500  1
  B  B25  1  0.50000000  0.36833400  0.81438500  1
  B  B26  1  0.50000000  0.13166600  0.31438500  1
  B  B27  1  0.50000000  0.86833400  0.68561500  1
  B  B28  1  0.50000000  0.98257700  0.21215000  1
  B  B29  1  0.50000000  0.01742300  0.78785000  1
  B  B30  1  0.50000000  0.48257700  0.28785000  1
  B  B31  1  0.50000000  0.51742300  0.71215000  1
  B  B32  1  0.50000000  0.60042600  0.02815000  1
  B  B33  1  0.50000000  0.39957400  0.97185000  1
  B  B34  1  0.50000000  0.10042600  0.47185000  1
  B  B35  1  0.50000000  0.89957400  0.52815000  1
