# generated using pymatgen
data_Co(BMo)2
_symmetry_space_group_name_H-M   'P 1'
_cell_length_a   4.52349869
_cell_length_b   4.52349869
_cell_length_c   4.52349869
_cell_angle_alpha   139.06221472
_cell_angle_beta   119.22367323
_cell_angle_gamma   75.89841712
_symmetry_Int_Tables_number   1
_chemical_formula_structural   Co(BMo)2
_chemical_formula_sum   'Co1 B2 Mo2'
_cell_volume   51.64600294
_cell_formula_units_Z   1
loop_
 _symmetry_equiv_pos_site_id
 _symmetry_equiv_pos_as_xyz
  1  'x, y, z'
loop_
 _atom_site_type_symbol
 _atom_site_label
 _atom_site_symmetry_multiplicity
 _atom_site_fract_x
 _atom_site_fract_y
 _atom_site_fract_z
 _atom_site_occupancy
  Co  Co0  1  0.00000000  0.00000000  0.00000000  1
  B  B1  1  0.70421000  0.50000000  0.20421000  1
  B  B2  1  0.29579000  0.50000000  0.79579000  1
  Mo  Mo3  1  0.69988200  0.19988200  0.50000000  1
  Mo  Mo4  1  0.30011800  0.80011800  0.50000000  1
