# generated using pymatgen
data_RbIn3O5
_symmetry_space_group_name_H-M   'P 1'
_cell_length_a   3.34222900
_cell_length_b   9.81254700
_cell_length_c   17.02460100
_cell_angle_alpha   90.00000000
_cell_angle_beta   90.00000000
_cell_angle_gamma   90.00000000
_symmetry_Int_Tables_number   1
_chemical_formula_structural   RbIn3O5
_chemical_formula_sum   'Rb4 In12 O20'
_cell_volume   558.33505447
_cell_formula_units_Z   4
loop_
 _symmetry_equiv_pos_site_id
 _symmetry_equiv_pos_as_xyz
  1  'x, y, z'
loop_
 _atom_site_type_symbol
 _atom_site_label
 _atom_site_symmetry_multiplicity
 _atom_site_fract_x
 _atom_site_fract_y
 _atom_site_fract_z
 _atom_site_occupancy
  Rb  Rb0  1  0.75000000  0.50088200  0.38414700  1
  Rb  Rb1  1  0.25000000  0.49911800  0.61585300  1
  Rb  Rb2  1  0.25000000  0.99911800  0.88414700  1
  Rb  Rb3  1  0.75000000  0.00088200  0.11585300  1
  In  In4  1  0.75000000  0.84496700  0.30273300  1
  In  In5  1  0.25000000  0.15503300  0.69726700  1
  In  In6  1  0.25000000  0.65503300  0.80273300  1
  In  In7  1  0.75000000  0.34496700  0.19726700  1
  In  In8  1  0.75000000  0.65141400  0.97677900  1
  In  In9  1  0.25000000  0.34858600  0.02322100  1
  In  In10  1  0.25000000  0.84858600  0.47677900  1
  In  In11  1  0.75000000  0.15141400  0.52322100  1
  In  In12  1  0.75000000  0.86184900  0.64792600  1
  In  In13  1  0.25000000  0.13815100  0.35207400  1
  In  In14  1  0.25000000  0.63815100  0.14792600  1
  In  In15  1  0.75000000  0.36184900  0.85207400  1
  O  O16  1  0.75000000  0.99722900  0.42401800  1
  O  O17  1  0.25000000  0.00277100  0.57598200  1
  O  O18  1  0.25000000  0.50277100  0.92401800  1
  O  O19  1  0.75000000  0.49722900  0.07598200  1
  O  O20  1  0.75000000  0.75059800  0.53525900  1
  O  O21  1  0.25000000  0.24940200  0.46474100  1
  O  O22  1  0.25000000  0.74940200  0.03525900  1
  O  O23  1  0.75000000  0.25059800  0.96474100  1
  O  O24  1  0.75000000  0.74590700  0.19167800  1
  O  O25  1  0.25000000  0.25409300  0.80832200  1
  O  O26  1  0.25000000  0.75409300  0.69167800  1
  O  O27  1  0.75000000  0.24590700  0.30832200  1
  O  O28  1  0.75000000  0.75594000  0.86744400  1
  O  O29  1  0.25000000  0.24406000  0.13255600  1
  O  O30  1  0.25000000  0.74406000  0.36744400  1
  O  O31  1  0.75000000  0.25594000  0.63255600  1
  O  O32  1  0.75000000  0.52341800  0.76908900  1
  O  O33  1  0.25000000  0.47658200  0.23091100  1
  O  O34  1  0.25000000  0.97658200  0.26908900  1
  O  O35  1  0.75000000  0.02341800  0.73091100  1
