# generated using pymatgen
data_ZrGeIr
_symmetry_space_group_name_H-M   'P 1'
_cell_length_a   4.07845700
_cell_length_b   6.62580600
_cell_length_c   7.60323400
_cell_angle_alpha   90.00000000
_cell_angle_beta   90.00000000
_cell_angle_gamma   90.00000000
_symmetry_Int_Tables_number   1
_chemical_formula_structural   ZrGeIr
_chemical_formula_sum   'Zr4 Ge4 Ir4'
_cell_volume   205.46268554
_cell_formula_units_Z   4
loop_
 _symmetry_equiv_pos_site_id
 _symmetry_equiv_pos_as_xyz
  1  'x, y, z'
loop_
 _atom_site_type_symbol
 _atom_site_label
 _atom_site_symmetry_multiplicity
 _atom_site_fract_x
 _atom_site_fract_y
 _atom_site_fract_z
 _atom_site_occupancy
  Zr  Zr0  1  0.25000000  0.02151400  0.81425900  1
  Zr  Zr1  1  0.25000000  0.52151400  0.68574100  1
  Zr  Zr2  1  0.75000000  0.97848600  0.18574100  1
  Zr  Zr3  1  0.75000000  0.47848600  0.31425900  1
  Ge  Ge4  1  0.25000000  0.76975300  0.37955200  1
  Ge  Ge5  1  0.25000000  0.26975300  0.12044800  1
  Ge  Ge6  1  0.75000000  0.23024700  0.62044800  1
  Ge  Ge7  1  0.75000000  0.73024700  0.87955200  1
  Ir  Ir8  1  0.25000000  0.15195100  0.43802900  1
  Ir  Ir9  1  0.25000000  0.65195100  0.06197100  1
  Ir  Ir10  1  0.75000000  0.84804900  0.56197100  1
  Ir  Ir11  1  0.75000000  0.34804900  0.93802900  1
