# generated using pymatgen
data_PH6C(NF2)3
_symmetry_space_group_name_H-M   'P 1'
_cell_length_a   7.83162264
_cell_length_b   7.83162261
_cell_length_c   7.83162242
_cell_angle_alpha   64.18847295
_cell_angle_beta   64.18847470
_cell_angle_gamma   64.18846850
_symmetry_Int_Tables_number   1
_chemical_formula_structural   PH6C(NF2)3
_chemical_formula_sum   'P2 H12 C2 N6 F12'
_cell_volume   370.93962519
_cell_formula_units_Z   2
loop_
 _symmetry_equiv_pos_site_id
 _symmetry_equiv_pos_as_xyz
  1  'x, y, z'
loop_
 _atom_site_type_symbol
 _atom_site_label
 _atom_site_symmetry_multiplicity
 _atom_site_fract_x
 _atom_site_fract_y
 _atom_site_fract_z
 _atom_site_occupancy
  P  P0  1  0.00000000  0.00000000  0.00000000  1
  P  P1  1  0.50000000  0.50000000  0.50000000  1
  H  H2  1  0.49731100  0.98743100  0.77793600  1
  H  H3  1  0.49731100  0.77793600  0.98743100  1
  H  H4  1  0.77793600  0.49731100  0.98743100  1
  H  H5  1  0.98743100  0.49731100  0.77793600  1
  H  H6  1  0.98743100  0.77793600  0.49731100  1
  H  H7  1  0.77793600  0.98743100  0.49731100  1
  H  H8  1  0.50268900  0.01256900  0.22206400  1
  H  H9  1  0.50268900  0.22206400  0.01256900  1
  H  H10  1  0.22206400  0.50268900  0.01256900  1
  H  H11  1  0.01256900  0.50268900  0.22206400  1
  H  H12  1  0.01256900  0.22206400  0.50268900  1
  H  H13  1  0.22206400  0.01256900  0.50268900  1
  C  C14  1  0.75151700  0.75151700  0.75151700  1
  C  C15  1  0.24848300  0.24848300  0.24848300  1
  N  N16  1  0.56598300  0.84354300  0.84354300  1
  N  N17  1  0.84354300  0.56598300  0.84354300  1
  N  N18  1  0.84354300  0.84354300  0.56598300  1
  N  N19  1  0.43401700  0.15645700  0.15645700  1
  N  N20  1  0.15645700  0.43401700  0.15645700  1
  N  N21  1  0.15645700  0.15645700  0.43401700  1
  F  F22  1  0.13465100  0.85586300  0.85586300  1
  F  F23  1  0.85586300  0.13465100  0.85586300  1
  F  F24  1  0.85586300  0.85586300  0.13465100  1
  F  F25  1  0.86534900  0.14413700  0.14413700  1
  F  F26  1  0.14413700  0.86534900  0.14413700  1
  F  F27  1  0.14413700  0.14413700  0.86534900  1
  F  F28  1  0.73696000  0.45816400  0.45816400  1
  F  F29  1  0.45816400  0.73696000  0.45816400  1
  F  F30  1  0.45816400  0.45816400  0.73696000  1
  F  F31  1  0.26304000  0.54183600  0.54183600  1
  F  F32  1  0.54183600  0.26304000  0.54183600  1
  F  F33  1  0.54183600  0.54183600  0.26304000  1
