# generated using pymatgen
data_DyMnFeO5
_symmetry_space_group_name_H-M   'P 1'
_cell_length_a   5.79153400
_cell_length_b   7.34814700
_cell_length_c   8.61101700
_cell_angle_alpha   90.00000000
_cell_angle_beta   90.00000000
_cell_angle_gamma   90.00000000
_symmetry_Int_Tables_number   1
_chemical_formula_structural   DyMnFeO5
_chemical_formula_sum   'Dy4 Mn4 Fe4 O20'
_cell_volume   366.45942236
_cell_formula_units_Z   4
loop_
 _symmetry_equiv_pos_site_id
 _symmetry_equiv_pos_as_xyz
  1  'x, y, z'
loop_
 _atom_site_type_symbol
 _atom_site_label
 _atom_site_symmetry_multiplicity
 _atom_site_fract_x
 _atom_site_fract_y
 _atom_site_fract_z
 _atom_site_occupancy
  Dy  Dy0  1  0.50000000  0.36602000  0.33078200  1
  Dy  Dy1  1  0.50000000  0.63398000  0.66921800  1
  Dy  Dy2  1  0.50000000  0.13398000  0.83078200  1
  Dy  Dy3  1  0.50000000  0.86602000  0.16921800  1
  Mn  Mn4  1  0.25077400  0.00000000  0.50000000  1
  Mn  Mn5  1  0.74922600  0.00000000  0.50000000  1
  Mn  Mn6  1  0.74922600  0.50000000  0.00000000  1
  Mn  Mn7  1  0.25077400  0.50000000  0.00000000  1
  Fe  Fe8  1  0.00000000  0.10712200  0.14615700  1
  Fe  Fe9  1  0.00000000  0.89287800  0.85384300  1
  Fe  Fe10  1  0.00000000  0.39287800  0.64615700  1
  Fe  Fe11  1  0.00000000  0.60712200  0.35384300  1
  O  O12  1  0.50000000  0.33825100  0.05738600  1
  O  O13  1  0.50000000  0.66174900  0.94261400  1
  O  O14  1  0.50000000  0.16174900  0.55738600  1
  O  O15  1  0.50000000  0.83825100  0.44261400  1
  O  O16  1  0.23324100  0.00000000  0.00000000  1
  O  O17  1  0.76675900  0.00000000  0.00000000  1
  O  O18  1  0.76675900  0.50000000  0.50000000  1
  O  O19  1  0.23324100  0.50000000  0.50000000  1
  O  O20  1  0.25961700  0.10586100  0.29502000  1
  O  O21  1  0.74038300  0.89413900  0.70498000  1
  O  O22  1  0.25961700  0.89413900  0.70498000  1
  O  O23  1  0.74038300  0.39413900  0.79502000  1
  O  O24  1  0.74038300  0.10586100  0.29502000  1
  O  O25  1  0.25961700  0.60586100  0.20498000  1
  O  O26  1  0.74038300  0.60586100  0.20498000  1
  O  O27  1  0.25961700  0.39413900  0.79502000  1
  O  O28  1  0.00000000  0.34969700  0.07065700  1
  O  O29  1  0.00000000  0.65030300  0.92934300  1
  O  O30  1  0.00000000  0.15030300  0.57065700  1
  O  O31  1  0.00000000  0.84969700  0.42934300  1
