# generated using pymatgen
data_Tm3Ru
_symmetry_space_group_name_H-M   'P 1'
_cell_length_a   6.20567100
_cell_length_b   7.24999400
_cell_length_c   9.02195100
_cell_angle_alpha   90.00000000
_cell_angle_beta   90.00000000
_cell_angle_gamma   90.00000000
_symmetry_Int_Tables_number   1
_chemical_formula_structural   Tm3Ru
_chemical_formula_sum   'Tm12 Ru4'
_cell_volume   405.90729679
_cell_formula_units_Z   4
loop_
 _symmetry_equiv_pos_site_id
 _symmetry_equiv_pos_as_xyz
  1  'x, y, z'
loop_
 _atom_site_type_symbol
 _atom_site_label
 _atom_site_symmetry_multiplicity
 _atom_site_fract_x
 _atom_site_fract_y
 _atom_site_fract_z
 _atom_site_occupancy
  Tm  Tm0  1  0.63328000  0.04121300  0.25000000  1
  Tm  Tm1  1  0.36672000  0.95878700  0.75000000  1
  Tm  Tm2  1  0.13328000  0.45878700  0.75000000  1
  Tm  Tm3  1  0.86672000  0.54121300  0.25000000  1
  Tm  Tm4  1  0.16931700  0.17596800  0.06372700  1
  Tm  Tm5  1  0.83068300  0.82403200  0.93627300  1
  Tm  Tm6  1  0.66931700  0.32403200  0.93627300  1
  Tm  Tm7  1  0.83068300  0.82403200  0.56372700  1
  Tm  Tm8  1  0.33068300  0.67596800  0.06372700  1
  Tm  Tm9  1  0.16931700  0.17596800  0.43627300  1
  Tm  Tm10  1  0.33068300  0.67596800  0.43627300  1
  Tm  Tm11  1  0.66931700  0.32403200  0.56372700  1
  Ru  Ru12  1  0.46153200  0.38482300  0.25000000  1
  Ru  Ru13  1  0.53846800  0.61517700  0.75000000  1
  Ru  Ru14  1  0.96153200  0.11517700  0.75000000  1
  Ru  Ru15  1  0.03846800  0.88482300  0.25000000  1
