# generated using pymatgen
data_Pr3Re2O9
_symmetry_space_group_name_H-M   'P 1'
_cell_length_a   5.66667400
_cell_length_b   6.87423743
_cell_length_c   11.15321191
_cell_angle_alpha   77.10884803
_cell_angle_beta   75.59393244
_cell_angle_gamma   69.09627692
_symmetry_Int_Tables_number   1
_chemical_formula_structural   Pr3Re2O9
_chemical_formula_sum   'Pr6 Re4 O18'
_cell_volume   388.74894502
_cell_formula_units_Z   2
loop_
 _symmetry_equiv_pos_site_id
 _symmetry_equiv_pos_as_xyz
  1  'x, y, z'
loop_
 _atom_site_type_symbol
 _atom_site_label
 _atom_site_symmetry_multiplicity
 _atom_site_fract_x
 _atom_site_fract_y
 _atom_site_fract_z
 _atom_site_occupancy
  Pr  Pr0  1  0.00258500  0.22465100  0.27074900  1
  Pr  Pr1  1  0.99741500  0.77534900  0.72925100  1
  Pr  Pr2  1  0.22145400  0.16396100  0.88191800  1
  Pr  Pr3  1  0.77854600  0.83603900  0.11808200  1
  Pr  Pr4  1  0.28362300  0.59430200  0.37999400  1
  Pr  Pr5  1  0.71637700  0.40569800  0.62000600  1
  Re  Re6  1  0.50981000  0.38725900  0.09153700  1
  Re  Re7  1  0.49019000  0.61274100  0.90846300  1
  Re  Re8  1  0.35597200  0.12242700  0.57103100  1
  Re  Re9  1  0.64402800  0.87757300  0.42896900  1
  O  O10  1  0.30365000  0.41781300  0.59012300  1
  O  O11  1  0.69635000  0.58218700  0.40987700  1
  O  O12  1  0.58598700  0.05705600  0.68803400  1
  O  O13  1  0.41401300  0.94294400  0.31196600  1
  O  O14  1  0.85550800  0.18733900  0.06356100  1
  O  O15  1  0.14449200  0.81266100  0.93643900  1
  O  O16  1  0.38317100  0.17206200  0.07139700  1
  O  O17  1  0.61682900  0.82793800  0.92860300  1
  O  O18  1  0.06214400  0.11380400  0.71172500  1
  O  O19  1  0.93785600  0.88619600  0.28827500  1
  O  O20  1  0.17549800  0.51071200  0.19037400  1
  O  O21  1  0.82450200  0.48928800  0.80962600  1
  O  O22  1  0.10978900  0.25202200  0.46103900  1
  O  O23  1  0.89021100  0.74797800  0.53896100  1
  O  O24  1  0.64061300  0.52239000  0.18486700  1
  O  O25  1  0.35938700  0.47761000  0.81513300  1
  O  O26  1  0.62754000  0.18098600  0.42223000  1
  O  O27  1  0.37246000  0.81901400  0.57777000  1
