# generated using pymatgen
data_Ce(Sb3Os)4
_symmetry_space_group_name_H-M   'P 1'
_cell_length_a   8.14249382
_cell_length_b   8.14249382
_cell_length_c   8.14249382
_cell_angle_alpha   109.47122063
_cell_angle_beta   109.47122063
_cell_angle_gamma   109.47122063
_symmetry_Int_Tables_number   1
_chemical_formula_structural   Ce(Sb3Os)4
_chemical_formula_sum   'Ce1 Sb12 Os4'
_cell_volume   415.57596538
_cell_formula_units_Z   1
loop_
 _symmetry_equiv_pos_site_id
 _symmetry_equiv_pos_as_xyz
  1  'x, y, z'
loop_
 _atom_site_type_symbol
 _atom_site_label
 _atom_site_symmetry_multiplicity
 _atom_site_fract_x
 _atom_site_fract_y
 _atom_site_fract_z
 _atom_site_occupancy
  Ce  Ce0  1  0.00000000  0.00000000  0.00000000  1
  Sb  Sb1  1  0.33786900  0.18085700  0.84298800  1
  Sb  Sb2  1  0.66213100  0.81914300  0.15701200  1
  Sb  Sb3  1  0.66213100  0.50512000  0.84298800  1
  Sb  Sb4  1  0.33786900  0.49488000  0.15701200  1
  Sb  Sb5  1  0.18085700  0.84298800  0.33786900  1
  Sb  Sb6  1  0.81914300  0.15701200  0.66213100  1
  Sb  Sb7  1  0.50512000  0.84298800  0.66213100  1
  Sb  Sb8  1  0.49488000  0.15701200  0.33786900  1
  Sb  Sb9  1  0.84298800  0.33786900  0.18085700  1
  Sb  Sb10  1  0.15701200  0.66213100  0.81914300  1
  Sb  Sb11  1  0.84298800  0.66213100  0.50512000  1
  Sb  Sb12  1  0.15701200  0.33786900  0.49488000  1
  Os  Os13  1  0.00000000  0.00000000  0.50000000  1
  Os  Os14  1  0.50000000  0.00000000  0.00000000  1
  Os  Os15  1  0.00000000  0.50000000  0.00000000  1
  Os  Os16  1  0.50000000  0.50000000  0.50000000  1
