# generated using pymatgen
data_Cs2FeO4
_symmetry_space_group_name_H-M   'P 1'
_cell_length_a   6.38478600
_cell_length_b   8.57782900
_cell_length_c   11.34538700
_cell_angle_alpha   90.00000000
_cell_angle_beta   90.00000000
_cell_angle_gamma   90.00000000
_symmetry_Int_Tables_number   1
_chemical_formula_structural   Cs2FeO4
_chemical_formula_sum   'Cs8 Fe4 O16'
_cell_volume   621.35964553
_cell_formula_units_Z   4
loop_
 _symmetry_equiv_pos_site_id
 _symmetry_equiv_pos_as_xyz
  1  'x, y, z'
loop_
 _atom_site_type_symbol
 _atom_site_label
 _atom_site_symmetry_multiplicity
 _atom_site_fract_x
 _atom_site_fract_y
 _atom_site_fract_z
 _atom_site_occupancy
  Cs  Cs0  1  0.25000000  0.66602500  0.41092300  1
  Cs  Cs1  1  0.75000000  0.33397500  0.58907700  1
  Cs  Cs2  1  0.25000000  0.16602500  0.08907700  1
  Cs  Cs3  1  0.75000000  0.83397500  0.91092300  1
  Cs  Cs4  1  0.75000000  0.51244800  0.19359800  1
  Cs  Cs5  1  0.25000000  0.48755200  0.80640200  1
  Cs  Cs6  1  0.75000000  0.01244800  0.30640200  1
  Cs  Cs7  1  0.25000000  0.98755200  0.69359800  1
  Fe  Fe8  1  0.75000000  0.26417100  0.91941100  1
  Fe  Fe9  1  0.25000000  0.73582900  0.08058900  1
  Fe  Fe10  1  0.75000000  0.76417100  0.58058900  1
  Fe  Fe11  1  0.25000000  0.23582900  0.41941100  1
  O  O12  1  0.25000000  0.04265300  0.41301200  1
  O  O13  1  0.75000000  0.95734700  0.58698800  1
  O  O14  1  0.25000000  0.54265300  0.08698800  1
  O  O15  1  0.75000000  0.45734700  0.91301200  1
  O  O16  1  0.25000000  0.79513600  0.94029800  1
  O  O17  1  0.75000000  0.20486400  0.05970200  1
  O  O18  1  0.25000000  0.29513600  0.55970200  1
  O  O19  1  0.75000000  0.70486400  0.44029800  1
  O  O20  1  0.53644800  0.19433100  0.85351500  1
  O  O21  1  0.03644800  0.80566900  0.14648500  1
  O  O22  1  0.96355200  0.69433100  0.64648500  1
  O  O23  1  0.46355200  0.30566900  0.35351500  1
  O  O24  1  0.53644800  0.69433100  0.64648500  1
  O  O25  1  0.03644800  0.30566900  0.35351500  1
  O  O26  1  0.96355200  0.19433100  0.85351500  1
  O  O27  1  0.46355200  0.80566900  0.14648500  1
