# generated using pymatgen
data_Cs6U2(Cu4S5)3
_symmetry_space_group_name_H-M   'P 1'
_cell_length_a   16.63388390
_cell_length_b   16.63388390
_cell_length_c   16.63388390
_cell_angle_alpha   109.47122063
_cell_angle_beta   109.47122063
_cell_angle_gamma   109.47122063
_symmetry_Int_Tables_number   1
_chemical_formula_structural   Cs6U2(Cu4S5)3
_chemical_formula_sum   'Cs24 U8 Cu48 S60'
_cell_volume   3542.90173736
_cell_formula_units_Z   4
loop_
 _symmetry_equiv_pos_site_id
 _symmetry_equiv_pos_as_xyz
  1  'x, y, z'
loop_
 _atom_site_type_symbol
 _atom_site_label
 _atom_site_symmetry_multiplicity
 _atom_site_fract_x
 _atom_site_fract_y
 _atom_site_fract_z
 _atom_site_occupancy
  Cs  Cs0  1  0.81654827  0.90827414  0.15827414  1
  Cs  Cs1  1  0.68345173  0.34172586  0.59172586  1
  Cs  Cs2  1  0.75000000  0.59172586  0.90827414  1
  Cs  Cs3  1  0.75000000  0.15827414  0.34172586  1
  Cs  Cs4  1  0.15827414  0.81654827  0.90827414  1
  Cs  Cs5  1  0.59172586  0.68345173  0.34172586  1
  Cs  Cs6  1  0.90827414  0.75000000  0.59172586  1
  Cs  Cs7  1  0.34172586  0.75000000  0.15827414  1
  Cs  Cs8  1  0.90827414  0.15827414  0.81654827  1
  Cs  Cs9  1  0.34172586  0.59172586  0.68345173  1
  Cs  Cs10  1  0.59172586  0.90827414  0.75000000  1
  Cs  Cs11  1  0.15827414  0.34172586  0.75000000  1
  Cs  Cs12  1  0.18345173  0.09172586  0.84172586  1
  Cs  Cs13  1  0.31654827  0.65827414  0.40827414  1
  Cs  Cs14  1  0.25000000  0.40827414  0.09172586  1
  Cs  Cs15  1  0.25000000  0.84172586  0.65827414  1
  Cs  Cs16  1  0.84172586  0.18345173  0.09172586  1
  Cs  Cs17  1  0.40827414  0.31654827  0.65827414  1
  Cs  Cs18  1  0.09172586  0.25000000  0.40827414  1
  Cs  Cs19  1  0.65827414  0.25000000  0.84172586  1
  Cs  Cs20  1  0.09172586  0.84172586  0.18345173  1
  Cs  Cs21  1  0.65827414  0.40827414  0.31654827  1
  Cs  Cs22  1  0.40827414  0.09172586  0.25000000  1
  Cs  Cs23  1  0.84172586  0.65827414  0.25000000  1
  U  U24  1  -0.00000000  0.50000000  0.00000000  1
  U  U25  1  0.50000000  -0.00000000  0.00000000  1
  U  U26  1  -0.00000000  -0.00000000  0.50000000  1
  U  U27  1  0.50000000  0.50000000  0.50000000  1
  U  U28  1  -0.00000000  0.50000000  0.50000000  1
  U  U29  1  0.50000000  -0.00000000  0.50000000  1
  U  U30  1  0.50000000  0.50000000  0.00000000  1
  U  U31  1  -0.00000000  -0.00000000  0.00000000  1
  Cu  Cu32  1  0.93254707  0.56783579  0.84751006  1
  Cu  Cu33  1  0.56745293  0.91496299  0.13528872  1
  Cu  Cu34  1  0.77967427  0.93216421  0.36471128  1
  Cu  Cu35  1  0.72032573  0.58503701  0.65248994  1
  Cu  Cu36  1  0.84751006  0.93254707  0.56783579  1
  Cu  Cu37  1  0.13528872  0.56745293  0.91496299  1
  Cu  Cu38  1  0.36471128  0.77967427  0.93216421  1
  Cu  Cu39  1  0.65248994  0.72032573  0.58503701  1
  Cu  Cu40  1  0.56783579  0.84751006  0.93254707  1
  Cu  Cu41  1  0.91496299  0.13528872  0.56745293  1
  Cu  Cu42  1  0.93216421  0.36471128  0.77967427  1
  Cu  Cu43  1  0.58503701  0.65248994  0.72032573  1
  Cu  Cu44  1  0.06745293  0.43216421  0.15248994  1
  Cu  Cu45  1  0.43254707  0.08503701  0.86471128  1
  Cu  Cu46  1  0.22032573  0.06783579  0.63528872  1
  Cu  Cu47  1  0.27967427  0.41496299  0.34751006  1
  Cu  Cu48  1  0.15248994  0.06745293  0.43216421  1
  Cu  Cu49  1  0.86471128  0.43254707  0.08503701  1
  Cu  Cu50  1  0.63528872  0.22032573  0.06783579  1
  Cu  Cu51  1  0.34751006  0.27967427  0.41496299  1
  Cu  Cu52  1  0.43216421  0.15248994  0.06745293  1
  Cu  Cu53  1  0.08503701  0.86471128  0.43254707  1
  Cu  Cu54  1  0.06783579  0.63528872  0.22032573  1
  Cu  Cu55  1  0.41496299  0.34751006  0.27967427  1
  Cu  Cu56  1  0.06783579  0.43254707  0.34751006  1
  Cu  Cu57  1  0.41496299  0.06745293  0.63528872  1
  Cu  Cu58  1  0.43216421  0.27967427  0.86471128  1
  Cu  Cu59  1  0.08503701  0.22032573  0.15248994  1
  Cu  Cu60  1  0.43254707  0.34751006  0.06783579  1
  Cu  Cu61  1  0.06745293  0.63528872  0.41496299  1
  Cu  Cu62  1  0.27967427  0.86471128  0.43216421  1
  Cu  Cu63  1  0.22032573  0.15248994  0.08503701  1
  Cu  Cu64  1  0.34751006  0.06783579  0.43254707  1
  Cu  Cu65  1  0.63528872  0.41496299  0.06745293  1
  Cu  Cu66  1  0.86471128  0.43216421  0.27967427  1
  Cu  Cu67  1  0.15248994  0.08503701  0.22032573  1
  Cu  Cu68  1  0.93216421  0.56745293  0.65248994  1
  Cu  Cu69  1  0.58503701  0.93254707  0.36471128  1
  Cu  Cu70  1  0.56783579  0.72032573  0.13528872  1
  Cu  Cu71  1  0.91496299  0.77967427  0.84751006  1
  Cu  Cu72  1  0.56745293  0.65248994  0.93216421  1
  Cu  Cu73  1  0.93254707  0.36471128  0.58503701  1
  Cu  Cu74  1  0.72032573  0.13528872  0.56783579  1
  Cu  Cu75  1  0.77967427  0.84751006  0.91496299  1
  Cu  Cu76  1  0.65248994  0.93216421  0.56745293  1
  Cu  Cu77  1  0.36471128  0.58503701  0.93254707  1
  Cu  Cu78  1  0.13528872  0.56783579  0.72032573  1
  Cu  Cu79  1  0.84751006  0.91496299  0.77967427  1
  S  S80  1  0.07784155  0.65655439  0.66914492  1
  S  S81  1  0.42215845  0.59130337  0.07871284  1
  S  S82  1  0.51259053  0.84344561  0.42128716  1
  S  S83  1  0.98740947  0.90869663  0.83085508  1
  S  S84  1  0.66914492  0.07784155  0.65655439  1
  S  S85  1  0.07871284  0.42215845  0.59130337  1
  S  S86  1  0.42128716  0.51259053  0.84344561  1
  S  S87  1  0.83085508  0.98740947  0.90869663  1
  S  S88  1  0.65655439  0.66914492  0.07784155  1
  S  S89  1  0.59130337  0.07871284  0.42215845  1
  S  S90  1  0.84344561  0.42128716  0.51259053  1
  S  S91  1  0.90869663  0.83085508  0.98740947  1
  S  S92  1  0.92215845  0.34344561  0.33085508  1
  S  S93  1  0.57784155  0.40869663  0.92128716  1
  S  S94  1  0.48740947  0.15655439  0.57871284  1
  S  S95  1  0.01259053  0.09130337  0.16914492  1
  S  S96  1  0.33085508  0.92215845  0.34344561  1
  S  S97  1  0.92128716  0.57784155  0.40869663  1
  S  S98  1  0.57871284  0.48740947  0.15655439  1
  S  S99  1  0.16914492  0.01259053  0.09130337  1
  S  S100  1  0.34344561  0.33085508  0.92215845  1
  S  S101  1  0.40869663  0.92128716  0.57784155  1
  S  S102  1  0.15655439  0.57871284  0.48740947  1
  S  S103  1  0.09130337  0.16914492  0.01259053  1
  S  S104  1  0.15655439  0.57784155  0.16914492  1
  S  S105  1  0.09130337  0.92215845  0.57871284  1
  S  S106  1  0.34344561  0.01259053  0.92128716  1
  S  S107  1  0.40869663  0.48740947  0.33085508  1
  S  S108  1  0.57784155  0.16914492  0.15655439  1
  S  S109  1  0.92215845  0.57871284  0.09130337  1
  S  S110  1  0.01259053  0.92128716  0.34344561  1
  S  S111  1  0.48740947  0.33085508  0.40869663  1
  S  S112  1  0.16914492  0.15655439  0.57784155  1
  S  S113  1  0.57871284  0.09130337  0.92215845  1
  S  S114  1  0.92128716  0.34344561  0.01259053  1
  S  S115  1  0.33085508  0.40869663  0.48740947  1
  S  S116  1  0.84344561  0.42215845  0.83085508  1
  S  S117  1  0.90869663  0.07784155  0.42128716  1
  S  S118  1  0.65655439  0.98740947  0.07871284  1
  S  S119  1  0.59130337  0.51259053  0.66914492  1
  S  S120  1  0.42215845  0.83085508  0.84344561  1
  S  S121  1  0.07784155  0.42128716  0.90869663  1
  S  S122  1  0.98740947  0.07871284  0.65655439  1
  S  S123  1  0.51259053  0.66914492  0.59130337  1
  S  S124  1  0.83085508  0.84344561  0.42215845  1
  S  S125  1  0.42128716  0.90869663  0.07784155  1
  S  S126  1  0.07871284  0.65655439  0.98740947  1
  S  S127  1  0.66914492  0.59130337  0.51259053  1
  S  S128  1  0.25000000  0.62500000  0.87500000  1
  S  S129  1  0.75000000  0.87500000  0.62500000  1
  S  S130  1  0.87500000  0.25000000  0.62500000  1
  S  S131  1  0.62500000  0.75000000  0.87500000  1
  S  S132  1  0.62500000  0.87500000  0.25000000  1
  S  S133  1  0.87500000  0.62500000  0.75000000  1
  S  S134  1  0.75000000  0.37500000  0.12500000  1
  S  S135  1  0.25000000  0.12500000  0.37500000  1
  S  S136  1  0.12500000  0.75000000  0.37500000  1
  S  S137  1  0.37500000  0.25000000  0.12500000  1
  S  S138  1  0.37500000  0.12500000  0.75000000  1
  S  S139  1  0.12500000  0.37500000  0.25000000  1
