# generated using pymatgen
data_Ho6Nb4Al43
_symmetry_space_group_name_H-M   'P 1'
_cell_length_a   11.12355507
_cell_length_b   11.12355507
_cell_length_c   17.72862800
_cell_angle_alpha   90.00000000
_cell_angle_beta   90.00000000
_cell_angle_gamma   119.99999446
_symmetry_Int_Tables_number   1
_chemical_formula_structural   Ho6Nb4Al43
_chemical_formula_sum   'Ho12 Nb8 Al86'
_cell_volume   1899.73490153
_cell_formula_units_Z   2
loop_
 _symmetry_equiv_pos_site_id
 _symmetry_equiv_pos_as_xyz
  1  'x, y, z'
loop_
 _atom_site_type_symbol
 _atom_site_label
 _atom_site_symmetry_multiplicity
 _atom_site_fract_x
 _atom_site_fract_y
 _atom_site_fract_z
 _atom_site_occupancy
  Ho  Ho0  1  0.52989900  0.00000000  0.59609000  1
  Ho  Ho1  1  0.47010100  0.00000000  0.40391000  1
  Ho  Ho2  1  0.00000000  0.52989900  0.59609000  1
  Ho  Ho3  1  0.47010100  0.00000000  0.09609000  1
  Ho  Ho4  1  0.00000000  0.52989900  0.90391000  1
  Ho  Ho5  1  0.00000000  0.47010100  0.40391000  1
  Ho  Ho6  1  0.52989900  0.00000000  0.90391000  1
  Ho  Ho7  1  0.00000000  0.47010100  0.09609000  1
  Ho  Ho8  1  0.47010100  0.47010100  0.59609000  1
  Ho  Ho9  1  0.52989900  0.52989900  0.40391000  1
  Ho  Ho10  1  0.52989900  0.52989900  0.09609000  1
  Ho  Ho11  1  0.47010100  0.47010100  0.90391000  1
  Nb  Nb12  1  0.00000000  0.00000000  0.50000000  1
  Nb  Nb13  1  0.00000000  0.00000000  0.00000000  1
  Nb  Nb14  1  0.72577400  0.00000000  0.75000000  1
  Nb  Nb15  1  0.27422600  0.00000000  0.25000000  1
  Nb  Nb16  1  0.00000000  0.72577400  0.75000000  1
  Nb  Nb17  1  0.00000000  0.27422600  0.25000000  1
  Nb  Nb18  1  0.27422600  0.27422600  0.75000000  1
  Nb  Nb19  1  0.72577400  0.72577400  0.25000000  1
  Al  Al20  1  0.14962600  0.59537000  0.75000000  1
  Al  Al21  1  0.85037400  0.40463000  0.25000000  1
  Al  Al22  1  0.40463000  0.55425600  0.75000000  1
  Al  Al23  1  0.59537000  0.14962600  0.75000000  1
  Al  Al24  1  0.59537000  0.44574400  0.25000000  1
  Al  Al25  1  0.40463000  0.85037400  0.25000000  1
  Al  Al26  1  0.44574400  0.85037400  0.75000000  1
  Al  Al27  1  0.55425600  0.40463000  0.75000000  1
  Al  Al28  1  0.55425600  0.14962600  0.25000000  1
  Al  Al29  1  0.44574400  0.59537000  0.25000000  1
  Al  Al30  1  0.85037400  0.44574400  0.75000000  1
  Al  Al31  1  0.14962600  0.55425600  0.25000000  1
  Al  Al32  1  0.15906800  0.00000000  0.11528300  1
  Al  Al33  1  0.84093200  0.00000000  0.88471700  1
  Al  Al34  1  0.00000000  0.15906800  0.11528300  1
  Al  Al35  1  0.84093200  0.00000000  0.61528300  1
  Al  Al36  1  0.00000000  0.15906800  0.38471700  1
  Al  Al37  1  0.00000000  0.84093200  0.88471700  1
  Al  Al38  1  0.15906800  0.00000000  0.38471700  1
  Al  Al39  1  0.00000000  0.84093200  0.61528300  1
  Al  Al40  1  0.84093200  0.84093200  0.11528300  1
  Al  Al41  1  0.15906800  0.15906800  0.88471700  1
  Al  Al42  1  0.15906800  0.15906800  0.61528300  1
  Al  Al43  1  0.84093200  0.84093200  0.38471700  1
  Al  Al44  1  0.24721400  0.49442700  0.50000000  1
  Al  Al45  1  0.75278600  0.50557300  0.50000000  1
  Al  Al46  1  0.50557300  0.75278600  0.50000000  1
  Al  Al47  1  0.75278600  0.50557300  0.00000000  1
  Al  Al48  1  0.49442700  0.24721400  0.00000000  1
  Al  Al49  1  0.49442700  0.24721400  0.50000000  1
  Al  Al50  1  0.24721400  0.49442700  0.00000000  1
  Al  Al51  1  0.50557300  0.75278600  0.00000000  1
  Al  Al52  1  0.24721400  0.75278600  0.50000000  1
  Al  Al53  1  0.75278600  0.24721400  0.50000000  1
  Al  Al54  1  0.75278600  0.24721400  0.00000000  1
  Al  Al55  1  0.24721400  0.75278600  0.00000000  1
  Al  Al56  1  0.14694300  0.00000000  0.75000000  1
  Al  Al57  1  0.85305700  0.00000000  0.25000000  1
  Al  Al58  1  0.00000000  0.14694300  0.75000000  1
  Al  Al59  1  0.00000000  0.85305700  0.25000000  1
  Al  Al60  1  0.85305700  0.85305700  0.75000000  1
  Al  Al61  1  0.14694300  0.14694300  0.25000000  1
  Al  Al62  1  0.33333300  0.66666700  0.62639100  1
  Al  Al63  1  0.66666700  0.33333300  0.37360900  1
  Al  Al64  1  0.66666700  0.33333300  0.12639100  1
  Al  Al65  1  0.66666700  0.33333300  0.87360900  1
  Al  Al66  1  0.33333300  0.66666700  0.87360900  1
  Al  Al67  1  0.33333300  0.66666700  0.12639100  1
  Al  Al68  1  0.33333300  0.66666700  0.37360900  1
  Al  Al69  1  0.66666700  0.33333300  0.62639100  1
  Al  Al70  1  0.25669500  0.00000000  0.53025600  1
  Al  Al71  1  0.74330500  0.00000000  0.46974400  1
  Al  Al72  1  0.00000000  0.25669500  0.53025600  1
  Al  Al73  1  0.74330500  0.00000000  0.03025600  1
  Al  Al74  1  0.00000000  0.25669500  0.96974400  1
  Al  Al75  1  0.00000000  0.74330500  0.46974400  1
  Al  Al76  1  0.25669500  0.00000000  0.96974400  1
  Al  Al77  1  0.00000000  0.74330500  0.03025600  1
  Al  Al78  1  0.74330500  0.74330500  0.53025600  1
  Al  Al79  1  0.25669500  0.25669500  0.46974400  1
  Al  Al80  1  0.25669500  0.25669500  0.03025600  1
  Al  Al81  1  0.74330500  0.74330500  0.96974400  1
  Al  Al82  1  0.15684100  0.39444200  0.66361500  1
  Al  Al83  1  0.84315900  0.60555800  0.33638500  1
  Al  Al84  1  0.60555800  0.76239900  0.66361500  1
  Al  Al85  1  0.84315900  0.60555800  0.16361500  1
  Al  Al86  1  0.39444200  0.15684100  0.83638500  1
  Al  Al87  1  0.39444200  0.23760100  0.33638500  1
  Al  Al88  1  0.15684100  0.39444200  0.83638500  1
  Al  Al89  1  0.60555800  0.84315900  0.16361500  1
  Al  Al90  1  0.23760100  0.84315900  0.66361500  1
  Al  Al91  1  0.39444200  0.23760100  0.16361500  1
  Al  Al92  1  0.76239900  0.60555800  0.83638500  1
  Al  Al93  1  0.76239900  0.15684100  0.33638500  1
  Al  Al94  1  0.60555800  0.76239900  0.83638500  1
  Al  Al95  1  0.23760100  0.39444200  0.16361500  1
  Al  Al96  1  0.60555800  0.84315900  0.33638500  1
  Al  Al97  1  0.39444200  0.15684100  0.66361500  1
  Al  Al98  1  0.76239900  0.15684100  0.16361500  1
  Al  Al99  1  0.23760100  0.39444200  0.33638500  1
  Al  Al100  1  0.23760100  0.84315900  0.83638500  1
  Al  Al101  1  0.76239900  0.60555800  0.66361500  1
  Al  Al102  1  0.84315900  0.23760100  0.83638500  1
  Al  Al103  1  0.15684100  0.76239900  0.16361500  1
  Al  Al104  1  0.15684100  0.76239900  0.33638500  1
  Al  Al105  1  0.84315900  0.23760100  0.66361500  1
