# generated using pymatgen
data_K9Ce(PS4)4
_symmetry_space_group_name_H-M   'P 1'
_cell_length_a   11.37847813
_cell_length_b   11.37847813
_cell_length_c   17.79631161
_cell_angle_alpha   67.05023842
_cell_angle_beta   67.05023842
_cell_angle_gamma   51.63672016
_symmetry_Int_Tables_number   1
_chemical_formula_structural   K9Ce(PS4)4
_chemical_formula_sum   'K18 Ce2 P8 S32'
_cell_volume   1628.32861984
_cell_formula_units_Z   2
loop_
 _symmetry_equiv_pos_site_id
 _symmetry_equiv_pos_as_xyz
  1  'x, y, z'
loop_
 _atom_site_type_symbol
 _atom_site_label
 _atom_site_symmetry_multiplicity
 _atom_site_fract_x
 _atom_site_fract_y
 _atom_site_fract_z
 _atom_site_occupancy
  K  K0  1  0.47398600  0.99717400  0.13000200  1
  K  K1  1  0.52601400  0.00282600  0.86999800  1
  K  K2  1  0.00282600  0.52601400  0.36999800  1
  K  K3  1  0.99717400  0.47398600  0.63000200  1
  K  K4  1  0.49132300  0.01387200  0.37016000  1
  K  K5  1  0.50867700  0.98612800  0.62984000  1
  K  K6  1  0.98612800  0.50867700  0.12984000  1
  K  K7  1  0.01387200  0.49132300  0.87016000  1
  K  K8  1  0.09507700  0.06994100  0.02195500  1
  K  K9  1  0.90492300  0.93005900  0.97804500  1
  K  K10  1  0.93005900  0.90492300  0.47804500  1
  K  K11  1  0.06994100  0.09507700  0.52195500  1
  K  K12  1  0.40368500  0.43142700  0.10421200  1
  K  K13  1  0.59631500  0.56857300  0.89578800  1
  K  K14  1  0.56857300  0.59631500  0.39578800  1
  K  K15  1  0.43142700  0.40368500  0.60421200  1
  K  K16  1  0.24653900  0.75346100  0.25000000  1
  K  K17  1  0.75346100  0.24653900  0.75000000  1
  Ce  Ce18  1  0.74592200  0.25407800  0.25000000  1
  Ce  Ce19  1  0.25407800  0.74592200  0.75000000  1
  P  P20  1  0.85769100  0.88612900  0.21023800  1
  P  P21  1  0.14230900  0.11387100  0.78976200  1
  P  P22  1  0.11387100  0.14230900  0.28976200  1
  P  P23  1  0.88612900  0.85769100  0.71023800  1
  P  P24  1  0.37648400  0.36566200  0.41809100  1
  P  P25  1  0.62351600  0.63433800  0.58190900  1
  P  P26  1  0.63433800  0.62351600  0.08190900  1
  P  P27  1  0.36566200  0.37648400  0.91809100  1
  S  S28  1  0.72779300  0.74758600  0.50786300  1
  S  S29  1  0.27220700  0.25241400  0.49213700  1
  S  S30  1  0.25241400  0.27220700  0.99213700  1
  S  S31  1  0.74758600  0.72779300  0.00786300  1
  S  S32  1  0.74256000  0.78372500  0.24375900  1
  S  S33  1  0.25744000  0.21627500  0.75624100  1
  S  S34  1  0.21627500  0.25744000  0.25624100  1
  S  S35  1  0.78372500  0.74256000  0.74375900  1
  S  S36  1  0.86616400  0.92062400  0.31378800  1
  S  S37  1  0.13383600  0.07937600  0.68621200  1
  S  S38  1  0.07937600  0.13383600  0.18621200  1
  S  S39  1  0.92062400  0.86616400  0.81378800  1
  S  S40  1  0.41159100  0.37520100  0.29282200  1
  S  S41  1  0.58840900  0.62479900  0.70717800  1
  S  S42  1  0.62479900  0.58840900  0.20717800  1
  S  S43  1  0.37520100  0.41159100  0.79282200  1
  S  S44  1  0.74786000  0.10547400  0.13986200  1
  S  S45  1  0.25214000  0.89452600  0.86013800  1
  S  S46  1  0.89452600  0.25214000  0.36013800  1
  S  S47  1  0.10547400  0.74786000  0.63986200  1
  S  S48  1  0.42362100  0.74834200  0.05437200  1
  S  S49  1  0.57637900  0.25165800  0.94562800  1
  S  S50  1  0.25165800  0.57637900  0.44562800  1
  S  S51  1  0.74834200  0.42362100  0.55437200  1
  S  S52  1  0.24132600  0.93079800  0.35888200  1
  S  S53  1  0.75867400  0.06920200  0.64111800  1
  S  S54  1  0.06920200  0.75867400  0.14111800  1
  S  S55  1  0.93079800  0.24132600  0.85888200  1
  S  S56  1  0.59656500  0.25210500  0.43448000  1
  S  S57  1  0.40343500  0.74789500  0.56552000  1
  S  S58  1  0.74789500  0.40343500  0.06552000  1
  S  S59  1  0.25210500  0.59656500  0.93448000  1
