# generated using pymatgen
data_NaVO3
_symmetry_space_group_name_H-M   'P 1'
_cell_length_a   7.32036265
_cell_length_b   7.32036265
_cell_length_c   6.01635151
_cell_angle_alpha   75.06110864
_cell_angle_beta   75.06110864
_cell_angle_gamma   84.00289212
_symmetry_Int_Tables_number   1
_chemical_formula_structural   NaVO3
_chemical_formula_sum   'Na4 V4 O12'
_cell_volume   300.72748151
_cell_formula_units_Z   4
loop_
 _symmetry_equiv_pos_site_id
 _symmetry_equiv_pos_as_xyz
  1  'x, y, z'
loop_
 _atom_site_type_symbol
 _atom_site_label
 _atom_site_symmetry_multiplicity
 _atom_site_fract_x
 _atom_site_fract_y
 _atom_site_fract_z
 _atom_site_occupancy
  Na  Na0  1  0.09107000  0.90893000  0.25000000  1
  Na  Na1  1  0.90893000  0.09107000  0.75000000  1
  Na  Na2  1  0.72349200  0.27650800  0.25000000  1
  Na  Na3  1  0.27650800  0.72349200  0.75000000  1
  V  V4  1  0.61943400  0.79505300  0.27364300  1
  V  V5  1  0.79505300  0.61943400  0.77364300  1
  V  V6  1  0.20494700  0.38056600  0.22635700  1
  V  V7  1  0.38056600  0.20494700  0.72635700  1
  O  O8  1  0.35343700  0.34717000  0.43779300  1
  O  O9  1  0.34717000  0.35343700  0.93779300  1
  O  O10  1  0.11658600  0.60304000  0.17510300  1
  O  O11  1  0.60304000  0.11658600  0.67510300  1
  O  O12  1  0.02893000  0.22665700  0.33149900  1
  O  O13  1  0.22665700  0.02893000  0.83149900  1
  O  O14  1  0.77334300  0.97107000  0.16850100  1
  O  O15  1  0.97107000  0.77334300  0.66850100  1
  O  O16  1  0.39695900  0.88341400  0.32489700  1
  O  O17  1  0.88341400  0.39696000  0.82489700  1
  O  O18  1  0.65283000  0.64656300  0.06220700  1
  O  O19  1  0.64656300  0.65283000  0.56220700  1
