# generated using pymatgen
data_Ce2Mn(SeO)2
_symmetry_space_group_name_H-M   'P 1'
_cell_length_a   3.99153000
_cell_length_b   3.99153000
_cell_length_c   9.28450900
_cell_angle_alpha   90.00000000
_cell_angle_beta   90.00000000
_cell_angle_gamma   90.00000000
_symmetry_Int_Tables_number   1
_chemical_formula_structural   Ce2Mn(SeO)2
_chemical_formula_sum   'Ce2 Mn1 Se2 O2'
_cell_volume   147.92369175
_cell_formula_units_Z   1
loop_
 _symmetry_equiv_pos_site_id
 _symmetry_equiv_pos_as_xyz
  1  'x, y, z'
loop_
 _atom_site_type_symbol
 _atom_site_label
 _atom_site_symmetry_multiplicity
 _atom_site_fract_x
 _atom_site_fract_y
 _atom_site_fract_z
 _atom_site_occupancy
  Ce  Ce0  1  0.50000000  0.00000000  0.36694500  1
  Ce  Ce1  1  0.00000000  0.50000000  0.63305500  1
  Mn  Mn2  1  0.50000000  0.50000000  0.00000000  1
  Se  Se3  1  0.50000000  0.00000000  0.81900000  1
  Se  Se4  1  0.00000000  0.50000000  0.18100000  1
  O  O5  1  0.50000000  0.50000000  0.50000000  1
  O  O6  1  0.00000000  0.00000000  0.50000000  1
