# generated using pymatgen
data_RbAu(IO3)4
_symmetry_space_group_name_H-M   'P 1'
_cell_length_a   5.73844300
_cell_length_b   7.52869531
_cell_length_c   8.58585336
_cell_angle_alpha   107.59275659
_cell_angle_beta   90.00000000
_cell_angle_gamma   112.40212575
_symmetry_Int_Tables_number   1
_chemical_formula_structural   RbAu(IO3)4
_chemical_formula_sum   'Rb1 Au1 I4 O12'
_cell_volume   324.09671371
_cell_formula_units_Z   1
loop_
 _symmetry_equiv_pos_site_id
 _symmetry_equiv_pos_as_xyz
  1  'x, y, z'
loop_
 _atom_site_type_symbol
 _atom_site_label
 _atom_site_symmetry_multiplicity
 _atom_site_fract_x
 _atom_site_fract_y
 _atom_site_fract_z
 _atom_site_occupancy
  Rb  Rb0  1  0.95749600  0.00000000  0.00000000  1
  Au  Au1  1  0.76986000  0.00000000  0.50000000  1
  I  I2  1  0.70901900  0.35972100  0.83371100  1
  I  I3  1  0.34929700  0.64027900  0.16628900  1
  I  I4  1  0.31857100  0.69829500  0.65500300  1
  I  I5  1  0.62027600  0.30170500  0.34499700  1
  O  O6  1  0.88977400  0.19725400  0.73037300  1
  O  O7  1  0.69251900  0.80274600  0.26962700  1
  O  O8  1  0.91715500  0.59329900  0.80130200  1
  O  O9  1  0.32385600  0.40670100  0.19869800  1
  O  O10  1  0.85427000  0.39765700  0.03654500  1
  O  O11  1  0.45661400  0.60234300  0.96345500  1
  O  O12  1  0.37319700  0.94428400  0.80295600  1
  O  O13  1  0.42891300  0.05571600  0.19704400  1
  O  O14  1  0.16063800  0.70248800  0.47307900  1
  O  O15  1  0.45815000  0.29751200  0.52692200  1
  O  O16  1  0.65455200  0.76403900  0.58979000  1
  O  O17  1  0.89051300  0.23596100  0.41021000  1
