# generated using pymatgen
data_Sr14GaAs11
_symmetry_space_group_name_H-M   'P 1'
_cell_length_a   16.20440155
_cell_length_b   16.20440155
_cell_length_c   16.20440155
_cell_angle_alpha   61.74830850
_cell_angle_beta   61.73817388
_cell_angle_gamma   93.04686981
_symmetry_Int_Tables_number   1
_chemical_formula_structural   Sr14GaAs11
_chemical_formula_sum   'Sr56 Ga4 As44'
_cell_volume   3083.29680541
_cell_formula_units_Z   4
loop_
 _symmetry_equiv_pos_site_id
 _symmetry_equiv_pos_as_xyz
  1  'x, y, z'
loop_
 _atom_site_type_symbol
 _atom_site_label
 _atom_site_symmetry_multiplicity
 _atom_site_fract_x
 _atom_site_fract_y
 _atom_site_fract_z
 _atom_site_occupancy
  Sr  Sr0  1  0.75365549  0.37217175  0.53399372  1
  Sr  Sr1  1  0.25365549  0.78764921  0.61851626  1
  Sr  Sr2  1  0.37300049  0.75810783  0.02528469  1
  Sr  Sr3  1  0.87300049  0.89828518  0.38510734  1
  Sr  Sr4  1  0.24178611  0.62707714  0.47514768  1
  Sr  Sr5  1  0.74178611  0.21693379  0.38529104  1
  Sr  Sr6  1  0.62786068  0.24621619  0.96646623  1
  Sr  Sr7  1  0.12786068  0.09432690  0.61835551  1
  Sr  Sr8  1  0.89777517  0.87292286  0.88529104  1
  Sr  Sr9  1  0.39777517  0.28306621  0.97514768  1
  Sr  Sr10  1  0.78731759  0.25378381  0.11835551  1
  Sr  Sr11  1  0.28731759  0.40567310  0.46646623  1
  Sr  Sr12  1  0.09383453  0.12782825  0.11851626  1
  Sr  Sr13  1  0.59383453  0.71235079  0.03399372  1
  Sr  Sr14  1  0.21660747  0.74189217  0.88510734  1
  Sr  Sr15  1  0.71660747  0.60171482  0.52528469  1
  Sr  Sr16  1  0.98028410  0.62549538  0.90144495  1
  Sr  Sr17  1  0.48028410  0.38172905  0.64521127  1
  Sr  Sr18  1  0.62566896  0.98062099  0.40094874  1
  Sr  Sr19  1  0.12566896  0.52661770  0.35495203  1
  Sr  Sr20  1  0.01834972  0.37166123  0.09948402  1
  Sr  Sr21  1  0.51834972  0.61783373  0.35331151  1
  Sr  Sr22  1  0.37185630  0.01871676  0.59895230  1
  Sr  Sr23  1  0.87185630  0.47080860  0.64686046  1
  Sr  Sr24  1  0.52885476  0.12833877  0.85331151  1
  Sr  Sr25  1  0.02885476  0.88216627  0.59948402  1
  Sr  Sr26  1  0.38233094  0.48128324  0.14686046  1
  Sr  Sr27  1  0.88233094  0.02919140  0.09895230  1
  Sr  Sr28  1  0.47305967  0.87450462  0.14521127  1
  Sr  Sr29  1  0.97305967  0.11827095  0.40144495  1
  Sr  Sr30  1  0.61843027  0.51937901  0.85495203  1
  Sr  Sr31  1  0.11843027  0.97338230  0.90094874  1
  Sr  Sr32  1  0.66442867  0.43749533  0.08539297  1
  Sr  Sr33  1  0.16442867  0.24982164  0.77306666  1
  Sr  Sr34  1  0.43827634  0.66567927  0.58306492  1
  Sr  Sr35  1  0.93827634  0.52134125  0.22740294  1
  Sr  Sr36  1  0.33407833  0.56007775  0.91742845  1
  Sr  Sr37  1  0.83407833  0.75150679  0.22599942  1
  Sr  Sr38  1  0.56089970  0.33534624  0.41504000  1
  Sr  Sr39  1  0.06089970  0.47593970  0.77444654  1
  Sr  Sr40  1  0.52249379  0.93992225  0.72599942  1
  Sr  Sr41  1  0.02249379  0.74849321  0.41742845  1
  Sr  Sr42  1  0.24961375  0.16465376  0.27444654  1
  Sr  Sr43  1  0.74961375  0.02406030  0.91504000  1
  Sr  Sr44  1  0.47711170  0.06250467  0.27306666  1
  Sr  Sr45  1  0.97711170  0.25017836  0.58539297  1
  Sr  Sr46  1  0.75125581  0.83432073  0.72740294  1
  Sr  Sr47  1  0.25125581  0.97865875  0.08306492  1
  Sr  Sr48  1  0.60049564  0.75000000  0.64950436  1
  Sr  Sr49  1  0.10049564  0.75000000  0.14950436  1
  Sr  Sr50  1  0.74767721  0.59874021  0.15059785  1
  Sr  Sr51  1  0.24767721  0.39827506  0.85106300  1
  Sr  Sr52  1  0.40001308  0.25000000  0.34998692  1
  Sr  Sr53  1  0.90001308  0.25000000  0.84998692  1
  Sr  Sr54  1  0.75066194  0.10172494  0.65059785  1
  Sr  Sr55  1  0.25066194  0.90125979  0.35106300  1
  Ga  Ga56  1  0.62485053  0.87510699  0.25004389  1
  Ga  Ga57  1  0.12485053  0.37489442  0.25025646  1
  Ga  Ga58  1  0.87484912  0.62489301  0.75025646  1
  Ga  Ga59  1  0.37484912  0.12510558  0.75004389  1
  As  As60  1  0.25917385  0.00914205  0.48155714  1
  As  As61  1  0.75917385  0.24073099  0.74996820  1
  As  As62  1  0.00930081  0.25926901  0.98155714  1
  As  As63  1  0.50930081  0.49085795  0.24996820  1
  As  As64  1  0.74448872  0.99445655  0.51099490  1
  As  As65  1  0.24448872  0.75548363  0.24996783  1
  As  As66  1  0.99454855  0.74451637  0.01099490  1
  As  As67  1  0.49454855  0.50554345  0.74996783  1
  As  As68  1  0.81499840  0.42902893  0.87909540  1
  As  As69  1  0.31499840  0.19409380  0.61403053  1
  As  As70  1  0.42867677  0.81562651  0.37957391  1
  As  As71  1  0.92867677  0.30825068  0.38694974  1
  As  As72  1  0.18409687  0.57102799  0.12107300  1
  As  As73  1  0.68409687  0.80516987  0.38693112  1
  As  As74  1  0.57066735  0.18468792  0.62154396  1
  As  As75  1  0.07066735  0.69221131  0.61402058  1
  As  As76  1  0.30789901  0.92897201  0.88693112  1
  As  As77  1  0.80789901  0.69483013  0.62107300  1
  As  As78  1  0.19376812  0.31531208  0.11402058  1
  As  As79  1  0.69376812  0.80778869  0.12154396  1
  As  As80  1  0.69187567  0.07097107  0.11403053  1
  As  As81  1  0.19187567  0.30590620  0.37909540  1
  As  As82  1  0.80479958  0.68437349  0.88694974  1
  As  As83  1  0.30479958  0.19174932  0.87957391  1
  As  As84  1  0.82376598  0.42728401  0.15610527  1
  As  As85  1  0.32376598  0.47987126  0.60351803  1
  As  As86  1  0.42731268  0.82228913  0.65699243  1
  As  As87  1  0.92731268  0.58430511  0.39497645  1
  As  As88  1  0.17799138  0.57269779  0.84334549  1
  As  As89  1  0.67799138  0.52133687  0.39470641  1
  As  As90  1  0.57267142  0.17645509  0.34428694  1
  As  As91  1  0.07267142  0.41695837  0.60378366  1
  As  As92  1  0.58395671  0.92730221  0.89470641  1
  As  As93  1  0.08395671  0.97866313  0.34334549  1
  As  As94  1  0.47925797  0.32354491  0.10378366  1
  As  As95  1  0.97925797  0.08304163  0.84428694  1
  As  As96  1  0.41661071  0.07271599  0.10351803  1
  As  As97  1  0.91661071  0.02012874  0.65610527  1
  As  As98  1  0.52071844  0.67771087  0.89497645  1
  As  As99  1  0.02071844  0.91569489  0.15699243  1
  As  As100  1  0.11293005  0.86285179  0.77423512  1
  As  As101  1  0.61293005  0.38716517  0.74992174  1
  As  As102  1  0.86291309  0.11283483  0.27423512  1
  As  As103  1  0.36291309  0.63714821  0.24992174  1
