# generated using pymatgen
data_CaIn2Rh
_symmetry_space_group_name_H-M   'P 1'
_cell_length_a   5.71370800
_cell_length_b   7.95055700
_cell_length_c   16.09568200
_cell_angle_alpha   90.00000000
_cell_angle_beta   90.00000000
_cell_angle_gamma   90.00000000
_symmetry_Int_Tables_number   1
_chemical_formula_structural   CaIn2Rh
_chemical_formula_sum   'Ca8 In16 Rh8'
_cell_volume   731.18113980
_cell_formula_units_Z   8
loop_
 _symmetry_equiv_pos_site_id
 _symmetry_equiv_pos_as_xyz
  1  'x, y, z'
loop_
 _atom_site_type_symbol
 _atom_site_label
 _atom_site_symmetry_multiplicity
 _atom_site_fract_x
 _atom_site_fract_y
 _atom_site_fract_z
 _atom_site_occupancy
  Ca  Ca0  1  0.75281200  0.75000000  0.89670800  1
  Ca  Ca1  1  0.24718800  0.25000000  0.10329200  1
  Ca  Ca2  1  0.25281200  0.25000000  0.60329200  1
  Ca  Ca3  1  0.74718800  0.75000000  0.39670800  1
  Ca  Ca4  1  0.04178800  0.75000000  0.63787600  1
  Ca  Ca5  1  0.95821200  0.25000000  0.36212400  1
  Ca  Ca6  1  0.54178800  0.25000000  0.86212400  1
  Ca  Ca7  1  0.45821200  0.75000000  0.13787600  1
  In  In8  1  0.54245000  0.55041300  0.71230800  1
  In  In9  1  0.45755000  0.44958700  0.28769200  1
  In  In10  1  0.04245000  0.44958700  0.78769200  1
  In  In11  1  0.45755000  0.05041300  0.28769200  1
  In  In12  1  0.95755000  0.55041300  0.21230800  1
  In  In13  1  0.54245000  0.94958700  0.71230800  1
  In  In14  1  0.95755000  0.94958700  0.21230800  1
  In  In15  1  0.04245000  0.05041300  0.78769200  1
  In  In16  1  0.74793100  0.05481800  0.53918100  1
  In  In17  1  0.25206900  0.94518200  0.46081900  1
  In  In18  1  0.24793100  0.94518200  0.96081900  1
  In  In19  1  0.25206900  0.55481800  0.46081900  1
  In  In20  1  0.75206900  0.05481800  0.03918100  1
  In  In21  1  0.74793100  0.44518200  0.53918100  1
  In  In22  1  0.75206900  0.44518200  0.03918100  1
  In  In23  1  0.24793100  0.55481800  0.96081900  1
  Rh  Rh24  1  0.27261600  0.75000000  0.81373900  1
  Rh  Rh25  1  0.72738400  0.25000000  0.18626100  1
  Rh  Rh26  1  0.77261600  0.25000000  0.68626100  1
  Rh  Rh27  1  0.22738400  0.75000000  0.31373900  1
  Rh  Rh28  1  0.51931300  0.75000000  0.57152100  1
  Rh  Rh29  1  0.48068700  0.25000000  0.42847900  1
  Rh  Rh30  1  0.01931300  0.25000000  0.92847900  1
  Rh  Rh31  1  0.98068700  0.75000000  0.07152100  1
