# generated using pymatgen
data_K2NdI5
_symmetry_space_group_name_H-M   'P 1'
_cell_length_a   9.28090200
_cell_length_b   9.85976900
_cell_length_c   14.66449500
_cell_angle_alpha   90.00000000
_cell_angle_beta   90.00000000
_cell_angle_gamma   90.00000000
_symmetry_Int_Tables_number   1
_chemical_formula_structural   K2NdI5
_chemical_formula_sum   'K8 Nd4 I20'
_cell_volume   1341.91200697
_cell_formula_units_Z   4
loop_
 _symmetry_equiv_pos_site_id
 _symmetry_equiv_pos_as_xyz
  1  'x, y, z'
loop_
 _atom_site_type_symbol
 _atom_site_label
 _atom_site_symmetry_multiplicity
 _atom_site_fract_x
 _atom_site_fract_y
 _atom_site_fract_z
 _atom_site_occupancy
  K  K0  1  0.94861900  0.00461400  0.82837100  1
  K  K1  1  0.05138100  0.99538600  0.17162900  1
  K  K2  1  0.44861900  0.99538600  0.67162900  1
  K  K3  1  0.05138100  0.50461400  0.17162900  1
  K  K4  1  0.55138100  0.00461400  0.32837100  1
  K  K5  1  0.94861900  0.49538600  0.82837100  1
  K  K6  1  0.55138100  0.49538600  0.32837100  1
  K  K7  1  0.44861900  0.50461400  0.67162900  1
  Nd  Nd8  1  0.92089200  0.75000000  0.50521100  1
  Nd  Nd9  1  0.07910800  0.25000000  0.49478900  1
  Nd  Nd10  1  0.42089200  0.25000000  0.99478900  1
  Nd  Nd11  1  0.57910800  0.75000000  0.00521100  1
  I  I12  1  0.12834900  0.75000000  0.68066100  1
  I  I13  1  0.87165100  0.25000000  0.31933900  1
  I  I14  1  0.62834900  0.25000000  0.81933900  1
  I  I15  1  0.37165100  0.75000000  0.18066100  1
  I  I16  1  0.83474500  0.04454800  0.57743200  1
  I  I17  1  0.16525500  0.95545200  0.42256800  1
  I  I18  1  0.33474500  0.95545200  0.92256800  1
  I  I19  1  0.16525500  0.54454800  0.42256800  1
  I  I20  1  0.66525500  0.04454800  0.07743200  1
  I  I21  1  0.83474500  0.45545200  0.57743200  1
  I  I22  1  0.66525500  0.45545200  0.07743200  1
  I  I23  1  0.33474500  0.54454800  0.92256800  1
  I  I24  1  0.57257600  0.75000000  0.50726100  1
  I  I25  1  0.42742400  0.25000000  0.49273900  1
  I  I26  1  0.07257600  0.25000000  0.99273900  1
  I  I27  1  0.92742400  0.75000000  0.00726100  1
  I  I28  1  0.66391600  0.75000000  0.79463500  1
  I  I29  1  0.33608400  0.25000000  0.20536500  1
  I  I30  1  0.16391600  0.25000000  0.70536500  1
  I  I31  1  0.83608400  0.75000000  0.29463500  1
