# generated using pymatgen
data_Y5(Ge5Rh2)2
_symmetry_space_group_name_H-M   'P 1'
_cell_length_a   13.10458800
_cell_length_b   13.10458800
_cell_length_c   4.31792600
_cell_angle_alpha   90.00000000
_cell_angle_beta   90.00000000
_cell_angle_gamma   90.00000000
_symmetry_Int_Tables_number   1
_chemical_formula_structural   Y5(Ge5Rh2)2
_chemical_formula_sum   'Y10 Ge20 Rh8'
_cell_volume   741.51841064
_cell_formula_units_Z   2
loop_
 _symmetry_equiv_pos_site_id
 _symmetry_equiv_pos_as_xyz
  1  'x, y, z'
loop_
 _atom_site_type_symbol
 _atom_site_label
 _atom_site_symmetry_multiplicity
 _atom_site_fract_x
 _atom_site_fract_y
 _atom_site_fract_z
 _atom_site_occupancy
  Y  Y0  1  0.50000000  0.50000000  0.00000000  1
  Y  Y1  1  0.00000000  0.00000000  0.00000000  1
  Y  Y2  1  0.67571900  0.17571900  0.50000000  1
  Y  Y3  1  0.32428100  0.82428100  0.50000000  1
  Y  Y4  1  0.17571900  0.32428100  0.50000000  1
  Y  Y5  1  0.82428100  0.67571900  0.50000000  1
  Y  Y6  1  0.88664800  0.38664800  0.50000000  1
  Y  Y7  1  0.11335200  0.61335200  0.50000000  1
  Y  Y8  1  0.38664800  0.11335200  0.50000000  1
  Y  Y9  1  0.61335200  0.88664800  0.50000000  1
  Ge  Ge10  1  0.56629100  0.06629100  0.00000000  1
  Ge  Ge11  1  0.43370900  0.93370900  0.00000000  1
  Ge  Ge12  1  0.06629100  0.43370900  0.00000000  1
  Ge  Ge13  1  0.93370900  0.56629100  0.00000000  1
  Ge  Ge14  1  0.66113500  0.69990700  0.00000000  1
  Ge  Ge15  1  0.33886500  0.30009300  0.00000000  1
  Ge  Ge16  1  0.16113500  0.80009300  0.00000000  1
  Ge  Ge17  1  0.83886500  0.19990700  0.00000000  1
  Ge  Ge18  1  0.30009300  0.66113500  0.00000000  1
  Ge  Ge19  1  0.69990700  0.33886500  0.00000000  1
  Ge  Ge20  1  0.19990700  0.16113500  0.00000000  1
  Ge  Ge21  1  0.80009300  0.83886500  0.00000000  1
  Ge  Ge22  1  0.65940200  0.50302900  0.50000000  1
  Ge  Ge23  1  0.34059800  0.49697100  0.50000000  1
  Ge  Ge24  1  0.15940200  0.99697100  0.50000000  1
  Ge  Ge25  1  0.84059800  0.00302900  0.50000000  1
  Ge  Ge26  1  0.49697100  0.65940200  0.50000000  1
  Ge  Ge27  1  0.50302900  0.34059800  0.50000000  1
  Ge  Ge28  1  0.00302900  0.15940200  0.50000000  1
  Ge  Ge29  1  0.99697100  0.84059800  0.50000000  1
  Rh  Rh30  1  0.74567200  0.52199900  0.00000000  1
  Rh  Rh31  1  0.25432800  0.47800100  0.00000000  1
  Rh  Rh32  1  0.24567200  0.97800100  0.00000000  1
  Rh  Rh33  1  0.75432800  0.02199900  0.00000000  1
  Rh  Rh34  1  0.47800100  0.74567200  0.00000000  1
  Rh  Rh35  1  0.52199900  0.25432800  0.00000000  1
  Rh  Rh36  1  0.02199900  0.24567200  0.00000000  1
  Rh  Rh37  1  0.97800100  0.75432800  0.00000000  1
