# generated using pymatgen
data_Eu(MgBi)2
_symmetry_space_group_name_H-M   'P 1'
_cell_length_a   4.84614999
_cell_length_b   4.84614999
_cell_length_c   7.86137200
_cell_angle_alpha   90.00000000
_cell_angle_beta   90.00000000
_cell_angle_gamma   119.99999988
_symmetry_Int_Tables_number   1
_chemical_formula_structural   Eu(MgBi)2
_chemical_formula_sum   'Eu1 Mg2 Bi2'
_cell_volume   159.89050828
_cell_formula_units_Z   1
loop_
 _symmetry_equiv_pos_site_id
 _symmetry_equiv_pos_as_xyz
  1  'x, y, z'
loop_
 _atom_site_type_symbol
 _atom_site_label
 _atom_site_symmetry_multiplicity
 _atom_site_fract_x
 _atom_site_fract_y
 _atom_site_fract_z
 _atom_site_occupancy
  Eu  Eu0  1  0.00000000  0.00000000  0.00000000  1
  Mg  Mg1  1  0.66666700  0.33333300  0.62799800  1
  Mg  Mg2  1  0.33333300  0.66666700  0.37200200  1
  Bi  Bi3  1  0.66666700  0.33333300  0.24502300  1
  Bi  Bi4  1  0.33333300  0.66666700  0.75497700  1
