# generated using pymatgen
data_TbAgS2
_symmetry_space_group_name_H-M   'P 1'
_cell_length_a   7.67725900
_cell_length_b   7.67973300
_cell_length_c   12.65202724
_cell_angle_alpha   89.93461628
_cell_angle_beta   90.00000000
_cell_angle_gamma   90.00000000
_symmetry_Int_Tables_number   1
_chemical_formula_structural   TbAgS2
_chemical_formula_sum   'Tb8 Ag8 S16'
_cell_volume   745.95417487
_cell_formula_units_Z   8
loop_
 _symmetry_equiv_pos_site_id
 _symmetry_equiv_pos_as_xyz
  1  'x, y, z'
loop_
 _atom_site_type_symbol
 _atom_site_label
 _atom_site_symmetry_multiplicity
 _atom_site_fract_x
 _atom_site_fract_y
 _atom_site_fract_z
 _atom_site_occupancy
  Tb  Tb0  1  0.27530800  0.50209400  0.25417400  1
  Tb  Tb1  1  0.77530800  0.49790600  0.74582600  1
  Tb  Tb2  1  0.02786400  0.24615400  0.50265600  1
  Tb  Tb3  1  0.52786400  0.75384600  0.49734400  1
  Tb  Tb4  1  0.28334200  0.99879000  0.75313900  1
  Tb  Tb5  1  0.78334200  0.00121000  0.24686100  1
  Tb  Tb6  1  0.52960100  0.25295700  0.00341200  1
  Tb  Tb7  1  0.02960100  0.74704300  0.99658800  1
  Ag  Ag8  1  0.28113500  0.00029500  0.28645500  1
  Ag  Ag9  1  0.78113500  0.99970500  0.71354500  1
  Ag  Ag10  1  0.52872100  0.25417700  0.52617300  1
  Ag  Ag11  1  0.02872100  0.74582300  0.47382700  1
  Ag  Ag12  1  0.77849300  0.49744200  0.19929400  1
  Ag  Ag13  1  0.27849300  0.50255800  0.80070600  1
  Ag  Ag14  1  0.03060900  0.24467300  0.02302700  1
  Ag  Ag15  1  0.53060900  0.75532700  0.97697300  1
  S  S16  1  0.54968000  0.27197700  0.22287800  1
  S  S17  1  0.04968000  0.72802300  0.77712200  1
  S  S18  1  0.25363600  0.47459500  0.03434100  1
  S  S19  1  0.75363600  0.52540500  0.96565900  1
  S  S20  1  0.30244800  0.02410000  0.53490100  1
  S  S21  1  0.80244800  0.97590000  0.46509900  1
  S  S22  1  0.05239200  0.22781500  0.28487800  1
  S  S23  1  0.55239200  0.77218500  0.71512200  1
  S  S24  1  0.25859400  0.51970000  0.47331600  1
  S  S25  1  0.75859400  0.48030000  0.52668400  1
  S  S26  1  0.00823200  0.22792000  0.72284000  1
  S  S27  1  0.50823200  0.77208000  0.27716000  1
  S  S28  1  0.80118000  0.02149400  0.02690700  1
  S  S29  1  0.30118000  0.97850600  0.97309300  1
  S  S30  1  0.00556700  0.72711700  0.21457000  1
  S  S31  1  0.50556700  0.27288300  0.78543000  1
