# generated using pymatgen
data_Na2PdSe2
_symmetry_space_group_name_H-M   'P 1'
_cell_length_a   5.73433660
_cell_length_b   5.73433660
_cell_length_c   11.40989500
_cell_angle_alpha   90.00000000
_cell_angle_beta   90.00000000
_cell_angle_gamma   141.77734115
_symmetry_Int_Tables_number   1
_chemical_formula_structural   Na2PdSe2
_chemical_formula_sum   'Na4 Pd2 Se4'
_cell_volume   232.13549761
_cell_formula_units_Z   2
loop_
 _symmetry_equiv_pos_site_id
 _symmetry_equiv_pos_as_xyz
  1  'x, y, z'
loop_
 _atom_site_type_symbol
 _atom_site_label
 _atom_site_symmetry_multiplicity
 _atom_site_fract_x
 _atom_site_fract_y
 _atom_site_fract_z
 _atom_site_occupancy
  Na  Na0  1  0.43596000  0.56404000  0.62860500  1
  Na  Na1  1  0.56404000  0.43596000  0.12860500  1
  Na  Na2  1  0.82454200  0.17545800  0.90287900  1
  Na  Na3  1  0.17545800  0.82454200  0.40287900  1
  Pd  Pd4  1  0.13631500  0.86368500  0.74938100  1
  Pd  Pd5  1  0.86368500  0.13631500  0.24938100  1
  Se  Se6  1  0.72151100  0.27848900  0.62752300  1
  Se  Se7  1  0.27848900  0.72151100  0.12752300  1
  Se  Se8  1  0.54939800  0.45060200  0.86961100  1
  Se  Se9  1  0.45060200  0.54939800  0.36961100  1
