# generated using pymatgen
data_SrCrP2O7
_symmetry_space_group_name_H-M   'P 1'
_cell_length_a   8.43837600
_cell_length_b   5.49471700
_cell_length_c   13.85387169
_cell_angle_alpha   67.06201867
_cell_angle_beta   90.00000000
_cell_angle_gamma   90.00000000
_symmetry_Int_Tables_number   1
_chemical_formula_structural   SrCrP2O7
_chemical_formula_sum   'Sr4 Cr4 P8 O28'
_cell_volume   591.56257219
_cell_formula_units_Z   4
loop_
 _symmetry_equiv_pos_site_id
 _symmetry_equiv_pos_as_xyz
  1  'x, y, z'
loop_
 _atom_site_type_symbol
 _atom_site_label
 _atom_site_symmetry_multiplicity
 _atom_site_fract_x
 _atom_site_fract_y
 _atom_site_fract_z
 _atom_site_occupancy
  Sr  Sr0  1  0.41008800  0.98837200  0.22204300  1
  Sr  Sr1  1  0.91363600  0.00889400  0.27644500  1
  Sr  Sr2  1  0.08636400  0.00889400  0.77644500  1
  Sr  Sr3  1  0.58991200  0.98837200  0.72204300  1
  Cr  Cr4  1  0.39554900  0.31815800  0.89081300  1
  Cr  Cr5  1  0.10371200  0.67865000  0.10995500  1
  Cr  Cr6  1  0.89628800  0.67865000  0.60995500  1
  Cr  Cr7  1  0.60445100  0.31815800  0.39081300  1
  P  P8  1  0.55160100  0.66990500  0.51644300  1
  P  P9  1  0.05113600  0.32758000  0.98408600  1
  P  P10  1  0.94886400  0.32758000  0.48408600  1
  P  P11  1  0.44839900  0.66990500  0.01644300  1
  P  P12  1  0.21213300  0.41123400  0.33624200  1
  P  P13  1  0.78786700  0.41123400  0.83624200  1
  P  P14  1  0.29012100  0.59173000  0.66342300  1
  P  P15  1  0.70987900  0.59173000  0.16342300  1
  O  O16  1  0.56335200  0.87434800  0.40463400  1
  O  O17  1  0.06224800  0.12536300  0.09622200  1
  O  O18  1  0.93775200  0.12536300  0.59622200  1
  O  O19  1  0.43664800  0.87434800  0.90463400  1
  O  O20  1  0.41534400  0.38190500  0.02966500  1
  O  O21  1  0.91760800  0.61624800  0.47075900  1
  O  O22  1  0.08239200  0.61624800  0.97075900  1
  O  O23  1  0.58465600  0.38190500  0.52966500  1
  O  O24  1  0.68879300  0.81648600  0.20081000  1
  O  O25  1  0.18987400  0.19332400  0.29528800  1
  O  O26  1  0.81012600  0.19332400  0.79528800  1
  O  O27  1  0.31120700  0.81648600  0.70081000  1
  O  O28  1  0.63298200  0.68163600  0.04815200  1
  O  O29  1  0.13252600  0.31530000  0.45085100  1
  O  O30  1  0.86747400  0.31530000  0.95085100  1
  O  O31  1  0.36701800  0.68163600  0.54815200  1
  O  O32  1  0.61568800  0.47511000  0.85074600  1
  O  O33  1  0.11752700  0.52425500  0.65149100  1
  O  O34  1  0.88247300  0.52425500  0.15149100  1
  O  O35  1  0.38431200  0.47511000  0.35074600  1
  O  O36  1  0.65112700  0.74071400  0.59577100  1
  O  O37  1  0.15178200  0.25312800  0.90623500  1
  O  O38  1  0.62436800  0.33528900  0.23523800  1
  O  O39  1  0.34887300  0.74071400  0.09577100  1
  O  O40  1  0.37563200  0.33528900  0.73523800  1
  O  O41  1  0.86969500  0.67244500  0.76466900  1
  O  O42  1  0.13030500  0.67244500  0.26466900  1
  O  O43  1  0.84821800  0.25312800  0.40623500  1
