# generated using pymatgen
data_Sm3Os
_symmetry_space_group_name_H-M   'P 1'
_cell_length_a   6.46645100
_cell_length_b   7.48083700
_cell_length_c   9.44318800
_cell_angle_alpha   90.00000000
_cell_angle_beta   90.00000000
_cell_angle_gamma   90.00000000
_symmetry_Int_Tables_number   1
_chemical_formula_structural   Sm3Os
_chemical_formula_sum   'Sm12 Os4'
_cell_volume   456.80917589
_cell_formula_units_Z   4
loop_
 _symmetry_equiv_pos_site_id
 _symmetry_equiv_pos_as_xyz
  1  'x, y, z'
loop_
 _atom_site_type_symbol
 _atom_site_label
 _atom_site_symmetry_multiplicity
 _atom_site_fract_x
 _atom_site_fract_y
 _atom_site_fract_z
 _atom_site_occupancy
  Sm  Sm0  1  0.33068300  0.67665000  0.06478200  1
  Sm  Sm1  1  0.16931700  0.17665000  0.43521800  1
  Sm  Sm2  1  0.66931700  0.32335000  0.56478200  1
  Sm  Sm3  1  0.83068300  0.82335000  0.93521800  1
  Sm  Sm4  1  0.66931700  0.32335000  0.93521800  1
  Sm  Sm5  1  0.83068300  0.82335000  0.56478200  1
  Sm  Sm6  1  0.33068300  0.67665000  0.43521800  1
  Sm  Sm7  1  0.16931700  0.17665000  0.06478200  1
  Sm  Sm8  1  0.86328200  0.54017900  0.25000000  1
  Sm  Sm9  1  0.63671800  0.04017900  0.25000000  1
  Sm  Sm10  1  0.13671800  0.45982100  0.75000000  1
  Sm  Sm11  1  0.36328200  0.95982100  0.75000000  1
  Os  Os12  1  0.04669400  0.88553900  0.25000000  1
  Os  Os13  1  0.45330600  0.38553900  0.25000000  1
  Os  Os14  1  0.95330600  0.11446100  0.75000000  1
  Os  Os15  1  0.54669400  0.61446100  0.75000000  1
