# generated using pymatgen
data_LaSI
_symmetry_space_group_name_H-M   'P 1'
_cell_length_a   7.13396300
_cell_length_b   7.39553100
_cell_length_c   14.73078100
_cell_angle_alpha   90.00000000
_cell_angle_beta   90.00000000
_cell_angle_gamma   90.00000000
_symmetry_Int_Tables_number   1
_chemical_formula_structural   LaSI
_chemical_formula_sum   'La8 S8 I8'
_cell_volume   777.18782290
_cell_formula_units_Z   8
loop_
 _symmetry_equiv_pos_site_id
 _symmetry_equiv_pos_as_xyz
  1  'x, y, z'
loop_
 _atom_site_type_symbol
 _atom_site_label
 _atom_site_symmetry_multiplicity
 _atom_site_fract_x
 _atom_site_fract_y
 _atom_site_fract_z
 _atom_site_occupancy
  La  La0  1  0.25726500  0.97031700  0.91648500  1
  La  La1  1  0.74273500  0.02968300  0.08351500  1
  La  La2  1  0.24273500  0.47031700  0.08351500  1
  La  La3  1  0.74273500  0.52968300  0.41648500  1
  La  La4  1  0.75726500  0.52968300  0.91648500  1
  La  La5  1  0.25726500  0.47031700  0.58351500  1
  La  La6  1  0.75726500  0.02968300  0.58351500  1
  La  La7  1  0.24273500  0.97031700  0.41648500  1
  S  S8  1  0.99934900  0.74281300  0.52287800  1
  S  S9  1  0.00065100  0.25718700  0.47712200  1
  S  S10  1  0.50065100  0.24281300  0.47712200  1
  S  S11  1  0.00065100  0.75718700  0.02287800  1
  S  S12  1  0.49934900  0.75718700  0.52287800  1
  S  S13  1  0.99934900  0.24281300  0.97712200  1
  S  S14  1  0.49934900  0.25718700  0.97712200  1
  S  S15  1  0.50065100  0.74281300  0.02287800  1
  I  I16  1  0.18298600  0.59364300  0.80106200  1
  I  I17  1  0.81701400  0.40635700  0.19893800  1
  I  I18  1  0.31701400  0.09364300  0.19893800  1
  I  I19  1  0.81701400  0.90635700  0.30106200  1
  I  I20  1  0.68298600  0.90635700  0.80106200  1
  I  I21  1  0.18298600  0.09364300  0.69893800  1
  I  I22  1  0.68298600  0.40635700  0.69893800  1
  I  I23  1  0.31701400  0.59364300  0.30106200  1
