# generated using pymatgen
data_Tb3(AlNi3)2
_symmetry_space_group_name_H-M   'P 1'
_cell_length_a   7.74691767
_cell_length_b   7.74691767
_cell_length_c   7.74691767
_cell_angle_alpha   109.47122063
_cell_angle_beta   109.47122063
_cell_angle_gamma   109.47122063
_symmetry_Int_Tables_number   1
_chemical_formula_structural   Tb3(AlNi3)2
_chemical_formula_sum   'Tb6 Al4 Ni12'
_cell_volume   357.90266338
_cell_formula_units_Z   2
loop_
 _symmetry_equiv_pos_site_id
 _symmetry_equiv_pos_as_xyz
  1  'x, y, z'
loop_
 _atom_site_type_symbol
 _atom_site_label
 _atom_site_symmetry_multiplicity
 _atom_site_fract_x
 _atom_site_fract_y
 _atom_site_fract_z
 _atom_site_occupancy
  Tb  Tb0  1  0.70594000  0.70594000  0.00000000  1
  Tb  Tb1  1  0.29406000  0.00000000  0.29406000  1
  Tb  Tb2  1  0.00000000  0.29406000  0.29406000  1
  Tb  Tb3  1  0.29406000  0.29406000  0.00000000  1
  Tb  Tb4  1  0.70594000  0.00000000  0.70594000  1
  Tb  Tb5  1  0.00000000  0.70594000  0.70594000  1
  Al  Al6  1  0.00000000  0.00000000  0.50000000  1
  Al  Al7  1  0.00000000  0.50000000  0.00000000  1
  Al  Al8  1  0.50000000  0.00000000  0.00000000  1
  Al  Al9  1  0.50000000  0.50000000  0.50000000  1
  Ni  Ni10  1  0.33333700  0.33333700  0.66667300  1
  Ni  Ni11  1  0.66666300  0.00000000  0.33333700  1
  Ni  Ni12  1  0.00000000  0.66666300  0.33333700  1
  Ni  Ni13  1  0.66666300  0.33333700  0.00000000  1
  Ni  Ni14  1  0.33333700  0.66667300  0.33333700  1
  Ni  Ni15  1  0.00000000  0.33333700  0.66666300  1
  Ni  Ni16  1  0.33333700  0.66666300  0.00000000  1
  Ni  Ni17  1  0.33333700  0.00000000  0.66666300  1
  Ni  Ni18  1  0.66667300  0.33333700  0.33333700  1
  Ni  Ni19  1  0.66666300  0.66666300  0.33332700  1
  Ni  Ni20  1  0.66666300  0.33332700  0.66666300  1
  Ni  Ni21  1  0.33332700  0.66666300  0.66666300  1
