# generated using pymatgen
data_Sr2TiMnO6
_symmetry_space_group_name_H-M   'P 1'
_cell_length_a   5.50591241
_cell_length_b   5.50591241
_cell_length_c   9.53652003
_cell_angle_alpha   73.22134512
_cell_angle_beta   73.22134512
_cell_angle_gamma   60.00000000
_symmetry_Int_Tables_number   1
_chemical_formula_structural   Sr2TiMnO6
_chemical_formula_sum   'Sr4 Ti2 Mn2 O12'
_cell_volume   236.04939511
_cell_formula_units_Z   2
loop_
 _symmetry_equiv_pos_site_id
 _symmetry_equiv_pos_as_xyz
  1  'x, y, z'
loop_
 _atom_site_type_symbol
 _atom_site_label
 _atom_site_symmetry_multiplicity
 _atom_site_fract_x
 _atom_site_fract_y
 _atom_site_fract_z
 _atom_site_occupancy
  Sr  Sr0  1  0.62500000  0.62500000  0.12500000  1
  Sr  Sr1  1  0.12500000  0.12500000  0.62500000  1
  Sr  Sr2  1  0.87500000  0.87500000  0.37500000  1
  Sr  Sr3  1  0.37500000  0.37500000  0.87500000  1
  Ti  Ti4  1  0.00000000  0.00000000  0.00000000  1
  Ti  Ti5  1  0.50000000  0.50000000  0.50000000  1
  Mn  Mn6  1  0.75000000  0.75000000  0.75000000  1
  Mn  Mn7  1  0.25000000  0.25000000  0.25000000  1
  O  O8  1  0.37373000  0.37373000  0.37373000  1
  O  O9  1  0.87373000  0.87373000  0.87373000  1
  O  O10  1  0.12627000  0.12627000  0.12627000  1
  O  O11  1  0.62627000  0.62627000  0.62627000  1
  O  O12  1  0.12627000  0.62119000  0.12627000  1
  O  O13  1  0.62627000  0.12119000  0.62627000  1
  O  O14  1  0.37373000  0.87881000  0.37373000  1
  O  O15  1  0.87373000  0.37881000  0.87373000  1
  O  O16  1  0.62119000  0.12627000  0.12627000  1
  O  O17  1  0.12119000  0.62627000  0.62627000  1
  O  O18  1  0.87881000  0.37373000  0.37373000  1
  O  O19  1  0.37881000  0.87373000  0.87373000  1
