# generated using pymatgen
data_Y2TiO5
_symmetry_space_group_name_H-M   'P 1'
_cell_length_a   3.71858000
_cell_length_b   10.44709700
_cell_length_c   11.35145800
_cell_angle_alpha   90.00000000
_cell_angle_beta   90.00000000
_cell_angle_gamma   90.00000000
_symmetry_Int_Tables_number   1
_chemical_formula_structural   Y2TiO5
_chemical_formula_sum   'Y8 Ti4 O20'
_cell_volume   440.98559459
_cell_formula_units_Z   4
loop_
 _symmetry_equiv_pos_site_id
 _symmetry_equiv_pos_as_xyz
  1  'x, y, z'
loop_
 _atom_site_type_symbol
 _atom_site_label
 _atom_site_symmetry_multiplicity
 _atom_site_fract_x
 _atom_site_fract_y
 _atom_site_fract_z
 _atom_site_occupancy
  Y  Y0  1  0.25000000  0.13627000  0.44426700  1
  Y  Y1  1  0.75000000  0.86373000  0.55573300  1
  Y  Y2  1  0.25000000  0.63627000  0.05573300  1
  Y  Y3  1  0.75000000  0.36373000  0.94426700  1
  Y  Y4  1  0.25000000  0.11542000  0.77665900  1
  Y  Y5  1  0.75000000  0.88458000  0.22334100  1
  Y  Y6  1  0.25000000  0.61542000  0.72334100  1
  Y  Y7  1  0.75000000  0.38458000  0.27665900  1
  Ti  Ti8  1  0.25000000  0.17417000  0.11964700  1
  Ti  Ti9  1  0.75000000  0.82583000  0.88035300  1
  Ti  Ti10  1  0.25000000  0.67417000  0.38035300  1
  Ti  Ti11  1  0.75000000  0.32583000  0.61964700  1
  O  O12  1  0.25000000  0.26404100  0.61692800  1
  O  O13  1  0.75000000  0.73595900  0.38307200  1
  O  O14  1  0.25000000  0.76404100  0.88307200  1
  O  O15  1  0.75000000  0.23595900  0.11692800  1
  O  O16  1  0.25000000  0.50737300  0.34548900  1
  O  O17  1  0.75000000  0.49262700  0.65451100  1
  O  O18  1  0.25000000  0.00737300  0.15451100  1
  O  O19  1  0.75000000  0.99262700  0.84548900  1
  O  O20  1  0.25000000  0.25679800  0.27068700  1
  O  O21  1  0.75000000  0.74320200  0.72931300  1
  O  O22  1  0.25000000  0.75679800  0.22931300  1
  O  O23  1  0.75000000  0.24320200  0.77068700  1
  O  O24  1  0.75000000  0.00611400  0.39493200  1
  O  O25  1  0.25000000  0.99388600  0.60506800  1
  O  O26  1  0.75000000  0.50611400  0.10506800  1
  O  O27  1  0.25000000  0.49388600  0.89493200  1
  O  O28  1  0.75000000  0.27580300  0.45759900  1
  O  O29  1  0.25000000  0.72419700  0.54240100  1
  O  O30  1  0.75000000  0.77580300  0.04240100  1
  O  O31  1  0.25000000  0.22419700  0.95759900  1
