# generated using pymatgen
data_Rb2Ca2Be3F12
_symmetry_space_group_name_H-M   'P 1'
_cell_length_a   10.71193000
_cell_length_b   10.71193000
_cell_length_c   10.71193000
_cell_angle_alpha   90.00000000
_cell_angle_beta   90.00000000
_cell_angle_gamma   90.00000000
_symmetry_Int_Tables_number   1
_chemical_formula_structural   Rb2Ca2Be3F12
_chemical_formula_sum   'Rb8 Ca8 Be12 F48'
_cell_volume   1229.14516743
_cell_formula_units_Z   4
loop_
 _symmetry_equiv_pos_site_id
 _symmetry_equiv_pos_as_xyz
  1  'x, y, z'
loop_
 _atom_site_type_symbol
 _atom_site_label
 _atom_site_symmetry_multiplicity
 _atom_site_fract_x
 _atom_site_fract_y
 _atom_site_fract_z
 _atom_site_occupancy
  Rb  Rb0  1  0.04942100  0.04942100  0.04942100  1
  Rb  Rb1  1  0.45057900  0.95057900  0.54942100  1
  Rb  Rb2  1  0.95057900  0.54942100  0.45057900  1
  Rb  Rb3  1  0.54942100  0.45057900  0.95057900  1
  Rb  Rb4  1  0.81542300  0.81542300  0.81542300  1
  Rb  Rb5  1  0.68457700  0.18457700  0.31542300  1
  Rb  Rb6  1  0.18457700  0.31542300  0.68457700  1
  Rb  Rb7  1  0.31542300  0.68457700  0.18457700  1
  Ca  Ca8  1  0.33348300  0.33348300  0.33348300  1
  Ca  Ca9  1  0.16651700  0.66651700  0.83348300  1
  Ca  Ca10  1  0.66651700  0.83348300  0.16651700  1
  Ca  Ca11  1  0.83348300  0.16651700  0.66651700  1
  Ca  Ca12  1  0.59646700  0.59646700  0.59646700  1
  Ca  Ca13  1  0.90353300  0.40353300  0.09646700  1
  Ca  Ca14  1  0.40353300  0.09646700  0.90353300  1
  Ca  Ca15  1  0.09646700  0.90353300  0.40353300  1
  Be  Be16  1  0.01703800  0.21687100  0.37554200  1
  Be  Be17  1  0.48296200  0.78312900  0.87554200  1
  Be  Be18  1  0.98296200  0.71687100  0.12445800  1
  Be  Be19  1  0.37554200  0.01703800  0.21687100  1
  Be  Be20  1  0.51703800  0.28312900  0.62445800  1
  Be  Be21  1  0.87554200  0.48296200  0.78312900  1
  Be  Be22  1  0.12445800  0.98296200  0.71687100  1
  Be  Be23  1  0.62445800  0.51703800  0.28312900  1
  Be  Be24  1  0.21687100  0.37554200  0.01703800  1
  Be  Be25  1  0.71687100  0.12445800  0.98296200  1
  Be  Be26  1  0.28312900  0.62445800  0.51703800  1
  Be  Be27  1  0.78312900  0.87554200  0.48296200  1
  F  F28  1  0.00972500  0.07978200  0.32616100  1
  F  F29  1  0.49027500  0.92021800  0.82616100  1
  F  F30  1  0.99027500  0.57978200  0.17383900  1
  F  F31  1  0.32616100  0.00972500  0.07978200  1
  F  F32  1  0.50972500  0.42021800  0.67383900  1
  F  F33  1  0.82616100  0.49027500  0.92021800  1
  F  F34  1  0.17383900  0.99027500  0.57978200  1
  F  F35  1  0.67383900  0.50972500  0.42021800  1
  F  F36  1  0.07978200  0.32616100  0.00972500  1
  F  F37  1  0.57978200  0.17383900  0.99027500  1
  F  F38  1  0.42021800  0.67383900  0.50972500  1
  F  F39  1  0.92021800  0.82616100  0.49027500  1
  F  F40  1  0.26476800  0.50153200  0.44034300  1
  F  F41  1  0.23523200  0.49846800  0.94034300  1
  F  F42  1  0.73523200  0.00153200  0.05965700  1
  F  F43  1  0.44034300  0.26476800  0.50153200  1
  F  F44  1  0.76476800  0.99846800  0.55965700  1
  F  F45  1  0.94034300  0.23523200  0.49846800  1
  F  F46  1  0.05965700  0.73523200  0.00153200  1
  F  F47  1  0.55965700  0.76476800  0.99846800  1
  F  F48  1  0.50153200  0.44034300  0.26476800  1
  F  F49  1  0.00153200  0.05965700  0.73523200  1
  F  F50  1  0.99846800  0.55965700  0.76476800  1
  F  F51  1  0.49846800  0.94034300  0.23523200  1
  F  F52  1  0.04435900  0.80453000  0.22383100  1
  F  F53  1  0.45564100  0.19547000  0.72383100  1
  F  F54  1  0.95564100  0.30453000  0.27616900  1
  F  F55  1  0.22383100  0.04435900  0.80453000  1
  F  F56  1  0.54435900  0.69547000  0.77616900  1
  F  F57  1  0.72383100  0.45564100  0.19547000  1
  F  F58  1  0.27616900  0.95564100  0.30453000  1
  F  F59  1  0.77616900  0.54435900  0.69547000  1
  F  F60  1  0.80453000  0.22383100  0.04435900  1
  F  F61  1  0.30453000  0.27616900  0.95564100  1
  F  F62  1  0.69547000  0.77616900  0.54435900  1
  F  F63  1  0.19547000  0.72383100  0.45564100  1
  F  F64  1  0.15431000  0.25356800  0.40521500  1
  F  F65  1  0.34569000  0.74643200  0.90521500  1
  F  F66  1  0.84569000  0.75356800  0.09478500  1
  F  F67  1  0.40521500  0.15431000  0.25356800  1
  F  F68  1  0.65431000  0.24643200  0.59478500  1
  F  F69  1  0.90521500  0.34569000  0.74643200  1
  F  F70  1  0.09478500  0.84569000  0.75356800  1
  F  F71  1  0.59478500  0.65431000  0.24643200  1
  F  F72  1  0.25356800  0.40521500  0.15431000  1
  F  F73  1  0.75356800  0.09478500  0.84569000  1
  F  F74  1  0.24643200  0.59478500  0.65431000  1
  F  F75  1  0.74643200  0.90521500  0.34569000  1
