# generated using pymatgen
data_Rb6U2(Cu4S5)3
_symmetry_space_group_name_H-M   'P 1'
_cell_length_a   16.40908784
_cell_length_b   16.40908784
_cell_length_c   16.40908784
_cell_angle_alpha   109.47122063
_cell_angle_beta   109.47122063
_cell_angle_gamma   109.47122063
_symmetry_Int_Tables_number   1
_chemical_formula_structural   Rb6U2(Cu4S5)3
_chemical_formula_sum   'Rb24 U8 Cu48 S60'
_cell_volume   3401.19419049
_cell_formula_units_Z   4
loop_
 _symmetry_equiv_pos_site_id
 _symmetry_equiv_pos_as_xyz
  1  'x, y, z'
loop_
 _atom_site_type_symbol
 _atom_site_label
 _atom_site_symmetry_multiplicity
 _atom_site_fract_x
 _atom_site_fract_y
 _atom_site_fract_z
 _atom_site_occupancy
  Rb  Rb0  1  0.09196325  0.84196325  0.18392651  1
  Rb  Rb1  1  0.40803675  0.09196325  0.25000000  1
  Rb  Rb2  1  0.84196325  0.65803675  0.25000000  1
  Rb  Rb3  1  0.65803675  0.40803675  0.31607349  1
  Rb  Rb4  1  0.18392651  0.09196325  0.84196325  1
  Rb  Rb5  1  0.25000000  0.40803675  0.09196325  1
  Rb  Rb6  1  0.25000000  0.84196325  0.65803675  1
  Rb  Rb7  1  0.31607349  0.65803675  0.40803675  1
  Rb  Rb8  1  0.84196325  0.18392651  0.09196325  1
  Rb  Rb9  1  0.09196325  0.25000000  0.40803675  1
  Rb  Rb10  1  0.65803675  0.25000000  0.84196325  1
  Rb  Rb11  1  0.40803675  0.31607349  0.65803675  1
  Rb  Rb12  1  0.90803675  0.15803675  0.81607349  1
  Rb  Rb13  1  0.59196325  0.90803675  0.75000000  1
  Rb  Rb14  1  0.15803675  0.34196325  0.75000000  1
  Rb  Rb15  1  0.34196325  0.59196325  0.68392651  1
  Rb  Rb16  1  0.81607349  0.90803675  0.15803675  1
  Rb  Rb17  1  0.75000000  0.59196325  0.90803675  1
  Rb  Rb18  1  0.75000000  0.15803675  0.34196325  1
  Rb  Rb19  1  0.68392651  0.34196325  0.59196325  1
  Rb  Rb20  1  0.15803675  0.81607349  0.90803675  1
  Rb  Rb21  1  0.90803675  0.75000000  0.59196325  1
  Rb  Rb22  1  0.34196325  0.75000000  0.15803675  1
  Rb  Rb23  1  0.59196325  0.68392651  0.34196325  1
  U  U24  1  -0.00000000  0.50000000  -0.00000000  1
  U  U25  1  0.50000000  -0.00000000  -0.00000000  1
  U  U26  1  -0.00000000  -0.00000000  0.50000000  1
  U  U27  1  0.50000000  0.50000000  0.50000000  1
  U  U28  1  -0.00000000  0.50000000  0.50000000  1
  U  U29  1  0.50000000  -0.00000000  0.50000000  1
  U  U30  1  0.50000000  0.50000000  -0.00000000  1
  U  U31  1  -0.00000000  -0.00000000  -0.00000000  1
  Cu  Cu32  1  0.13503905  0.56688500  0.91595882  1
  Cu  Cu33  1  0.36496095  0.78091977  0.93184595  1
  Cu  Cu34  1  0.84907382  0.93311500  0.56815405  1
  Cu  Cu35  1  0.65092618  0.71908023  0.58404118  1
  Cu  Cu36  1  0.91595882  0.13503905  0.56688500  1
  Cu  Cu37  1  0.93184595  0.36496095  0.78091977  1
  Cu  Cu38  1  0.56815405  0.84907382  0.93311500  1
  Cu  Cu39  1  0.58404118  0.65092618  0.71908023  1
  Cu  Cu40  1  0.56688500  0.91595882  0.13503905  1
  Cu  Cu41  1  0.78091977  0.93184595  0.36496095  1
  Cu  Cu42  1  0.93311500  0.56815405  0.84907382  1
  Cu  Cu43  1  0.71908023  0.58404118  0.65092618  1
  Cu  Cu44  1  0.86496095  0.43311500  0.08404118  1
  Cu  Cu45  1  0.63503905  0.21908023  0.06815405  1
  Cu  Cu46  1  0.15092618  0.06688500  0.43184595  1
  Cu  Cu47  1  0.34907382  0.28091977  0.41595882  1
  Cu  Cu48  1  0.08404118  0.86496095  0.43311500  1
  Cu  Cu49  1  0.06815405  0.63503905  0.21908023  1
  Cu  Cu50  1  0.43184595  0.15092618  0.06688500  1
  Cu  Cu51  1  0.41595882  0.34907382  0.28091977  1
  Cu  Cu52  1  0.43311500  0.08404118  0.86496095  1
  Cu  Cu53  1  0.21908023  0.06815405  0.63503905  1
  Cu  Cu54  1  0.06688500  0.43184595  0.15092618  1
  Cu  Cu55  1  0.28091977  0.41595882  0.34907382  1
  Cu  Cu56  1  0.06688500  0.63503905  0.41595882  1
  Cu  Cu57  1  0.28091977  0.86496095  0.43184595  1
  Cu  Cu58  1  0.43311500  0.34907382  0.06815405  1
  Cu  Cu59  1  0.21908023  0.15092618  0.08404118  1
  Cu  Cu60  1  0.63503905  0.41595882  0.06688500  1
  Cu  Cu61  1  0.86496095  0.43184595  0.28091977  1
  Cu  Cu62  1  0.34907382  0.06815405  0.43311500  1
  Cu  Cu63  1  0.15092618  0.08404118  0.21908023  1
  Cu  Cu64  1  0.41595882  0.06688500  0.63503905  1
  Cu  Cu65  1  0.43184595  0.28091977  0.86496095  1
  Cu  Cu66  1  0.06815405  0.43311500  0.34907382  1
  Cu  Cu67  1  0.08404118  0.21908023  0.15092618  1
  Cu  Cu68  1  0.93311500  0.36496095  0.58404118  1
  Cu  Cu69  1  0.71908023  0.13503905  0.56815405  1
  Cu  Cu70  1  0.56688500  0.65092618  0.93184595  1
  Cu  Cu71  1  0.78091977  0.84907382  0.91595882  1
  Cu  Cu72  1  0.36496095  0.58404118  0.93311500  1
  Cu  Cu73  1  0.13503905  0.56815405  0.71908023  1
  Cu  Cu74  1  0.65092618  0.93184595  0.56688500  1
  Cu  Cu75  1  0.84907382  0.91595882  0.78091977  1
  Cu  Cu76  1  0.58404118  0.93311500  0.36496095  1
  Cu  Cu77  1  0.56815405  0.71908023  0.13503905  1
  Cu  Cu78  1  0.93184595  0.56688500  0.65092618  1
  Cu  Cu79  1  0.91595882  0.78091977  0.84907382  1
  S  S80  1  0.83897397  0.42057731  0.82926382  1
  S  S81  1  0.66102603  0.99028985  0.08160334  1
  S  S82  1  0.90868651  0.07942269  0.41839666  1
  S  S83  1  0.59131349  0.50971015  0.67073618  1
  S  S84  1  0.82926382  0.83897397  0.42057731  1
  S  S85  1  0.08160334  0.66102603  0.99028985  1
  S  S86  1  0.41839666  0.90868651  0.07942269  1
  S  S87  1  0.67073618  0.59131349  0.50971015  1
  S  S88  1  0.42057731  0.82926382  0.83897397  1
  S  S89  1  0.99028985  0.08160334  0.66102603  1
  S  S90  1  0.07942269  0.41839666  0.90868651  1
  S  S91  1  0.50971015  0.67073618  0.59131349  1
  S  S92  1  0.16102603  0.57942269  0.17073618  1
  S  S93  1  0.33897397  0.00971015  0.91839666  1
  S  S94  1  0.09131349  0.92057731  0.58160334  1
  S  S95  1  0.40868651  0.49028985  0.32926382  1
  S  S96  1  0.17073618  0.16102603  0.57942269  1
  S  S97  1  0.91839666  0.33897397  0.00971015  1
  S  S98  1  0.58160334  0.09131349  0.92057731  1
  S  S99  1  0.32926382  0.40868651  0.49028985  1
  S  S100  1  0.57942269  0.17073618  0.16102603  1
  S  S101  1  0.00971015  0.91839666  0.33897397  1
  S  S102  1  0.92057731  0.58160334  0.09131349  1
  S  S103  1  0.49028985  0.32926382  0.40868651  1
  S  S104  1  0.92057731  0.33897397  0.32926382  1
  S  S105  1  0.49028985  0.16102603  0.58160334  1
  S  S106  1  0.57942269  0.40868651  0.91839666  1
  S  S107  1  0.00971015  0.09131349  0.17073618  1
  S  S108  1  0.33897397  0.32926382  0.92057731  1
  S  S109  1  0.16102603  0.58160334  0.49028985  1
  S  S110  1  0.40868651  0.91839666  0.57942269  1
  S  S111  1  0.09131349  0.17073618  0.00971015  1
  S  S112  1  0.32926382  0.92057731  0.33897397  1
  S  S113  1  0.58160334  0.49028985  0.16102603  1
  S  S114  1  0.91839666  0.57942269  0.40868651  1
  S  S115  1  0.17073618  0.00971015  0.09131349  1
  S  S116  1  0.07942269  0.66102603  0.67073618  1
  S  S117  1  0.50971015  0.83897397  0.41839666  1
  S  S118  1  0.42057731  0.59131349  0.08160334  1
  S  S119  1  0.99028985  0.90868651  0.82926382  1
  S  S120  1  0.66102603  0.67073618  0.07942269  1
  S  S121  1  0.83897397  0.41839666  0.50971015  1
  S  S122  1  0.59131349  0.08160334  0.42057731  1
  S  S123  1  0.90868651  0.82926382  0.99028985  1
  S  S124  1  0.67073618  0.07942269  0.66102603  1
  S  S125  1  0.41839666  0.50971015  0.83897397  1
  S  S126  1  0.08160334  0.42057731  0.59131349  1
  S  S127  1  0.82926382  0.99028985  0.90868651  1
  S  S128  1  0.25000000  0.12500000  0.37500000  1
  S  S129  1  0.75000000  0.37500000  0.12500000  1
  S  S130  1  0.37500000  0.25000000  0.12500000  1
  S  S131  1  0.12500000  0.75000000  0.37500000  1
  S  S132  1  0.12500000  0.37500000  0.25000000  1
  S  S133  1  0.37500000  0.12500000  0.75000000  1
  S  S134  1  0.75000000  0.87500000  0.62500000  1
  S  S135  1  0.25000000  0.62500000  0.87500000  1
  S  S136  1  0.62500000  0.75000000  0.87500000  1
  S  S137  1  0.87500000  0.25000000  0.62500000  1
  S  S138  1  0.87500000  0.62500000  0.75000000  1
  S  S139  1  0.62500000  0.87500000  0.25000000  1
