# generated using pymatgen
data_HoTlS2
_symmetry_space_group_name_H-M   'P 1'
_cell_length_a   7.89151132
_cell_length_b   7.89151132
_cell_length_c   7.89151112
_cell_angle_alpha   29.44347773
_cell_angle_beta   29.44347773
_cell_angle_gamma   29.44348226
_symmetry_Int_Tables_number   1
_chemical_formula_structural   HoTlS2
_chemical_formula_sum   'Ho1 Tl1 S2'
_cell_volume   105.10264416
_cell_formula_units_Z   1
loop_
 _symmetry_equiv_pos_site_id
 _symmetry_equiv_pos_as_xyz
  1  'x, y, z'
loop_
 _atom_site_type_symbol
 _atom_site_label
 _atom_site_symmetry_multiplicity
 _atom_site_fract_x
 _atom_site_fract_y
 _atom_site_fract_z
 _atom_site_occupancy
  Ho  Ho0  1  0.00000000  0.00000000  0.00000000  1
  Tl  Tl1  1  0.50000000  0.50000000  0.50000000  1
  S  S2  1  0.73222000  0.73222000  0.73222000  1
  S  S3  1  0.26778000  0.26778000  0.26778000  1
