# generated using pymatgen
data_BaNa4Ti2Si10(BO15)2
_symmetry_space_group_name_H-M   'P 1'
_cell_length_a   7.30254200
_cell_length_b   9.87698142
_cell_length_c   9.88105774
_cell_angle_alpha   119.72762188
_cell_angle_beta   91.62634556
_cell_angle_gamma   91.42145159
_symmetry_Int_Tables_number   1
_chemical_formula_structural   BaNa4Ti2Si10(BO15)2
_chemical_formula_sum   'Ba1 Na4 Ti2 Si10 B2 O30'
_cell_volume   618.02603560
_cell_formula_units_Z   1
loop_
 _symmetry_equiv_pos_site_id
 _symmetry_equiv_pos_as_xyz
  1  'x, y, z'
loop_
 _atom_site_type_symbol
 _atom_site_label
 _atom_site_symmetry_multiplicity
 _atom_site_fract_x
 _atom_site_fract_y
 _atom_site_fract_z
 _atom_site_occupancy
  Ba  Ba0  1  0.00000000  0.00000000  0.00000000  1
  Na  Na1  1  0.50587100  0.27668000  0.72207100  1
  Na  Na2  1  0.49412900  0.72332000  0.27792900  1
  Na  Na3  1  0.50211700  0.69830300  0.69734300  1
  Na  Na4  1  0.49788300  0.30169700  0.30265700  1
  Ti  Ti5  1  0.50430700  0.91568300  0.08582100  1
  Ti  Ti6  1  0.49569300  0.08431700  0.91417900  1
  Si  Si7  1  0.80833700  0.62097200  0.92499700  1
  Si  Si8  1  0.80988600  0.93653700  0.62836200  1
  Si  Si9  1  0.19166300  0.37902800  0.07500300  1
  Si  Si10  1  0.19011400  0.06346300  0.37163800  1
  Si  Si11  1  0.23357100  0.58896700  0.92425300  1
  Si  Si12  1  0.23366200  0.91054100  0.58232800  1
  Si  Si13  1  0.76642900  0.41103300  0.07574700  1
  Si  Si14  1  0.76633800  0.08945900  0.41767200  1
  Si  Si15  1  0.80171300  0.58804400  0.42687900  1
  Si  Si16  1  0.19828700  0.41195600  0.57312100  1
  B  B17  1  0.78860200  0.42214900  0.59458500  1
  B  B18  1  0.21139800  0.57785100  0.40541500  1
  O  O19  1  0.78145700  0.56685500  0.05644000  1
  O  O20  1  0.78272000  0.06385300  0.57075600  1
  O  O21  1  0.21854300  0.43314500  0.94356000  1
  O  O22  1  0.21728000  0.93614700  0.42924400  1
  O  O23  1  0.98368800  0.41347100  0.58873200  1
  O  O24  1  0.01631200  0.58652900  0.41126800  1
  O  O25  1  0.73152700  0.47685500  0.75615200  1
  O  O26  1  0.73013700  0.76523000  0.48433400  1
  O  O27  1  0.26847300  0.52314500  0.24384800  1
  O  O28  1  0.26986300  0.23477000  0.51566600  1
  O  O29  1  0.03161700  0.66308600  0.92993500  1
  O  O30  1  0.03175100  0.92842500  0.66184200  1
  O  O31  1  0.96838300  0.33691400  0.07006500  1
  O  O32  1  0.96824900  0.07157500  0.33815800  1
  O  O33  1  0.69582100  0.26716500  0.48716500  1
  O  O34  1  0.69459000  0.47756200  0.25484500  1
  O  O35  1  0.30417900  0.73283500  0.51283500  1
  O  O36  1  0.30541000  0.52243800  0.74515500  1
  O  O37  1  0.72212000  0.53367300  0.54519300  1
  O  O38  1  0.27788000  0.46632700  0.45480700  1
  O  O39  1  0.37563900  0.90745700  0.90794400  1
  O  O40  1  0.62436100  0.09254300  0.09205600  1
  O  O41  1  0.71309800  0.78396800  0.97021300  1
  O  O42  1  0.71452700  0.97334000  0.78739500  1
  O  O43  1  0.28690200  0.21603200  0.02978700  1
  O  O44  1  0.28547300  0.02666000  0.21260500  1
  O  O45  1  0.37960000  0.71618200  0.04867200  1
  O  O46  1  0.37787000  0.03886700  0.71142800  1
  O  O47  1  0.62040000  0.28381800  0.95132800  1
  O  O48  1  0.62213000  0.96113300  0.28857200  1
