# generated using pymatgen
data_V4Pb3O3F19
_symmetry_space_group_name_H-M   'P 1'
_cell_length_a   10.40766947
_cell_length_b   10.40766947
_cell_length_c   9.29846200
_cell_angle_alpha   90.00000000
_cell_angle_beta   90.00000000
_cell_angle_gamma   119.99999662
_symmetry_Int_Tables_number   1
_chemical_formula_structural   V4Pb3O3F19
_chemical_formula_sum   'V8 Pb6 O6 F38'
_cell_volume   872.26560849
_cell_formula_units_Z   2
loop_
 _symmetry_equiv_pos_site_id
 _symmetry_equiv_pos_as_xyz
  1  'x, y, z'
loop_
 _atom_site_type_symbol
 _atom_site_label
 _atom_site_symmetry_multiplicity
 _atom_site_fract_x
 _atom_site_fract_y
 _atom_site_fract_z
 _atom_site_occupancy
  V  V0  1  0.92676400  0.23240900  0.20481600  1
  V  V1  1  0.30564500  0.07323600  0.20481600  1
  V  V2  1  0.76759100  0.69435500  0.20481600  1
  V  V3  1  0.23240900  0.92676400  0.70481600  1
  V  V4  1  0.07323600  0.30564500  0.70481600  1
  V  V5  1  0.69435500  0.76759100  0.70481600  1
  V  V6  1  0.66666700  0.33333300  0.92949000  1
  V  V7  1  0.33333300  0.66666700  0.42949000  1
  Pb  Pb8  1  0.07481500  0.60954300  0.02456000  1
  Pb  Pb9  1  0.53472800  0.92518500  0.02456000  1
  Pb  Pb10  1  0.39045700  0.46527200  0.02456000  1
  Pb  Pb11  1  0.60954300  0.07481500  0.52456000  1
  Pb  Pb12  1  0.92518500  0.53472800  0.52456000  1
  Pb  Pb13  1  0.46527200  0.39045700  0.52456000  1
  O  O14  1  0.00790900  0.16545600  0.29668800  1
  O  O15  1  0.15754800  0.99209100  0.29668800  1
  O  O16  1  0.83454400  0.84245200  0.29668800  1
  O  O17  1  0.16545600  0.00790900  0.79668800  1
  O  O18  1  0.99209100  0.15754800  0.79668800  1
  O  O19  1  0.84245200  0.83454400  0.79668800  1
  F  F20  1  0.08797200  0.36552400  0.08873800  1
  F  F21  1  0.27755200  0.91202800  0.08873800  1
  F  F22  1  0.63447600  0.72244800  0.08873800  1
  F  F23  1  0.36552400  0.08797200  0.58873800  1
  F  F24  1  0.91202800  0.27755200  0.58873800  1
  F  F25  1  0.72244800  0.63447600  0.58873800  1
  F  F26  1  0.83883000  0.09836000  0.05910200  1
  F  F27  1  0.25953000  0.16117000  0.05910200  1
  F  F28  1  0.90164000  0.74047000  0.05910200  1
  F  F29  1  0.09836000  0.83883000  0.55910200  1
  F  F30  1  0.16117000  0.25953000  0.55910200  1
  F  F31  1  0.74047000  0.90164000  0.55910200  1
  F  F32  1  0.73697200  0.13428100  0.29130300  1
  F  F33  1  0.39730900  0.26302800  0.29130300  1
  F  F34  1  0.86571900  0.60269100  0.29130300  1
  F  F35  1  0.13428100  0.73697200  0.79130300  1
  F  F36  1  0.26302800  0.39730900  0.79130300  1
  F  F37  1  0.60269100  0.86571900  0.79130300  1
  F  F38  1  0.95635800  0.39734500  0.31018300  1
  F  F39  1  0.44098800  0.04364200  0.31018300  1
  F  F40  1  0.60265500  0.55901200  0.31018300  1
  F  F41  1  0.39734500  0.95635800  0.81018300  1
  F  F42  1  0.04364200  0.44098800  0.81018300  1
  F  F43  1  0.55901200  0.60265500  0.81018300  1
  F  F44  1  0.82819000  0.36132700  0.05393800  1
  F  F45  1  0.53313700  0.17181000  0.05393800  1
  F  F46  1  0.63867300  0.46686300  0.05393800  1
  F  F47  1  0.36132700  0.82819000  0.55393800  1
  F  F48  1  0.17181000  0.53313700  0.55393800  1
  F  F49  1  0.46686300  0.63867300  0.55393800  1
  F  F50  1  0.80898200  0.49068100  0.81877200  1
  F  F51  1  0.68170000  0.19101800  0.81877200  1
  F  F52  1  0.50931900  0.31830000  0.81877200  1
  F  F53  1  0.49068100  0.80898200  0.31877200  1
  F  F54  1  0.19101800  0.68170000  0.31877200  1
  F  F55  1  0.31830000  0.50931900  0.31877200  1
  F  F56  1  0.33333300  0.66666700  0.01609800  1
  F  F57  1  0.66666700  0.33333300  0.51609800  1
