# generated using pymatgen
data_Tb2(Ga3Ru)3
_symmetry_space_group_name_H-M   'P 1'
_cell_length_a   7.48281081
_cell_length_b   7.48281081
_cell_length_c   9.74311800
_cell_angle_alpha   90.00000000
_cell_angle_beta   90.00000000
_cell_angle_gamma   119.47046956
_symmetry_Int_Tables_number   1
_chemical_formula_structural   Tb2(Ga3Ru)3
_chemical_formula_sum   'Tb4 Ga18 Ru6'
_cell_volume   474.95321647
_cell_formula_units_Z   2
loop_
 _symmetry_equiv_pos_site_id
 _symmetry_equiv_pos_as_xyz
  1  'x, y, z'
loop_
 _atom_site_type_symbol
 _atom_site_label
 _atom_site_symmetry_multiplicity
 _atom_site_fract_x
 _atom_site_fract_y
 _atom_site_fract_z
 _atom_site_occupancy
  Tb  Tb0  1  0.99692400  0.66982400  0.25000000  1
  Tb  Tb1  1  0.00307600  0.33017600  0.75000000  1
  Tb  Tb2  1  0.66982400  0.99692400  0.25000000  1
  Tb  Tb3  1  0.33017600  0.00307600  0.75000000  1
  Ga  Ga4  1  0.12645900  0.12645900  0.25000000  1
  Ga  Ga5  1  0.87354100  0.87354100  0.75000000  1
  Ga  Ga6  1  0.00673000  0.33553400  0.07624700  1
  Ga  Ga7  1  0.99327000  0.66446600  0.92375300  1
  Ga  Ga8  1  0.99327000  0.66446600  0.57624700  1
  Ga  Ga9  1  0.33553400  0.00673000  0.42375300  1
  Ga  Ga10  1  0.00673000  0.33553400  0.42375300  1
  Ga  Ga11  1  0.66446600  0.99327000  0.57624700  1
  Ga  Ga12  1  0.66446600  0.99327000  0.92375300  1
  Ga  Ga13  1  0.33553400  0.00673000  0.07624700  1
  Ga  Ga14  1  0.33792900  0.33792900  0.55988900  1
  Ga  Ga15  1  0.66207100  0.66207100  0.44011100  1
  Ga  Ga16  1  0.66207100  0.66207100  0.05988900  1
  Ga  Ga17  1  0.33792900  0.33792900  0.94011100  1
  Ga  Ga18  1  0.33700400  0.54843400  0.25000000  1
  Ga  Ga19  1  0.66299600  0.45156600  0.75000000  1
  Ga  Ga20  1  0.54843400  0.33700400  0.25000000  1
  Ga  Ga21  1  0.45156600  0.66299600  0.75000000  1
  Ru  Ru22  1  0.67453400  0.32546600  0.00000000  1
  Ru  Ru23  1  0.32546600  0.67453400  0.00000000  1
  Ru  Ru24  1  0.32546600  0.67453400  0.50000000  1
  Ru  Ru25  1  0.67453400  0.32546600  0.50000000  1
  Ru  Ru26  1  0.00000000  0.00000000  0.00000000  1
  Ru  Ru27  1  0.00000000  0.00000000  0.50000000  1
