# generated using pymatgen
data_CuPdF6
_symmetry_space_group_name_H-M   'P 1'
_cell_length_a   4.94373200
_cell_length_b   4.98946007
_cell_length_c   9.61216091
_cell_angle_alpha   75.60316005
_cell_angle_beta   75.83879493
_cell_angle_gamma   60.86583705
_symmetry_Int_Tables_number   1
_chemical_formula_structural   CuPdF6
_chemical_formula_sum   'Cu2 Pd2 F12'
_cell_volume   198.44579887
_cell_formula_units_Z   2
loop_
 _symmetry_equiv_pos_site_id
 _symmetry_equiv_pos_as_xyz
  1  'x, y, z'
loop_
 _atom_site_type_symbol
 _atom_site_label
 _atom_site_symmetry_multiplicity
 _atom_site_fract_x
 _atom_site_fract_y
 _atom_site_fract_z
 _atom_site_occupancy
  Cu  Cu0  1  0.50000000  0.50000000  0.50000000  1
  Cu  Cu1  1  0.00000000  0.00000000  0.00000000  1
  Pd  Pd2  1  0.23153700  0.27772500  0.24994900  1
  Pd  Pd3  1  0.76846300  0.72227500  0.75005100  1
  F  F4  1  0.21484300  0.54269400  0.37674100  1
  F  F5  1  0.78515700  0.45730600  0.62325900  1
  F  F6  1  0.85670400  0.24870000  0.37558200  1
  F  F7  1  0.14329600  0.75130000  0.62441800  1
  F  F8  1  0.60038900  0.29533700  0.12632100  1
  F  F9  1  0.39961100  0.70466300  0.87367900  1
  F  F10  1  0.25454400  0.00388400  0.12513200  1
  F  F11  1  0.74545600  0.99611600  0.87486800  1
  F  F12  1  0.04038100  0.34972200  0.87580000  1
  F  F13  1  0.95961900  0.65027800  0.12420000  1
  F  F14  1  0.50438400  0.08964500  0.62749200  1
  F  F15  1  0.49561600  0.91035500  0.37250800  1
