# generated using pymatgen
data_RbLiSO4
_symmetry_space_group_name_H-M   'P 1'
_cell_length_a   5.38784300
_cell_length_b   9.35577100
_cell_length_c   17.80313488
_cell_angle_alpha   89.86711961
_cell_angle_beta   90.00000000
_cell_angle_gamma   90.00000000
_symmetry_Int_Tables_number   1
_chemical_formula_structural   RbLiSO4
_chemical_formula_sum   'Rb8 Li8 S8 O32'
_cell_volume   897.40777792
_cell_formula_units_Z   8
loop_
 _symmetry_equiv_pos_site_id
 _symmetry_equiv_pos_as_xyz
  1  'x, y, z'
loop_
 _atom_site_type_symbol
 _atom_site_label
 _atom_site_symmetry_multiplicity
 _atom_site_fract_x
 _atom_site_fract_y
 _atom_site_fract_z
 _atom_site_occupancy
  Rb  Rb0  1  0.75314600  0.21542200  0.25096600  1
  Rb  Rb1  1  0.25314600  0.78457800  0.24903400  1
  Rb  Rb2  1  0.24685400  0.78457800  0.74903400  1
  Rb  Rb3  1  0.74685400  0.21542200  0.75096600  1
  Rb  Rb4  1  0.74047000  0.28331600  0.50093100  1
  Rb  Rb5  1  0.24047000  0.71668400  0.99906900  1
  Rb  Rb6  1  0.25953000  0.71668400  0.49906900  1
  Rb  Rb7  1  0.75953000  0.28331600  0.00093100  1
  Li  Li8  1  0.24536500  0.41638200  0.16213700  1
  Li  Li9  1  0.74536500  0.58361800  0.33786300  1
  Li  Li10  1  0.75463500  0.58361800  0.83786300  1
  Li  Li11  1  0.25463500  0.41638200  0.66213700  1
  Li  Li12  1  0.24271200  0.08441500  0.41144800  1
  Li  Li13  1  0.74271200  0.91558500  0.08855200  1
  Li  Li14  1  0.75728800  0.91558500  0.58855200  1
  Li  Li15  1  0.25728800  0.08441500  0.91144800  1
  S  S16  1  0.24428000  0.08229800  0.10250700  1
  S  S17  1  0.74428000  0.91770200  0.39749300  1
  S  S18  1  0.75572000  0.91770200  0.89749300  1
  S  S19  1  0.25572000  0.08229800  0.60250700  1
  S  S20  1  0.24513400  0.41622500  0.35283700  1
  S  S21  1  0.74513400  0.58377500  0.14716300  1
  S  S22  1  0.75486600  0.58377500  0.64716300  1
  S  S23  1  0.25486600  0.41622500  0.85283700  1
  O  O24  1  0.25259000  0.08854300  0.01939400  1
  O  O25  1  0.75259000  0.91145700  0.48060600  1
  O  O26  1  0.74741000  0.91145700  0.98060600  1
  O  O27  1  0.24741000  0.08854300  0.51939400  1
  O  O28  1  0.24717100  0.40308500  0.26985500  1
  O  O29  1  0.74717100  0.59691500  0.23014500  1
  O  O30  1  0.75282900  0.59691500  0.73014500  1
  O  O31  1  0.25282900  0.40308500  0.76985500  1
  O  O32  1  0.15920200  0.22296000  0.13207900  1
  O  O33  1  0.65920200  0.77704000  0.36792100  1
  O  O34  1  0.84079800  0.77704000  0.86792100  1
  O  O35  1  0.34079800  0.22296000  0.63207900  1
  O  O36  1  0.15794700  0.27954000  0.38658200  1
  O  O37  1  0.65794700  0.72046000  0.11341800  1
  O  O38  1  0.84205300  0.72046000  0.61341800  1
  O  O39  1  0.34205300  0.27954000  0.88658200  1
  O  O40  1  0.49570300  0.04694400  0.13285600  1
  O  O41  1  0.99570300  0.95305600  0.36714400  1
  O  O42  1  0.50429700  0.95305600  0.86714400  1
  O  O43  1  0.00429700  0.04694400  0.63285600  1
  O  O44  1  0.50109900  0.44968700  0.38033700  1
  O  O45  1  0.00109900  0.55031300  0.11966300  1
  O  O46  1  0.49890100  0.55031300  0.61966300  1
  O  O47  1  0.99890100  0.44968700  0.88033700  1
  O  O48  1  0.06573100  0.96925700  0.12753300  1
  O  O49  1  0.56573100  0.03074300  0.37246700  1
  O  O50  1  0.93426900  0.03074300  0.87246700  1
  O  O51  1  0.43426900  0.96925700  0.62753300  1
  O  O52  1  0.07344100  0.53369800  0.37612900  1
  O  O53  1  0.57344100  0.46630200  0.12387100  1
  O  O54  1  0.92655900  0.46630200  0.62387100  1
  O  O55  1  0.42655900  0.53369800  0.87612900  1
