# generated using pymatgen
data_Sr2Ni(PO4)2
_symmetry_space_group_name_H-M   'P 1'
_cell_length_a   10.11725800
_cell_length_b   9.12289800
_cell_length_c   11.80459182
_cell_angle_alpha   82.15108998
_cell_angle_beta   90.00000000
_cell_angle_gamma   90.00000000
_symmetry_Int_Tables_number   1
_chemical_formula_structural   Sr2Ni(PO4)2
_chemical_formula_sum   'Sr12 Ni6 P12 O48'
_cell_volume   1079.34133177
_cell_formula_units_Z   6
loop_
 _symmetry_equiv_pos_site_id
 _symmetry_equiv_pos_as_xyz
  1  'x, y, z'
loop_
 _atom_site_type_symbol
 _atom_site_label
 _atom_site_symmetry_multiplicity
 _atom_site_fract_x
 _atom_site_fract_y
 _atom_site_fract_z
 _atom_site_occupancy
  Sr  Sr0  1  0.84974800  0.16750900  0.84773100  1
  Sr  Sr1  1  0.34974800  0.33249100  0.15226900  1
  Sr  Sr2  1  0.15025200  0.83249100  0.15226900  1
  Sr  Sr3  1  0.65025200  0.66750900  0.84773100  1
  Sr  Sr4  1  0.11839200  0.69653500  0.50465600  1
  Sr  Sr5  1  0.61839200  0.80346500  0.49534400  1
  Sr  Sr6  1  0.88160800  0.30346500  0.49534400  1
  Sr  Sr7  1  0.38160800  0.19653500  0.50465600  1
  Sr  Sr8  1  0.72507600  0.16300600  0.18970900  1
  Sr  Sr9  1  0.22507600  0.33699400  0.81029100  1
  Sr  Sr10  1  0.27492400  0.83699400  0.81029100  1
  Sr  Sr11  1  0.77492400  0.66300600  0.18970900  1
  Ni  Ni12  1  0.89073600  0.87469500  0.67660700  1
  Ni  Ni13  1  0.39073600  0.62530500  0.32339300  1
  Ni  Ni14  1  0.10926400  0.12530500  0.32339300  1
  Ni  Ni15  1  0.60926400  0.37469500  0.67660700  1
  Ni  Ni16  1  0.50000000  0.00000000  0.00000000  1
  Ni  Ni17  1  0.00000000  0.50000000  0.00000000  1
  P  P18  1  0.43302900  0.71057100  0.04278500  1
  P  P19  1  0.93302900  0.78942900  0.95721500  1
  P  P20  1  0.56697100  0.28942900  0.95721500  1
  P  P21  1  0.06697100  0.21057100  0.04278500  1
  P  P22  1  0.07596400  0.50559800  0.28669700  1
  P  P23  1  0.57596400  0.99440200  0.71330300  1
  P  P24  1  0.92403600  0.49440200  0.71330300  1
  P  P25  1  0.42403600  0.00559800  0.28669700  1
  P  P26  1  0.39920000  0.56260500  0.62572900  1
  P  P27  1  0.89920000  0.93739500  0.37427100  1
  P  P28  1  0.60080000  0.43739500  0.37427100  1
  P  P29  1  0.10080000  0.06260500  0.62572900  1
  O  O30  1  0.57669100  0.76870600  0.05761200  1
  O  O31  1  0.07669100  0.73129400  0.94238800  1
  O  O32  1  0.42330900  0.23129400  0.94238800  1
  O  O33  1  0.92330900  0.26870600  0.05761200  1
  O  O34  1  0.38224200  0.61079000  0.15032800  1
  O  O35  1  0.88224200  0.88921000  0.84967200  1
  O  O36  1  0.61775800  0.38921000  0.84967200  1
  O  O37  1  0.11775800  0.11079000  0.15032800  1
  O  O38  1  0.41955600  0.63238200  0.93593200  1
  O  O39  1  0.91955600  0.86761800  0.06406800  1
  O  O40  1  0.58044400  0.36761800  0.06406800  1
  O  O41  1  0.08044400  0.13238200  0.93593200  1
  O  O42  1  0.34528600  0.85669600  0.02075700  1
  O  O43  1  0.84528600  0.64330400  0.97924300  1
  O  O44  1  0.65471400  0.14330400  0.97924300  1
  O  O45  1  0.15471400  0.35669600  0.02075700  1
  O  O46  1  0.18851800  0.61298400  0.31542500  1
  O  O47  1  0.68851800  0.88701600  0.68457500  1
  O  O48  1  0.81148200  0.38701600  0.68457500  1
  O  O49  1  0.31148200  0.11298400  0.31542500  1
  O  O50  1  0.96418500  0.52236900  0.37354000  1
  O  O51  1  0.46418500  0.97763100  0.62646000  1
  O  O52  1  0.03581500  0.47763100  0.62646000  1
  O  O53  1  0.53581500  0.02236900  0.37354000  1
  O  O54  1  0.13363000  0.34883600  0.29328700  1
  O  O55  1  0.63363000  0.15116400  0.70671300  1
  O  O56  1  0.86637000  0.65116400  0.70671300  1
  O  O57  1  0.36637000  0.84883600  0.29328700  1
  O  O58  1  0.02176300  0.56492500  0.16507100  1
  O  O59  1  0.52176300  0.93507500  0.83492900  1
  O  O60  1  0.13193700  0.13309500  0.50128800  1
  O  O61  1  0.63193700  0.36690500  0.49871200  1
  O  O62  1  0.86806300  0.86690500  0.49871200  1
  O  O63  1  0.36806300  0.63309500  0.50128800  1
  O  O64  1  0.95535600  0.10255000  0.65558500  1
  O  O65  1  0.45535600  0.39745000  0.34441500  1
  O  O66  1  0.04464400  0.89745000  0.34441500  1
  O  O67  1  0.54464400  0.60255000  0.65558500  1
  O  O68  1  0.10195700  0.88848000  0.64283300  1
  O  O69  1  0.60195700  0.61152000  0.35716700  1
  O  O70  1  0.89804300  0.11152000  0.35716700  1
  O  O71  1  0.39804300  0.38848000  0.64283300  1
  O  O72  1  0.20619300  0.11559400  0.70493200  1
  O  O73  1  0.70619300  0.38440600  0.29506800  1
  O  O74  1  0.79380700  0.88440600  0.29506800  1
  O  O75  1  0.29380700  0.61559400  0.70493200  1
  O  O76  1  0.47823700  0.06492500  0.16507100  1
  O  O77  1  0.97823700  0.43507500  0.83492900  1
