# generated using pymatgen
data_CsNbCl6
_symmetry_space_group_name_H-M   'P 1'
_cell_length_a   7.14469056
_cell_length_b   7.14469056
_cell_length_c   12.85239121
_cell_angle_alpha   79.44541342
_cell_angle_beta   79.44541342
_cell_angle_gamma   55.47394662
_symmetry_Int_Tables_number   1
_chemical_formula_structural   CsNbCl6
_chemical_formula_sum   'Cs2 Nb2 Cl12'
_cell_volume   528.81456511
_cell_formula_units_Z   2
loop_
 _symmetry_equiv_pos_site_id
 _symmetry_equiv_pos_as_xyz
  1  'x, y, z'
loop_
 _atom_site_type_symbol
 _atom_site_label
 _atom_site_symmetry_multiplicity
 _atom_site_fract_x
 _atom_site_fract_y
 _atom_site_fract_z
 _atom_site_occupancy
  Cs  Cs0  1  0.88233100  0.11766900  0.75000000  1
  Cs  Cs1  1  0.11766900  0.88233100  0.25000000  1
  Nb  Nb2  1  0.50000000  0.00000000  0.50000000  1
  Nb  Nb3  1  0.00000000  0.50000000  0.00000000  1
  Cl  Cl4  1  0.46304200  0.70600000  0.60197600  1
  Cl  Cl5  1  0.53695800  0.29400000  0.39802400  1
  Cl  Cl6  1  0.29400000  0.53695800  0.89802400  1
  Cl  Cl7  1  0.70600000  0.46304200  0.10197600  1
  Cl  Cl8  1  0.37284600  0.19549600  0.65526300  1
  Cl  Cl9  1  0.62715400  0.80450400  0.34473700  1
  Cl  Cl10  1  0.80450400  0.62715400  0.84473700  1
  Cl  Cl11  1  0.19549600  0.37284600  0.15526300  1
  Cl  Cl12  1  0.80081000  0.88576100  0.03894500  1
  Cl  Cl13  1  0.19919000  0.11423900  0.96105500  1
  Cl  Cl14  1  0.11423900  0.19919000  0.46105500  1
  Cl  Cl15  1  0.88576100  0.80081000  0.53894500  1
