# generated using pymatgen
data_BaEr2F8
_symmetry_space_group_name_H-M   'P 1'
_cell_length_a   6.33111509
_cell_length_b   6.33111509
_cell_length_c   4.29229545
_cell_angle_alpha   84.96977683
_cell_angle_beta   84.96977683
_cell_angle_gamma   112.86232445
_symmetry_Int_Tables_number   1
_chemical_formula_structural   BaEr2F8
_chemical_formula_sum   'Ba1 Er2 F8'
_cell_volume   156.52636685
_cell_formula_units_Z   1
loop_
 _symmetry_equiv_pos_site_id
 _symmetry_equiv_pos_as_xyz
  1  'x, y, z'
loop_
 _atom_site_type_symbol
 _atom_site_label
 _atom_site_symmetry_multiplicity
 _atom_site_fract_x
 _atom_site_fract_y
 _atom_site_fract_z
 _atom_site_occupancy
  Ba  Ba0  1  0.00000000  0.00000000  0.00000000  1
  Er  Er1  1  0.32428000  0.67572000  0.50000000  1
  Er  Er2  1  0.67572000  0.32428000  0.50000000  1
  F  F3  1  0.73786400  0.26213600  0.00000000  1
  F  F4  1  0.26213600  0.73786400  0.00000000  1
  F  F5  1  0.60642300  0.60642300  0.22846600  1
  F  F6  1  0.04570400  0.32877200  0.43830000  1
  F  F7  1  0.67122800  0.95429600  0.56170000  1
  F  F8  1  0.95429600  0.67122800  0.56170000  1
  F  F9  1  0.32877200  0.04570400  0.43830000  1
  F  F10  1  0.39357700  0.39357700  0.77153400  1
