# generated using pymatgen
data_SmScS3
_symmetry_space_group_name_H-M   'P 1'
_cell_length_a   6.46869800
_cell_length_b   7.12501700
_cell_length_c   9.57211800
_cell_angle_alpha   90.00000000
_cell_angle_beta   90.00000000
_cell_angle_gamma   90.00000000
_symmetry_Int_Tables_number   1
_chemical_formula_structural   SmScS3
_chemical_formula_sum   'Sm4 Sc4 S12'
_cell_volume   441.17492913
_cell_formula_units_Z   4
loop_
 _symmetry_equiv_pos_site_id
 _symmetry_equiv_pos_as_xyz
  1  'x, y, z'
loop_
 _atom_site_type_symbol
 _atom_site_label
 _atom_site_symmetry_multiplicity
 _atom_site_fract_x
 _atom_site_fract_y
 _atom_site_fract_z
 _atom_site_occupancy
  Sm  Sm0  1  0.53974800  0.40075000  0.75000000  1
  Sm  Sm1  1  0.46025200  0.59925000  0.25000000  1
  Sm  Sm2  1  0.03974800  0.09925000  0.25000000  1
  Sm  Sm3  1  0.96025200  0.90075000  0.75000000  1
  Sc  Sc4  1  0.00000000  0.50000000  0.00000000  1
  Sc  Sc5  1  0.00000000  0.50000000  0.50000000  1
  Sc  Sc6  1  0.50000000  0.00000000  0.50000000  1
  Sc  Sc7  1  0.50000000  0.00000000  0.00000000  1
  S  S8  1  0.82344600  0.18833900  0.56648500  1
  S  S9  1  0.17655400  0.81166100  0.06648500  1
  S  S10  1  0.32344600  0.31166100  0.06648500  1
  S  S11  1  0.67655400  0.68833900  0.56648500  1
  S  S12  1  0.82344600  0.18833900  0.93351500  1
  S  S13  1  0.17655400  0.81166100  0.43351500  1
  S  S14  1  0.32344600  0.31166100  0.43351500  1
  S  S15  1  0.67655400  0.68833900  0.93351500  1
  S  S16  1  0.86374000  0.45753300  0.25000000  1
  S  S17  1  0.13626000  0.54246700  0.75000000  1
  S  S18  1  0.36374000  0.04246700  0.75000000  1
  S  S19  1  0.63626000  0.95753300  0.25000000  1
