# generated using pymatgen
data_LiCrO2
_symmetry_space_group_name_H-M   'P 1'
_cell_length_a   5.16527205
_cell_length_b   5.12680601
_cell_length_c   5.88882446
_cell_angle_alpha   90.00033279
_cell_angle_beta   89.99939032
_cell_angle_gamma   109.18494685
_symmetry_Int_Tables_number   1
_chemical_formula_structural   LiCrO2
_chemical_formula_sum   'Li4 Cr4 O8'
_cell_volume   147.28330540
_cell_formula_units_Z   4
loop_
 _symmetry_equiv_pos_site_id
 _symmetry_equiv_pos_as_xyz
  1  'x, y, z'
loop_
 _atom_site_type_symbol
 _atom_site_label
 _atom_site_symmetry_multiplicity
 _atom_site_fract_x
 _atom_site_fract_y
 _atom_site_fract_z
 _atom_site_occupancy
  Li  Li0  1  0.00000000  0.50000000  0.74986700  1
  Li  Li1  1  0.00000000  0.49999900  0.24988300  1
  Li  Li2  1  0.00000000  0.00000100  0.50013300  1
  Li  Li3  1  0.00000000  0.00000100  0.00011700  1
  Cr  Cr4  1  0.49999900  0.99999900  0.75192400  1
  Cr  Cr5  1  0.50000200  0.50000100  0.49807400  1
  Cr  Cr6  1  0.49999800  0.99999900  0.25189100  1
  Cr  Cr7  1  0.50000100  0.50000000  0.99810800  1
  O  O8  1  0.72690300  0.74279100  0.74870300  1
  O  O9  1  0.72691600  0.74279900  0.24869800  1
  O  O10  1  0.72690100  0.24279000  0.50129500  1
  O  O11  1  0.72691400  0.24279700  0.00129900  1
  O  O12  1  0.27309900  0.25721100  0.74870500  1
  O  O13  1  0.27308500  0.25720200  0.24870100  1
  O  O14  1  0.27309700  0.75720900  0.50129800  1
  O  O15  1  0.27308400  0.75720100  0.00130200  1
