# generated using pymatgen
data_TaH6C2SeCl5
_symmetry_space_group_name_H-M   'P 1'
_cell_length_a   7.60152342
_cell_length_b   7.60152342
_cell_length_c   11.48994300
_cell_angle_alpha   90.00000000
_cell_angle_beta   90.00000000
_cell_angle_gamma   112.64074487
_symmetry_Int_Tables_number   1
_chemical_formula_structural   TaH6C2SeCl5
_chemical_formula_sum   'Ta2 H12 C4 Se2 Cl10'
_cell_volume   612.76092775
_cell_formula_units_Z   2
loop_
 _symmetry_equiv_pos_site_id
 _symmetry_equiv_pos_as_xyz
  1  'x, y, z'
loop_
 _atom_site_type_symbol
 _atom_site_label
 _atom_site_symmetry_multiplicity
 _atom_site_fract_x
 _atom_site_fract_y
 _atom_site_fract_z
 _atom_site_occupancy
  Ta  Ta0  1  0.78940100  0.21059900  0.69352100  1
  Ta  Ta1  1  0.21059900  0.78940100  0.19352100  1
  H  H2  1  0.45674700  0.21268200  0.44088300  1
  H  H3  1  0.78731800  0.54325300  0.44088300  1
  H  H4  1  0.54325300  0.78731800  0.94088300  1
  H  H5  1  0.21268200  0.45674700  0.94088300  1
  H  H6  1  0.28199400  0.15130900  0.55680800  1
  H  H7  1  0.84869100  0.71800600  0.55680800  1
  H  H8  1  0.71800600  0.84869100  0.05680800  1
  H  H9  1  0.15130900  0.28199400  0.05680800  1
  H  H10  1  0.31746300  0.35581200  0.46670500  1
  H  H11  1  0.64418800  0.68253700  0.46670500  1
  H  H12  1  0.68253700  0.64418800  0.96670500  1
  H  H13  1  0.35581200  0.31746300  0.96670500  1
  C  C14  1  0.38534500  0.26695500  0.50668100  1
  C  C15  1  0.73304500  0.61465500  0.50668100  1
  C  C16  1  0.61465500  0.73304500  0.00668100  1
  C  C17  1  0.26695500  0.38534500  0.00668100  1
  Se  Se18  1  0.57248100  0.42751900  0.61878500  1
  Se  Se19  1  0.42751900  0.57248100  0.11878500  1
  Cl  Cl20  1  0.96462600  0.03537400  0.74955800  1
  Cl  Cl21  1  0.03537400  0.96462600  0.24955800  1
  Cl  Cl22  1  0.49231600  0.95531300  0.69135400  1
  Cl  Cl23  1  0.04468700  0.50768400  0.69135400  1
  Cl  Cl24  1  0.50768400  0.04468700  0.19135400  1
  Cl  Cl25  1  0.95531300  0.49231600  0.19135400  1
  Cl  Cl26  1  0.82510200  0.17489800  0.49391000  1
  Cl  Cl27  1  0.17489800  0.82510200  0.99391000  1
  Cl  Cl28  1  0.72041500  0.27958500  0.88338100  1
  Cl  Cl29  1  0.27958500  0.72041500  0.38338100  1
