# generated using pymatgen
data_Sm2CoNiO6
_symmetry_space_group_name_H-M   'P 1'
_cell_length_a   5.61115400
_cell_length_b   5.34635100
_cell_length_c   9.32457166
_cell_angle_alpha   55.52049035
_cell_angle_beta   90.00000000
_cell_angle_gamma   90.00000000
_symmetry_Int_Tables_number   1
_chemical_formula_structural   Sm2CoNiO6
_chemical_formula_sum   'Sm4 Co2 Ni2 O12'
_cell_volume   230.58920156
_cell_formula_units_Z   2
loop_
 _symmetry_equiv_pos_site_id
 _symmetry_equiv_pos_as_xyz
  1  'x, y, z'
loop_
 _atom_site_type_symbol
 _atom_site_label
 _atom_site_symmetry_multiplicity
 _atom_site_fract_x
 _atom_site_fract_y
 _atom_site_fract_z
 _atom_site_occupancy
  Sm  Sm0  1  0.56535600  0.73318400  0.75174500  1
  Sm  Sm1  1  0.06535600  0.26681600  0.74825500  1
  Sm  Sm2  1  0.43464400  0.26681600  0.24825500  1
  Sm  Sm3  1  0.93464400  0.73318400  0.25174500  1
  Co  Co4  1  0.50000000  0.50000000  0.50000000  1
  Co  Co5  1  0.00000000  0.50000000  0.00000000  1
  Ni  Ni6  1  0.50000000  0.00000000  0.00000000  1
  Ni  Ni7  1  0.00000000  0.00000000  0.50000000  1
  O  O8  1  0.97339500  0.84226400  0.75096500  1
  O  O9  1  0.47339500  0.15773600  0.74903500  1
  O  O10  1  0.02660500  0.15773600  0.24903500  1
  O  O11  1  0.52660500  0.84226400  0.25096500  1
  O  O12  1  0.80738800  0.26154000  0.95345700  1
  O  O13  1  0.30738800  0.73846000  0.54654300  1
  O  O14  1  0.20248800  0.35012400  0.45006500  1
  O  O15  1  0.70248800  0.64987600  0.04993500  1
  O  O16  1  0.19261200  0.73846000  0.04654300  1
  O  O17  1  0.69261200  0.26154000  0.45345700  1
  O  O18  1  0.79751200  0.64987600  0.54993500  1
  O  O19  1  0.29751200  0.35012400  0.95006500  1
