# generated using pymatgen
data_Ho(Al5Fe)2
_symmetry_space_group_name_H-M   'P 1'
_cell_length_a   6.75251542
_cell_length_b   6.75251542
_cell_length_c   8.96308500
_cell_angle_alpha   90.00000000
_cell_angle_beta   90.00000000
_cell_angle_gamma   97.21720571
_symmetry_Int_Tables_number   1
_chemical_formula_structural   Ho(Al5Fe)2
_chemical_formula_sum   'Ho2 Al20 Fe4'
_cell_volume   405.44698435
_cell_formula_units_Z   2
loop_
 _symmetry_equiv_pos_site_id
 _symmetry_equiv_pos_as_xyz
  1  'x, y, z'
loop_
 _atom_site_type_symbol
 _atom_site_label
 _atom_site_symmetry_multiplicity
 _atom_site_fract_x
 _atom_site_fract_y
 _atom_site_fract_z
 _atom_site_occupancy
  Ho  Ho0  1  0.87467000  0.12533000  0.75000000  1
  Ho  Ho1  1  0.12533000  0.87467000  0.25000000  1
  Al  Al2  1  0.62560400  0.37439600  0.54764100  1
  Al  Al3  1  0.37439600  0.62560400  0.45235900  1
  Al  Al4  1  0.37439600  0.62560400  0.04764100  1
  Al  Al5  1  0.62560400  0.37439600  0.95235900  1
  Al  Al6  1  0.22728800  0.22728800  0.50000000  1
  Al  Al7  1  0.77271200  0.77271200  0.50000000  1
  Al  Al8  1  0.77271200  0.77271200  0.00000000  1
  Al  Al9  1  0.22728800  0.22728800  0.00000000  1
  Al  Al10  1  0.84298600  0.15701400  0.09671700  1
  Al  Al11  1  0.15701400  0.84298600  0.90328300  1
  Al  Al12  1  0.15701400  0.84298600  0.59671700  1
  Al  Al13  1  0.84298600  0.15701400  0.40328300  1
  Al  Al14  1  0.86571800  0.58479700  0.75000000  1
  Al  Al15  1  0.13428200  0.41520300  0.25000000  1
  Al  Al16  1  0.41520300  0.13428200  0.75000000  1
  Al  Al17  1  0.58479700  0.86571800  0.25000000  1
  Al  Al18  1  0.22053300  0.47721800  0.75000000  1
  Al  Al19  1  0.77946700  0.52278200  0.25000000  1
  Al  Al20  1  0.52278200  0.77946700  0.75000000  1
  Al  Al21  1  0.47721800  0.22053300  0.25000000  1
  Fe  Fe22  1  0.00000000  0.50000000  0.50000000  1
  Fe  Fe23  1  0.00000000  0.50000000  0.00000000  1
  Fe  Fe24  1  0.50000000  0.00000000  0.00000000  1
  Fe  Fe25  1  0.50000000  0.00000000  0.50000000  1
