# generated using pymatgen
data_Nd3Se3N
_symmetry_space_group_name_H-M   'P 1'
_cell_length_a   4.15351900
_cell_length_b   12.72257100
_cell_length_c   13.50503900
_cell_angle_alpha   90.00000000
_cell_angle_beta   90.00000000
_cell_angle_gamma   90.00000000
_symmetry_Int_Tables_number   1
_chemical_formula_structural   Nd3Se3N
_chemical_formula_sum   'Nd12 Se12 N4'
_cell_volume   713.65272319
_cell_formula_units_Z   4
loop_
 _symmetry_equiv_pos_site_id
 _symmetry_equiv_pos_as_xyz
  1  'x, y, z'
loop_
 _atom_site_type_symbol
 _atom_site_label
 _atom_site_symmetry_multiplicity
 _atom_site_fract_x
 _atom_site_fract_y
 _atom_site_fract_z
 _atom_site_occupancy
  Nd  Nd0  1  0.25000000  0.72113200  0.86799000  1
  Nd  Nd1  1  0.75000000  0.27886800  0.13201000  1
  Nd  Nd2  1  0.75000000  0.77886800  0.36799000  1
  Nd  Nd3  1  0.25000000  0.22113200  0.63201000  1
  Nd  Nd4  1  0.25000000  0.58683900  0.63152200  1
  Nd  Nd5  1  0.75000000  0.41316100  0.36847800  1
  Nd  Nd6  1  0.75000000  0.91316100  0.13152200  1
  Nd  Nd7  1  0.25000000  0.08683900  0.86847800  1
  Nd  Nd8  1  0.25000000  0.52872100  0.15494900  1
  Nd  Nd9  1  0.75000000  0.47127900  0.84505100  1
  Nd  Nd10  1  0.75000000  0.97127900  0.65494900  1
  Nd  Nd11  1  0.25000000  0.02872100  0.34505100  1
  Se  Se12  1  0.25000000  0.76224100  0.19819100  1
  Se  Se13  1  0.75000000  0.23775900  0.80180900  1
  Se  Se14  1  0.75000000  0.73775900  0.69819100  1
  Se  Se15  1  0.25000000  0.26224100  0.30180900  1
  Se  Se16  1  0.25000000  0.07888300  0.10766100  1
  Se  Se17  1  0.75000000  0.92111700  0.89233900  1
  Se  Se18  1  0.75000000  0.42111700  0.60766100  1
  Se  Se19  1  0.25000000  0.57888300  0.39233900  1
  Se  Se20  1  0.25000000  0.86245000  0.50218100  1
  Se  Se21  1  0.75000000  0.13755000  0.49781900  1
  Se  Se22  1  0.75000000  0.63755000  0.00218100  1
  Se  Se23  1  0.25000000  0.36245000  0.99781900  1
  N  N24  1  0.25000000  0.55462100  0.79751700  1
  N  N25  1  0.75000000  0.44537900  0.20248300  1
  N  N26  1  0.75000000  0.94537900  0.29751700  1
  N  N27  1  0.25000000  0.05462100  0.70248300  1
