# generated using pymatgen
data_Ba6Na2Mn2Nb2O17
_symmetry_space_group_name_H-M   'P 1'
_cell_length_a   5.98615226
_cell_length_b   5.98615226
_cell_length_c   30.42192200
_cell_angle_alpha   90.00000000
_cell_angle_beta   90.00000000
_cell_angle_gamma   120.00000284
_symmetry_Int_Tables_number   1
_chemical_formula_structural   Ba6Na2Mn2Nb2O17
_chemical_formula_sum   'Ba12 Na4 Mn4 Nb4 O34'
_cell_volume   944.08866962
_cell_formula_units_Z   2
loop_
 _symmetry_equiv_pos_site_id
 _symmetry_equiv_pos_as_xyz
  1  'x, y, z'
loop_
 _atom_site_type_symbol
 _atom_site_label
 _atom_site_symmetry_multiplicity
 _atom_site_fract_x
 _atom_site_fract_y
 _atom_site_fract_z
 _atom_site_occupancy
  Ba  Ba0  1  0.33333300  0.66666700  0.18089300  1
  Ba  Ba1  1  0.66666700  0.33333300  0.81910700  1
  Ba  Ba2  1  0.66666700  0.33333300  0.68089300  1
  Ba  Ba3  1  0.33333300  0.66666700  0.31910700  1
  Ba  Ba4  1  0.00000000  0.00000000  0.00000000  1
  Ba  Ba5  1  0.00000000  0.00000000  0.50000000  1
  Ba  Ba6  1  0.33333300  0.66666700  0.59006200  1
  Ba  Ba7  1  0.66666700  0.33333300  0.40993800  1
  Ba  Ba8  1  0.66666700  0.33333300  0.09006200  1
  Ba  Ba9  1  0.33333300  0.66666700  0.90993800  1
  Ba  Ba10  1  0.00000000  0.00000000  0.25000000  1
  Ba  Ba11  1  0.00000000  0.00000000  0.75000000  1
  Na  Na12  1  0.00000000  0.00000000  0.12466000  1
  Na  Na13  1  0.00000000  0.00000000  0.87534000  1
  Na  Na14  1  0.00000000  0.00000000  0.62466000  1
  Na  Na15  1  0.00000000  0.00000000  0.37534000  1
  Mn  Mn16  1  0.33333300  0.66666700  0.05203000  1
  Mn  Mn17  1  0.66666700  0.33333300  0.94797000  1
  Mn  Mn18  1  0.66666700  0.33333300  0.55203000  1
  Mn  Mn19  1  0.33333300  0.66666700  0.44797000  1
  Nb  Nb20  1  0.33333300  0.66666700  0.70136500  1
  Nb  Nb21  1  0.66666700  0.33333300  0.29863500  1
  Nb  Nb22  1  0.66666700  0.33333300  0.20136500  1
  Nb  Nb23  1  0.33333300  0.66666700  0.79863500  1
  O  O24  1  0.33333300  0.66666700  0.50388800  1
  O  O25  1  0.66666700  0.33333300  0.49611200  1
  O  O26  1  0.66666700  0.33333300  0.00388800  1
  O  O27  1  0.33333300  0.66666700  0.99611200  1
  O  O28  1  0.17441400  0.34882700  0.66954800  1
  O  O29  1  0.82558600  0.65117300  0.33045200  1
  O  O30  1  0.65117300  0.82558600  0.66954800  1
  O  O31  1  0.82558600  0.65117300  0.16954800  1
  O  O32  1  0.34882700  0.17441400  0.33045200  1
  O  O33  1  0.17441400  0.34882700  0.83045200  1
  O  O34  1  0.17441400  0.82558600  0.66954800  1
  O  O35  1  0.34882700  0.17441400  0.16954800  1
  O  O36  1  0.82558600  0.17441400  0.33045200  1
  O  O37  1  0.65117300  0.82558600  0.83045200  1
  O  O38  1  0.82558600  0.17441400  0.16954800  1
  O  O39  1  0.17441400  0.82558600  0.83045200  1
  O  O40  1  0.51349400  0.02698700  0.25000000  1
  O  O41  1  0.48650600  0.97301300  0.75000000  1
  O  O42  1  0.97301300  0.48650600  0.25000000  1
  O  O43  1  0.02698700  0.51349400  0.75000000  1
  O  O44  1  0.51349400  0.48650600  0.25000000  1
  O  O45  1  0.48650600  0.51349400  0.75000000  1
  O  O46  1  0.17772300  0.35544600  0.07237100  1
  O  O47  1  0.82227700  0.64455400  0.92762900  1
  O  O48  1  0.64455400  0.82227700  0.07237100  1
  O  O49  1  0.82227700  0.64455400  0.57237100  1
  O  O50  1  0.35544600  0.17772300  0.92762900  1
  O  O51  1  0.17772300  0.35544600  0.42762900  1
  O  O52  1  0.17772300  0.82227700  0.07237100  1
  O  O53  1  0.35544600  0.17772300  0.57237100  1
  O  O54  1  0.82227700  0.17772300  0.92762900  1
  O  O55  1  0.64455400  0.82227700  0.42762900  1
  O  O56  1  0.82227700  0.17772300  0.57237100  1
  O  O57  1  0.17772300  0.82227700  0.42762900  1
