# generated using pymatgen
data_Sm3In5
_symmetry_space_group_name_H-M   'P 1'
_cell_length_a   6.53171306
_cell_length_b   6.53171306
_cell_length_c   10.57928800
_cell_angle_alpha   90.00000000
_cell_angle_beta   90.00000000
_cell_angle_gamma   102.06340319
_symmetry_Int_Tables_number   1
_chemical_formula_structural   Sm3In5
_chemical_formula_sum   'Sm6 In10'
_cell_volume   441.37994862
_cell_formula_units_Z   2
loop_
 _symmetry_equiv_pos_site_id
 _symmetry_equiv_pos_as_xyz
  1  'x, y, z'
loop_
 _atom_site_type_symbol
 _atom_site_label
 _atom_site_symmetry_multiplicity
 _atom_site_fract_x
 _atom_site_fract_y
 _atom_site_fract_z
 _atom_site_occupancy
  Sm  Sm0  1  0.62773400  0.62773400  0.25000000  1
  Sm  Sm1  1  0.37226600  0.37226600  0.75000000  1
  Sm  Sm2  1  0.20249900  0.79750100  0.50000000  1
  Sm  Sm3  1  0.20249900  0.79750100  0.00000000  1
  Sm  Sm4  1  0.79750100  0.20249900  0.50000000  1
  Sm  Sm5  1  0.79750100  0.20249900  0.00000000  1
  In  In6  1  0.01113700  0.01113700  0.25000000  1
  In  In7  1  0.98886300  0.98886300  0.75000000  1
  In  In8  1  0.30906700  0.30906700  0.04693500  1
  In  In9  1  0.69093300  0.69093300  0.95306500  1
  In  In10  1  0.30906700  0.30906700  0.45306500  1
  In  In11  1  0.69093300  0.69093300  0.54693500  1
  In  In12  1  0.50729100  0.07577300  0.25000000  1
  In  In13  1  0.92422700  0.49270900  0.75000000  1
  In  In14  1  0.49270900  0.92422700  0.75000000  1
  In  In15  1  0.07577300  0.50729100  0.25000000  1
