# generated using pymatgen
data_UTeS
_symmetry_space_group_name_H-M   'P 1'
_cell_length_a   4.21473500
_cell_length_b   7.68406100
_cell_length_c   8.96113200
_cell_angle_alpha   90.00000000
_cell_angle_beta   90.00000000
_cell_angle_gamma   90.00000000
_symmetry_Int_Tables_number   1
_chemical_formula_structural   UTeS
_chemical_formula_sum   'U4 Te4 S4'
_cell_volume   290.21773759
_cell_formula_units_Z   4
loop_
 _symmetry_equiv_pos_site_id
 _symmetry_equiv_pos_as_xyz
  1  'x, y, z'
loop_
 _atom_site_type_symbol
 _atom_site_label
 _atom_site_symmetry_multiplicity
 _atom_site_fract_x
 _atom_site_fract_y
 _atom_site_fract_z
 _atom_site_occupancy
  U  U0  1  0.25000000  0.20379500  0.87900000  1
  U  U1  1  0.75000000  0.79620500  0.12100000  1
  U  U2  1  0.25000000  0.70379500  0.62100000  1
  U  U3  1  0.75000000  0.29620500  0.37900000  1
  Te  Te4  1  0.25000000  0.97539700  0.34055100  1
  Te  Te5  1  0.75000000  0.52460300  0.84055100  1
  Te  Te6  1  0.25000000  0.47539700  0.15944900  1
  Te  Te7  1  0.75000000  0.02460300  0.65944900  1
  S  S8  1  0.75000000  0.14930800  0.07228700  1
  S  S9  1  0.25000000  0.35069200  0.57228700  1
  S  S10  1  0.75000000  0.64930800  0.42771300  1
  S  S11  1  0.25000000  0.85069200  0.92771300  1
