# generated using pymatgen
data_Hf9FeRe4
_symmetry_space_group_name_H-M   'P 1'
_cell_length_a   8.42534500
_cell_length_b   8.58974378
_cell_length_c   8.58974378
_cell_angle_alpha   120.01210568
_cell_angle_beta   90.00000000
_cell_angle_gamma   90.00000000
_symmetry_Int_Tables_number   1
_chemical_formula_structural   Hf9FeRe4
_chemical_formula_sum   'Hf18 Fe2 Re8'
_cell_volume   538.30170285
_cell_formula_units_Z   2
loop_
 _symmetry_equiv_pos_site_id
 _symmetry_equiv_pos_as_xyz
  1  'x, y, z'
loop_
 _atom_site_type_symbol
 _atom_site_label
 _atom_site_symmetry_multiplicity
 _atom_site_fract_x
 _atom_site_fract_y
 _atom_site_fract_z
 _atom_site_occupancy
  Hf  Hf0  1  0.55820600  0.79970300  0.59937000  1
  Hf  Hf1  1  0.55827000  0.79966200  0.20033800  1
  Hf  Hf2  1  0.55820600  0.40063000  0.20029700  1
  Hf  Hf3  1  0.44179400  0.20029700  0.40063000  1
  Hf  Hf4  1  0.44173000  0.20033800  0.79966200  1
  Hf  Hf5  1  0.44179400  0.59937000  0.79970300  1
  Hf  Hf6  1  0.05820600  0.20029700  0.40063000  1
  Hf  Hf7  1  0.05827000  0.20033800  0.79966200  1
  Hf  Hf8  1  0.05820600  0.59937000  0.79970300  1
  Hf  Hf9  1  0.94179400  0.79970300  0.59937000  1
  Hf  Hf10  1  0.94173000  0.79966200  0.20033800  1
  Hf  Hf11  1  0.94179400  0.40063000  0.20029700  1
  Hf  Hf12  1  0.75000000  0.46065700  0.92135900  1
  Hf  Hf13  1  0.75000000  0.46062800  0.53937200  1
  Hf  Hf14  1  0.75000000  0.07864100  0.53934200  1
  Hf  Hf15  1  0.25000000  0.53934200  0.07864100  1
  Hf  Hf16  1  0.25000000  0.53937200  0.46062800  1
  Hf  Hf17  1  0.25000000  0.92135900  0.46065700  1
  Fe  Fe18  1  0.75000000  0.66659500  0.33340500  1
  Fe  Fe19  1  0.25000000  0.33340500  0.66659500  1
  Re  Re20  1  0.75000000  0.11007700  0.22020000  1
  Re  Re21  1  0.75000000  0.11009800  0.88990200  1
  Re  Re22  1  0.75000000  0.77980000  0.88992300  1
  Re  Re23  1  0.25000000  0.88992300  0.77980000  1
  Re  Re24  1  0.25000000  0.88990200  0.11009800  1
  Re  Re25  1  0.25000000  0.22020000  0.11007700  1
  Re  Re26  1  0.50000000  0.00000000  0.00000000  1
  Re  Re27  1  0.00000000  0.00000000  0.00000000  1
