# generated using pymatgen
data_Na3Pr(PO4)2
_symmetry_space_group_name_H-M   'P 1'
_cell_length_a   5.40974200
_cell_length_b   14.10723900
_cell_length_c   18.87779400
_cell_angle_alpha   90.00000000
_cell_angle_beta   90.00000000
_cell_angle_gamma   90.00000000
_symmetry_Int_Tables_number   1
_chemical_formula_structural   Na3Pr(PO4)2
_chemical_formula_sum   'Na24 Pr8 P16 O64'
_cell_volume   1440.68760608
_cell_formula_units_Z   8
loop_
 _symmetry_equiv_pos_site_id
 _symmetry_equiv_pos_as_xyz
  1  'x, y, z'
loop_
 _atom_site_type_symbol
 _atom_site_label
 _atom_site_symmetry_multiplicity
 _atom_site_fract_x
 _atom_site_fract_y
 _atom_site_fract_z
 _atom_site_occupancy
  Na  Na0  1  0.01620000  0.78370200  0.50687700  1
  Na  Na1  1  0.98380000  0.21629800  0.00687700  1
  Na  Na2  1  0.98380000  0.28370200  0.50687700  1
  Na  Na3  1  0.01620000  0.71629800  0.00687700  1
  Na  Na4  1  0.01151000  0.04789400  0.85205900  1
  Na  Na5  1  0.98849000  0.95210600  0.35205900  1
  Na  Na6  1  0.98849000  0.54789400  0.85205900  1
  Na  Na7  1  0.01151000  0.45210600  0.35205900  1
  Na  Na8  1  0.00900300  0.13792400  0.67148700  1
  Na  Na9  1  0.99099700  0.86207600  0.17148700  1
  Na  Na10  1  0.99099700  0.63792400  0.67148700  1
  Na  Na11  1  0.00900300  0.36207600  0.17148700  1
  Na  Na12  1  0.52513800  0.20269900  0.76858700  1
  Na  Na13  1  0.47486200  0.79730100  0.26858700  1
  Na  Na14  1  0.47486200  0.70269900  0.76858700  1
  Na  Na15  1  0.52513800  0.29730100  0.26858700  1
  Na  Na16  1  0.46028600  0.03236200  0.61202700  1
  Na  Na17  1  0.53971400  0.96763800  0.11202700  1
  Na  Na18  1  0.53971400  0.53236200  0.61202700  1
  Na  Na19  1  0.46028600  0.46763800  0.11202700  1
  Na  Na20  1  0.50230100  0.11485800  0.94975600  1
  Na  Na21  1  0.49769900  0.88514200  0.44975600  1
  Na  Na22  1  0.49769900  0.61485800  0.94975600  1
  Na  Na23  1  0.50230100  0.38514200  0.44975600  1
  Pr  Pr24  1  0.07024300  0.38609200  0.69774400  1
  Pr  Pr25  1  0.92975700  0.61390800  0.19774400  1
  Pr  Pr26  1  0.92975700  0.88609200  0.69774400  1
  Pr  Pr27  1  0.07024300  0.11390800  0.19774400  1
  Pr  Pr28  1  0.44377100  0.36465200  0.92517900  1
  Pr  Pr29  1  0.55622900  0.63534800  0.42517900  1
  Pr  Pr30  1  0.55622900  0.86465200  0.92517900  1
  Pr  Pr31  1  0.44377100  0.13534800  0.42517900  1
  P  P32  1  0.03106100  0.52476200  0.51961400  1
  P  P33  1  0.96893900  0.47523800  0.01961400  1
  P  P34  1  0.96893900  0.02476200  0.51961400  1
  P  P35  1  0.03106100  0.97523800  0.01961400  1
  P  P36  1  0.01340100  0.77073200  0.84700100  1
  P  P37  1  0.98659900  0.22926800  0.34700100  1
  P  P38  1  0.98659900  0.27073200  0.84700100  1
  P  P39  1  0.01340100  0.72926800  0.34700100  1
  P  P40  1  0.52515000  0.48003900  0.77595300  1
  P  P41  1  0.47485000  0.51996100  0.27595300  1
  P  P42  1  0.47485000  0.98003900  0.77595300  1
  P  P43  1  0.52515000  0.01996100  0.27595300  1
  P  P44  1  0.53932500  0.27356900  0.60329400  1
  P  P45  1  0.46067500  0.72643100  0.10329400  1
  P  P46  1  0.46067500  0.77356900  0.60329400  1
  P  P47  1  0.53932500  0.22643100  0.10329400  1
  O  O48  1  0.41598000  0.19588400  0.64868500  1
  O  O49  1  0.58402000  0.80411600  0.14868500  1
  O  O50  1  0.58402000  0.69588400  0.64868500  1
  O  O51  1  0.41598000  0.30411600  0.14868500  1
  O  O52  1  0.30763800  0.53042200  0.73701600  1
  O  O53  1  0.69236200  0.46957800  0.23701600  1
  O  O54  1  0.69236200  0.03042200  0.73701600  1
  O  O55  1  0.30763800  0.96957800  0.23701600  1
  O  O56  1  0.09965300  0.12153100  0.50513600  1
  O  O57  1  0.90034700  0.87846900  0.00513600  1
  O  O58  1  0.90034700  0.62153100  0.50513600  1
  O  O59  1  0.09965300  0.37846900  0.00513600  1
  O  O60  1  0.19831200  0.22036400  0.88850900  1
  O  O61  1  0.80168800  0.77963600  0.38850900  1
  O  O62  1  0.80168800  0.72036400  0.88850900  1
  O  O63  1  0.19831200  0.27963600  0.38850900  1
  O  O64  1  0.31375900  0.53345100  0.50253800  1
  O  O65  1  0.68624100  0.46654900  0.00253800  1
  O  O66  1  0.68624100  0.03345100  0.50253800  1
  O  O67  1  0.31375900  0.96654900  0.00253800  1
  O  O68  1  0.08912000  0.55299900  0.97306300  1
  O  O69  1  0.91088000  0.44700100  0.47306300  1
  O  O70  1  0.91088000  0.05299900  0.97306300  1
  O  O71  1  0.08912000  0.94700100  0.47306300  1
  O  O72  1  0.22765700  0.00737400  0.73968700  1
  O  O73  1  0.77234300  0.99262600  0.23968700  1
  O  O74  1  0.77234300  0.50737400  0.73968700  1
  O  O75  1  0.22765700  0.49262600  0.23968700  1
  O  O76  1  0.40595500  0.37023600  0.61580700  1
  O  O77  1  0.59404500  0.62976400  0.11580700  1
  O  O78  1  0.59404500  0.87023600  0.61580700  1
  O  O79  1  0.40595500  0.12976400  0.11580700  1
  O  O80  1  0.47975500  0.37114500  0.77355600  1
  O  O81  1  0.52024500  0.62885500  0.27355600  1
  O  O82  1  0.52024500  0.87114500  0.77355600  1
  O  O83  1  0.47975500  0.12885500  0.27355600  1
  O  O84  1  0.03339300  0.37937200  0.84911200  1
  O  O85  1  0.96660700  0.62062800  0.34911200  1
  O  O86  1  0.96660700  0.87937200  0.84911200  1
  O  O87  1  0.03339300  0.12062800  0.34911200  1
  O  O88  1  0.18037700  0.78307600  0.62388900  1
  O  O89  1  0.81962300  0.21692400  0.12388900  1
  O  O90  1  0.81962300  0.28307600  0.62388900  1
  O  O91  1  0.18037700  0.71692400  0.12388900  1
  O  O92  1  0.01037500  0.73805600  0.76827100  1
  O  O93  1  0.98962500  0.26194400  0.26827100  1
  O  O94  1  0.98962500  0.23805600  0.76827100  1
  O  O95  1  0.01037500  0.76194400  0.26827100  1
  O  O96  1  0.47023300  0.01163400  0.85498500  1
  O  O97  1  0.52976700  0.98836600  0.35498500  1
  O  O98  1  0.52976700  0.51163400  0.85498500  1
  O  O99  1  0.47023300  0.48836600  0.35498500  1
  O  O100  1  0.00411600  0.00237300  0.59997900  1
  O  O101  1  0.99588400  0.99762700  0.09997900  1
  O  O102  1  0.99588400  0.50237300  0.59997900  1
  O  O103  1  0.00411600  0.49762700  0.09997900  1
  O  O104  1  0.73517300  0.24368600  0.88112500  1
  O  O105  1  0.26482700  0.75631400  0.38112500  1
  O  O106  1  0.26482700  0.74368600  0.88112500  1
  O  O107  1  0.73517300  0.25631400  0.38112500  1
  O  O108  1  0.52722800  0.25100100  0.52246900  1
  O  O109  1  0.47277200  0.74899900  0.02246900  1
  O  O110  1  0.47277200  0.75100100  0.52246900  1
  O  O111  1  0.52722800  0.24899900  0.02246900  1
