# generated using pymatgen
data_Ba2GaBiS5
_symmetry_space_group_name_H-M   'P 1'
_cell_length_a   9.00877800
_cell_length_b   9.08075300
_cell_length_c   12.37686300
_cell_angle_alpha   90.00000000
_cell_angle_beta   90.00000000
_cell_angle_gamma   90.00000000
_symmetry_Int_Tables_number   1
_chemical_formula_structural   Ba2GaBiS5
_chemical_formula_sum   'Ba8 Ga4 Bi4 S20'
_cell_volume   1012.50769263
_cell_formula_units_Z   4
loop_
 _symmetry_equiv_pos_site_id
 _symmetry_equiv_pos_as_xyz
  1  'x, y, z'
loop_
 _atom_site_type_symbol
 _atom_site_label
 _atom_site_symmetry_multiplicity
 _atom_site_fract_x
 _atom_site_fract_y
 _atom_site_fract_z
 _atom_site_occupancy
  Ba  Ba0  1  0.00845800  0.11643900  0.82275900  1
  Ba  Ba1  1  0.49154200  0.38356100  0.32275900  1
  Ba  Ba2  1  0.50845800  0.88356100  0.17724100  1
  Ba  Ba3  1  0.99154200  0.61643900  0.67724100  1
  Ba  Ba4  1  0.99154200  0.88356100  0.17724100  1
  Ba  Ba5  1  0.50845800  0.61643900  0.67724100  1
  Ba  Ba6  1  0.49154200  0.11643900  0.82275900  1
  Ba  Ba7  1  0.00845800  0.38356100  0.32275900  1
  Ga  Ga8  1  0.25000000  0.32786800  0.59527600  1
  Ga  Ga9  1  0.25000000  0.17213200  0.09527600  1
  Ga  Ga10  1  0.75000000  0.67213200  0.40472400  1
  Ga  Ga11  1  0.75000000  0.82786800  0.90472400  1
  Bi  Bi12  1  0.25000000  0.96350800  0.51830900  1
  Bi  Bi13  1  0.25000000  0.53649200  0.01830900  1
  Bi  Bi14  1  0.75000000  0.03649200  0.48169100  1
  Bi  Bi15  1  0.75000000  0.46350800  0.98169100  1
  S  S16  1  0.05002600  0.17514400  0.55548600  1
  S  S17  1  0.44997400  0.32485600  0.05548600  1
  S  S18  1  0.55002600  0.82485600  0.44451400  1
  S  S19  1  0.94997400  0.67514400  0.94451400  1
  S  S20  1  0.94997400  0.82485600  0.44451400  1
  S  S21  1  0.55002600  0.67514400  0.94451400  1
  S  S22  1  0.44997400  0.17514400  0.55548600  1
  S  S23  1  0.05002600  0.32485600  0.05548600  1
  S  S24  1  0.25000000  0.87223000  0.71489400  1
  S  S25  1  0.25000000  0.62777000  0.21489400  1
  S  S26  1  0.75000000  0.12777000  0.28510600  1
  S  S27  1  0.75000000  0.37223000  0.78510600  1
  S  S28  1  0.25000000  0.37982400  0.77482600  1
  S  S29  1  0.25000000  0.12017600  0.27482600  1
  S  S30  1  0.75000000  0.62017600  0.22517400  1
  S  S31  1  0.75000000  0.87982400  0.72517400  1
  S  S32  1  0.25000000  0.96801900  0.99401200  1
  S  S33  1  0.25000000  0.53198100  0.49401200  1
  S  S34  1  0.75000000  0.03198100  0.00598800  1
  S  S35  1  0.75000000  0.46801900  0.50598800  1
