# generated using pymatgen
data_Ti5S8
_symmetry_space_group_name_H-M   'P 1'
_cell_length_a   6.76198100
_cell_length_b   6.76198100
_cell_length_c   8.26723208
_cell_angle_alpha   53.05467487
_cell_angle_beta   53.05467487
_cell_angle_gamma   60.87507477
_symmetry_Int_Tables_number   1
_chemical_formula_structural   Ti5S8
_chemical_formula_sum   'Ti5 S8'
_cell_volume   236.74832060
_cell_formula_units_Z   1
loop_
 _symmetry_equiv_pos_site_id
 _symmetry_equiv_pos_as_xyz
  1  'x, y, z'
loop_
 _atom_site_type_symbol
 _atom_site_label
 _atom_site_symmetry_multiplicity
 _atom_site_fract_x
 _atom_site_fract_y
 _atom_site_fract_z
 _atom_site_occupancy
  Ti  Ti0  1  0.73637700  0.26362300  0.50000000  1
  Ti  Ti1  1  0.26362300  0.73637700  0.50000000  1
  Ti  Ti2  1  0.74540200  0.74540200  0.00990100  1
  Ti  Ti3  1  0.25459800  0.25459800  0.99009900  1
  Ti  Ti4  1  0.00000000  0.00000000  0.00000000  1
  S  S5  1  0.46009400  0.46009400  0.33155900  1
  S  S6  1  0.53990600  0.53990600  0.66844100  1
  S  S7  1  0.54215600  0.04190000  0.17002400  1
  S  S8  1  0.45784400  0.95810000  0.82997600  1
  S  S9  1  0.95810000  0.45784400  0.82997600  1
  S  S10  1  0.04190000  0.54215600  0.17002400  1
  S  S11  1  0.96348000  0.96348000  0.33062900  1
  S  S12  1  0.03652000  0.03652000  0.66937100  1
