# generated using pymatgen
data_ErAgPb
_symmetry_space_group_name_H-M   'P 1'
_cell_length_a   7.51017086
_cell_length_b   7.51017086
_cell_length_c   4.55563700
_cell_angle_alpha   90.00000000
_cell_angle_beta   90.00000000
_cell_angle_gamma   120.00000758
_symmetry_Int_Tables_number   1
_chemical_formula_structural   ErAgPb
_chemical_formula_sum   'Er3 Ag3 Pb3'
_cell_volume   222.52527435
_cell_formula_units_Z   3
loop_
 _symmetry_equiv_pos_site_id
 _symmetry_equiv_pos_as_xyz
  1  'x, y, z'
loop_
 _atom_site_type_symbol
 _atom_site_label
 _atom_site_symmetry_multiplicity
 _atom_site_fract_x
 _atom_site_fract_y
 _atom_site_fract_z
 _atom_site_occupancy
  Er  Er0  1  0.56875900  0.00000000  0.50000000  1
  Er  Er1  1  0.43124100  0.43124100  0.50000000  1
  Er  Er2  1  0.00000000  0.56875900  0.50000000  1
  Ag  Ag3  1  0.75393600  0.75393600  0.00000000  1
  Ag  Ag4  1  0.00000000  0.24606400  0.00000000  1
  Ag  Ag5  1  0.24606400  0.00000000  0.00000000  1
  Pb  Pb6  1  0.00000000  0.00000000  0.50000000  1
  Pb  Pb7  1  0.33333300  0.66666700  0.00000000  1
  Pb  Pb8  1  0.66666700  0.33333300  0.00000000  1
