# generated using pymatgen
data_RbBi3Se5
_symmetry_space_group_name_H-M   'P 1'
_cell_length_a   4.22866200
_cell_length_b   12.59233300
_cell_length_c   22.24204500
_cell_angle_alpha   90.00000000
_cell_angle_beta   90.00000000
_cell_angle_gamma   90.00000000
_symmetry_Int_Tables_number   1
_chemical_formula_structural   RbBi3Se5
_chemical_formula_sum   'Rb4 Bi12 Se20'
_cell_volume   1184.36042751
_cell_formula_units_Z   4
loop_
 _symmetry_equiv_pos_site_id
 _symmetry_equiv_pos_as_xyz
  1  'x, y, z'
loop_
 _atom_site_type_symbol
 _atom_site_label
 _atom_site_symmetry_multiplicity
 _atom_site_fract_x
 _atom_site_fract_y
 _atom_site_fract_z
 _atom_site_occupancy
  Rb  Rb0  1  0.25000000  0.48921100  0.21220800  1
  Rb  Rb1  1  0.75000000  0.51078900  0.78779200  1
  Rb  Rb2  1  0.75000000  0.98921100  0.28779200  1
  Rb  Rb3  1  0.25000000  0.01078900  0.71220800  1
  Bi  Bi4  1  0.25000000  0.36407700  0.02490600  1
  Bi  Bi5  1  0.75000000  0.63592300  0.97509400  1
  Bi  Bi6  1  0.75000000  0.86407700  0.47509400  1
  Bi  Bi7  1  0.25000000  0.13592300  0.52490600  1
  Bi  Bi8  1  0.25000000  0.80444900  0.12850800  1
  Bi  Bi9  1  0.75000000  0.19555100  0.87149200  1
  Bi  Bi10  1  0.75000000  0.30444900  0.37149200  1
  Bi  Bi11  1  0.25000000  0.69555100  0.62850800  1
  Bi  Bi12  1  0.25000000  0.59422000  0.42338500  1
  Bi  Bi13  1  0.75000000  0.40578000  0.57661500  1
  Bi  Bi14  1  0.75000000  0.09422000  0.07661500  1
  Bi  Bi15  1  0.25000000  0.90578000  0.92338500  1
  Se  Se16  1  0.25000000  0.80686600  0.38584400  1
  Se  Se17  1  0.75000000  0.19313400  0.61415600  1
  Se  Se18  1  0.75000000  0.30686600  0.11415600  1
  Se  Se19  1  0.25000000  0.69313400  0.88584400  1
  Se  Se20  1  0.25000000  0.24820600  0.29449000  1
  Se  Se21  1  0.75000000  0.75179400  0.70551000  1
  Se  Se22  1  0.75000000  0.74820600  0.20551000  1
  Se  Se23  1  0.25000000  0.25179400  0.79449000  1
  Se  Se24  1  0.25000000  0.36140000  0.48022700  1
  Se  Se25  1  0.75000000  0.63860000  0.51977300  1
  Se  Se26  1  0.75000000  0.86140000  0.01977300  1
  Se  Se27  1  0.25000000  0.13860000  0.98022700  1
  Se  Se28  1  0.25000000  0.02683700  0.15985500  1
  Se  Se29  1  0.75000000  0.97316300  0.84014500  1
  Se  Se30  1  0.75000000  0.52683700  0.34014500  1
  Se  Se31  1  0.25000000  0.47316300  0.65985500  1
  Se  Se32  1  0.25000000  0.58501100  0.06421600  1
  Se  Se33  1  0.75000000  0.41498900  0.93578400  1
  Se  Se34  1  0.75000000  0.08501100  0.43578400  1
  Se  Se35  1  0.25000000  0.91498900  0.56421600  1
