# generated using pymatgen
data_ScSiPd
_symmetry_space_group_name_H-M   'P 1'
_cell_length_a   4.09824800
_cell_length_b   6.59283700
_cell_length_c   7.48081000
_cell_angle_alpha   90.00000000
_cell_angle_beta   90.00000000
_cell_angle_gamma   90.00000000
_symmetry_Int_Tables_number   1
_chemical_formula_structural   ScSiPd
_chemical_formula_sum   'Sc4 Si4 Pd4'
_cell_volume   202.12461171
_cell_formula_units_Z   4
loop_
 _symmetry_equiv_pos_site_id
 _symmetry_equiv_pos_as_xyz
  1  'x, y, z'
loop_
 _atom_site_type_symbol
 _atom_site_label
 _atom_site_symmetry_multiplicity
 _atom_site_fract_x
 _atom_site_fract_y
 _atom_site_fract_z
 _atom_site_occupancy
  Sc  Sc0  1  0.25000000  0.00924900  0.30654000  1
  Sc  Sc1  1  0.25000000  0.50924900  0.19346000  1
  Sc  Sc2  1  0.75000000  0.99075100  0.69346000  1
  Sc  Sc3  1  0.75000000  0.49075100  0.80654000  1
  Si  Si4  1  0.25000000  0.28200600  0.60782400  1
  Si  Si5  1  0.25000000  0.78200600  0.89217600  1
  Si  Si6  1  0.75000000  0.71799400  0.39217600  1
  Si  Si7  1  0.75000000  0.21799400  0.10782400  1
  Pd  Pd8  1  0.25000000  0.17185200  0.92784300  1
  Pd  Pd9  1  0.25000000  0.67185200  0.57215700  1
  Pd  Pd10  1  0.75000000  0.82814800  0.07215700  1
  Pd  Pd11  1  0.75000000  0.32814800  0.42784300  1
