# generated using pymatgen
data_CsTb2Ag3Te5
_symmetry_space_group_name_H-M   'P 1'
_cell_length_a   8.56760595
_cell_length_b   8.56760595
_cell_length_c   18.69965500
_cell_angle_alpha   90.00000000
_cell_angle_beta   90.00000000
_cell_angle_gamma   148.89347420
_symmetry_Int_Tables_number   1
_chemical_formula_structural   CsTb2Ag3Te5
_chemical_formula_sum   'Cs2 Tb4 Ag6 Te10'
_cell_volume   709.14149502
_cell_formula_units_Z   2
loop_
 _symmetry_equiv_pos_site_id
 _symmetry_equiv_pos_as_xyz
  1  'x, y, z'
loop_
 _atom_site_type_symbol
 _atom_site_label
 _atom_site_symmetry_multiplicity
 _atom_site_fract_x
 _atom_site_fract_y
 _atom_site_fract_z
 _atom_site_occupancy
  Cs  Cs0  1  0.55803200  0.44196800  0.25000000  1
  Cs  Cs1  1  0.44196800  0.55803200  0.75000000  1
  Tb  Tb2  1  0.69182100  0.30817900  0.90594100  1
  Tb  Tb3  1  0.30817900  0.69182100  0.09405900  1
  Tb  Tb4  1  0.69182100  0.30817900  0.59405900  1
  Tb  Tb5  1  0.30817900  0.69182100  0.40594100  1
  Ag  Ag6  1  0.84129700  0.15870300  0.25000000  1
  Ag  Ag7  1  0.15870300  0.84129700  0.75000000  1
  Ag  Ag8  1  0.08331600  0.91668400  0.46565700  1
  Ag  Ag9  1  0.91668400  0.08331600  0.53434300  1
  Ag  Ag10  1  0.08331600  0.91668400  0.03434300  1
  Ag  Ag11  1  0.91668400  0.08331600  0.96565700  1
  Te  Te12  1  0.06440900  0.93559100  0.88177600  1
  Te  Te13  1  0.93559100  0.06440900  0.11822400  1
  Te  Te14  1  0.06440900  0.93559100  0.61822400  1
  Te  Te15  1  0.93559100  0.06440900  0.38177600  1
  Te  Te16  1  0.67710400  0.32289600  0.42842700  1
  Te  Te17  1  0.32289600  0.67710400  0.57157300  1
  Te  Te18  1  0.67710400  0.32289600  0.07157300  1
  Te  Te19  1  0.32289600  0.67710400  0.92842700  1
  Te  Te20  1  0.24576600  0.75423400  0.25000000  1
  Te  Te21  1  0.75423400  0.24576600  0.75000000  1
