# generated using pymatgen
data_DyB4Rh
_symmetry_space_group_name_H-M   'P 1'
_cell_length_a   3.57592600
_cell_length_b   5.97015000
_cell_length_c   11.57190500
_cell_angle_alpha   90.00000000
_cell_angle_beta   90.00000000
_cell_angle_gamma   90.00000000
_symmetry_Int_Tables_number   1
_chemical_formula_structural   DyB4Rh
_chemical_formula_sum   'Dy4 B16 Rh4'
_cell_volume   247.04645452
_cell_formula_units_Z   4
loop_
 _symmetry_equiv_pos_site_id
 _symmetry_equiv_pos_as_xyz
  1  'x, y, z'
loop_
 _atom_site_type_symbol
 _atom_site_label
 _atom_site_symmetry_multiplicity
 _atom_site_fract_x
 _atom_site_fract_y
 _atom_site_fract_z
 _atom_site_occupancy
  Dy  Dy0  1  0.50000000  0.37084300  0.14909700  1
  Dy  Dy1  1  0.50000000  0.62915700  0.85090300  1
  Dy  Dy2  1  0.50000000  0.12915700  0.64909700  1
  Dy  Dy3  1  0.50000000  0.87084300  0.35090300  1
  B  B4  1  0.00000000  0.11281000  0.04673300  1
  B  B5  1  0.00000000  0.88719000  0.95326700  1
  B  B6  1  0.00000000  0.38719000  0.54673300  1
  B  B7  1  0.00000000  0.61281000  0.45326700  1
  B  B8  1  0.00000000  0.13640300  0.46900400  1
  B  B9  1  0.00000000  0.86359700  0.53099600  1
  B  B10  1  0.00000000  0.36359700  0.96900400  1
  B  B11  1  0.00000000  0.63640300  0.03099600  1
  B  B12  1  0.00000000  0.02449500  0.19261000  1
  B  B13  1  0.00000000  0.97550500  0.80739000  1
  B  B14  1  0.00000000  0.47550500  0.69261000  1
  B  B15  1  0.00000000  0.52449500  0.30739000  1
  B  B16  1  0.00000000  0.21293900  0.31254000  1
  B  B17  1  0.00000000  0.78706100  0.68746000  1
  B  B18  1  0.00000000  0.28706100  0.81254000  1
  B  B19  1  0.00000000  0.71293900  0.18746000  1
  Rh  Rh20  1  0.50000000  0.35878000  0.40558100  1
  Rh  Rh21  1  0.50000000  0.64122000  0.59441900  1
  Rh  Rh22  1  0.50000000  0.14122000  0.90558100  1
  Rh  Rh23  1  0.50000000  0.85878000  0.09441900  1
