# generated using pymatgen
data_SrPdF4
_symmetry_space_group_name_H-M   'P 1'
_cell_length_a   6.84298388
_cell_length_b   6.84298388
_cell_length_c   6.84298388
_cell_angle_alpha   128.64837220
_cell_angle_beta   128.64837220
_cell_angle_gamma   75.57701946
_symmetry_Int_Tables_number   1
_chemical_formula_structural   SrPdF4
_chemical_formula_sum   'Sr2 Pd2 F8'
_cell_volume   190.15643086
_cell_formula_units_Z   2
loop_
 _symmetry_equiv_pos_site_id
 _symmetry_equiv_pos_as_xyz
  1  'x, y, z'
loop_
 _atom_site_type_symbol
 _atom_site_label
 _atom_site_symmetry_multiplicity
 _atom_site_fract_x
 _atom_site_fract_y
 _atom_site_fract_z
 _atom_site_occupancy
  Sr  Sr0  1  0.25000000  0.25000000  0.00000000  1
  Sr  Sr1  1  0.75000000  0.75000000  0.00000000  1
  Pd  Pd2  1  0.50000000  0.00000000  0.50000000  1
  Pd  Pd3  1  0.00000000  0.50000000  0.50000000  1
  F  F4  1  0.46286300  0.96286300  0.16136400  1
  F  F5  1  0.19850100  0.69850100  0.16136400  1
  F  F6  1  0.53713700  0.03713700  0.83863600  1
  F  F7  1  0.03713700  0.19850100  0.50000000  1
  F  F8  1  0.80149900  0.30149900  0.83863600  1
  F  F9  1  0.30149900  0.46286300  0.50000000  1
  F  F10  1  0.96286300  0.80149900  0.50000000  1
  F  F11  1  0.69850100  0.53713700  0.50000000  1
