# generated using pymatgen
data_Tm6Al43V4
_symmetry_space_group_name_H-M   'P 1'
_cell_length_a   10.96773737
_cell_length_b   10.96773737
_cell_length_c   17.49252500
_cell_angle_alpha   90.00000000
_cell_angle_beta   90.00000000
_cell_angle_gamma   119.99999619
_symmetry_Int_Tables_number   1
_chemical_formula_structural   Tm6Al43V4
_chemical_formula_sum   'Tm12 Al86 V8'
_cell_volume   1822.28892746
_cell_formula_units_Z   2
loop_
 _symmetry_equiv_pos_site_id
 _symmetry_equiv_pos_as_xyz
  1  'x, y, z'
loop_
 _atom_site_type_symbol
 _atom_site_label
 _atom_site_symmetry_multiplicity
 _atom_site_fract_x
 _atom_site_fract_y
 _atom_site_fract_z
 _atom_site_occupancy
  Tm  Tm0  1  0.53089500  0.00000000  0.59608100  1
  Tm  Tm1  1  0.46910500  0.00000000  0.40391900  1
  Tm  Tm2  1  0.00000000  0.53089500  0.59608100  1
  Tm  Tm3  1  0.46910500  0.00000000  0.09608100  1
  Tm  Tm4  1  0.00000000  0.53089500  0.90391900  1
  Tm  Tm5  1  0.00000000  0.46910500  0.40391900  1
  Tm  Tm6  1  0.53089500  0.00000000  0.90391900  1
  Tm  Tm7  1  0.00000000  0.46910500  0.09608100  1
  Tm  Tm8  1  0.46910500  0.46910500  0.59608100  1
  Tm  Tm9  1  0.53089500  0.53089500  0.40391900  1
  Tm  Tm10  1  0.53089500  0.53089500  0.09608100  1
  Tm  Tm11  1  0.46910500  0.46910500  0.90391900  1
  Al  Al12  1  0.14632200  0.59810000  0.75000000  1
  Al  Al13  1  0.85367800  0.40190000  0.25000000  1
  Al  Al14  1  0.40190000  0.54822300  0.75000000  1
  Al  Al15  1  0.59810000  0.14632200  0.75000000  1
  Al  Al16  1  0.59810000  0.45177700  0.25000000  1
  Al  Al17  1  0.40190000  0.85367800  0.25000000  1
  Al  Al18  1  0.45177700  0.85367800  0.75000000  1
  Al  Al19  1  0.54822300  0.40190000  0.75000000  1
  Al  Al20  1  0.54822300  0.14632200  0.25000000  1
  Al  Al21  1  0.45177700  0.59810000  0.25000000  1
  Al  Al22  1  0.85367800  0.45177700  0.75000000  1
  Al  Al23  1  0.14632200  0.54822300  0.25000000  1
  Al  Al24  1  0.15603000  0.00000000  0.11549200  1
  Al  Al25  1  0.84397000  0.00000000  0.88450800  1
  Al  Al26  1  0.00000000  0.15603000  0.11549200  1
  Al  Al27  1  0.84397000  0.00000000  0.61549200  1
  Al  Al28  1  0.00000000  0.15603000  0.38450800  1
  Al  Al29  1  0.00000000  0.84397000  0.88450800  1
  Al  Al30  1  0.15603000  0.00000000  0.38450800  1
  Al  Al31  1  0.00000000  0.84397000  0.61549200  1
  Al  Al32  1  0.84397000  0.84397000  0.11549200  1
  Al  Al33  1  0.15603000  0.15603000  0.88450800  1
  Al  Al34  1  0.15603000  0.15603000  0.61549200  1
  Al  Al35  1  0.84397000  0.84397000  0.38450800  1
  Al  Al36  1  0.24688400  0.49376700  0.50000000  1
  Al  Al37  1  0.75311600  0.50623300  0.50000000  1
  Al  Al38  1  0.50623300  0.75311600  0.50000000  1
  Al  Al39  1  0.75311600  0.50623300  0.00000000  1
  Al  Al40  1  0.49376700  0.24688400  0.00000000  1
  Al  Al41  1  0.49376700  0.24688400  0.50000000  1
  Al  Al42  1  0.24688400  0.49376700  0.00000000  1
  Al  Al43  1  0.50623300  0.75311600  0.00000000  1
  Al  Al44  1  0.24688400  0.75311600  0.50000000  1
  Al  Al45  1  0.75311600  0.24688400  0.50000000  1
  Al  Al46  1  0.75311600  0.24688400  0.00000000  1
  Al  Al47  1  0.24688400  0.75311600  0.00000000  1
  Al  Al48  1  0.14562400  0.00000000  0.75000000  1
  Al  Al49  1  0.85437600  0.00000000  0.25000000  1
  Al  Al50  1  0.00000000  0.14562400  0.75000000  1
  Al  Al51  1  0.00000000  0.85437600  0.25000000  1
  Al  Al52  1  0.85437600  0.85437600  0.75000000  1
  Al  Al53  1  0.14562400  0.14562400  0.25000000  1
  Al  Al54  1  0.33333300  0.66666700  0.62717400  1
  Al  Al55  1  0.66666700  0.33333300  0.37282600  1
  Al  Al56  1  0.66666700  0.33333300  0.12717400  1
  Al  Al57  1  0.66666700  0.33333300  0.87282600  1
  Al  Al58  1  0.33333300  0.66666700  0.87282600  1
  Al  Al59  1  0.33333300  0.66666700  0.12717400  1
  Al  Al60  1  0.33333300  0.66666700  0.37282600  1
  Al  Al61  1  0.66666700  0.33333300  0.62717400  1
  Al  Al62  1  0.25354300  0.00000000  0.53001300  1
  Al  Al63  1  0.74645700  0.00000000  0.46998700  1
  Al  Al64  1  0.00000000  0.25354300  0.53001300  1
  Al  Al65  1  0.74645700  0.00000000  0.03001300  1
  Al  Al66  1  0.00000000  0.25354300  0.96998700  1
  Al  Al67  1  0.00000000  0.74645700  0.46998700  1
  Al  Al68  1  0.25354300  0.00000000  0.96998700  1
  Al  Al69  1  0.00000000  0.74645700  0.03001300  1
  Al  Al70  1  0.74645700  0.74645700  0.53001300  1
  Al  Al71  1  0.25354300  0.25354300  0.46998700  1
  Al  Al72  1  0.25354300  0.25354300  0.03001300  1
  Al  Al73  1  0.74645700  0.74645700  0.96998700  1
  Al  Al74  1  0.15774000  0.39201800  0.66513900  1
  Al  Al75  1  0.84226000  0.60798200  0.33486100  1
  Al  Al76  1  0.60798200  0.76572200  0.66513900  1
  Al  Al77  1  0.84226000  0.60798200  0.16513900  1
  Al  Al78  1  0.39201800  0.15774000  0.83486100  1
  Al  Al79  1  0.39201800  0.23427800  0.33486100  1
  Al  Al80  1  0.15774000  0.39201800  0.83486100  1
  Al  Al81  1  0.60798200  0.84226000  0.16513900  1
  Al  Al82  1  0.23427800  0.84226000  0.66513900  1
  Al  Al83  1  0.39201800  0.23427800  0.16513900  1
  Al  Al84  1  0.76572200  0.60798200  0.83486100  1
  Al  Al85  1  0.76572200  0.15774000  0.33486100  1
  Al  Al86  1  0.60798200  0.76572200  0.83486100  1
  Al  Al87  1  0.23427800  0.39201800  0.16513900  1
  Al  Al88  1  0.60798200  0.84226000  0.33486100  1
  Al  Al89  1  0.39201800  0.15774000  0.66513900  1
  Al  Al90  1  0.76572200  0.15774000  0.16513900  1
  Al  Al91  1  0.23427800  0.39201800  0.33486100  1
  Al  Al92  1  0.23427800  0.84226000  0.83486100  1
  Al  Al93  1  0.76572200  0.60798200  0.66513900  1
  Al  Al94  1  0.84226000  0.23427800  0.83486100  1
  Al  Al95  1  0.15774000  0.76572200  0.16513900  1
  Al  Al96  1  0.15774000  0.76572200  0.33486100  1
  Al  Al97  1  0.84226000  0.23427800  0.66513900  1
  V  V98  1  0.00000000  0.00000000  0.50000000  1
  V  V99  1  0.00000000  0.00000000  0.00000000  1
  V  V100  1  0.72964000  0.00000000  0.75000000  1
  V  V101  1  0.27036000  0.00000000  0.25000000  1
  V  V102  1  0.00000000  0.72964000  0.75000000  1
  V  V103  1  0.00000000  0.27036000  0.25000000  1
  V  V104  1  0.27036000  0.27036000  0.75000000  1
  V  V105  1  0.72964000  0.72964000  0.25000000  1
