# generated using pymatgen
data_Tm4CdPd
_symmetry_space_group_name_H-M   'P 1'
_cell_length_a   9.56312990
_cell_length_b   9.56312990
_cell_length_c   9.56312990
_cell_angle_alpha   60.00000000
_cell_angle_beta   60.00000000
_cell_angle_gamma   60.00000000
_symmetry_Int_Tables_number   1
_chemical_formula_structural   Tm4CdPd
_chemical_formula_sum   'Tm16 Cd4 Pd4'
_cell_volume   618.42233599
_cell_formula_units_Z   4
loop_
 _symmetry_equiv_pos_site_id
 _symmetry_equiv_pos_as_xyz
  1  'x, y, z'
loop_
 _atom_site_type_symbol
 _atom_site_label
 _atom_site_symmetry_multiplicity
 _atom_site_fract_x
 _atom_site_fract_y
 _atom_site_fract_z
 _atom_site_occupancy
  Tm  Tm0  1  0.35473900  0.35473900  0.35473900  1
  Tm  Tm1  1  0.35473900  0.35473900  0.93578300  1
  Tm  Tm2  1  0.35473900  0.93578300  0.35473900  1
  Tm  Tm3  1  0.93578300  0.35473900  0.35473900  1
  Tm  Tm4  1  0.81143300  0.18856700  0.18856700  1
  Tm  Tm5  1  0.18856700  0.81143300  0.81143300  1
  Tm  Tm6  1  0.18856700  0.81143300  0.18856700  1
  Tm  Tm7  1  0.81143300  0.18856700  0.81143300  1
  Tm  Tm8  1  0.18856700  0.18856700  0.81143300  1
  Tm  Tm9  1  0.81143300  0.81143300  0.18856700  1
  Tm  Tm10  1  0.93354500  0.56645500  0.56645500  1
  Tm  Tm11  1  0.56645500  0.93354500  0.93354500  1
  Tm  Tm12  1  0.56645500  0.93354500  0.56645500  1
  Tm  Tm13  1  0.93354500  0.56645500  0.93354500  1
  Tm  Tm14  1  0.56645500  0.56645500  0.93354500  1
  Tm  Tm15  1  0.93354500  0.93354500  0.56645500  1
  Cd  Cd16  1  0.58310700  0.58310700  0.58310700  1
  Cd  Cd17  1  0.58310700  0.58310700  0.25067900  1
  Cd  Cd18  1  0.58310700  0.25067900  0.58310700  1
  Cd  Cd19  1  0.25067900  0.58310700  0.58310700  1
  Pd  Pd20  1  0.14498200  0.14498200  0.14498200  1
  Pd  Pd21  1  0.14498200  0.14498200  0.56505300  1
  Pd  Pd22  1  0.14498200  0.56505300  0.14498200  1
  Pd  Pd23  1  0.56505300  0.14498200  0.14498200  1
