# generated using pymatgen
data_Er3Ga15Ru4
_symmetry_space_group_name_H-M   'P 1'
_cell_length_a   8.79245600
_cell_length_b   9.63537100
_cell_length_c   17.81850600
_cell_angle_alpha   90.00000000
_cell_angle_beta   90.00000000
_cell_angle_gamma   90.00000000
_symmetry_Int_Tables_number   1
_chemical_formula_structural   Er3Ga15Ru4
_chemical_formula_sum   'Er12 Ga60 Ru16'
_cell_volume   1509.55844695
_cell_formula_units_Z   4
loop_
 _symmetry_equiv_pos_site_id
 _symmetry_equiv_pos_as_xyz
  1  'x, y, z'
loop_
 _atom_site_type_symbol
 _atom_site_label
 _atom_site_symmetry_multiplicity
 _atom_site_fract_x
 _atom_site_fract_y
 _atom_site_fract_z
 _atom_site_occupancy
  Er  Er0  1  0.37585300  0.25000000  0.16779000  1
  Er  Er1  1  0.62414700  0.75000000  0.83221000  1
  Er  Er2  1  0.12414700  0.75000000  0.66779000  1
  Er  Er3  1  0.87585300  0.25000000  0.33221000  1
  Er  Er4  1  0.37530100  0.25000000  0.74834100  1
  Er  Er5  1  0.62469900  0.75000000  0.25165900  1
  Er  Er6  1  0.12469900  0.75000000  0.24834100  1
  Er  Er7  1  0.87530100  0.25000000  0.75165900  1
  Er  Er8  1  0.12557200  0.25000000  0.52424700  1
  Er  Er9  1  0.87442800  0.75000000  0.47575300  1
  Er  Er10  1  0.37442800  0.75000000  0.02424700  1
  Er  Er11  1  0.62557200  0.25000000  0.97575300  1
  Ga  Ga12  1  0.12659400  0.06084800  0.25282700  1
  Ga  Ga13  1  0.87340600  0.93915200  0.74717300  1
  Ga  Ga14  1  0.37340600  0.93915200  0.75282700  1
  Ga  Ga15  1  0.87340600  0.56084800  0.74717300  1
  Ga  Ga16  1  0.62659400  0.06084800  0.24717300  1
  Ga  Ga17  1  0.12659400  0.43915200  0.25282700  1
  Ga  Ga18  1  0.62659400  0.43915200  0.24717300  1
  Ga  Ga19  1  0.37340600  0.56084800  0.75282700  1
  Ga  Ga20  1  0.00735000  0.25000000  0.16881900  1
  Ga  Ga21  1  0.99265000  0.75000000  0.83118100  1
  Ga  Ga22  1  0.49265000  0.75000000  0.66881900  1
  Ga  Ga23  1  0.50735000  0.25000000  0.33118100  1
  Ga  Ga24  1  0.13319000  0.25000000  0.04176600  1
  Ga  Ga25  1  0.86681000  0.75000000  0.95823400  1
  Ga  Ga26  1  0.36681000  0.75000000  0.54176600  1
  Ga  Ga27  1  0.63319000  0.25000000  0.45823400  1
  Ga  Ga28  1  0.37444600  0.57763600  0.33141000  1
  Ga  Ga29  1  0.62555400  0.42236400  0.66859000  1
  Ga  Ga30  1  0.12555400  0.42236400  0.83141000  1
  Ga  Ga31  1  0.62555400  0.07763600  0.66859000  1
  Ga  Ga32  1  0.87444600  0.57763600  0.16859000  1
  Ga  Ga33  1  0.37444600  0.92236400  0.33141000  1
  Ga  Ga34  1  0.87444600  0.92236400  0.16859000  1
  Ga  Ga35  1  0.12555400  0.07763600  0.83141000  1
  Ga  Ga36  1  0.22094300  0.25000000  0.35926700  1
  Ga  Ga37  1  0.77905700  0.75000000  0.64073300  1
  Ga  Ga38  1  0.27905700  0.75000000  0.85926700  1
  Ga  Ga39  1  0.72094300  0.25000000  0.14073300  1
  Ga  Ga40  1  0.12414200  0.08735200  0.67192500  1
  Ga  Ga41  1  0.87585800  0.91264800  0.32807500  1
  Ga  Ga42  1  0.37585800  0.91264800  0.17192500  1
  Ga  Ga43  1  0.87585800  0.58735200  0.32807500  1
  Ga  Ga44  1  0.62414200  0.08735200  0.82807500  1
  Ga  Ga45  1  0.12414200  0.41264800  0.67192500  1
  Ga  Ga46  1  0.62414200  0.41264800  0.82807500  1
  Ga  Ga47  1  0.37585800  0.58735200  0.17192500  1
  Ga  Ga48  1  0.37732000  0.06153800  0.46538900  1
  Ga  Ga49  1  0.62268000  0.93846200  0.53461100  1
  Ga  Ga50  1  0.12268000  0.93846200  0.96538900  1
  Ga  Ga51  1  0.62268000  0.56153800  0.53461100  1
  Ga  Ga52  1  0.87732000  0.06153800  0.03461100  1
  Ga  Ga53  1  0.37732000  0.43846200  0.46538900  1
  Ga  Ga54  1  0.87732000  0.43846200  0.03461100  1
  Ga  Ga55  1  0.12268000  0.56153800  0.96538900  1
  Ga  Ga56  1  0.45081500  0.25000000  0.57759500  1
  Ga  Ga57  1  0.54918500  0.75000000  0.42240500  1
  Ga  Ga58  1  0.04918500  0.75000000  0.07759500  1
  Ga  Ga59  1  0.95081500  0.25000000  0.92240500  1
  Ga  Ga60  1  0.30462900  0.25000000  0.91807800  1
  Ga  Ga61  1  0.69537100  0.75000000  0.08192200  1
  Ga  Ga62  1  0.19537100  0.75000000  0.41807800  1
  Ga  Ga63  1  0.80462900  0.25000000  0.58192200  1
  Ga  Ga64  1  0.37396200  0.06923300  0.03292300  1
  Ga  Ga65  1  0.62603800  0.93076700  0.96707700  1
  Ga  Ga66  1  0.12603800  0.93076700  0.53292300  1
  Ga  Ga67  1  0.62603800  0.56923300  0.96707700  1
  Ga  Ga68  1  0.87396200  0.06923300  0.46707700  1
  Ga  Ga69  1  0.37396200  0.43076700  0.03292300  1
  Ga  Ga70  1  0.87396200  0.43076700  0.46707700  1
  Ga  Ga71  1  0.12603800  0.56923300  0.53292300  1
  Ru  Ru72  1  0.11741700  0.00375100  0.39034800  1
  Ru  Ru73  1  0.88258300  0.99624900  0.60965200  1
  Ru  Ru74  1  0.38258300  0.99624900  0.89034800  1
  Ru  Ru75  1  0.88258300  0.50375100  0.60965200  1
  Ru  Ru76  1  0.61741700  0.00375100  0.10965200  1
  Ru  Ru77  1  0.11741700  0.49624900  0.39034800  1
  Ru  Ru78  1  0.61741700  0.49624900  0.10965200  1
  Ru  Ru79  1  0.38258300  0.50375100  0.89034800  1
  Ru  Ru80  1  0.13030000  0.00478800  0.11346800  1
  Ru  Ru81  1  0.86970000  0.99521200  0.88653200  1
  Ru  Ru82  1  0.36970000  0.99521200  0.61346800  1
  Ru  Ru83  1  0.86970000  0.50478800  0.88653200  1
  Ru  Ru84  1  0.63030000  0.00478800  0.38653200  1
  Ru  Ru85  1  0.13030000  0.49521200  0.11346800  1
  Ru  Ru86  1  0.63030000  0.49521200  0.38653200  1
  Ru  Ru87  1  0.36970000  0.50478800  0.61346800  1
