# generated using pymatgen
data_YGeBiO5
_symmetry_space_group_name_H-M   'P 1'
_cell_length_a   5.41100600
_cell_length_b   11.20022100
_cell_length_c   15.43082200
_cell_angle_alpha   90.00000000
_cell_angle_beta   90.00000000
_cell_angle_gamma   90.00000000
_symmetry_Int_Tables_number   1
_chemical_formula_structural   YGeBiO5
_chemical_formula_sum   'Y8 Ge8 Bi8 O40'
_cell_volume   935.17668146
_cell_formula_units_Z   8
loop_
 _symmetry_equiv_pos_site_id
 _symmetry_equiv_pos_as_xyz
  1  'x, y, z'
loop_
 _atom_site_type_symbol
 _atom_site_label
 _atom_site_symmetry_multiplicity
 _atom_site_fract_x
 _atom_site_fract_y
 _atom_site_fract_z
 _atom_site_occupancy
  Y  Y0  1  0.00838800  0.64109100  0.94668700  1
  Y  Y1  1  0.99161200  0.35890900  0.05331300  1
  Y  Y2  1  0.49161200  0.14109100  0.05331300  1
  Y  Y3  1  0.99161200  0.85890900  0.44668700  1
  Y  Y4  1  0.50838800  0.85890900  0.94668700  1
  Y  Y5  1  0.00838800  0.14109100  0.55331300  1
  Y  Y6  1  0.50838800  0.35890900  0.55331300  1
  Y  Y7  1  0.49161200  0.64109100  0.44668700  1
  Ge  Ge8  1  0.00935200  0.59599100  0.59666700  1
  Ge  Ge9  1  0.99064800  0.40400900  0.40333300  1
  Ge  Ge10  1  0.49064800  0.09599100  0.40333300  1
  Ge  Ge11  1  0.99064800  0.90400900  0.09666700  1
  Ge  Ge12  1  0.50935200  0.90400900  0.59666700  1
  Ge  Ge13  1  0.00935200  0.09599100  0.90333300  1
  Ge  Ge14  1  0.50935200  0.40400900  0.90333300  1
  Ge  Ge15  1  0.49064800  0.59599100  0.09666700  1
  Bi  Bi16  1  0.45575400  0.64829400  0.76202500  1
  Bi  Bi17  1  0.54424600  0.35170600  0.23797500  1
  Bi  Bi18  1  0.04424600  0.14829400  0.23797500  1
  Bi  Bi19  1  0.54424600  0.85170600  0.26202500  1
  Bi  Bi20  1  0.95575400  0.85170600  0.76202500  1
  Bi  Bi21  1  0.45575400  0.14829400  0.73797500  1
  Bi  Bi22  1  0.95575400  0.35170600  0.73797500  1
  Bi  Bi23  1  0.04424600  0.64829400  0.26202500  1
  O  O24  1  0.24790100  0.76450200  0.84871500  1
  O  O25  1  0.75209900  0.23549800  0.15128500  1
  O  O26  1  0.25209900  0.26450200  0.15128500  1
  O  O27  1  0.75209900  0.73549800  0.34871500  1
  O  O28  1  0.74790100  0.73549800  0.84871500  1
  O  O29  1  0.24790100  0.26450200  0.65128500  1
  O  O30  1  0.74790100  0.23549800  0.65128500  1
  O  O31  1  0.25209900  0.76450200  0.34871500  1
  O  O32  1  0.36190600  0.81096100  0.52065500  1
  O  O33  1  0.63809400  0.18903900  0.47934500  1
  O  O34  1  0.13809400  0.31096100  0.47934500  1
  O  O35  1  0.63809400  0.68903900  0.02065500  1
  O  O36  1  0.86190600  0.68903900  0.52065500  1
  O  O37  1  0.36190600  0.31096100  0.97934500  1
  O  O38  1  0.86190600  0.18903900  0.97934500  1
  O  O39  1  0.13809400  0.81096100  0.02065500  1
  O  O40  1  0.30565000  0.54278300  0.56353200  1
  O  O41  1  0.69435000  0.45721700  0.43646800  1
  O  O42  1  0.19435000  0.04278300  0.43646800  1
  O  O43  1  0.69435000  0.95721700  0.06353200  1
  O  O44  1  0.80565000  0.95721700  0.56353200  1
  O  O45  1  0.30565000  0.04278300  0.93646800  1
  O  O46  1  0.80565000  0.45721700  0.93646800  1
  O  O47  1  0.19435000  0.54278300  0.06353200  1
  O  O48  1  0.31422700  0.52616500  0.87387700  1
  O  O49  1  0.68577300  0.47383500  0.12612300  1
  O  O50  1  0.18577300  0.02616500  0.12612300  1
  O  O51  1  0.68577300  0.97383500  0.37387700  1
  O  O52  1  0.81422700  0.97383500  0.87387700  1
  O  O53  1  0.31422700  0.02616500  0.62612300  1
  O  O54  1  0.81422700  0.47383500  0.62612300  1
  O  O55  1  0.18577300  0.52616500  0.37387700  1
  O  O56  1  0.06386600  0.66977600  0.69820200  1
  O  O57  1  0.93613400  0.33022400  0.30179800  1
  O  O58  1  0.43613400  0.16977600  0.30179800  1
  O  O59  1  0.93613400  0.83022400  0.19820200  1
  O  O60  1  0.56386600  0.83022400  0.69820200  1
  O  O61  1  0.06386600  0.16977600  0.80179800  1
  O  O62  1  0.56386600  0.33022400  0.80179800  1
  O  O63  1  0.43613400  0.66977600  0.19820200  1
