# generated using pymatgen
data_Ce(Al4Co)2
_symmetry_space_group_name_H-M   'P 1'
_cell_length_a   4.00693200
_cell_length_b   12.48736000
_cell_length_c   14.29335800
_cell_angle_alpha   90.00000000
_cell_angle_beta   90.00000000
_cell_angle_gamma   90.00000000
_symmetry_Int_Tables_number   1
_chemical_formula_structural   Ce(Al4Co)2
_chemical_formula_sum   'Ce4 Al32 Co8'
_cell_volume   715.18249490
_cell_formula_units_Z   4
loop_
 _symmetry_equiv_pos_site_id
 _symmetry_equiv_pos_as_xyz
  1  'x, y, z'
loop_
 _atom_site_type_symbol
 _atom_site_label
 _atom_site_symmetry_multiplicity
 _atom_site_fract_x
 _atom_site_fract_y
 _atom_site_fract_z
 _atom_site_occupancy
  Ce  Ce0  1  0.00000000  0.84052200  0.18139000  1
  Ce  Ce1  1  0.00000000  0.15947800  0.81861000  1
  Ce  Ce2  1  0.00000000  0.34052200  0.31861000  1
  Ce  Ce3  1  0.00000000  0.65947800  0.68139000  1
  Al  Al4  1  0.50000000  0.50000000  0.00000000  1
  Al  Al5  1  0.50000000  0.00000000  0.50000000  1
  Al  Al6  1  0.00000000  0.50000000  0.50000000  1
  Al  Al7  1  0.00000000  0.00000000  0.00000000  1
  Al  Al8  1  0.50000000  0.65966800  0.12079800  1
  Al  Al9  1  0.50000000  0.34033200  0.87920200  1
  Al  Al10  1  0.50000000  0.15966800  0.37920200  1
  Al  Al11  1  0.50000000  0.84033200  0.62079800  1
  Al  Al12  1  0.50000000  0.95265700  0.32084400  1
  Al  Al13  1  0.50000000  0.04734300  0.67915600  1
  Al  Al14  1  0.50000000  0.45265700  0.17915600  1
  Al  Al15  1  0.50000000  0.54734300  0.82084400  1
  Al  Al16  1  0.50000000  0.73625600  0.32749600  1
  Al  Al17  1  0.50000000  0.26374400  0.67250400  1
  Al  Al18  1  0.50000000  0.23625600  0.17250400  1
  Al  Al19  1  0.50000000  0.76374400  0.82749600  1
  Al  Al20  1  0.50000000  0.83162600  0.00876400  1
  Al  Al21  1  0.50000000  0.16837400  0.99123600  1
  Al  Al22  1  0.50000000  0.33162600  0.49123600  1
  Al  Al23  1  0.50000000  0.66837400  0.50876400  1
  Al  Al24  1  0.50000000  0.52515300  0.36838600  1
  Al  Al25  1  0.50000000  0.47484700  0.63161400  1
  Al  Al26  1  0.50000000  0.02515300  0.13161400  1
  Al  Al27  1  0.50000000  0.97484700  0.86838600  1
  Al  Al28  1  0.00000000  0.84031700  0.45531300  1
  Al  Al29  1  0.00000000  0.15968300  0.54468700  1
  Al  Al30  1  0.00000000  0.34031700  0.04468700  1
  Al  Al31  1  0.00000000  0.65968300  0.95531300  1
  Al  Al32  1  0.00000000  0.59608500  0.24706300  1
  Al  Al33  1  0.00000000  0.40391500  0.75293700  1
  Al  Al34  1  0.00000000  0.09608500  0.25293700  1
  Al  Al35  1  0.00000000  0.90391500  0.74706300  1
  Co  Co36  1  0.00000000  0.65181600  0.40382500  1
  Co  Co37  1  0.00000000  0.34818400  0.59617500  1
  Co  Co38  1  0.00000000  0.15181600  0.09617500  1
  Co  Co39  1  0.00000000  0.84818400  0.90382500  1
  Co  Co40  1  0.00000000  0.53527400  0.09446200  1
  Co  Co41  1  0.00000000  0.46472600  0.90553800  1
  Co  Co42  1  0.00000000  0.03527400  0.40553800  1
  Co  Co43  1  0.00000000  0.96472600  0.59446200  1
