# generated using pymatgen
data_CsSrCl3
_symmetry_space_group_name_H-M   'P 1'
_cell_length_a   7.88444900
_cell_length_b   8.19782900
_cell_length_c   11.33868600
_cell_angle_alpha   90.00000000
_cell_angle_beta   90.00000000
_cell_angle_gamma   90.00000000
_symmetry_Int_Tables_number   1
_chemical_formula_structural   CsSrCl3
_chemical_formula_sum   'Cs4 Sr4 Cl12'
_cell_volume   732.88010439
_cell_formula_units_Z   4
loop_
 _symmetry_equiv_pos_site_id
 _symmetry_equiv_pos_as_xyz
  1  'x, y, z'
loop_
 _atom_site_type_symbol
 _atom_site_label
 _atom_site_symmetry_multiplicity
 _atom_site_fract_x
 _atom_site_fract_y
 _atom_site_fract_z
 _atom_site_occupancy
  Cs  Cs0  1  0.01801900  0.44108000  0.25000000  1
  Cs  Cs1  1  0.98198100  0.55892000  0.75000000  1
  Cs  Cs2  1  0.51801900  0.05892000  0.75000000  1
  Cs  Cs3  1  0.48198100  0.94108000  0.25000000  1
  Sr  Sr4  1  0.00000000  0.00000000  0.00000000  1
  Sr  Sr5  1  0.50000000  0.50000000  0.00000000  1
  Sr  Sr6  1  0.00000000  0.00000000  0.50000000  1
  Sr  Sr7  1  0.50000000  0.50000000  0.50000000  1
  Cl  Cl8  1  0.29461100  0.20903500  0.04117200  1
  Cl  Cl9  1  0.70538900  0.79096500  0.95882800  1
  Cl  Cl10  1  0.79461100  0.29096500  0.95882800  1
  Cl  Cl11  1  0.70538900  0.79096500  0.54117200  1
  Cl  Cl12  1  0.20538900  0.70903500  0.04117200  1
  Cl  Cl13  1  0.29461100  0.20903500  0.45882800  1
  Cl  Cl14  1  0.20538900  0.70903500  0.45882800  1
  Cl  Cl15  1  0.79461100  0.29096500  0.54117200  1
  Cl  Cl16  1  0.58013100  0.52145500  0.25000000  1
  Cl  Cl17  1  0.41986900  0.47854500  0.75000000  1
  Cl  Cl18  1  0.08013100  0.97854500  0.75000000  1
  Cl  Cl19  1  0.91986900  0.02145500  0.25000000  1
