# generated using pymatgen
data_TlCu(PO3)3
_symmetry_space_group_name_H-M   'P 1'
_cell_length_a   11.55680000
_cell_length_b   5.38922500
_cell_length_c   13.26355007
_cell_angle_alpha   80.58981560
_cell_angle_beta   90.00000000
_cell_angle_gamma   90.00000000
_symmetry_Int_Tables_number   1
_chemical_formula_structural   TlCu(PO3)3
_chemical_formula_sum   'Tl4 Cu4 P12 O36'
_cell_volume   814.96651392
_cell_formula_units_Z   4
loop_
 _symmetry_equiv_pos_site_id
 _symmetry_equiv_pos_as_xyz
  1  'x, y, z'
loop_
 _atom_site_type_symbol
 _atom_site_label
 _atom_site_symmetry_multiplicity
 _atom_site_fract_x
 _atom_site_fract_y
 _atom_site_fract_z
 _atom_site_occupancy
  Tl  Tl0  1  0.17233000  0.93267000  0.25556500  1
  Tl  Tl1  1  0.82767000  0.06733000  0.74443500  1
  Tl  Tl2  1  0.67233000  0.06733000  0.24443500  1
  Tl  Tl3  1  0.32767000  0.93267000  0.75556500  1
  Cu  Cu4  1  0.00000000  0.00000000  0.50000000  1
  Cu  Cu5  1  0.50000000  0.00000000  0.00000000  1
  Cu  Cu6  1  0.00000000  0.00000000  0.00000000  1
  Cu  Cu7  1  0.50000000  0.00000000  0.50000000  1
  P  P8  1  0.91202800  0.51486800  0.37020900  1
  P  P9  1  0.08797200  0.48513200  0.62979100  1
  P  P10  1  0.41202800  0.48513200  0.12979100  1
  P  P11  1  0.58797200  0.51486800  0.87020900  1
  P  P12  1  0.92457500  0.48867100  0.14738100  1
  P  P13  1  0.07542500  0.51132900  0.85261900  1
  P  P14  1  0.42457500  0.51132900  0.35261900  1
  P  P15  1  0.57542500  0.48867100  0.64738100  1
  P  P16  1  0.75266000  0.75071100  0.50809500  1
  P  P17  1  0.24734000  0.24928900  0.49190500  1
  P  P18  1  0.25266000  0.24928900  0.99190500  1
  P  P19  1  0.74734000  0.75071100  0.00809500  1
  O  O20  1  0.01350000  0.67198700  0.38955500  1
  O  O21  1  0.98650000  0.32801300  0.61044500  1
  O  O22  1  0.51350000  0.32801300  0.11044500  1
  O  O23  1  0.48650000  0.67198700  0.88955500  1
  O  O24  1  0.41069400  0.76772700  0.09957800  1
  O  O25  1  0.58930600  0.23227300  0.90042200  1
  O  O26  1  0.91069400  0.23227300  0.40042200  1
  O  O27  1  0.08930600  0.76772700  0.59957800  1
  O  O28  1  0.45817800  0.78143300  0.33491600  1
  O  O29  1  0.54182200  0.21856700  0.66508400  1
  O  O30  1  0.95817800  0.21856700  0.16508400  1
  O  O31  1  0.04182200  0.78143300  0.83491600  1
  O  O32  1  0.66108500  0.94084100  0.46818900  1
  O  O33  1  0.33891500  0.05915900  0.53181100  1
  O  O34  1  0.16108500  0.05915900  0.03181100  1
  O  O35  1  0.83891500  0.94084100  0.96818900  1
  O  O36  1  0.80382900  0.51757800  0.08286700  1
  O  O37  1  0.19617100  0.48242200  0.91713300  1
  O  O38  1  0.30382900  0.48242200  0.41713300  1
  O  O39  1  0.69617100  0.51757800  0.58286700  1
  O  O40  1  0.64536000  0.84270600  0.06303400  1
  O  O41  1  0.35464000  0.15729400  0.93696600  1
  O  O42  1  0.14536000  0.15729400  0.43696600  1
  O  O43  1  0.85464000  0.84270600  0.56303400  1
  O  O44  1  0.87401100  0.57556100  0.25093300  1
  O  O45  1  0.12598900  0.42443900  0.74906700  1
  O  O46  1  0.37401100  0.42443900  0.24906700  1
  O  O47  1  0.62598900  0.57556100  0.75093300  1
  O  O48  1  0.79280900  0.62367000  0.41321700  1
  O  O49  1  0.20719100  0.37633000  0.58678300  1
  O  O50  1  0.29280900  0.37633000  0.08678300  1
  O  O51  1  0.70719100  0.62367000  0.91321700  1
  O  O52  1  0.48835400  0.68311900  0.59958500  1
  O  O53  1  0.51164600  0.31688100  0.40041500  1
  O  O54  1  0.98835400  0.31688100  0.90041500  1
  O  O55  1  0.01164600  0.68311900  0.09958500  1
