# generated using pymatgen
data_KPu2F9
_symmetry_space_group_name_H-M   'P 1'
_cell_length_a   6.94716700
_cell_length_b   8.71016400
_cell_length_c   11.52578100
_cell_angle_alpha   90.00000000
_cell_angle_beta   90.00000000
_cell_angle_gamma   90.00000000
_symmetry_Int_Tables_number   1
_chemical_formula_structural   KPu2F9
_chemical_formula_sum   'K4 Pu8 F36'
_cell_volume   697.43611807
_cell_formula_units_Z   4
loop_
 _symmetry_equiv_pos_site_id
 _symmetry_equiv_pos_as_xyz
  1  'x, y, z'
loop_
 _atom_site_type_symbol
 _atom_site_label
 _atom_site_symmetry_multiplicity
 _atom_site_fract_x
 _atom_site_fract_y
 _atom_site_fract_z
 _atom_site_occupancy
  K  K0  1  0.64268800  0.03591000  0.25000000  1
  K  K1  1  0.35731200  0.96409000  0.75000000  1
  K  K2  1  0.14268800  0.46409000  0.75000000  1
  K  K3  1  0.85731200  0.53591000  0.25000000  1
  Pu  Pu4  1  0.15415900  0.17300600  0.05056900  1
  Pu  Pu5  1  0.84584100  0.82699400  0.94943100  1
  Pu  Pu6  1  0.65415900  0.32699400  0.94943100  1
  Pu  Pu7  1  0.84584100  0.82699400  0.55056900  1
  Pu  Pu8  1  0.34584100  0.67300600  0.05056900  1
  Pu  Pu9  1  0.15415900  0.17300600  0.44943100  1
  Pu  Pu10  1  0.34584100  0.67300600  0.44943100  1
  Pu  Pu11  1  0.65415900  0.32699400  0.55056900  1
  F  F12  1  0.19559100  0.43461500  0.07995000  1
  F  F13  1  0.80440900  0.56538500  0.92005000  1
  F  F14  1  0.69559100  0.06538500  0.92005000  1
  F  F15  1  0.80440900  0.56538500  0.57995000  1
  F  F16  1  0.30440900  0.93461500  0.07995000  1
  F  F17  1  0.19559100  0.43461500  0.42005000  1
  F  F18  1  0.30440900  0.93461500  0.42005000  1
  F  F19  1  0.69559100  0.06538500  0.57995000  1
  F  F20  1  0.07616300  0.00553400  0.59881800  1
  F  F21  1  0.92383700  0.99446600  0.40118200  1
  F  F22  1  0.57616300  0.49446600  0.40118200  1
  F  F23  1  0.92383700  0.99446600  0.09881800  1
  F  F24  1  0.42383700  0.50553400  0.59881800  1
  F  F25  1  0.07616300  0.00553400  0.90118200  1
  F  F26  1  0.42383700  0.50553400  0.90118200  1
  F  F27  1  0.57616300  0.49446600  0.09881800  1
  F  F28  1  0.47294500  0.21025400  0.09453000  1
  F  F29  1  0.52705500  0.78974600  0.90547000  1
  F  F30  1  0.97294500  0.28974600  0.90547000  1
  F  F31  1  0.52705500  0.78974600  0.59453000  1
  F  F32  1  0.02705500  0.71025400  0.09453000  1
  F  F33  1  0.47294500  0.21025400  0.40547000  1
  F  F34  1  0.02705500  0.71025400  0.40547000  1
  F  F35  1  0.97294500  0.28974600  0.59453000  1
  F  F36  1  0.16061300  0.17736400  0.25000000  1
  F  F37  1  0.83938700  0.82263600  0.75000000  1
  F  F38  1  0.66061300  0.32263600  0.75000000  1
  F  F39  1  0.33938700  0.67736400  0.25000000  1
  F  F40  1  0.35325600  0.21529100  0.60711800  1
  F  F41  1  0.64674400  0.78470900  0.39288200  1
  F  F42  1  0.85325600  0.28470900  0.39288200  1
  F  F43  1  0.64674400  0.78470900  0.10711800  1
  F  F44  1  0.14674400  0.71529100  0.60711800  1
  F  F45  1  0.35325600  0.21529100  0.89288200  1
  F  F46  1  0.14674400  0.71529100  0.89288200  1
  F  F47  1  0.85325600  0.28470900  0.10711800  1
