# generated using pymatgen
data_BaAgSbS3
_symmetry_space_group_name_H-M   'P 1'
_cell_length_a   6.26974889
_cell_length_b   6.26974889
_cell_length_c   17.41760657
_cell_angle_alpha   81.33067552
_cell_angle_beta   81.33067552
_cell_angle_gamma   81.75746148
_symmetry_Int_Tables_number   1
_chemical_formula_structural   BaAgSbS3
_chemical_formula_sum   'Ba4 Ag4 Sb4 S12'
_cell_volume   664.00765078
_cell_formula_units_Z   4
loop_
 _symmetry_equiv_pos_site_id
 _symmetry_equiv_pos_as_xyz
  1  'x, y, z'
loop_
 _atom_site_type_symbol
 _atom_site_label
 _atom_site_symmetry_multiplicity
 _atom_site_fract_x
 _atom_site_fract_y
 _atom_site_fract_z
 _atom_site_occupancy
  Ba  Ba0  1  0.45141700  0.20286700  0.61056500  1
  Ba  Ba1  1  0.79713300  0.54858300  0.88943500  1
  Ba  Ba2  1  0.54858300  0.79713300  0.38943500  1
  Ba  Ba3  1  0.20286700  0.45141700  0.11056500  1
  Ag  Ag4  1  0.92489300  0.07510700  0.75000000  1
  Ag  Ag5  1  0.07510700  0.92489300  0.25000000  1
  Ag  Ag6  1  0.30486100  0.69513900  0.75000000  1
  Ag  Ag7  1  0.69513900  0.30486100  0.25000000  1
  Sb  Sb8  1  0.97456300  0.68700100  0.58033100  1
  Sb  Sb9  1  0.31299900  0.02543700  0.91966900  1
  Sb  Sb10  1  0.02543700  0.31299900  0.41966900  1
  Sb  Sb11  1  0.68700100  0.97456300  0.08033100  1
  S  S12  1  0.03583700  0.49470800  0.71416000  1
  S  S13  1  0.50529200  0.96416300  0.78584000  1
  S  S14  1  0.96416300  0.50529200  0.28584000  1
  S  S15  1  0.49470800  0.03583700  0.21416000  1
  S  S16  1  0.58167100  0.69519200  0.58165300  1
  S  S17  1  0.30480800  0.41832900  0.91834700  1
  S  S18  1  0.41832900  0.30480800  0.41834700  1
  S  S19  1  0.69519200  0.58167100  0.08165300  1
  S  S20  1  0.97552800  0.06333200  0.60542400  1
  S  S21  1  0.93666800  0.02447200  0.89457600  1
  S  S22  1  0.02447200  0.93666800  0.39457600  1
  S  S23  1  0.06333200  0.97552800  0.10542400  1
