# generated using pymatgen
data_Nb3RhSe6
_symmetry_space_group_name_H-M   'P 1'
_cell_length_a   6.06741430
_cell_length_b   6.06741430
_cell_length_c   12.71735800
_cell_angle_alpha   90.00000000
_cell_angle_beta   90.00000000
_cell_angle_gamma   120.00000322
_symmetry_Int_Tables_number   1
_chemical_formula_structural   Nb3RhSe6
_chemical_formula_sum   'Nb6 Rh2 Se12'
_cell_volume   405.44767615
_cell_formula_units_Z   2
loop_
 _symmetry_equiv_pos_site_id
 _symmetry_equiv_pos_as_xyz
  1  'x, y, z'
loop_
 _atom_site_type_symbol
 _atom_site_label
 _atom_site_symmetry_multiplicity
 _atom_site_fract_x
 _atom_site_fract_y
 _atom_site_fract_z
 _atom_site_occupancy
  Nb  Nb0  1  0.00000000  0.00000000  0.50000000  1
  Nb  Nb1  1  0.00000000  0.00000000  0.00000000  1
  Nb  Nb2  1  0.33333300  0.66666700  0.99948700  1
  Nb  Nb3  1  0.66666700  0.33333300  0.00051300  1
  Nb  Nb4  1  0.66666700  0.33333300  0.49948700  1
  Nb  Nb5  1  0.33333300  0.66666700  0.50051300  1
  Rh  Rh6  1  0.33333300  0.66666700  0.25000000  1
  Rh  Rh7  1  0.66666700  0.33333300  0.75000000  1
  Se  Se8  1  0.33272100  0.32815800  0.36843700  1
  Se  Se9  1  0.67184200  0.00456300  0.36843700  1
  Se  Se10  1  0.99543700  0.66727900  0.36843700  1
  Se  Se11  1  0.32815800  0.33272100  0.63156300  1
  Se  Se12  1  0.00456300  0.67184200  0.63156300  1
  Se  Se13  1  0.66727900  0.99543700  0.63156300  1
  Se  Se14  1  0.66727900  0.67184200  0.86843700  1
  Se  Se15  1  0.32815800  0.99543700  0.86843700  1
  Se  Se16  1  0.00456300  0.33272100  0.86843700  1
  Se  Se17  1  0.67184200  0.66727900  0.13156300  1
  Se  Se18  1  0.99543700  0.32815800  0.13156300  1
  Se  Se19  1  0.33272100  0.00456300  0.13156300  1
