# generated using pymatgen
data_Ba3Tb2WO9
_symmetry_space_group_name_H-M   'P 1'
_cell_length_a   6.11781678
_cell_length_b   10.59212161
_cell_length_c   8.66724279
_cell_angle_alpha   65.76616047
_cell_angle_beta   89.72475978
_cell_angle_gamma   106.51399420
_symmetry_Int_Tables_number   1
_chemical_formula_structural   Ba3Tb2WO9
_chemical_formula_sum   'Ba6 Tb4 W2 O18'
_cell_volume   486.26073805
_cell_formula_units_Z   2
loop_
 _symmetry_equiv_pos_site_id
 _symmetry_equiv_pos_as_xyz
  1  'x, y, z'
loop_
 _atom_site_type_symbol
 _atom_site_label
 _atom_site_symmetry_multiplicity
 _atom_site_fract_x
 _atom_site_fract_y
 _atom_site_fract_z
 _atom_site_occupancy
  Ba  Ba0  1  0.49471100  0.49186300  0.24966600  1
  Ba  Ba1  1  0.17470100  0.83981700  0.57152200  1
  Ba  Ba2  1  0.82181400  0.16682800  0.92225500  1
  Ba  Ba3  1  0.17195600  0.84147000  0.08366700  1
  Ba  Ba4  1  0.84485300  0.16650500  0.41107800  1
  Ba  Ba5  1  0.49196500  0.49351700  0.76181200  1
  Tb  Tb6  1  0.00020300  0.50452000  0.99781700  1
  Tb  Tb7  1  0.66646400  0.82881300  0.33551600  1
  Tb  Tb8  1  0.33333300  0.16666700  0.66666700  1
  Tb  Tb9  1  0.33333300  0.16666700  0.16666700  1
  W  W10  1  0.99641600  0.49776200  0.50189200  1
  W  W11  1  0.67025100  0.83557100  0.83144100  1
  O  O12  1  0.54388600  0.01209300  0.28002900  1
  O  O13  1  0.17291500  0.35926000  0.59910100  1
  O  O14  1  0.86008700  0.70690900  0.91892100  1
  O  O15  1  0.12278000  0.32124100  0.05330500  1
  O  O16  1  0.80658000  0.62642400  0.41441200  1
  O  O17  1  0.49375200  0.97407300  0.73423200  1
  O  O18  1  0.28434500  0.66282800  0.41475800  1
  O  O19  1  0.95738200  0.00260000  0.74791200  1
  O  O20  1  0.64594600  0.37039300  0.06414900  1
  O  O21  1  0.64798300  0.84607900  0.05440700  1
  O  O22  1  0.29757600  0.19294100  0.40717300  1
  O  O23  1  0.98586800  0.52256100  0.71566900  1
  O  O24  1  0.38232100  0.67050600  0.91857600  1
  O  O25  1  0.02072100  0.96294000  0.26918400  1
  O  O26  1  0.70928500  0.33073300  0.58542100  1
  O  O27  1  0.01868400  0.48725400  0.27892600  1
  O  O28  1  0.68079800  0.81077300  0.61766500  1
  O  O29  1  0.36909100  0.14039200  0.92616000  1
