# generated using pymatgen
data_SrFeP2O7
_symmetry_space_group_name_H-M   'P 1'
_cell_length_a   5.42514203
_cell_length_b   8.39130500
_cell_length_c   12.91671937
_cell_angle_alpha   90.00000000
_cell_angle_beta   90.21390160
_cell_angle_gamma   90.00000000
_symmetry_Int_Tables_number   1
_chemical_formula_structural   SrFeP2O7
_chemical_formula_sum   'Sr4 Fe4 P8 O28'
_cell_volume   588.01691224
_cell_formula_units_Z   4
loop_
 _symmetry_equiv_pos_site_id
 _symmetry_equiv_pos_as_xyz
  1  'x, y, z'
loop_
 _atom_site_type_symbol
 _atom_site_label
 _atom_site_symmetry_multiplicity
 _atom_site_fract_x
 _atom_site_fract_y
 _atom_site_fract_z
 _atom_site_occupancy
  Sr  Sr0  1  0.71337300  0.83684600  0.77775600  1
  Sr  Sr1  1  0.78662700  0.33684600  0.72224400  1
  Sr  Sr2  1  0.28662600  0.16315500  0.22224500  1
  Sr  Sr3  1  0.21337300  0.66315500  0.27775600  1
  Fe  Fe4  1  0.68131800  0.84915700  0.10519500  1
  Fe  Fe5  1  0.31868200  0.15084300  0.89480400  1
  Fe  Fe6  1  0.81868100  0.34915700  0.39480500  1
  Fe  Fe7  1  0.18131800  0.65084300  0.60519500  1
  P  P8  1  0.68880700  0.70006800  0.48025500  1
  P  P9  1  0.81119300  0.20006800  0.01974500  1
  P  P10  1  0.31119400  0.29993100  0.51974600  1
  P  P11  1  0.18880600  0.79993100  0.98025400  1
  P  P12  1  0.24936800  0.53724800  0.83398500  1
  P  P13  1  0.74936700  0.96275100  0.33398500  1
  P  P14  1  0.75063200  0.46275100  0.16601500  1
  P  P15  1  0.25063200  0.03724900  0.66601500  1
  O  O16  1  0.05163200  0.61973100  0.76663500  1
  O  O17  1  0.44836900  0.11973200  0.73336500  1
  O  O18  1  0.94837000  0.38026900  0.23336500  1
  O  O19  1  0.55163100  0.88026900  0.26663500  1
  O  O20  1  0.41039000  0.67016200  0.47056300  1
  O  O21  1  0.08960900  0.17016200  0.02943700  1
  O  O22  1  0.58961000  0.32983800  0.52943700  1
  O  O23  1  0.91039100  0.82983800  0.97056300  1
  O  O24  1  0.74021000  0.88429500  0.44848400  1
  O  O25  1  0.75979100  0.38429500  0.05151600  1
  O  O26  1  0.25979000  0.11570500  0.55151500  1
  O  O27  1  0.24021000  0.61570500  0.94848500  1
  O  O28  1  0.79327700  0.68779200  0.59050200  1
  O  O29  1  0.70672100  0.18779200  0.90949800  1
  O  O30  1  0.20672200  0.31220700  0.40949800  1
  O  O31  1  0.29327800  0.81220800  0.09050300  1
  O  O32  1  0.82416600  0.63743800  0.15157300  1
  O  O33  1  0.67583300  0.13743900  0.34842700  1
  O  O34  1  0.17583300  0.36256100  0.84842700  1
  O  O35  1  0.32416700  0.86256100  0.65157300  1
  O  O36  1  0.66423000  0.09658900  0.09723100  1
  O  O37  1  0.83577100  0.59659000  0.40277000  1
  O  O38  1  0.50968300  0.55964800  0.79229600  1
  O  O39  1  0.16423100  0.40341100  0.59723000  1
  O  O40  1  0.00968400  0.94035100  0.29229600  1
  O  O41  1  0.49031600  0.44035100  0.20770300  1
  O  O42  1  0.99031700  0.05964800  0.70770400  1
  O  O43  1  0.33576900  0.90341000  0.90277000  1
