# generated using pymatgen
data_Zr(GaFe)6
_symmetry_space_group_name_H-M   'P 1'
_cell_length_a   6.51511834
_cell_length_b   6.51511834
_cell_length_c   6.51511834
_cell_angle_alpha   134.96582230
_cell_angle_beta   99.43781515
_cell_angle_gamma   97.43134418
_symmetry_Int_Tables_number   1
_chemical_formula_structural   Zr(GaFe)6
_chemical_formula_sum   'Zr1 Ga6 Fe6'
_cell_volume   180.71035452
_cell_formula_units_Z   1
loop_
 _symmetry_equiv_pos_site_id
 _symmetry_equiv_pos_as_xyz
  1  'x, y, z'
loop_
 _atom_site_type_symbol
 _atom_site_label
 _atom_site_symmetry_multiplicity
 _atom_site_fract_x
 _atom_site_fract_y
 _atom_site_fract_z
 _atom_site_occupancy
  Zr  Zr0  1  0.00000000  0.00000000  0.00000000  1
  Ga  Ga1  1  0.33171400  0.00000000  0.33171400  1
  Ga  Ga2  1  0.66828600  0.00000000  0.66828600  1
  Ga  Ga3  1  0.65923600  0.65923600  0.00000000  1
  Ga  Ga4  1  0.34076400  0.34076400  0.00000000  1
  Ga  Ga5  1  0.17368600  0.67368600  0.50000000  1
  Ga  Ga6  1  0.82631400  0.32631400  0.50000000  1
  Fe  Fe7  1  0.75492900  0.50000000  0.25492900  1
  Fe  Fe8  1  0.24507100  0.50000000  0.74507100  1
  Fe  Fe9  1  0.00000000  0.00000000  0.50000000  1
  Fe  Fe10  1  0.00000000  0.50000000  0.00000000  1
  Fe  Fe11  1  0.50000000  0.00000000  0.00000000  1
  Fe  Fe12  1  0.50000000  0.50000000  0.50000000  1
