# generated using pymatgen
data_LaMoBrO4
_symmetry_space_group_name_H-M   'P 1'
_cell_length_a   5.96591400
_cell_length_b   8.12948980
_cell_length_c   9.94161521
_cell_angle_alpha   89.81339504
_cell_angle_beta   90.00000000
_cell_angle_gamma   90.00000000
_symmetry_Int_Tables_number   1
_chemical_formula_structural   LaMoBrO4
_chemical_formula_sum   'La4 Mo4 Br4 O16'
_cell_volume   482.16416014
_cell_formula_units_Z   4
loop_
 _symmetry_equiv_pos_site_id
 _symmetry_equiv_pos_as_xyz
  1  'x, y, z'
loop_
 _atom_site_type_symbol
 _atom_site_label
 _atom_site_symmetry_multiplicity
 _atom_site_fract_x
 _atom_site_fract_y
 _atom_site_fract_z
 _atom_site_occupancy
  La  La0  1  0.95416500  0.37756600  0.21277200  1
  La  La1  1  0.04583500  0.87756600  0.21277200  1
  La  La2  1  0.54819400  0.62593000  0.77544100  1
  La  La3  1  0.45180600  0.12593000  0.77544100  1
  Mo  Mo4  1  0.49216800  0.65843600  0.35448100  1
  Mo  Mo5  1  0.50783200  0.15843600  0.35448100  1
  Mo  Mo6  1  0.99539700  0.40851800  0.63503400  1
  Mo  Mo7  1  0.00460300  0.90851800  0.63503400  1
  Br  Br8  1  0.99807200  0.62426000  0.96920500  1
  Br  Br9  1  0.00192800  0.12426000  0.96920500  1
  Br  Br10  1  0.50385100  0.37376000  0.02030500  1
  Br  Br11  1  0.49614900  0.87376000  0.02030500  1
  O  O12  1  0.48932300  0.61907200  0.53005100  1
  O  O13  1  0.51067700  0.11907200  0.53005100  1
  O  O14  1  0.56295700  0.37616800  0.34392900  1
  O  O15  1  0.43704300  0.87616800  0.34392900  1
  O  O16  1  0.76638300  0.64666500  0.27028500  1
  O  O17  1  0.23361700  0.14666500  0.27028500  1
  O  O18  1  0.76644600  0.09972800  0.26653300  1
  O  O19  1  0.23355400  0.59972800  0.26653300  1
  O  O20  1  0.00999100  0.37327800  0.45949600  1
  O  O21  1  0.99000900  0.87327800  0.45949600  1
  O  O22  1  0.94026500  0.62634400  0.64724400  1
  O  O23  1  0.05973500  0.12634400  0.64724400  1
  O  O24  1  0.73320300  0.34701100  0.71834000  1
  O  O25  1  0.26679700  0.84701100  0.71834000  1
  O  O26  1  0.73296600  0.89756400  0.72238500  1
  O  O27  1  0.26703400  0.39756400  0.72238500  1
