# generated using pymatgen
data_NbPRh
_symmetry_space_group_name_H-M   'P 1'
_cell_length_a   3.79260600
_cell_length_b   6.36870900
_cell_length_c   7.22189000
_cell_angle_alpha   90.00000000
_cell_angle_beta   90.00000000
_cell_angle_gamma   90.00000000
_symmetry_Int_Tables_number   1
_chemical_formula_structural   NbPRh
_chemical_formula_sum   'Nb4 P4 Rh4'
_cell_volume   174.43755970
_cell_formula_units_Z   4
loop_
 _symmetry_equiv_pos_site_id
 _symmetry_equiv_pos_as_xyz
  1  'x, y, z'
loop_
 _atom_site_type_symbol
 _atom_site_label
 _atom_site_symmetry_multiplicity
 _atom_site_fract_x
 _atom_site_fract_y
 _atom_site_fract_z
 _atom_site_occupancy
  Nb  Nb0  1  0.25000000  0.03013600  0.83231400  1
  Nb  Nb1  1  0.25000000  0.53013600  0.66768600  1
  Nb  Nb2  1  0.75000000  0.96986400  0.16768600  1
  Nb  Nb3  1  0.75000000  0.46986400  0.33231400  1
  P  P4  1  0.25000000  0.76460100  0.37498200  1
  P  P5  1  0.25000000  0.26460100  0.12501800  1
  P  P6  1  0.75000000  0.23539900  0.62501800  1
  P  P7  1  0.75000000  0.73539900  0.87498200  1
  Rh  Rh8  1  0.25000000  0.14890700  0.43814700  1
  Rh  Rh9  1  0.25000000  0.64890700  0.06185300  1
  Rh  Rh10  1  0.75000000  0.85109300  0.56185300  1
  Rh  Rh11  1  0.75000000  0.35109300  0.93814700  1
