# generated using pymatgen
data_PrSbO4
_symmetry_space_group_name_H-M   'P 1'
_cell_length_a   5.18159100
_cell_length_b   5.40003500
_cell_length_c   13.88186998
_cell_angle_alpha   69.23761528
_cell_angle_beta   90.00000000
_cell_angle_gamma   90.00000000
_symmetry_Int_Tables_number   1
_chemical_formula_structural   PrSbO4
_chemical_formula_sum   'Pr4 Sb4 O16'
_cell_volume   363.20055941
_cell_formula_units_Z   4
loop_
 _symmetry_equiv_pos_site_id
 _symmetry_equiv_pos_as_xyz
  1  'x, y, z'
loop_
 _atom_site_type_symbol
 _atom_site_label
 _atom_site_symmetry_multiplicity
 _atom_site_fract_x
 _atom_site_fract_y
 _atom_site_fract_z
 _atom_site_occupancy
  Pr  Pr0  1  0.77632800  0.65988500  0.33460800  1
  Pr  Pr1  1  0.72367200  0.65988500  0.83460800  1
  Pr  Pr2  1  0.22367200  0.34011500  0.66539200  1
  Pr  Pr3  1  0.27632800  0.34011500  0.16539200  1
  Sb  Sb4  1  0.75079600  0.92431900  0.06973400  1
  Sb  Sb5  1  0.74920400  0.92431900  0.56973400  1
  Sb  Sb6  1  0.24920400  0.07568100  0.93026600  1
  Sb  Sb7  1  0.25079600  0.07568100  0.43026600  1
  O  O8  1  0.43420600  0.74996700  0.03575500  1
  O  O9  1  0.06579400  0.74996700  0.53575500  1
  O  O10  1  0.56579400  0.25003300  0.96424500  1
  O  O11  1  0.93420600  0.25003300  0.46424500  1
  O  O12  1  0.60667700  0.01564100  0.18306500  1
  O  O13  1  0.89332300  0.01564100  0.68306500  1
  O  O14  1  0.39332300  0.98435900  0.81693500  1
  O  O15  1  0.10667700  0.98435900  0.31693500  1
  O  O16  1  0.07008300  0.15087000  0.05041500  1
  O  O17  1  0.42991700  0.15087000  0.55041500  1
  O  O18  1  0.92991700  0.84913000  0.94958500  1
  O  O19  1  0.57008300  0.84913000  0.44958500  1
  O  O20  1  0.88377000  0.59487400  0.17262200  1
  O  O21  1  0.61623000  0.59487400  0.67262200  1
  O  O22  1  0.11623000  0.40512600  0.82737800  1
  O  O23  1  0.38377000  0.40512600  0.32737800  1
