# generated using pymatgen
data_Tb4CdPt
_symmetry_space_group_name_H-M   'P 1'
_cell_length_a   9.75438107
_cell_length_b   9.75438107
_cell_length_c   9.75438107
_cell_angle_alpha   60.00000000
_cell_angle_beta   60.00000000
_cell_angle_gamma   60.00000000
_symmetry_Int_Tables_number   1
_chemical_formula_structural   Tb4CdPt
_chemical_formula_sum   'Tb16 Cd4 Pt4'
_cell_volume   656.27242394
_cell_formula_units_Z   4
loop_
 _symmetry_equiv_pos_site_id
 _symmetry_equiv_pos_as_xyz
  1  'x, y, z'
loop_
 _atom_site_type_symbol
 _atom_site_label
 _atom_site_symmetry_multiplicity
 _atom_site_fract_x
 _atom_site_fract_y
 _atom_site_fract_z
 _atom_site_occupancy
  Tb  Tb0  1  0.35118200  0.35118200  0.35118200  1
  Tb  Tb1  1  0.35118200  0.35118200  0.94645400  1
  Tb  Tb2  1  0.35118200  0.94645400  0.35118200  1
  Tb  Tb3  1  0.94645400  0.35118200  0.35118200  1
  Tb  Tb4  1  0.80999200  0.19000800  0.19000800  1
  Tb  Tb5  1  0.19000800  0.80999200  0.80999200  1
  Tb  Tb6  1  0.19000800  0.80999200  0.19000800  1
  Tb  Tb7  1  0.80999200  0.19000800  0.80999200  1
  Tb  Tb8  1  0.19000800  0.19000800  0.80999200  1
  Tb  Tb9  1  0.80999200  0.80999200  0.19000800  1
  Tb  Tb10  1  0.93521800  0.56478200  0.56478200  1
  Tb  Tb11  1  0.56478200  0.93521800  0.93521800  1
  Tb  Tb12  1  0.56478200  0.93521800  0.56478200  1
  Tb  Tb13  1  0.93521800  0.56478200  0.93521800  1
  Tb  Tb14  1  0.56478200  0.56478200  0.93521800  1
  Tb  Tb15  1  0.93521800  0.93521800  0.56478200  1
  Cd  Cd16  1  0.58178700  0.58178700  0.58178700  1
  Cd  Cd17  1  0.58178700  0.58178700  0.25463800  1
  Cd  Cd18  1  0.58178700  0.25463800  0.58178700  1
  Cd  Cd19  1  0.25463800  0.58178700  0.58178700  1
  Pt  Pt20  1  0.14287000  0.14287000  0.14287000  1
  Pt  Pt21  1  0.14287000  0.14287000  0.57139100  1
  Pt  Pt22  1  0.14287000  0.57139100  0.14287000  1
  Pt  Pt23  1  0.57139100  0.14287000  0.14287000  1
