# generated using pymatgen
data_Yb3GdSb3
_symmetry_space_group_name_H-M   'P 1'
_cell_length_a   9.51604000
_cell_length_b   9.51604000
_cell_length_c   9.51604000
_cell_angle_alpha   90.00000000
_cell_angle_beta   90.00000000
_cell_angle_gamma   90.00000000
_symmetry_Int_Tables_number   1
_chemical_formula_structural   Yb3GdSb3
_chemical_formula_sum   'Yb12 Gd4 Sb12'
_cell_volume   861.72516665
_cell_formula_units_Z   4
loop_
 _symmetry_equiv_pos_site_id
 _symmetry_equiv_pos_as_xyz
  1  'x, y, z'
loop_
 _atom_site_type_symbol
 _atom_site_label
 _atom_site_symmetry_multiplicity
 _atom_site_fract_x
 _atom_site_fract_y
 _atom_site_fract_z
 _atom_site_occupancy
  Yb  Yb0  1  0.57401100  0.42598900  0.92598900  1
  Yb  Yb1  1  0.17630000  0.32370000  0.67630000  1
  Yb  Yb2  1  0.92553100  0.42553100  0.07446900  1
  Yb  Yb3  1  0.07401100  0.07401100  0.07401100  1
  Yb  Yb4  1  0.42553100  0.07446900  0.92553100  1
  Yb  Yb5  1  0.07446900  0.92553100  0.42553100  1
  Yb  Yb6  1  0.67630000  0.17630000  0.32370000  1
  Yb  Yb7  1  0.42598900  0.92598900  0.57401100  1
  Yb  Yb8  1  0.57446900  0.57446900  0.57446900  1
  Yb  Yb9  1  0.92598900  0.57401100  0.42598900  1
  Yb  Yb10  1  0.32370000  0.67630000  0.17630000  1
  Yb  Yb11  1  0.82370000  0.82370000  0.82370000  1
  Gd  Gd12  1  0.82307900  0.17692100  0.67692100  1
  Gd  Gd13  1  0.32307900  0.32307900  0.32307900  1
  Gd  Gd14  1  0.67692100  0.82307900  0.17692100  1
  Gd  Gd15  1  0.17692100  0.67692100  0.82307900  1
  Sb  Sb16  1  0.87580300  0.49894700  0.74969400  1
  Sb  Sb17  1  0.25030600  0.37580300  0.00105300  1
  Sb  Sb18  1  0.00105300  0.25030600  0.37580300  1
  Sb  Sb19  1  0.75030600  0.12419700  0.99894700  1
  Sb  Sb20  1  0.37580300  0.00105300  0.25030600  1
  Sb  Sb21  1  0.12419700  0.99894700  0.75030600  1
  Sb  Sb22  1  0.50105300  0.24969400  0.62419700  1
  Sb  Sb23  1  0.74969400  0.87580300  0.49894700  1
  Sb  Sb24  1  0.49894700  0.74969400  0.87580300  1
  Sb  Sb25  1  0.24969400  0.62419700  0.50105300  1
  Sb  Sb26  1  0.62419700  0.50105300  0.24969400  1
  Sb  Sb27  1  0.99894700  0.75030600  0.12419700  1
