# generated using pymatgen
data_Ca2AlPt2
_symmetry_space_group_name_H-M   'P 1'
_cell_length_a   5.72562070
_cell_length_b   5.72562070
_cell_length_c   7.76671564
_cell_angle_alpha   79.70150196
_cell_angle_beta   79.70150196
_cell_angle_gamma   60.34840371
_symmetry_Int_Tables_number   1
_chemical_formula_structural   Ca2AlPt2
_chemical_formula_sum   'Ca4 Al2 Pt4'
_cell_volume   216.48931666
_cell_formula_units_Z   2
loop_
 _symmetry_equiv_pos_site_id
 _symmetry_equiv_pos_as_xyz
  1  'x, y, z'
loop_
 _atom_site_type_symbol
 _atom_site_label
 _atom_site_symmetry_multiplicity
 _atom_site_fract_x
 _atom_site_fract_y
 _atom_site_fract_z
 _atom_site_occupancy
  Ca  Ca0  1  0.78094500  0.51829600  0.85151600  1
  Ca  Ca1  1  0.48170400  0.21905500  0.64848400  1
  Ca  Ca2  1  0.21905500  0.48170400  0.14848400  1
  Ca  Ca3  1  0.51829600  0.78094500  0.35151600  1
  Al  Al4  1  0.11141100  0.88858900  0.75000000  1
  Al  Al5  1  0.88858900  0.11141100  0.25000000  1
  Pt  Pt6  1  0.00431700  0.73675000  0.50398200  1
  Pt  Pt7  1  0.26325000  0.99568300  0.99601800  1
  Pt  Pt8  1  0.99568300  0.26325000  0.49601800  1
  Pt  Pt9  1  0.73675000  0.00431700  0.00398200  1
