# generated using pymatgen
data_K2Mn3V2CO11
_symmetry_space_group_name_H-M   'P 1'
_cell_length_a   5.28264408
_cell_length_b   5.28264408
_cell_length_c   22.73238300
_cell_angle_alpha   90.00000000
_cell_angle_beta   90.00000000
_cell_angle_gamma   120.00000105
_symmetry_Int_Tables_number   1
_chemical_formula_structural   K2Mn3V2CO11
_chemical_formula_sum   'K4 Mn6 V4 C2 O22'
_cell_volume   549.38689311
_cell_formula_units_Z   2
loop_
 _symmetry_equiv_pos_site_id
 _symmetry_equiv_pos_as_xyz
  1  'x, y, z'
loop_
 _atom_site_type_symbol
 _atom_site_label
 _atom_site_symmetry_multiplicity
 _atom_site_fract_x
 _atom_site_fract_y
 _atom_site_fract_z
 _atom_site_occupancy
  K  K0  1  0.66666700  0.33333300  0.65784200  1
  K  K1  1  0.33333300  0.66666700  0.15784200  1
  K  K2  1  0.33333300  0.66666700  0.34215800  1
  K  K3  1  0.66666700  0.33333300  0.84215800  1
  Mn  Mn4  1  0.33333300  0.66666700  0.50455600  1
  Mn  Mn5  1  0.66666700  0.33333300  0.00455600  1
  Mn  Mn6  1  0.66666700  0.33333300  0.49544400  1
  Mn  Mn7  1  0.33333300  0.66666700  0.99544400  1
  Mn  Mn8  1  0.00000000  0.00000000  0.75000000  1
  Mn  Mn9  1  0.00000000  0.00000000  0.25000000  1
  V  V10  1  0.00000000  0.00000000  0.57984100  1
  V  V11  1  0.00000000  0.00000000  0.07984100  1
  V  V12  1  0.00000000  0.00000000  0.42015900  1
  V  V13  1  0.00000000  0.00000000  0.92015900  1
  C  C14  1  0.33333300  0.66666700  0.75000000  1
  C  C15  1  0.66666700  0.33333300  0.25000000  1
  O  O16  1  0.00000000  0.00000000  0.65556600  1
  O  O17  1  0.00000000  0.00000000  0.15556600  1
  O  O18  1  0.00000000  0.00000000  0.34443400  1
  O  O19  1  0.00000000  0.00000000  0.84443400  1
  O  O20  1  0.37456900  0.93106500  0.75000000  1
  O  O21  1  0.06893500  0.44350400  0.75000000  1
  O  O22  1  0.55649600  0.62543100  0.75000000  1
  O  O23  1  0.62543100  0.06893500  0.25000000  1
  O  O24  1  0.93106500  0.55649600  0.25000000  1
  O  O25  1  0.44350400  0.37456900  0.25000000  1
  O  O26  1  0.32153800  0.01068900  0.55476900  1
  O  O27  1  0.98931100  0.31084900  0.55476900  1
  O  O28  1  0.68915100  0.67846200  0.55476900  1
  O  O29  1  0.67846200  0.98931100  0.05476900  1
  O  O30  1  0.01068900  0.68915100  0.05476900  1
  O  O31  1  0.31084900  0.32153800  0.05476900  1
  O  O32  1  0.67846200  0.98931100  0.44523100  1
  O  O33  1  0.01068900  0.68915100  0.44523100  1
  O  O34  1  0.31084900  0.32153800  0.44523100  1
  O  O35  1  0.32153800  0.01068900  0.94523100  1
  O  O36  1  0.98931100  0.31084900  0.94523100  1
  O  O37  1  0.68915100  0.67846200  0.94523100  1
