# generated using pymatgen
data_HoCo5Si3
_symmetry_space_group_name_H-M   'P 1'
_cell_length_a   3.66450300
_cell_length_b   14.67757491
_cell_length_c   14.67757491
_cell_angle_alpha   120.00000410
_cell_angle_beta   90.00000000
_cell_angle_gamma   90.00000000
_symmetry_Int_Tables_number   1
_chemical_formula_structural   HoCo5Si3
_chemical_formula_sum   'Ho6 Co30 Si18'
_cell_volume   683.68225265
_cell_formula_units_Z   6
loop_
 _symmetry_equiv_pos_site_id
 _symmetry_equiv_pos_as_xyz
  1  'x, y, z'
loop_
 _atom_site_type_symbol
 _atom_site_label
 _atom_site_symmetry_multiplicity
 _atom_site_fract_x
 _atom_site_fract_y
 _atom_site_fract_z
 _atom_site_occupancy
  Ho  Ho0  1  0.75000000  0.70594800  0.09978600  1
  Ho  Ho1  1  0.25000000  0.29405200  0.90021400  1
  Ho  Ho2  1  0.75000000  0.39383800  0.29405200  1
  Ho  Ho3  1  0.25000000  0.60616200  0.70594800  1
  Ho  Ho4  1  0.75000000  0.90021400  0.60616200  1
  Ho  Ho5  1  0.25000000  0.09978600  0.39383800  1
  Co  Co6  1  0.75000000  0.90198700  0.02872800  1
  Co  Co7  1  0.25000000  0.09801300  0.97127200  1
  Co  Co8  1  0.75000000  0.12674100  0.09801300  1
  Co  Co9  1  0.25000000  0.87325900  0.90198700  1
  Co  Co10  1  0.75000000  0.97127200  0.87325900  1
  Co  Co11  1  0.25000000  0.02872800  0.12674100  1
  Co  Co12  1  0.75000000  0.58676900  0.85200000  1
  Co  Co13  1  0.25000000  0.41323100  0.14800000  1
  Co  Co14  1  0.75000000  0.26523100  0.41323100  1
  Co  Co15  1  0.25000000  0.73476900  0.58676900  1
  Co  Co16  1  0.75000000  0.14800000  0.73476900  1
  Co  Co17  1  0.25000000  0.85200000  0.26523100  1
  Co  Co18  1  0.75000000  0.95210100  0.21827200  1
  Co  Co19  1  0.25000000  0.04789900  0.78172800  1
  Co  Co20  1  0.75000000  0.26617000  0.04789900  1
  Co  Co21  1  0.25000000  0.73383000  0.95210100  1
  Co  Co22  1  0.75000000  0.78172800  0.73383000  1
  Co  Co23  1  0.25000000  0.21827200  0.26617000  1
  Co  Co24  1  0.75000000  0.77439900  0.34702200  1
  Co  Co25  1  0.25000000  0.22560100  0.65297800  1
  Co  Co26  1  0.75000000  0.57262200  0.22560100  1
  Co  Co27  1  0.25000000  0.42737800  0.77439900  1
  Co  Co28  1  0.75000000  0.65297800  0.42737800  1
  Co  Co29  1  0.25000000  0.34702200  0.57262200  1
  Co  Co30  1  0.75000000  0.45956700  0.53405600  1
  Co  Co31  1  0.25000000  0.54043300  0.46594400  1
  Co  Co32  1  0.75000000  0.07448900  0.54043300  1
  Co  Co33  1  0.25000000  0.92551100  0.45956700  1
  Co  Co34  1  0.75000000  0.46594400  0.92551100  1
  Co  Co35  1  0.25000000  0.53405600  0.07448900  1
  Si  Si36  1  0.75000000  0.93718700  0.36900000  1
  Si  Si37  1  0.25000000  0.06281300  0.63100000  1
  Si  Si38  1  0.75000000  0.43181300  0.06281300  1
  Si  Si39  1  0.25000000  0.56818700  0.93718700  1
  Si  Si40  1  0.75000000  0.63100000  0.56818700  1
  Si  Si41  1  0.25000000  0.36900000  0.43181300  1
  Si  Si42  1  0.75000000  0.44313400  0.68118500  1
  Si  Si43  1  0.25000000  0.55686600  0.31881500  1
  Si  Si44  1  0.75000000  0.23805100  0.55686600  1
  Si  Si45  1  0.25000000  0.76194900  0.44313400  1
  Si  Si46  1  0.75000000  0.31881500  0.76194900  1
  Si  Si47  1  0.25000000  0.68118500  0.23805100  1
  Si  Si48  1  0.75000000  0.75298700  0.87065200  1
  Si  Si49  1  0.25000000  0.24701300  0.12934800  1
  Si  Si50  1  0.75000000  0.11766600  0.24701300  1
  Si  Si51  1  0.25000000  0.88233400  0.75298700  1
  Si  Si52  1  0.75000000  0.12934800  0.88233400  1
  Si  Si53  1  0.25000000  0.87065200  0.11766600  1
