# generated using pymatgen
data_RbHfCdF7
_symmetry_space_group_name_H-M   'P 1'
_cell_length_a   6.61844890
_cell_length_b   6.61844890
_cell_length_c   8.61647000
_cell_angle_alpha   90.00000000
_cell_angle_beta   90.00000000
_cell_angle_gamma   117.31186934
_symmetry_Int_Tables_number   1
_chemical_formula_structural   RbHfCdF7
_chemical_formula_sum   'Rb2 Hf2 Cd2 F14'
_cell_volume   335.35910622
_cell_formula_units_Z   2
loop_
 _symmetry_equiv_pos_site_id
 _symmetry_equiv_pos_as_xyz
  1  'x, y, z'
loop_
 _atom_site_type_symbol
 _atom_site_label
 _atom_site_symmetry_multiplicity
 _atom_site_fract_x
 _atom_site_fract_y
 _atom_site_fract_z
 _atom_site_occupancy
  Rb  Rb0  1  0.00000000  0.00000000  0.00000000  1
  Rb  Rb1  1  0.00000000  0.00000000  0.50000000  1
  Hf  Hf2  1  0.69248000  0.30752000  0.75000000  1
  Hf  Hf3  1  0.30752000  0.69248000  0.25000000  1
  Cd  Cd4  1  0.30917500  0.69082500  0.75000000  1
  Cd  Cd5  1  0.69082500  0.30917500  0.25000000  1
  F  F6  1  0.34967200  0.06522600  0.75000000  1
  F  F7  1  0.65032800  0.93477400  0.25000000  1
  F  F8  1  0.93477400  0.65032800  0.75000000  1
  F  F9  1  0.06522600  0.34967200  0.25000000  1
  F  F10  1  0.51222700  0.48777300  0.75000000  1
  F  F11  1  0.48777300  0.51222700  0.25000000  1
  F  F12  1  0.70303800  0.29696200  0.98330400  1
  F  F13  1  0.29696200  0.70303800  0.01669600  1
  F  F14  1  0.29696200  0.70303800  0.48330400  1
  F  F15  1  0.70303800  0.29696200  0.51669600  1
  F  F16  1  0.67044200  0.97811800  0.75000000  1
  F  F17  1  0.32955800  0.02188200  0.25000000  1
  F  F18  1  0.02188200  0.32955800  0.75000000  1
  F  F19  1  0.97811800  0.67044200  0.25000000  1
