# generated using pymatgen
data_HfGeOs
_symmetry_space_group_name_H-M   'P 1'
_cell_length_a   6.73195744
_cell_length_b   6.73195744
_cell_length_c   3.81106300
_cell_angle_alpha   90.00000000
_cell_angle_beta   90.00000000
_cell_angle_gamma   119.99999451
_symmetry_Int_Tables_number   1
_chemical_formula_structural   HfGeOs
_chemical_formula_sum   'Hf3 Ge3 Os3'
_cell_volume   149.57517075
_cell_formula_units_Z   3
loop_
 _symmetry_equiv_pos_site_id
 _symmetry_equiv_pos_as_xyz
  1  'x, y, z'
loop_
 _atom_site_type_symbol
 _atom_site_label
 _atom_site_symmetry_multiplicity
 _atom_site_fract_x
 _atom_site_fract_y
 _atom_site_fract_z
 _atom_site_occupancy
  Hf  Hf0  1  0.41697600  0.00000000  0.50000000  1
  Hf  Hf1  1  0.00000000  0.41697600  0.50000000  1
  Hf  Hf2  1  0.58302400  0.58302400  0.50000000  1
  Ge  Ge3  1  0.33333300  0.66666700  0.00000000  1
  Ge  Ge4  1  0.66666700  0.33333300  0.00000000  1
  Ge  Ge5  1  0.00000000  0.00000000  0.50000000  1
  Os  Os6  1  0.75351900  0.00000000  0.00000000  1
  Os  Os7  1  0.00000000  0.75351900  0.00000000  1
  Os  Os8  1  0.24648100  0.24648100  0.00000000  1
