# generated using pymatgen
data_Yb5(Si5Ir2)2
_symmetry_space_group_name_H-M   'P 1'
_cell_length_a   12.62069800
_cell_length_b   12.62069800
_cell_length_c   4.30154400
_cell_angle_alpha   90.00000000
_cell_angle_beta   90.00000000
_cell_angle_gamma   90.00000000
_symmetry_Int_Tables_number   1
_chemical_formula_structural   Yb5(Si5Ir2)2
_chemical_formula_sum   'Yb10 Si20 Ir8'
_cell_volume   685.15860887
_cell_formula_units_Z   2
loop_
 _symmetry_equiv_pos_site_id
 _symmetry_equiv_pos_as_xyz
  1  'x, y, z'
loop_
 _atom_site_type_symbol
 _atom_site_label
 _atom_site_symmetry_multiplicity
 _atom_site_fract_x
 _atom_site_fract_y
 _atom_site_fract_z
 _atom_site_occupancy
  Yb  Yb0  1  0.11307500  0.61307500  0.50000000  1
  Yb  Yb1  1  0.88692500  0.38692500  0.50000000  1
  Yb  Yb2  1  0.61307500  0.88692500  0.50000000  1
  Yb  Yb3  1  0.38692500  0.11307500  0.50000000  1
  Yb  Yb4  1  0.67338600  0.17338600  0.50000000  1
  Yb  Yb5  1  0.32661400  0.82661400  0.50000000  1
  Yb  Yb6  1  0.17338600  0.32661400  0.50000000  1
  Yb  Yb7  1  0.82661400  0.67338600  0.50000000  1
  Yb  Yb8  1  0.00000000  0.00000000  0.00000000  1
  Yb  Yb9  1  0.50000000  0.50000000  0.00000000  1
  Si  Si10  1  0.56664500  0.06664500  0.00000000  1
  Si  Si11  1  0.43335500  0.93335500  0.00000000  1
  Si  Si12  1  0.06664500  0.43335500  0.00000000  1
  Si  Si13  1  0.93335500  0.56664500  0.00000000  1
  Si  Si14  1  0.19723300  0.16329300  0.00000000  1
  Si  Si15  1  0.80276700  0.83670700  0.00000000  1
  Si  Si16  1  0.16329300  0.80276700  0.00000000  1
  Si  Si17  1  0.69723300  0.33670700  0.00000000  1
  Si  Si18  1  0.83670700  0.19723300  0.00000000  1
  Si  Si19  1  0.30276700  0.66329300  0.00000000  1
  Si  Si20  1  0.66329300  0.69723300  0.00000000  1
  Si  Si21  1  0.33670700  0.30276700  0.00000000  1
  Si  Si22  1  0.00308100  0.15149700  0.50000000  1
  Si  Si23  1  0.99691900  0.84850300  0.50000000  1
  Si  Si24  1  0.15149700  0.99691900  0.50000000  1
  Si  Si25  1  0.50308100  0.34850300  0.50000000  1
  Si  Si26  1  0.84850300  0.00308100  0.50000000  1
  Si  Si27  1  0.49691900  0.65149700  0.50000000  1
  Si  Si28  1  0.65149700  0.50308100  0.50000000  1
  Si  Si29  1  0.34850300  0.49691900  0.50000000  1
  Ir  Ir30  1  0.01791600  0.24544400  0.00000000  1
  Ir  Ir31  1  0.98208400  0.75455600  0.00000000  1
  Ir  Ir32  1  0.24544400  0.98208400  0.00000000  1
  Ir  Ir33  1  0.51791600  0.25455600  0.00000000  1
  Ir  Ir34  1  0.75455600  0.01791600  0.00000000  1
  Ir  Ir35  1  0.48208400  0.74544400  0.00000000  1
  Ir  Ir36  1  0.74544400  0.51791600  0.00000000  1
  Ir  Ir37  1  0.25455600  0.48208400  0.00000000  1
