# generated using pymatgen
data_Fe3B7BrO13
_symmetry_space_group_name_H-M   'P 1'
_cell_length_a   8.74279567
_cell_length_b   8.74279567
_cell_length_c   8.74279560
_cell_angle_alpha   59.82250612
_cell_angle_beta   59.82250612
_cell_angle_gamma   59.82250720
_symmetry_Int_Tables_number   1
_chemical_formula_structural   Fe3B7BrO13
_chemical_formula_sum   'Fe6 B14 Br2 O26'
_cell_volume   470.63347238
_cell_formula_units_Z   2
loop_
 _symmetry_equiv_pos_site_id
 _symmetry_equiv_pos_as_xyz
  1  'x, y, z'
loop_
 _atom_site_type_symbol
 _atom_site_label
 _atom_site_symmetry_multiplicity
 _atom_site_fract_x
 _atom_site_fract_y
 _atom_site_fract_z
 _atom_site_occupancy
  Fe  Fe0  1  0.00953500  0.01053300  0.46074100  1
  Fe  Fe1  1  0.01053300  0.46074100  0.00953500  1
  Fe  Fe2  1  0.46074100  0.00953500  0.01053300  1
  Fe  Fe3  1  0.50953500  0.96074100  0.51053300  1
  Fe  Fe4  1  0.96074100  0.51053300  0.50953500  1
  Fe  Fe5  1  0.51053300  0.50953500  0.96074100  1
  B  B6  1  0.88812500  0.88812500  0.88812500  1
  B  B7  1  0.38812500  0.38812500  0.38812500  1
  B  B8  1  0.71970100  0.41477100  0.41589000  1
  B  B9  1  0.41477100  0.41589000  0.71970100  1
  B  B10  1  0.41589000  0.71970100  0.41477100  1
  B  B11  1  0.21970100  0.91589000  0.91477100  1
  B  B12  1  0.91589000  0.91477100  0.21970100  1
  B  B13  1  0.91477100  0.21970100  0.91589000  1
  B  B14  1  0.73466800  0.23925100  0.24264000  1
  B  B15  1  0.23925100  0.24264000  0.73466800  1
  B  B16  1  0.24264000  0.73466800  0.23925100  1
  B  B17  1  0.23466800  0.74264000  0.73925100  1
  B  B18  1  0.74264000  0.73925100  0.23466800  1
  B  B19  1  0.73925100  0.23466800  0.74264000  1
  Br  Br20  1  0.22991900  0.22991900  0.22991900  1
  Br  Br21  1  0.72991900  0.72991900  0.72991900  1
  O  O22  1  0.04392600  0.88130600  0.72727200  1
  O  O23  1  0.88130600  0.72727200  0.04392600  1
  O  O24  1  0.72727200  0.04392600  0.88130600  1
  O  O25  1  0.54392600  0.22727200  0.38130600  1
  O  O26  1  0.22727200  0.38130600  0.54392600  1
  O  O27  1  0.38130600  0.54392600  0.22727200  1
  O  O28  1  0.24282600  0.77309900  0.38447500  1
  O  O29  1  0.77309900  0.38447500  0.24282600  1
  O  O30  1  0.38447500  0.24282600  0.77309900  1
  O  O31  1  0.74282600  0.88447500  0.27309900  1
  O  O32  1  0.88447500  0.27309900  0.74282600  1
  O  O33  1  0.27309900  0.74282600  0.88447500  1
  O  O34  1  0.78549400  0.23753000  0.55480700  1
  O  O35  1  0.23753000  0.55480700  0.78549400  1
  O  O36  1  0.55480700  0.78549400  0.23753000  1
  O  O37  1  0.28549400  0.05480700  0.73753000  1
  O  O38  1  0.05480700  0.73753000  0.28549400  1
  O  O39  1  0.73753000  0.28549400  0.05480700  1
  O  O40  1  0.87490100  0.05227100  0.29770800  1
  O  O41  1  0.05227100  0.29770800  0.87490100  1
  O  O42  1  0.29770800  0.87490100  0.05227100  1
  O  O43  1  0.37490100  0.79770800  0.55227100  1
  O  O44  1  0.79770800  0.55227100  0.37490100  1
  O  O45  1  0.55227100  0.37490100  0.79770800  1
  O  O46  1  0.50020800  0.50020800  0.50020800  1
  O  O47  1  0.00020800  0.00020800  0.00020800  1
