# generated using pymatgen
data_Yb5(Ge5Rh2)2
_symmetry_space_group_name_H-M   'P 1'
_cell_length_a   13.02053400
_cell_length_b   13.02053400
_cell_length_c   4.37132500
_cell_angle_alpha   90.00000000
_cell_angle_beta   90.00000000
_cell_angle_gamma   90.00000000
_symmetry_Int_Tables_number   1
_chemical_formula_structural   Yb5(Ge5Rh2)2
_chemical_formula_sum   'Yb10 Ge20 Rh8'
_cell_volume   741.08954862
_cell_formula_units_Z   2
loop_
 _symmetry_equiv_pos_site_id
 _symmetry_equiv_pos_as_xyz
  1  'x, y, z'
loop_
 _atom_site_type_symbol
 _atom_site_label
 _atom_site_symmetry_multiplicity
 _atom_site_fract_x
 _atom_site_fract_y
 _atom_site_fract_z
 _atom_site_occupancy
  Yb  Yb0  1  0.50000000  0.50000000  0.00000000  1
  Yb  Yb1  1  0.00000000  0.00000000  0.00000000  1
  Yb  Yb2  1  0.67517100  0.17517100  0.50000000  1
  Yb  Yb3  1  0.32482900  0.82482900  0.50000000  1
  Yb  Yb4  1  0.17517100  0.32482900  0.50000000  1
  Yb  Yb5  1  0.82482900  0.67517100  0.50000000  1
  Yb  Yb6  1  0.88834500  0.38834500  0.50000000  1
  Yb  Yb7  1  0.11165500  0.61165500  0.50000000  1
  Yb  Yb8  1  0.38834500  0.11165500  0.50000000  1
  Yb  Yb9  1  0.61165500  0.88834500  0.50000000  1
  Ge  Ge10  1  0.56548000  0.06548000  0.00000000  1
  Ge  Ge11  1  0.43452000  0.93452000  0.00000000  1
  Ge  Ge12  1  0.06548000  0.43452000  0.00000000  1
  Ge  Ge13  1  0.93452000  0.56548000  0.00000000  1
  Ge  Ge14  1  0.65646400  0.70063800  0.00000000  1
  Ge  Ge15  1  0.34353600  0.29936200  0.00000000  1
  Ge  Ge16  1  0.15646400  0.79936200  0.00000000  1
  Ge  Ge17  1  0.84353600  0.20063800  0.00000000  1
  Ge  Ge18  1  0.29936200  0.65646400  0.00000000  1
  Ge  Ge19  1  0.70063800  0.34353600  0.00000000  1
  Ge  Ge20  1  0.20063800  0.15646400  0.00000000  1
  Ge  Ge21  1  0.79936200  0.84353600  0.00000000  1
  Ge  Ge22  1  0.65608300  0.50269800  0.50000000  1
  Ge  Ge23  1  0.34391700  0.49730200  0.50000000  1
  Ge  Ge24  1  0.15608300  0.99730200  0.50000000  1
  Ge  Ge25  1  0.84391700  0.00269800  0.50000000  1
  Ge  Ge26  1  0.49730200  0.65608300  0.50000000  1
  Ge  Ge27  1  0.50269800  0.34391700  0.50000000  1
  Ge  Ge28  1  0.00269800  0.15608300  0.50000000  1
  Ge  Ge29  1  0.99730200  0.84391700  0.50000000  1
  Rh  Rh30  1  0.74714800  0.52623000  0.00000000  1
  Rh  Rh31  1  0.25285200  0.47377000  0.00000000  1
  Rh  Rh32  1  0.24714800  0.97377000  0.00000000  1
  Rh  Rh33  1  0.75285200  0.02623000  0.00000000  1
  Rh  Rh34  1  0.47377000  0.74714800  0.00000000  1
  Rh  Rh35  1  0.52623000  0.25285200  0.00000000  1
  Rh  Rh36  1  0.02623000  0.24714800  0.00000000  1
  Rh  Rh37  1  0.97377000  0.75285200  0.00000000  1
