# generated using pymatgen
data_RbGaAgF6
_symmetry_space_group_name_H-M   'P 1'
_cell_length_a   7.25865700
_cell_length_b   7.66434200
_cell_length_c   10.60061800
_cell_angle_alpha   90.00000000
_cell_angle_beta   90.00000000
_cell_angle_gamma   90.00000000
_symmetry_Int_Tables_number   1
_chemical_formula_structural   RbGaAgF6
_chemical_formula_sum   'Rb4 Ga4 Ag4 F24'
_cell_volume   589.74237600
_cell_formula_units_Z   4
loop_
 _symmetry_equiv_pos_site_id
 _symmetry_equiv_pos_as_xyz
  1  'x, y, z'
loop_
 _atom_site_type_symbol
 _atom_site_label
 _atom_site_symmetry_multiplicity
 _atom_site_fract_x
 _atom_site_fract_y
 _atom_site_fract_z
 _atom_site_occupancy
  Rb  Rb0  1  0.01628500  0.25000000  0.63398900  1
  Rb  Rb1  1  0.98371500  0.75000000  0.36601100  1
  Rb  Rb2  1  0.48371500  0.75000000  0.13398900  1
  Rb  Rb3  1  0.51628500  0.25000000  0.86601100  1
  Ga  Ga4  1  0.00000000  0.00000000  0.00000000  1
  Ga  Ga5  1  0.50000000  0.00000000  0.50000000  1
  Ga  Ga6  1  0.00000000  0.50000000  0.00000000  1
  Ga  Ga7  1  0.50000000  0.50000000  0.50000000  1
  Ag  Ag8  1  0.21189800  0.25000000  0.25167700  1
  Ag  Ag9  1  0.78810200  0.75000000  0.74832300  1
  Ag  Ag10  1  0.28810200  0.75000000  0.75167700  1
  Ag  Ag11  1  0.71189800  0.25000000  0.24832300  1
  F  F12  1  0.28152000  0.03469400  0.40559700  1
  F  F13  1  0.71848000  0.96530600  0.59440300  1
  F  F14  1  0.21848000  0.96530600  0.90559700  1
  F  F15  1  0.71848000  0.53469400  0.59440300  1
  F  F16  1  0.78152000  0.03469400  0.09440300  1
  F  F17  1  0.28152000  0.46530600  0.40559700  1
  F  F18  1  0.78152000  0.46530600  0.09440300  1
  F  F19  1  0.21848000  0.53469400  0.90559700  1
  F  F20  1  0.55214900  0.25000000  0.50456300  1
  F  F21  1  0.44785100  0.75000000  0.49543700  1
  F  F22  1  0.94785100  0.75000000  0.00456300  1
  F  F23  1  0.05214900  0.25000000  0.99543700  1
  F  F24  1  0.14066700  0.51729900  0.15291400  1
  F  F25  1  0.85933300  0.48270100  0.84708600  1
  F  F26  1  0.35933300  0.48270100  0.65291400  1
  F  F27  1  0.85933300  0.01729900  0.84708600  1
  F  F28  1  0.64066700  0.51729900  0.34708600  1
  F  F29  1  0.14066700  0.98270100  0.15291400  1
  F  F30  1  0.64066700  0.98270100  0.34708600  1
  F  F31  1  0.35933300  0.01729900  0.65291400  1
  F  F32  1  0.45992400  0.25000000  0.15088300  1
  F  F33  1  0.54007600  0.75000000  0.84911700  1
  F  F34  1  0.04007600  0.75000000  0.65088300  1
  F  F35  1  0.95992400  0.25000000  0.34911700  1
