# generated using pymatgen
data_CdPHO3
_symmetry_space_group_name_H-M   'P 1'
_cell_length_a   8.43179367
_cell_length_b   8.43179367
_cell_length_c   8.43179339
_cell_angle_alpha   109.12579196
_cell_angle_beta   109.12579196
_cell_angle_gamma   109.12579462
_symmetry_Int_Tables_number   1
_chemical_formula_structural   CdPHO3
_chemical_formula_sum   'Cd6 P6 H6 O18'
_cell_volume   467.27272543
_cell_formula_units_Z   6
loop_
 _symmetry_equiv_pos_site_id
 _symmetry_equiv_pos_as_xyz
  1  'x, y, z'
loop_
 _atom_site_type_symbol
 _atom_site_label
 _atom_site_symmetry_multiplicity
 _atom_site_fract_x
 _atom_site_fract_y
 _atom_site_fract_z
 _atom_site_occupancy
  Cd  Cd0  1  0.82219400  0.14243000  0.31606700  1
  Cd  Cd1  1  0.31606700  0.82219400  0.14243000  1
  Cd  Cd2  1  0.14243000  0.31606700  0.82219400  1
  Cd  Cd3  1  0.17780600  0.85757000  0.68393300  1
  Cd  Cd4  1  0.68393300  0.17780600  0.85757000  1
  Cd  Cd5  1  0.85757000  0.68393300  0.17780600  1
  P  P6  1  0.11904000  0.47319900  0.26347300  1
  P  P7  1  0.26347300  0.11904000  0.47319900  1
  P  P8  1  0.47319900  0.26347300  0.11904000  1
  P  P9  1  0.88096000  0.52680100  0.73652700  1
  P  P10  1  0.73652700  0.88096000  0.52680100  1
  P  P11  1  0.52680100  0.73652700  0.88096000  1
  H  H12  1  0.26645900  0.46767200  0.39854000  1
  H  H13  1  0.39854000  0.26645900  0.46767200  1
  H  H14  1  0.46767200  0.39854000  0.26645900  1
  H  H15  1  0.73354100  0.53232800  0.60146000  1
  H  H16  1  0.60146000  0.73354100  0.53232800  1
  H  H17  1  0.53232800  0.60146000  0.73354100  1
  O  O18  1  0.94161300  0.27040700  0.15408200  1
  O  O19  1  0.15408200  0.94161300  0.27040700  1
  O  O20  1  0.27040700  0.15408200  0.94161300  1
  O  O21  1  0.05838700  0.72959300  0.84591800  1
  O  O22  1  0.84591800  0.05838700  0.72959300  1
  O  O23  1  0.72959300  0.84591800  0.05838700  1
  O  O24  1  0.08323500  0.62977700  0.37616700  1
  O  O25  1  0.37616700  0.08323500  0.62977700  1
  O  O26  1  0.62977700  0.37616700  0.08323500  1
  O  O27  1  0.91676500  0.37022300  0.62383300  1
  O  O28  1  0.62383300  0.91676500  0.37022300  1
  O  O29  1  0.37022300  0.62383300  0.91676500  1
  O  O30  1  0.18934000  0.51944500  0.12821400  1
  O  O31  1  0.12821400  0.18934000  0.51944500  1
  O  O32  1  0.51944500  0.12821400  0.18934000  1
  O  O33  1  0.81066000  0.48055500  0.87178600  1
  O  O34  1  0.87178600  0.81066000  0.48055500  1
  O  O35  1  0.48055500  0.87178600  0.81066000  1
