# generated using pymatgen
data_Y2Zn17
_symmetry_space_group_name_H-M   'P 1'
_cell_length_a   6.80347187
_cell_length_b   6.80347187
_cell_length_c   6.80347220
_cell_angle_alpha   82.52193719
_cell_angle_beta   82.52193719
_cell_angle_gamma   82.52194046
_symmetry_Int_Tables_number   1
_chemical_formula_structural   Y2Zn17
_chemical_formula_sum   'Y2 Zn17'
_cell_volume   307.52021495
_cell_formula_units_Z   1
loop_
 _symmetry_equiv_pos_site_id
 _symmetry_equiv_pos_as_xyz
  1  'x, y, z'
loop_
 _atom_site_type_symbol
 _atom_site_label
 _atom_site_symmetry_multiplicity
 _atom_site_fract_x
 _atom_site_fract_y
 _atom_site_fract_z
 _atom_site_occupancy
  Y  Y0  1  0.66509900  0.66509900  0.66509900  1
  Y  Y1  1  0.33490100  0.33490100  0.33490100  1
  Zn  Zn2  1  0.35174700  0.35174700  0.83813200  1
  Zn  Zn3  1  0.83813200  0.35174700  0.35174700  1
  Zn  Zn4  1  0.09979800  0.09979800  0.09979800  1
  Zn  Zn5  1  0.90020200  0.90020200  0.90020200  1
  Zn  Zn6  1  0.00000000  0.00000000  0.50000000  1
  Zn  Zn7  1  0.00000000  0.50000000  0.00000000  1
  Zn  Zn8  1  0.50000000  0.00000000  0.00000000  1
  Zn  Zn9  1  0.29690100  0.70309900  0.00000000  1
  Zn  Zn10  1  0.70309900  0.00000000  0.29690100  1
  Zn  Zn11  1  0.00000000  0.29690100  0.70309900  1
  Zn  Zn12  1  0.70309900  0.29690100  0.00000000  1
  Zn  Zn13  1  0.29690100  0.00000000  0.70309900  1
  Zn  Zn14  1  0.00000000  0.70309900  0.29690100  1
  Zn  Zn15  1  0.16186800  0.64825300  0.64825300  1
  Zn  Zn16  1  0.64825300  0.64825300  0.16186800  1
  Zn  Zn17  1  0.64825300  0.16186800  0.64825300  1
  Zn  Zn18  1  0.35174700  0.83813200  0.35174700  1
