# generated using pymatgen
data_Sc(VGa2)2
_symmetry_space_group_name_H-M   'P 1'
_cell_length_a   5.28612573
_cell_length_b   5.28612573
_cell_length_c   5.28612573
_cell_angle_alpha   104.02228011
_cell_angle_beta   104.02228011
_cell_angle_gamma   121.02430392
_symmetry_Int_Tables_number   1
_chemical_formula_structural   Sc(VGa2)2
_chemical_formula_sum   'Sc1 V2 Ga4'
_cell_volume   110.18340614
_cell_formula_units_Z   1
loop_
 _symmetry_equiv_pos_site_id
 _symmetry_equiv_pos_as_xyz
  1  'x, y, z'
loop_
 _atom_site_type_symbol
 _atom_site_label
 _atom_site_symmetry_multiplicity
 _atom_site_fract_x
 _atom_site_fract_y
 _atom_site_fract_z
 _atom_site_occupancy
  Sc  Sc0  1  0.00000000  0.00000000  0.00000000  1
  V  V1  1  0.25000000  0.75000000  0.50000000  1
  V  V2  1  0.75000000  0.25000000  0.50000000  1
  Ga  Ga3  1  0.29996400  0.29996400  0.59992900  1
  Ga  Ga4  1  0.70003600  0.70003600  0.40007100  1
  Ga  Ga5  1  0.70003600  0.29996400  0.00000000  1
  Ga  Ga6  1  0.29996400  0.70003600  0.00000000  1
