# generated using pymatgen
data_Lu2Cr2C3
_symmetry_space_group_name_H-M   'P 1'
_cell_length_a   5.47683122
_cell_length_b   5.47683122
_cell_length_c   5.47175540
_cell_angle_alpha   74.00604014
_cell_angle_beta   74.00604014
_cell_angle_gamma   34.77537875
_symmetry_Int_Tables_number   1
_chemical_formula_structural   Lu2Cr2C3
_chemical_formula_sum   'Lu2 Cr2 C3'
_cell_volume   89.62583351
_cell_formula_units_Z   1
loop_
 _symmetry_equiv_pos_site_id
 _symmetry_equiv_pos_as_xyz
  1  'x, y, z'
loop_
 _atom_site_type_symbol
 _atom_site_label
 _atom_site_symmetry_multiplicity
 _atom_site_fract_x
 _atom_site_fract_y
 _atom_site_fract_z
 _atom_site_occupancy
  Lu  Lu0  1  0.39005700  0.39005700  0.31604900  1
  Lu  Lu1  1  0.60994300  0.60994300  0.68395100  1
  Cr  Cr2  1  0.15401500  0.15401500  0.11543200  1
  Cr  Cr3  1  0.84598500  0.84598500  0.88456800  1
  C  C4  1  0.72175300  0.72175300  0.23871400  1
  C  C5  1  0.27824700  0.27824700  0.76128600  1
  C  C6  1  0.00000000  0.00000000  0.00000000  1
