# generated using pymatgen
data_Ca3Pr2Sb3O14
_symmetry_space_group_name_H-M   'P 1'
_cell_length_a   7.55257198
_cell_length_b   7.55257198
_cell_length_c   7.50545808
_cell_angle_alpha   60.68972170
_cell_angle_beta   60.68972170
_cell_angle_gamma   60.55803658
_symmetry_Int_Tables_number   1
_chemical_formula_structural   Ca3Pr2Sb3O14
_chemical_formula_sum   'Ca3 Pr2 Sb3 O14'
_cell_volume   307.14075915
_cell_formula_units_Z   1
loop_
 _symmetry_equiv_pos_site_id
 _symmetry_equiv_pos_as_xyz
  1  'x, y, z'
loop_
 _atom_site_type_symbol
 _atom_site_label
 _atom_site_symmetry_multiplicity
 _atom_site_fract_x
 _atom_site_fract_y
 _atom_site_fract_z
 _atom_site_occupancy
  Ca  Ca0  1  0.00000000  0.00000000  0.00000000  1
  Ca  Ca1  1  0.50000000  0.50000000  0.50000000  1
  Ca  Ca2  1  0.50000000  0.50000000  0.00000000  1
  Pr  Pr3  1  0.50000000  0.00000000  0.50000000  1
  Pr  Pr4  1  0.00000000  0.50000000  0.50000000  1
  Sb  Sb5  1  0.00000000  0.00000000  0.50000000  1
  Sb  Sb6  1  0.50000000  0.00000000  0.00000000  1
  Sb  Sb7  1  0.00000000  0.50000000  0.00000000  1
  O  O8  1  0.68671800  0.68671800  0.08837700  1
  O  O9  1  0.31328200  0.31328200  0.91162300  1
  O  O10  1  0.37704800  0.37704800  0.37858400  1
  O  O11  1  0.62295200  0.62295200  0.62141600  1
  O  O12  1  0.31613600  0.91146900  0.31711400  1
  O  O13  1  0.68386400  0.08853100  0.68288600  1
  O  O14  1  0.08853100  0.68386400  0.68288600  1
  O  O15  1  0.91146900  0.31613600  0.31711400  1
  O  O16  1  0.62999000  0.09392800  0.09597900  1
  O  O17  1  0.37001000  0.90607200  0.90402100  1
  O  O18  1  0.90607200  0.37001000  0.90402100  1
  O  O19  1  0.09392800  0.62999000  0.09597900  1
  O  O20  1  0.90424200  0.90424200  0.36982200  1
  O  O21  1  0.09575800  0.09575800  0.63017800  1
