# generated using pymatgen
data_NaLaMgWO6
_symmetry_space_group_name_H-M   'P 1'
_cell_length_a   5.61022536
_cell_length_b   5.60551300
_cell_length_c   7.95894082
_cell_angle_alpha   90.00000000
_cell_angle_beta   90.05602549
_cell_angle_gamma   90.00000000
_symmetry_Int_Tables_number   1
_chemical_formula_structural   NaLaMgWO6
_chemical_formula_sum   'Na2 La2 Mg2 W2 O12'
_cell_volume   250.29417282
_cell_formula_units_Z   2
loop_
 _symmetry_equiv_pos_site_id
 _symmetry_equiv_pos_as_xyz
  1  'x, y, z'
loop_
 _atom_site_type_symbol
 _atom_site_label
 _atom_site_symmetry_multiplicity
 _atom_site_fract_x
 _atom_site_fract_y
 _atom_site_fract_z
 _atom_site_occupancy
  Na  Na0  1  0.26342400  0.75000000  0.99801900  1
  Na  Na1  1  0.73657600  0.25000000  0.00198100  1
  La  La2  1  0.24929400  0.75000000  0.50175100  1
  La  La3  1  0.75070600  0.25000000  0.49824900  1
  Mg  Mg4  1  0.24804600  0.25000000  0.24289500  1
  Mg  Mg5  1  0.75195400  0.75000000  0.75710500  1
  W  W6  1  0.24975500  0.25000000  0.76247500  1
  W  W7  1  0.75024500  0.75000000  0.23752500  1
  O  O8  1  0.16952500  0.25000000  0.98949600  1
  O  O9  1  0.32397300  0.25000000  0.50601600  1
  O  O10  1  0.48552300  0.00412100  0.77543500  1
  O  O11  1  0.48552300  0.49587900  0.77543500  1
  O  O12  1  0.99427900  0.99052900  0.30318500  1
  O  O13  1  0.99427900  0.50947100  0.30318500  1
  O  O14  1  0.00572100  0.49052900  0.69681500  1
  O  O15  1  0.00572100  0.00947100  0.69681500  1
  O  O16  1  0.51447700  0.50412100  0.22456500  1
  O  O17  1  0.51447700  0.99587900  0.22456500  1
  O  O18  1  0.67602700  0.75000000  0.49398400  1
  O  O19  1  0.83047500  0.75000000  0.01050400  1
