# generated using pymatgen
data_TbGeAu
_symmetry_space_group_name_H-M   'P 1'
_cell_length_a   4.48471018
_cell_length_b   4.48471018
_cell_length_c   7.38158900
_cell_angle_alpha   90.00000000
_cell_angle_beta   90.00000000
_cell_angle_gamma   120.00000270
_symmetry_Int_Tables_number   1
_chemical_formula_structural   TbGeAu
_chemical_formula_sum   'Tb2 Ge2 Au2'
_cell_volume   128.57284260
_cell_formula_units_Z   2
loop_
 _symmetry_equiv_pos_site_id
 _symmetry_equiv_pos_as_xyz
  1  'x, y, z'
loop_
 _atom_site_type_symbol
 _atom_site_label
 _atom_site_symmetry_multiplicity
 _atom_site_fract_x
 _atom_site_fract_y
 _atom_site_fract_z
 _atom_site_occupancy
  Tb  Tb0  1  0.00000000  0.00000000  0.75005700  1
  Tb  Tb1  1  0.00000000  0.00000000  0.25005700  1
  Ge  Ge2  1  0.66666700  0.33333300  0.95591500  1
  Ge  Ge3  1  0.33333300  0.66666700  0.45591500  1
  Au  Au4  1  0.66666700  0.33333300  0.53402800  1
  Au  Au5  1  0.33333300  0.66666700  0.03402800  1
