# generated using pymatgen
data_Tm6Mn23
_symmetry_space_group_name_H-M   'P 1'
_cell_length_a   8.41686172
_cell_length_b   8.41686172
_cell_length_c   8.41686172
_cell_angle_alpha   60.00000000
_cell_angle_beta   60.00000000
_cell_angle_gamma   60.00000000
_symmetry_Int_Tables_number   1
_chemical_formula_structural   Tm6Mn23
_chemical_formula_sum   'Tm6 Mn23'
_cell_volume   421.63395600
_cell_formula_units_Z   1
loop_
 _symmetry_equiv_pos_site_id
 _symmetry_equiv_pos_as_xyz
  1  'x, y, z'
loop_
 _atom_site_type_symbol
 _atom_site_label
 _atom_site_symmetry_multiplicity
 _atom_site_fract_x
 _atom_site_fract_y
 _atom_site_fract_z
 _atom_site_occupancy
  Tm  Tm0  1  0.70437100  0.70437100  0.29562900  1
  Tm  Tm1  1  0.29562900  0.70437100  0.29562900  1
  Tm  Tm2  1  0.70437100  0.29562900  0.29562900  1
  Tm  Tm3  1  0.29562900  0.29562900  0.70437100  1
  Tm  Tm4  1  0.70437100  0.29562900  0.70437100  1
  Tm  Tm5  1  0.29562900  0.70437100  0.70437100  1
  Mn  Mn6  1  0.00000000  0.00000000  0.00000000  1
  Mn  Mn7  1  0.00000000  0.00000000  0.50000000  1
  Mn  Mn8  1  0.50000000  0.00000000  0.50000000  1
  Mn  Mn9  1  0.00000000  0.50000000  0.50000000  1
  Mn  Mn10  1  0.50000000  0.50000000  0.00000000  1
  Mn  Mn11  1  0.00000000  0.50000000  0.00000000  1
  Mn  Mn12  1  0.50000000  0.00000000  0.00000000  1
  Mn  Mn13  1  0.87871100  0.87871100  0.36386700  1
  Mn  Mn14  1  0.87871100  0.36386700  0.87871100  1
  Mn  Mn15  1  0.36386700  0.87871100  0.87871100  1
  Mn  Mn16  1  0.87871100  0.87871100  0.87871100  1
  Mn  Mn17  1  0.12128900  0.12128900  0.63613300  1
  Mn  Mn18  1  0.12128900  0.63613300  0.12128900  1
  Mn  Mn19  1  0.63613300  0.12128900  0.12128900  1
  Mn  Mn20  1  0.12128900  0.12128900  0.12128900  1
  Mn  Mn21  1  0.67681100  0.67681100  0.96956800  1
  Mn  Mn22  1  0.67681100  0.96956800  0.67681100  1
  Mn  Mn23  1  0.96956800  0.67681100  0.67681100  1
  Mn  Mn24  1  0.67681100  0.67681100  0.67681100  1
  Mn  Mn25  1  0.32318900  0.32318900  0.03043200  1
  Mn  Mn26  1  0.32318900  0.03043200  0.32318900  1
  Mn  Mn27  1  0.03043200  0.32318900  0.32318900  1
  Mn  Mn28  1  0.32318900  0.32318900  0.32318900  1
