# generated using pymatgen
data_Sr2CdPt2
_symmetry_space_group_name_H-M   'P 1'
_cell_length_a   5.98480563
_cell_length_b   5.98480563
_cell_length_c   5.98480563
_cell_angle_alpha   134.86444741
_cell_angle_beta   119.97114133
_cell_angle_gamma   78.17075613
_symmetry_Int_Tables_number   1
_chemical_formula_structural   Sr2CdPt2
_chemical_formula_sum   'Sr2 Cd1 Pt2'
_cell_volume   127.76889119
_cell_formula_units_Z   1
loop_
 _symmetry_equiv_pos_site_id
 _symmetry_equiv_pos_as_xyz
  1  'x, y, z'
loop_
 _atom_site_type_symbol
 _atom_site_label
 _atom_site_symmetry_multiplicity
 _atom_site_fract_x
 _atom_site_fract_y
 _atom_site_fract_z
 _atom_site_occupancy
  Sr  Sr0  1  0.29996200  0.79996200  0.50000000  1
  Sr  Sr1  1  0.70003800  0.20003800  0.50000000  1
  Cd  Cd2  1  0.00000000  0.00000000  0.00000000  1
  Pt  Pt3  1  0.72695600  0.50000000  0.22695600  1
  Pt  Pt4  1  0.27304400  0.50000000  0.77304400  1
