# generated using pymatgen
data_Ti10CrSb5
_symmetry_space_group_name_H-M   'P 1'
_cell_length_a   7.88863008
_cell_length_b   7.88863008
_cell_length_c   7.88863008
_cell_angle_alpha   96.36769033
_cell_angle_beta   96.36769033
_cell_angle_gamma   141.09450893
_symmetry_Int_Tables_number   1
_chemical_formula_structural   Ti10CrSb5
_chemical_formula_sum   'Ti10 Cr1 Sb5'
_cell_volume   290.71247626
_cell_formula_units_Z   1
loop_
 _symmetry_equiv_pos_site_id
 _symmetry_equiv_pos_as_xyz
  1  'x, y, z'
loop_
 _atom_site_type_symbol
 _atom_site_label
 _atom_site_symmetry_multiplicity
 _atom_site_fract_x
 _atom_site_fract_y
 _atom_site_fract_z
 _atom_site_occupancy
  Ti  Ti0  1  0.50000000  0.00000000  0.50000000  1
  Ti  Ti1  1  0.00000000  0.50000000  0.50000000  1
  Ti  Ti2  1  0.48059700  0.33930000  0.29080200  1
  Ti  Ti3  1  0.04849900  0.18979600  0.70919800  1
  Ti  Ti4  1  0.51940300  0.81020400  0.85870300  1
  Ti  Ti5  1  0.95150100  0.66070000  0.14129700  1
  Ti  Ti6  1  0.33930000  0.04849900  0.85870300  1
  Ti  Ti7  1  0.18979600  0.48059700  0.14129700  1
  Ti  Ti8  1  0.81020400  0.95150100  0.29080200  1
  Ti  Ti9  1  0.66070000  0.51940300  0.70919800  1
  Cr  Cr10  1  0.50000000  0.50000000  0.00000000  1
  Sb  Sb11  1  0.91347000  0.41347000  0.82694100  1
  Sb  Sb12  1  0.58653000  0.08653000  0.17305900  1
  Sb  Sb13  1  0.08653000  0.91347000  0.50000000  1
  Sb  Sb14  1  0.41347000  0.58653000  0.50000000  1
  Sb  Sb15  1  0.00000000  0.00000000  0.00000000  1
