# generated using pymatgen
data_K4As2Se5
_symmetry_space_group_name_H-M   'P 1'
_cell_length_a   23.28776900
_cell_length_b   7.78893000
_cell_length_c   9.81570625
_cell_angle_alpha   57.96593524
_cell_angle_beta   90.00000000
_cell_angle_gamma   90.00000000
_symmetry_Int_Tables_number   1
_chemical_formula_structural   K4As2Se5
_chemical_formula_sum   'K16 As8 Se20'
_cell_volume   1509.33717893
_cell_formula_units_Z   4
loop_
 _symmetry_equiv_pos_site_id
 _symmetry_equiv_pos_as_xyz
  1  'x, y, z'
loop_
 _atom_site_type_symbol
 _atom_site_label
 _atom_site_symmetry_multiplicity
 _atom_site_fract_x
 _atom_site_fract_y
 _atom_site_fract_z
 _atom_site_occupancy
  K  K0  1  0.54051800  0.75124500  0.49534000  1
  K  K1  1  0.95948200  0.75124500  0.99534000  1
  K  K2  1  0.45948200  0.24875500  0.50466000  1
  K  K3  1  0.04051800  0.24875500  0.00466000  1
  K  K4  1  0.75494300  0.74835400  0.49650100  1
  K  K5  1  0.74505700  0.74835400  0.99650100  1
  K  K6  1  0.24505700  0.25164600  0.50349900  1
  K  K7  1  0.25494300  0.25164600  0.00349900  1
  K  K8  1  0.54719300  0.75137400  0.99604700  1
  K  K9  1  0.95280700  0.75137400  0.49604700  1
  K  K10  1  0.45280700  0.24862600  0.00395300  1
  K  K11  1  0.04719300  0.24862600  0.50395300  1
  K  K12  1  0.65564100  0.23354600  0.50961300  1
  K  K13  1  0.84435900  0.23354600  0.00961300  1
  K  K14  1  0.34435900  0.76645400  0.49038700  1
  K  K15  1  0.15564100  0.76645400  0.99038700  1
  As  As16  1  0.64247100  0.15556100  0.13848200  1
  As  As17  1  0.85752900  0.15556100  0.63848200  1
  As  As18  1  0.35752900  0.84443900  0.86151800  1
  As  As19  1  0.14247100  0.84443900  0.36151800  1
  As  As20  1  0.64783800  0.35501200  0.82688000  1
  As  As21  1  0.85216200  0.35501200  0.32688000  1
  As  As22  1  0.35216200  0.64498800  0.17312000  1
  As  As23  1  0.14783800  0.64498800  0.67312000  1
  Se  Se24  1  0.64284900  0.80567600  0.23027100  1
  Se  Se25  1  0.85715100  0.80567600  0.73027100  1
  Se  Se26  1  0.35715100  0.19432400  0.76972900  1
  Se  Se27  1  0.14284900  0.19432400  0.26972900  1
  Se  Se28  1  0.72932200  0.23837500  0.21968000  1
  Se  Se29  1  0.77067800  0.23837500  0.71968000  1
  Se  Se30  1  0.27067800  0.76162500  0.78032000  1
  Se  Se31  1  0.22932200  0.76162500  0.28032000  1
  Se  Se32  1  0.56183600  0.24227700  0.23990800  1
  Se  Se33  1  0.93816400  0.24227700  0.73990800  1
  Se  Se34  1  0.43816400  0.75772300  0.76009200  1
  Se  Se35  1  0.06183600  0.75772300  0.26009200  1
  Se  Se36  1  0.64178100  0.69461000  0.76173800  1
  Se  Se37  1  0.85821900  0.69461000  0.26173800  1
  Se  Se38  1  0.35821900  0.30539000  0.23826200  1
  Se  Se39  1  0.14178100  0.30539000  0.73826200  1
  Se  Se40  1  0.55905600  0.26427300  0.76033500  1
  Se  Se41  1  0.94094400  0.26427300  0.26033500  1
  Se  Se42  1  0.44094400  0.73572700  0.23966500  1
  Se  Se43  1  0.05905600  0.73572700  0.73966500  1
