# generated using pymatgen
data_K2MgH12(SeO7)2
_symmetry_space_group_name_H-M   'P 1'
_cell_length_a   12.58242600
_cell_length_b   6.32047300
_cell_length_c   9.32148491
_cell_angle_alpha   75.78176499
_cell_angle_beta   90.00000000
_cell_angle_gamma   90.00000000
_symmetry_Int_Tables_number   1
_chemical_formula_structural   K2MgH12(SeO7)2
_chemical_formula_sum   'K4 Mg2 H24 Se4 O28'
_cell_volume   718.60030953
_cell_formula_units_Z   2
loop_
 _symmetry_equiv_pos_site_id
 _symmetry_equiv_pos_as_xyz
  1  'x, y, z'
loop_
 _atom_site_type_symbol
 _atom_site_label
 _atom_site_symmetry_multiplicity
 _atom_site_fract_x
 _atom_site_fract_y
 _atom_site_fract_z
 _atom_site_occupancy
  K  K0  1  0.15936000  0.65933600  0.63475800  1
  K  K1  1  0.65936000  0.34066400  0.86524200  1
  K  K2  1  0.84064000  0.34066400  0.36524200  1
  K  K3  1  0.34064000  0.65933600  0.13475800  1
  Mg  Mg4  1  0.50000000  0.00000000  0.50000000  1
  Mg  Mg5  1  0.00000000  0.00000000  0.00000000  1
  H  H6  1  0.41617800  0.68131300  0.70690500  1
  H  H7  1  0.91617800  0.31868700  0.79309500  1
  H  H8  1  0.58382200  0.31868700  0.29309500  1
  H  H9  1  0.08382200  0.68131300  0.20690500  1
  H  H10  1  0.37494200  0.90437100  0.74040900  1
  H  H11  1  0.87494200  0.09562900  0.75959100  1
  H  H12  1  0.62505800  0.09562900  0.25959100  1
  H  H13  1  0.12505800  0.90437100  0.24040900  1
  H  H14  1  0.40408900  0.06121300  0.23633900  1
  H  H15  1  0.90408900  0.93878700  0.26366100  1
  H  H16  1  0.59591100  0.93878700  0.76366100  1
  H  H17  1  0.09591100  0.06121300  0.73633900  1
  H  H18  1  0.31775900  0.98572200  0.36281800  1
  H  H19  1  0.81775900  0.01427800  0.13718200  1
  H  H20  1  0.68224100  0.01427800  0.63718200  1
  H  H21  1  0.18224100  0.98572200  0.86281800  1
  H  H22  1  0.55530700  0.66274300  0.40117800  1
  H  H23  1  0.05530700  0.33725700  0.09882200  1
  H  H24  1  0.44469300  0.33725700  0.59882200  1
  H  H25  1  0.94469300  0.66274300  0.90117800  1
  H  H26  1  0.63960300  0.65705300  0.53023700  1
  H  H27  1  0.13960300  0.34294700  0.96976300  1
  H  H28  1  0.36039700  0.34294700  0.46976300  1
  H  H29  1  0.86039700  0.65705300  0.03023700  1
  Se  Se30  1  0.36265000  0.27266500  0.91143200  1
  Se  Se31  1  0.86265000  0.72733500  0.58856800  1
  Se  Se32  1  0.63735000  0.72733500  0.08856800  1
  Se  Se33  1  0.13735000  0.27266500  0.41143200  1
  O  O34  1  0.25900600  0.44259900  0.90498300  1
  O  O35  1  0.75900600  0.55740100  0.59501700  1
  O  O36  1  0.74099400  0.55740100  0.09501700  1
  O  O37  1  0.24099400  0.44259900  0.40498300  1
  O  O38  1  0.42493300  0.24187700  0.07327700  1
  O  O39  1  0.92493300  0.75812300  0.42672300  1
  O  O40  1  0.57506700  0.75812300  0.92672300  1
  O  O41  1  0.07506700  0.24187700  0.57327700  1
  O  O42  1  0.44705700  0.39070400  0.77522500  1
  O  O43  1  0.94705700  0.60929600  0.72477500  1
  O  O44  1  0.55294300  0.60929600  0.22477500  1
  O  O45  1  0.05294300  0.39070400  0.27522500  1
  O  O46  1  0.32091600  0.02927100  0.88842700  1
  O  O47  1  0.82091600  0.97072900  0.61157300  1
  O  O48  1  0.67908400  0.97072900  0.11157300  1
  O  O49  1  0.17908400  0.02927100  0.38842700  1
  O  O50  1  0.39188200  0.83241300  0.66019500  1
  O  O51  1  0.89188200  0.16758700  0.83980500  1
  O  O52  1  0.60811800  0.16758700  0.33980500  1
  O  O53  1  0.10811800  0.83241300  0.16019500  1
  O  O54  1  0.39167300  0.95829700  0.33566300  1
  O  O55  1  0.89167300  0.04170300  0.16433700  1
  O  O56  1  0.60832700  0.04170300  0.66433700  1
  O  O57  1  0.10832700  0.95829700  0.83566300  1
  O  O58  1  0.56656300  0.70620700  0.49508300  1
  O  O59  1  0.06656300  0.29379300  0.00491700  1
  O  O60  1  0.43343700  0.29379300  0.50491700  1
  O  O61  1  0.93343700  0.70620700  0.99508300  1
