# generated using pymatgen
data_EuBr3
_symmetry_space_group_name_H-M   'P 1'
_cell_length_a   7.05673141
_cell_length_b   7.05673141
_cell_length_c   9.10129200
_cell_angle_alpha   90.00000000
_cell_angle_beta   90.00000000
_cell_angle_gamma   145.55473419
_symmetry_Int_Tables_number   1
_chemical_formula_structural   EuBr3
_chemical_formula_sum   'Eu2 Br6'
_cell_volume   256.35038940
_cell_formula_units_Z   2
loop_
 _symmetry_equiv_pos_site_id
 _symmetry_equiv_pos_as_xyz
  1  'x, y, z'
loop_
 _atom_site_type_symbol
 _atom_site_label
 _atom_site_symmetry_multiplicity
 _atom_site_fract_x
 _atom_site_fract_y
 _atom_site_fract_z
 _atom_site_occupancy
  Eu  Eu0  1  0.25551800  0.74448200  0.25000000  1
  Eu  Eu1  1  0.74448200  0.25551800  0.75000000  1
  Br  Br2  1  0.64527800  0.35472200  0.06561100  1
  Br  Br3  1  0.35472200  0.64527800  0.93438900  1
  Br  Br4  1  0.35472200  0.64527800  0.56561100  1
  Br  Br5  1  0.64527800  0.35472200  0.43438900  1
  Br  Br6  1  0.90900200  0.09099800  0.25000000  1
  Br  Br7  1  0.09099800  0.90900200  0.75000000  1
