# generated using pymatgen
data_PrNiP
_symmetry_space_group_name_H-M   'P 1'
_cell_length_a   3.98988991
_cell_length_b   3.98988991
_cell_length_c   16.22742300
_cell_angle_alpha   90.00000000
_cell_angle_beta   90.00000000
_cell_angle_gamma   119.99999859
_symmetry_Int_Tables_number   1
_chemical_formula_structural   PrNiP
_chemical_formula_sum   'Pr4 Ni4 P4'
_cell_volume   223.71856315
_cell_formula_units_Z   4
loop_
 _symmetry_equiv_pos_site_id
 _symmetry_equiv_pos_as_xyz
  1  'x, y, z'
loop_
 _atom_site_type_symbol
 _atom_site_label
 _atom_site_symmetry_multiplicity
 _atom_site_fract_x
 _atom_site_fract_y
 _atom_site_fract_z
 _atom_site_occupancy
  Pr  Pr0  1  0.00000000  0.00000000  0.50000000  1
  Pr  Pr1  1  0.00000000  0.00000000  0.00000000  1
  Pr  Pr2  1  0.00000000  0.00000000  0.25000000  1
  Pr  Pr3  1  0.00000000  0.00000000  0.75000000  1
  Ni  Ni4  1  0.33333300  0.66666700  0.37369000  1
  Ni  Ni5  1  0.66666700  0.33333300  0.62631000  1
  Ni  Ni6  1  0.66666700  0.33333300  0.87369000  1
  Ni  Ni7  1  0.33333300  0.66666700  0.12631000  1
  P  P8  1  0.33333300  0.66666700  0.87502200  1
  P  P9  1  0.66666700  0.33333300  0.12497800  1
  P  P10  1  0.66666700  0.33333300  0.37502200  1
  P  P11  1  0.33333300  0.66666700  0.62497800  1
