# generated using pymatgen
data_SmGaPd
_symmetry_space_group_name_H-M   'P 1'
_cell_length_a   4.50704100
_cell_length_b   7.10557500
_cell_length_c   7.77873400
_cell_angle_alpha   90.00000000
_cell_angle_beta   90.00000000
_cell_angle_gamma   90.00000000
_symmetry_Int_Tables_number   1
_chemical_formula_structural   SmGaPd
_chemical_formula_sum   'Sm4 Ga4 Pd4'
_cell_volume   249.11487310
_cell_formula_units_Z   4
loop_
 _symmetry_equiv_pos_site_id
 _symmetry_equiv_pos_as_xyz
  1  'x, y, z'
loop_
 _atom_site_type_symbol
 _atom_site_label
 _atom_site_symmetry_multiplicity
 _atom_site_fract_x
 _atom_site_fract_y
 _atom_site_fract_z
 _atom_site_occupancy
  Sm  Sm0  1  0.25000000  0.01756800  0.29750500  1
  Sm  Sm1  1  0.25000000  0.51756800  0.20249500  1
  Sm  Sm2  1  0.75000000  0.98243200  0.70249500  1
  Sm  Sm3  1  0.75000000  0.48243200  0.79750500  1
  Ga  Ga4  1  0.25000000  0.68281200  0.57963200  1
  Ga  Ga5  1  0.25000000  0.18281200  0.92036800  1
  Ga  Ga6  1  0.75000000  0.31718800  0.42036800  1
  Ga  Ga7  1  0.75000000  0.81718800  0.07963200  1
  Pd  Pd8  1  0.25000000  0.28729400  0.59061800  1
  Pd  Pd9  1  0.25000000  0.78729400  0.90938200  1
  Pd  Pd10  1  0.75000000  0.71270600  0.40938200  1
  Pd  Pd11  1  0.75000000  0.21270600  0.09061800  1
