# generated using pymatgen
data_RbH2(IO3)3
_symmetry_space_group_name_H-M   'P 1'
_cell_length_a   7.62763396
_cell_length_b   7.72717104
_cell_length_c   8.33588990
_cell_angle_alpha   77.81030784
_cell_angle_beta   84.70240817
_cell_angle_gamma   83.51944026
_symmetry_Int_Tables_number   1
_chemical_formula_structural   RbH2(IO3)3
_chemical_formula_sum   'Rb2 H4 I6 O18'
_cell_volume   475.98343966
_cell_formula_units_Z   2
loop_
 _symmetry_equiv_pos_site_id
 _symmetry_equiv_pos_as_xyz
  1  'x, y, z'
loop_
 _atom_site_type_symbol
 _atom_site_label
 _atom_site_symmetry_multiplicity
 _atom_site_fract_x
 _atom_site_fract_y
 _atom_site_fract_z
 _atom_site_occupancy
  Rb  Rb0  1  0.27522400  0.17646000  0.19307100  1
  Rb  Rb1  1  0.55699000  0.80584200  0.50375800  1
  H  H2  1  0.99765100  0.58563000  0.00960600  1
  H  H3  1  0.44422400  0.48814100  0.88096000  1
  H  H4  1  0.40081800  0.05177500  0.83010800  1
  H  H5  1  0.84166200  0.40048000  0.67571900  1
  I  I6  1  0.82117200  0.11569600  0.00271500  1
  I  I7  1  0.02471900  0.87044500  0.67576100  1
  I  I8  1  0.06876800  0.67323700  0.25899100  1
  I  I9  1  0.58232800  0.69367700  0.00959500  1
  I  I10  1  0.24965100  0.32855400  0.66069900  1
  I  I11  1  0.76231600  0.31705500  0.42733500  1
  O  O12  1  0.87168300  0.19447100  0.18487000  1
  O  O13  1  0.01557300  0.95443300  0.99945600  1
  O  O14  1  0.65072000  0.96635700  0.10103700  1
  O  O15  1  0.83322600  0.03408100  0.68718000  1
  O  O16  1  0.19367200  0.01539000  0.57456700  1
  O  O17  1  0.95937000  0.79257900  0.49664600  1
  O  O18  1  0.28372200  0.75310700  0.25002000  1
  O  O19  1  0.10745600  0.45404400  0.39811500  1
  O  O20  1  0.11137200  0.56248200  0.06692200  1
  O  O21  1  0.80278500  0.66060500  0.90999300  1
  O  O22  1  0.46479700  0.83273800  0.84221100  1
  O  O23  1  0.50848900  0.46586600  0.98422400  1
  O  O24  1  0.32219700  0.53295300  0.69576200  1
  O  O25  1  0.03139300  0.34038300  0.76918800  1
  O  O26  1  0.37318700  0.18009400  0.84264300  1
  O  O27  1  0.54664400  0.23791600  0.43839300  1
  O  O28  1  0.72762600  0.53503700  0.29000100  1
  O  O29  1  0.72432500  0.42086000  0.62294600  1
