# generated using pymatgen
data_Sr4Te3(ClO2)4
_symmetry_space_group_name_H-M   'P 1'
_cell_length_a   8.78087233
_cell_length_b   8.78087233
_cell_length_c   17.22860197
_cell_angle_alpha   71.78096771
_cell_angle_beta   71.78096771
_cell_angle_gamma   38.52988024
_symmetry_Int_Tables_number   1
_chemical_formula_structural   Sr4Te3(ClO2)4
_chemical_formula_sum   'Sr8 Te6 Cl8 O16'
_cell_volume   780.78214174
_cell_formula_units_Z   2
loop_
 _symmetry_equiv_pos_site_id
 _symmetry_equiv_pos_as_xyz
  1  'x, y, z'
loop_
 _atom_site_type_symbol
 _atom_site_label
 _atom_site_symmetry_multiplicity
 _atom_site_fract_x
 _atom_site_fract_y
 _atom_site_fract_z
 _atom_site_occupancy
  Sr  Sr0  1  0.73821800  0.73855700  0.69915900  1
  Sr  Sr1  1  0.26144300  0.26178200  0.30084100  1
  Sr  Sr2  1  0.15769900  0.15764900  0.55912900  1
  Sr  Sr3  1  0.84235100  0.84230100  0.44087100  1
  Sr  Sr4  1  0.04808200  0.05091900  0.81893000  1
  Sr  Sr5  1  0.94908100  0.95191800  0.18107000  1
  Sr  Sr6  1  0.64963500  0.63652200  0.95627300  1
  Sr  Sr7  1  0.36347800  0.35036500  0.04372700  1
  Te  Te8  1  0.36606400  0.36597600  0.57246300  1
  Te  Te9  1  0.63402400  0.63393600  0.42753700  1
  Te  Te10  1  0.26927500  0.26788700  0.82110500  1
  Te  Te11  1  0.73211300  0.73072500  0.17889500  1
  Te  Te12  1  0.53369100  0.53450900  0.67643200  1
  Te  Te13  1  0.46549100  0.46630900  0.32356800  1
  Cl  Cl14  1  0.80913100  0.80484200  0.98233900  1
  Cl  Cl15  1  0.19515800  0.19086900  0.01766100  1
  Cl  Cl16  1  0.90044200  0.90099200  0.74560300  1
  Cl  Cl17  1  0.09900800  0.09955800  0.25439700  1
  Cl  Cl18  1  0.49979400  0.52098600  0.12315700  1
  Cl  Cl19  1  0.47901400  0.50020600  0.87684300  1
  Cl  Cl20  1  0.00001600  0.99998400  0.50000000  1
  Cl  Cl21  1  0.95074800  0.04925200  0.00000000  1
  O  O22  1  0.84359300  0.36089700  0.69364300  1
  O  O23  1  0.36077500  0.84424300  0.69334600  1
  O  O24  1  0.15575700  0.63922500  0.30665400  1
  O  O25  1  0.63910300  0.15640700  0.30635700  1
  O  O26  1  0.94848000  0.42828300  0.83271900  1
  O  O27  1  0.42695200  0.94808900  0.83361000  1
  O  O28  1  0.05191100  0.57304800  0.16639000  1
  O  O29  1  0.57171700  0.05152000  0.16728100  1
  O  O30  1  0.29937800  0.29857700  0.70288200  1
  O  O31  1  0.70142300  0.70062200  0.29711800  1
  O  O32  1  0.05013900  0.53354900  0.56852800  1
  O  O33  1  0.53359800  0.05012600  0.56848100  1
  O  O34  1  0.94987400  0.46640200  0.43151900  1
  O  O35  1  0.46645100  0.94986100  0.43147200  1
  O  O36  1  0.59109600  0.59090300  0.55947300  1
  O  O37  1  0.40909700  0.40890400  0.44052700  1
