# generated using pymatgen
data_Tm2(Ga3Ir)3
_symmetry_space_group_name_H-M   'P 1'
_cell_length_a   7.57790242
_cell_length_b   7.57790242
_cell_length_c   9.45418700
_cell_angle_alpha   90.00000000
_cell_angle_beta   90.00000000
_cell_angle_gamma   120.08812802
_symmetry_Int_Tables_number   1
_chemical_formula_structural   Tm2(Ga3Ir)3
_chemical_formula_sum   'Tm4 Ga18 Ir6'
_cell_volume   469.74966858
_cell_formula_units_Z   2
loop_
 _symmetry_equiv_pos_site_id
 _symmetry_equiv_pos_as_xyz
  1  'x, y, z'
loop_
 _atom_site_type_symbol
 _atom_site_label
 _atom_site_symmetry_multiplicity
 _atom_site_fract_x
 _atom_site_fract_y
 _atom_site_fract_z
 _atom_site_occupancy
  Tm  Tm0  1  0.99701600  0.66762200  0.75000000  1
  Tm  Tm1  1  0.00298400  0.33237800  0.25000000  1
  Tm  Tm2  1  0.66762200  0.99701600  0.75000000  1
  Tm  Tm3  1  0.33237800  0.00298400  0.25000000  1
  Ga  Ga4  1  0.12705000  0.12705000  0.75000000  1
  Ga  Ga5  1  0.87295000  0.87295000  0.25000000  1
  Ga  Ga6  1  0.99840000  0.33354100  0.58125200  1
  Ga  Ga7  1  0.00160000  0.66645900  0.41874800  1
  Ga  Ga8  1  0.00160000  0.66645900  0.08125200  1
  Ga  Ga9  1  0.33354100  0.99840000  0.91874800  1
  Ga  Ga10  1  0.99840000  0.33354100  0.91874800  1
  Ga  Ga11  1  0.66645900  0.00160000  0.08125200  1
  Ga  Ga12  1  0.66645900  0.00160000  0.41874800  1
  Ga  Ga13  1  0.33354100  0.99840000  0.58125200  1
  Ga  Ga14  1  0.33253700  0.33253700  0.06574400  1
  Ga  Ga15  1  0.66746300  0.66746300  0.93425600  1
  Ga  Ga16  1  0.66746300  0.66746300  0.56574400  1
  Ga  Ga17  1  0.33253700  0.33253700  0.43425600  1
  Ga  Ga18  1  0.33884400  0.54611400  0.75000000  1
  Ga  Ga19  1  0.66115600  0.45388600  0.25000000  1
  Ga  Ga20  1  0.54611400  0.33884400  0.75000000  1
  Ga  Ga21  1  0.45388600  0.66115600  0.25000000  1
  Ir  Ir22  1  0.67181600  0.32818400  0.50000000  1
  Ir  Ir23  1  0.32818400  0.67181600  0.50000000  1
  Ir  Ir24  1  0.32818400  0.67181600  0.00000000  1
  Ir  Ir25  1  0.67181600  0.32818400  0.00000000  1
  Ir  Ir26  1  0.00000000  0.00000000  0.50000000  1
  Ir  Ir27  1  0.00000000  0.00000000  0.00000000  1
