# generated using pymatgen
data_LaGaSi
_symmetry_space_group_name_H-M   'P 1'
_cell_length_a   7.86683356
_cell_length_b   7.86683356
_cell_length_c   7.86683356
_cell_angle_alpha   148.21783502
_cell_angle_beta   148.21783502
_cell_angle_gamma   45.56390000
_symmetry_Int_Tables_number   1
_chemical_formula_structural   LaGaSi
_chemical_formula_sum   'La2 Ga2 Si2'
_cell_volume   134.61112052
_cell_formula_units_Z   2
loop_
 _symmetry_equiv_pos_site_id
 _symmetry_equiv_pos_as_xyz
  1  'x, y, z'
loop_
 _atom_site_type_symbol
 _atom_site_label
 _atom_site_symmetry_multiplicity
 _atom_site_fract_x
 _atom_site_fract_y
 _atom_site_fract_z
 _atom_site_occupancy
  La  La0  1  0.62465300  0.12465300  0.50000000  1
  La  La1  1  0.87465300  0.87465300  0.00000000  1
  Ga  Ga2  1  0.04171800  0.54171800  0.50000000  1
  Ga  Ga3  1  0.29171800  0.29171800  0.00000000  1
  Si  Si4  1  0.45862900  0.45862900  0.00000000  1
  Si  Si5  1  0.20862900  0.70862900  0.50000000  1
