# generated using pymatgen
data_KV2SbO8
_symmetry_space_group_name_H-M   'P 1'
_cell_length_a   5.64322800
_cell_length_b   8.65679100
_cell_length_c   14.89038200
_cell_angle_alpha   90.00000000
_cell_angle_beta   90.00000000
_cell_angle_gamma   90.00000000
_symmetry_Int_Tables_number   1
_chemical_formula_structural   KV2SbO8
_chemical_formula_sum   'K4 V8 Sb4 O32'
_cell_volume   727.42859499
_cell_formula_units_Z   4
loop_
 _symmetry_equiv_pos_site_id
 _symmetry_equiv_pos_as_xyz
  1  'x, y, z'
loop_
 _atom_site_type_symbol
 _atom_site_label
 _atom_site_symmetry_multiplicity
 _atom_site_fract_x
 _atom_site_fract_y
 _atom_site_fract_z
 _atom_site_occupancy
  K  K0  1  0.75000000  0.44981700  0.61891200  1
  K  K1  1  0.25000000  0.55018300  0.38108800  1
  K  K2  1  0.75000000  0.05018300  0.11891200  1
  K  K3  1  0.25000000  0.94981700  0.88108800  1
  V  V4  1  0.25000000  0.50854900  0.78404800  1
  V  V5  1  0.75000000  0.70708600  0.97265400  1
  V  V6  1  0.75000000  0.79291400  0.47265400  1
  V  V7  1  0.25000000  0.29291400  0.02734600  1
  V  V8  1  0.25000000  0.20708600  0.52734600  1
  V  V9  1  0.25000000  0.99145100  0.28404800  1
  V  V10  1  0.75000000  0.49145100  0.21595200  1
  V  V11  1  0.75000000  0.00854900  0.71595200  1
  Sb  Sb12  1  0.25000000  0.68681200  0.11774400  1
  Sb  Sb13  1  0.75000000  0.31318800  0.88225600  1
  Sb  Sb14  1  0.75000000  0.18681200  0.38225600  1
  Sb  Sb15  1  0.25000000  0.81318800  0.61774400  1
  O  O16  1  0.00314500  0.72474100  0.53595100  1
  O  O17  1  0.75000000  0.39170600  0.32125800  1
  O  O18  1  0.75000000  0.36492800  0.13504300  1
  O  O19  1  0.75000000  0.99266500  0.45457200  1
  O  O20  1  0.75000000  0.69777000  0.37778900  1
  O  O21  1  0.25000000  0.63507200  0.86495700  1
  O  O22  1  0.25000000  0.19777000  0.12221100  1
  O  O23  1  0.50314500  0.27525900  0.46404900  1
  O  O24  1  0.00958600  0.60873700  0.20498300  1
  O  O25  1  0.25000000  0.49266500  0.04542800  1
  O  O26  1  0.49685500  0.77525900  0.03595100  1
  O  O27  1  0.99685500  0.27525900  0.46404900  1
  O  O28  1  0.00314500  0.77525900  0.03595100  1
  O  O29  1  0.25000000  0.60829400  0.67874200  1
  O  O30  1  0.49041400  0.89126300  0.70498300  1
  O  O31  1  0.99041400  0.10873700  0.29501700  1
  O  O32  1  0.50958600  0.39126300  0.79501700  1
  O  O33  1  0.75000000  0.50733500  0.95457200  1
  O  O34  1  0.99041400  0.39126300  0.79501700  1
  O  O35  1  0.75000000  0.13507200  0.63504300  1
  O  O36  1  0.50958600  0.10873700  0.29501700  1
  O  O37  1  0.25000000  0.00733500  0.54542800  1
  O  O38  1  0.50314500  0.22474100  0.96404900  1
  O  O39  1  0.00958600  0.89126300  0.70498300  1
  O  O40  1  0.99685500  0.22474100  0.96404900  1
  O  O41  1  0.75000000  0.10829400  0.82125800  1
  O  O42  1  0.25000000  0.86492800  0.36495700  1
  O  O43  1  0.75000000  0.80223000  0.87778900  1
  O  O44  1  0.49041400  0.60873700  0.20498300  1
  O  O45  1  0.25000000  0.30223000  0.62221100  1
  O  O46  1  0.49685500  0.72474100  0.53595100  1
  O  O47  1  0.25000000  0.89170600  0.17874200  1
