# generated using pymatgen
data_Na5GeAs3
_symmetry_space_group_name_H-M   'P 1'
_cell_length_a   7.62077600
_cell_length_b   8.40329800
_cell_length_c   15.95650291
_cell_angle_alpha   58.24517762
_cell_angle_beta   90.00000000
_cell_angle_gamma   90.00000000
_symmetry_Int_Tables_number   1
_chemical_formula_structural   Na5GeAs3
_chemical_formula_sum   'Na20 Ge4 As12'
_cell_volume   868.88621619
_cell_formula_units_Z   4
loop_
 _symmetry_equiv_pos_site_id
 _symmetry_equiv_pos_as_xyz
  1  'x, y, z'
loop_
 _atom_site_type_symbol
 _atom_site_label
 _atom_site_symmetry_multiplicity
 _atom_site_fract_x
 _atom_site_fract_y
 _atom_site_fract_z
 _atom_site_occupancy
  Na  Na0  1  0.49423300  0.08210300  0.24263100  1
  Na  Na1  1  0.99423300  0.91789700  0.25736900  1
  Na  Na2  1  0.50576700  0.91789700  0.75736900  1
  Na  Na3  1  0.00576700  0.08210300  0.74263100  1
  Na  Na4  1  0.03689200  0.41552000  0.41411100  1
  Na  Na5  1  0.53689200  0.58448000  0.08588900  1
  Na  Na6  1  0.96310800  0.58448000  0.58588900  1
  Na  Na7  1  0.46310800  0.41552000  0.91411100  1
  Na  Na8  1  0.51994900  0.25934600  0.41389700  1
  Na  Na9  1  0.01994900  0.74065400  0.08610300  1
  Na  Na10  1  0.48005100  0.74065400  0.58610300  1
  Na  Na11  1  0.98005100  0.25934600  0.91389700  1
  Na  Na12  1  0.66243900  0.99530400  0.08126000  1
  Na  Na13  1  0.16243900  0.00469600  0.41874000  1
  Na  Na14  1  0.33756100  0.00469600  0.91874000  1
  Na  Na15  1  0.83756100  0.99530400  0.58126000  1
  Na  Na16  1  0.85436400  0.31478000  0.25757600  1
  Na  Na17  1  0.35436400  0.68522000  0.24242400  1
  Na  Na18  1  0.14563600  0.68522000  0.74242400  1
  Na  Na19  1  0.64563600  0.31478000  0.75757600  1
  Ge  Ge20  1  0.85678000  0.65757100  0.91223000  1
  Ge  Ge21  1  0.35678000  0.34242900  0.58777000  1
  Ge  Ge22  1  0.14322000  0.34242900  0.08777000  1
  Ge  Ge23  1  0.64322000  0.65757100  0.41223000  1
  As  As24  1  0.76522800  0.92739600  0.41770500  1
  As  As25  1  0.26522800  0.07260400  0.08229500  1
  As  As26  1  0.23477200  0.07260400  0.58229500  1
  As  As27  1  0.73477200  0.92739600  0.91770500  1
  As  As28  1  0.74025800  0.63899300  0.26963100  1
  As  As29  1  0.24025800  0.36100700  0.23036900  1
  As  As30  1  0.25974200  0.36100700  0.73036900  1
  As  As31  1  0.75974200  0.63899300  0.76963100  1
  As  As32  1  0.80934200  0.34084700  0.06696100  1
  As  As33  1  0.30934200  0.65915300  0.43303900  1
  As  As34  1  0.19065800  0.65915300  0.93303900  1
  As  As35  1  0.69065800  0.34084700  0.56696100  1
