# generated using pymatgen
data_Tm5Ge4
_symmetry_space_group_name_H-M   'P 1'
_cell_length_a   7.50055400
_cell_length_b   7.62611600
_cell_length_c   14.49340000
_cell_angle_alpha   90.00000000
_cell_angle_beta   90.00000000
_cell_angle_gamma   90.00000000
_symmetry_Int_Tables_number   1
_chemical_formula_structural   Tm5Ge4
_chemical_formula_sum   'Tm20 Ge16'
_cell_volume   829.02385496
_cell_formula_units_Z   4
loop_
 _symmetry_equiv_pos_site_id
 _symmetry_equiv_pos_as_xyz
  1  'x, y, z'
loop_
 _atom_site_type_symbol
 _atom_site_label
 _atom_site_symmetry_multiplicity
 _atom_site_fract_x
 _atom_site_fract_y
 _atom_site_fract_z
 _atom_site_occupancy
  Tm  Tm0  1  0.63163100  0.16143800  0.61973300  1
  Tm  Tm1  1  0.13163100  0.33856200  0.88026700  1
  Tm  Tm2  1  0.36836900  0.83856200  0.11973300  1
  Tm  Tm3  1  0.86836900  0.66143800  0.38026700  1
  Tm  Tm4  1  0.36836900  0.83856200  0.38026700  1
  Tm  Tm5  1  0.86836900  0.66143800  0.11973300  1
  Tm  Tm6  1  0.63163100  0.16143800  0.88026700  1
  Tm  Tm7  1  0.13163100  0.33856200  0.61973300  1
  Tm  Tm8  1  0.48261400  0.68246600  0.59639900  1
  Tm  Tm9  1  0.98261400  0.81753400  0.90360100  1
  Tm  Tm10  1  0.51738600  0.31753400  0.09639900  1
  Tm  Tm11  1  0.01738600  0.18246600  0.40360100  1
  Tm  Tm12  1  0.51738600  0.31753400  0.40360100  1
  Tm  Tm13  1  0.01738600  0.18246600  0.09639900  1
  Tm  Tm14  1  0.48261400  0.68246600  0.90360100  1
  Tm  Tm15  1  0.98261400  0.81753400  0.59639900  1
  Tm  Tm16  1  0.79478000  0.50068400  0.75000000  1
  Tm  Tm17  1  0.29478000  0.99931600  0.75000000  1
  Tm  Tm18  1  0.20522000  0.49931600  0.25000000  1
  Tm  Tm19  1  0.70522000  0.00068400  0.25000000  1
  Ge  Ge20  1  0.71194500  0.96422000  0.45656900  1
  Ge  Ge21  1  0.21194500  0.53578000  0.04343100  1
  Ge  Ge22  1  0.28805500  0.03578000  0.95656900  1
  Ge  Ge23  1  0.78805500  0.46422000  0.54343100  1
  Ge  Ge24  1  0.28805500  0.03578000  0.54343100  1
  Ge  Ge25  1  0.78805500  0.46422000  0.95656900  1
  Ge  Ge26  1  0.71194500  0.96422000  0.04343100  1
  Ge  Ge27  1  0.21194500  0.53578000  0.45656900  1
  Ge  Ge28  1  0.42832200  0.38227700  0.75000000  1
  Ge  Ge29  1  0.92832200  0.11772300  0.75000000  1
  Ge  Ge30  1  0.57167800  0.61772300  0.25000000  1
  Ge  Ge31  1  0.07167800  0.88227700  0.25000000  1
  Ge  Ge32  1  0.67408500  0.85910600  0.75000000  1
  Ge  Ge33  1  0.17408500  0.64089400  0.75000000  1
  Ge  Ge34  1  0.32591500  0.14089400  0.25000000  1
  Ge  Ge35  1  0.82591500  0.35910600  0.25000000  1
