# generated using pymatgen
data_Ho2Ge5Rh3
_symmetry_space_group_name_H-M   'P 1'
_cell_length_a   8.34830337
_cell_length_b   8.34830337
_cell_length_c   5.88265893
_cell_angle_alpha   71.36080199
_cell_angle_beta   71.36080199
_cell_angle_gamma   94.40596999
_symmetry_Int_Tables_number   1
_chemical_formula_structural   Ho2Ge5Rh3
_chemical_formula_sum   'Ho4 Ge10 Rh6'
_cell_volume   360.71994634
_cell_formula_units_Z   2
loop_
 _symmetry_equiv_pos_site_id
 _symmetry_equiv_pos_as_xyz
  1  'x, y, z'
loop_
 _atom_site_type_symbol
 _atom_site_label
 _atom_site_symmetry_multiplicity
 _atom_site_fract_x
 _atom_site_fract_y
 _atom_site_fract_z
 _atom_site_occupancy
  Ho  Ho0  1  0.09106900  0.37024000  0.76338100  1
  Ho  Ho1  1  0.62976000  0.90893100  0.73661900  1
  Ho  Ho2  1  0.90893100  0.62976000  0.23661900  1
  Ho  Ho3  1  0.37024000  0.09106900  0.26338100  1
  Ge  Ge4  1  0.98651700  0.01348300  0.75000000  1
  Ge  Ge5  1  0.01348300  0.98651700  0.25000000  1
  Ge  Ge6  1  0.29309800  0.70690200  0.75000000  1
  Ge  Ge7  1  0.70690200  0.29309800  0.25000000  1
  Ge  Ge8  1  0.72229800  0.27770200  0.75000000  1
  Ge  Ge9  1  0.27770200  0.72229800  0.25000000  1
  Ge  Ge10  1  0.76477700  0.57536800  0.83083800  1
  Ge  Ge11  1  0.57536800  0.76477700  0.33083800  1
  Ge  Ge12  1  0.23522300  0.42463200  0.16916200  1
  Ge  Ge13  1  0.42463200  0.23522300  0.66916200  1
  Rh  Rh14  1  0.76140100  0.04543600  0.12618600  1
  Rh  Rh15  1  0.50253800  0.49746200  0.25000000  1
  Rh  Rh16  1  0.04543600  0.76140100  0.62618600  1
  Rh  Rh17  1  0.23859900  0.95456400  0.87381400  1
  Rh  Rh18  1  0.95456400  0.23859900  0.37381400  1
  Rh  Rh19  1  0.49746200  0.50253800  0.75000000  1
