# generated using pymatgen
data_Rb2BiF5
_symmetry_space_group_name_H-M   'P 1'
_cell_length_a   6.53284400
_cell_length_b   8.41980900
_cell_length_c   12.65569300
_cell_angle_alpha   90.00000000
_cell_angle_beta   90.00000000
_cell_angle_gamma   90.00000000
_symmetry_Int_Tables_number   1
_chemical_formula_structural   Rb2BiF5
_chemical_formula_sum   'Rb8 Bi4 F20'
_cell_volume   696.13017381
_cell_formula_units_Z   4
loop_
 _symmetry_equiv_pos_site_id
 _symmetry_equiv_pos_as_xyz
  1  'x, y, z'
loop_
 _atom_site_type_symbol
 _atom_site_label
 _atom_site_symmetry_multiplicity
 _atom_site_fract_x
 _atom_site_fract_y
 _atom_site_fract_z
 _atom_site_occupancy
  Rb  Rb0  1  0.75000000  0.49292400  0.26759300  1
  Rb  Rb1  1  0.25000000  0.50707600  0.73240700  1
  Rb  Rb2  1  0.25000000  0.00707600  0.76759300  1
  Rb  Rb3  1  0.75000000  0.99292400  0.23240700  1
  Rb  Rb4  1  0.75000000  0.84823000  0.57902000  1
  Rb  Rb5  1  0.25000000  0.15177000  0.42098000  1
  Rb  Rb6  1  0.25000000  0.65177000  0.07902000  1
  Rb  Rb7  1  0.75000000  0.34823000  0.92098000  1
  Bi  Bi8  1  0.75000000  0.82529900  0.93288700  1
  Bi  Bi9  1  0.25000000  0.17470100  0.06711300  1
  Bi  Bi10  1  0.25000000  0.67470100  0.43288700  1
  Bi  Bi11  1  0.75000000  0.32529900  0.56711300  1
  F  F12  1  0.75000000  0.71294800  0.09793300  1
  F  F13  1  0.25000000  0.28705200  0.90206700  1
  F  F14  1  0.25000000  0.78705200  0.59793300  1
  F  F15  1  0.75000000  0.21294800  0.40206700  1
  F  F16  1  0.00690800  0.66542400  0.88466400  1
  F  F17  1  0.99309200  0.33457600  0.11533600  1
  F  F18  1  0.99309200  0.83457600  0.38466400  1
  F  F19  1  0.50690800  0.33457600  0.11533600  1
  F  F20  1  0.00690800  0.16542400  0.61533600  1
  F  F21  1  0.49309200  0.66542400  0.88466400  1
  F  F22  1  0.49309200  0.16542400  0.61533600  1
  F  F23  1  0.50690800  0.83457600  0.38466400  1
  F  F24  1  0.00000000  0.00000000  0.00000000  1
  F  F25  1  0.00000000  0.50000000  0.50000000  1
  F  F26  1  0.50000000  0.00000000  0.00000000  1
  F  F27  1  0.50000000  0.50000000  0.50000000  1
  F  F28  1  0.75000000  0.97682800  0.78649200  1
  F  F29  1  0.25000000  0.02317200  0.21350800  1
  F  F30  1  0.25000000  0.52317200  0.28649200  1
  F  F31  1  0.75000000  0.47682800  0.71350800  1
