# generated using pymatgen
data_Tm(GeRh2)2
_symmetry_space_group_name_H-M   'P 1'
_cell_length_a   4.21395000
_cell_length_b   9.18403100
_cell_length_c   11.44390600
_cell_angle_alpha   90.00000000
_cell_angle_beta   90.00000000
_cell_angle_gamma   90.00000000
_symmetry_Int_Tables_number   1
_chemical_formula_structural   Tm(GeRh2)2
_chemical_formula_sum   'Tm4 Ge8 Rh16'
_cell_volume   442.89114892
_cell_formula_units_Z   4
loop_
 _symmetry_equiv_pos_site_id
 _symmetry_equiv_pos_as_xyz
  1  'x, y, z'
loop_
 _atom_site_type_symbol
 _atom_site_label
 _atom_site_symmetry_multiplicity
 _atom_site_fract_x
 _atom_site_fract_y
 _atom_site_fract_z
 _atom_site_occupancy
  Tm  Tm0  1  0.25000000  0.14755800  0.82569800  1
  Tm  Tm1  1  0.25000000  0.35244200  0.32569800  1
  Tm  Tm2  1  0.75000000  0.85244200  0.17430200  1
  Tm  Tm3  1  0.75000000  0.64755800  0.67430200  1
  Ge  Ge4  1  0.25000000  0.41388500  0.63822600  1
  Ge  Ge5  1  0.25000000  0.08611500  0.13822600  1
  Ge  Ge6  1  0.75000000  0.58611500  0.36177400  1
  Ge  Ge7  1  0.75000000  0.91388500  0.86177400  1
  Ge  Ge8  1  0.25000000  0.61807500  0.05947400  1
  Ge  Ge9  1  0.25000000  0.88192500  0.55947400  1
  Ge  Ge10  1  0.75000000  0.38192500  0.94052600  1
  Ge  Ge11  1  0.75000000  0.11807500  0.44052600  1
  Rh  Rh12  1  0.25000000  0.61593100  0.49891500  1
  Rh  Rh13  1  0.25000000  0.88406900  0.99891500  1
  Rh  Rh14  1  0.75000000  0.38406900  0.50108500  1
  Rh  Rh15  1  0.75000000  0.11593100  0.00108500  1
  Rh  Rh16  1  0.25000000  0.69123200  0.26862400  1
  Rh  Rh17  1  0.25000000  0.80876800  0.76862400  1
  Rh  Rh18  1  0.75000000  0.30876800  0.73137600  1
  Rh  Rh19  1  0.75000000  0.19123200  0.23137600  1
  Rh  Rh20  1  0.25000000  0.17112700  0.56136600  1
  Rh  Rh21  1  0.25000000  0.32887300  0.06136600  1
  Rh  Rh22  1  0.75000000  0.82887300  0.43863400  1
  Rh  Rh23  1  0.75000000  0.67112700  0.93863400  1
  Rh  Rh24  1  0.25000000  0.00385400  0.34442100  1
  Rh  Rh25  1  0.25000000  0.49614600  0.84442100  1
  Rh  Rh26  1  0.75000000  0.99614600  0.65557900  1
  Rh  Rh27  1  0.75000000  0.50385400  0.15557900  1
