# generated using pymatgen
data_Nd5Sn15Rh8
_symmetry_space_group_name_H-M   'P 1'
_cell_length_a   4.53877700
_cell_length_b   7.31040600
_cell_length_c   18.75603763
_cell_angle_alpha   89.90527394
_cell_angle_beta   90.00000000
_cell_angle_gamma   90.00000000
_symmetry_Int_Tables_number   1
_chemical_formula_structural   Nd5Sn15Rh8
_chemical_formula_sum   'Nd5 Sn15 Rh8'
_cell_volume   622.33015398
_cell_formula_units_Z   1
loop_
 _symmetry_equiv_pos_site_id
 _symmetry_equiv_pos_as_xyz
  1  'x, y, z'
loop_
 _atom_site_type_symbol
 _atom_site_label
 _atom_site_symmetry_multiplicity
 _atom_site_fract_x
 _atom_site_fract_y
 _atom_site_fract_z
 _atom_site_occupancy
  Nd  Nd0  1  0.50000000  0.00224300  0.85591900  1
  Nd  Nd1  1  0.50000000  0.50046800  0.35732400  1
  Nd  Nd2  1  0.00000000  0.00114600  0.14357700  1
  Nd  Nd3  1  0.00000000  0.50007100  0.64176300  1
  Nd  Nd4  1  0.50000000  0.49576200  0.93058800  1
  Sn  Sn5  1  0.00000000  0.71826100  0.80702400  1
  Sn  Sn6  1  0.00000000  0.77858500  0.30497800  1
  Sn  Sn7  1  0.50000000  0.27720800  0.19406200  1
  Sn  Sn8  1  0.50000000  0.21869100  0.69407700  1
  Sn  Sn9  1  0.00000000  0.85453800  0.96921100  1
  Sn  Sn10  1  0.00000000  0.63261700  0.46844300  1
  Sn  Sn11  1  0.50000000  0.13402200  0.03215900  1
  Sn  Sn12  1  0.50000000  0.36633700  0.53057300  1
  Sn  Sn13  1  0.00000000  0.30405000  0.81970400  1
  Sn  Sn14  1  0.00000000  0.19839200  0.31759000  1
  Sn  Sn15  1  0.50000000  0.69659200  0.18449900  1
  Sn  Sn16  1  0.50000000  0.80655900  0.67949300  1
  Sn  Sn17  1  0.50000000  0.01793300  0.43268200  1
  Sn  Sn18  1  0.00000000  0.51152700  0.06736800  1
  Sn  Sn19  1  0.00000000  0.98268500  0.56849000  1
  Rh  Rh20  1  0.00000000  0.23041700  0.96597500  1
  Rh  Rh21  1  0.00000000  0.24712500  0.46426600  1
  Rh  Rh22  1  0.50000000  0.76536100  0.04414700  1
  Rh  Rh23  1  0.50000000  0.75173600  0.53372100  1
  Rh  Rh24  1  0.00000000  0.01849300  0.71603500  1
  Rh  Rh25  1  0.00000000  0.48226800  0.21318500  1
  Rh  Rh26  1  0.50000000  0.98518300  0.28855000  1
  Rh  Rh27  1  0.50000000  0.52172800  0.77459900  1
