# generated using pymatgen
data_BaLaGa3O7
_symmetry_space_group_name_H-M   'P 1'
_cell_length_a   5.47452600
_cell_length_b   8.25290475
_cell_length_c   8.25290475
_cell_angle_alpha   88.68578398
_cell_angle_beta   90.00000000
_cell_angle_gamma   90.00000000
_symmetry_Int_Tables_number   1
_chemical_formula_structural   BaLaGa3O7
_chemical_formula_sum   'Ba2 La2 Ga6 O14'
_cell_volume   372.77427298
_cell_formula_units_Z   2
loop_
 _symmetry_equiv_pos_site_id
 _symmetry_equiv_pos_as_xyz
  1  'x, y, z'
loop_
 _atom_site_type_symbol
 _atom_site_label
 _atom_site_symmetry_multiplicity
 _atom_site_fract_x
 _atom_site_fract_y
 _atom_site_fract_z
 _atom_site_occupancy
  Ba  Ba0  1  0.50524600  0.33592200  0.83592200  1
  Ba  Ba1  1  0.50524600  0.66407800  0.16407800  1
  La  La2  1  0.48696100  0.16190100  0.33809900  1
  La  La3  1  0.48696100  0.83809900  0.66190100  1
  Ga  Ga4  1  0.00696800  0.50000000  0.50000000  1
  Ga  Ga5  1  0.00696800  0.00000000  0.00000000  1
  Ga  Ga6  1  0.96828100  0.86228700  0.36228700  1
  Ga  Ga7  1  0.02977500  0.64852700  0.85147300  1
  Ga  Ga8  1  0.96828100  0.13771300  0.63771300  1
  Ga  Ga9  1  0.02977500  0.35147300  0.14852700  1
  O  O10  1  0.30129500  0.12306000  0.62306000  1
  O  O11  1  0.69867200  0.34101200  0.15898800  1
  O  O12  1  0.30129500  0.87694000  0.37694000  1
  O  O13  1  0.69867200  0.65898800  0.84101200  1
  O  O14  1  0.20330400  0.40517400  0.34009000  1
  O  O15  1  0.81068600  0.07588800  0.83115900  1
  O  O16  1  0.20330400  0.59482600  0.65991000  1
  O  O17  1  0.81068600  0.92411200  0.16884100  1
  O  O18  1  0.81068600  0.66884100  0.42411200  1
  O  O19  1  0.20330400  0.84009000  0.90517400  1
  O  O20  1  0.81068600  0.33115900  0.57588800  1
  O  O21  1  0.20330400  0.15991000  0.09482600  1
  O  O22  1  0.15554200  0.50000000  0.00000000  1
  O  O23  1  0.79410300  0.00000000  0.50000000  1
