# generated using pymatgen
data_BaInCuF7
_symmetry_space_group_name_H-M   'P 1'
_cell_length_a   6.84671521
_cell_length_b   6.84671521
_cell_length_c   7.88700484
_cell_angle_alpha   66.10503431
_cell_angle_beta   66.10503431
_cell_angle_gamma   90.26306080
_symmetry_Int_Tables_number   1
_chemical_formula_structural   BaInCuF7
_chemical_formula_sum   'Ba2 In2 Cu2 F14'
_cell_volume   302.70438761
_cell_formula_units_Z   2
loop_
 _symmetry_equiv_pos_site_id
 _symmetry_equiv_pos_as_xyz
  1  'x, y, z'
loop_
 _atom_site_type_symbol
 _atom_site_label
 _atom_site_symmetry_multiplicity
 _atom_site_fract_x
 _atom_site_fract_y
 _atom_site_fract_z
 _atom_site_occupancy
  Ba  Ba0  1  0.38428500  0.61571500  0.25000000  1
  Ba  Ba1  1  0.61571500  0.38428500  0.75000000  1
  In  In2  1  0.00000000  0.00000000  0.50000000  1
  In  In3  1  0.00000000  0.00000000  0.00000000  1
  Cu  Cu4  1  0.00000000  0.50000000  0.00000000  1
  Cu  Cu5  1  0.50000000  0.00000000  0.50000000  1
  F  F6  1  0.08745100  0.34522900  0.82522500  1
  F  F7  1  0.34522900  0.08745100  0.32522500  1
  F  F8  1  0.91254900  0.65477100  0.17477500  1
  F  F9  1  0.65477100  0.91254900  0.67477500  1
  F  F10  1  0.09614100  0.90385900  0.75000000  1
  F  F11  1  0.90385900  0.09614100  0.25000000  1
  F  F12  1  0.72722800  0.50292700  0.99419800  1
  F  F13  1  0.27277200  0.49707300  0.00580200  1
  F  F14  1  0.50292700  0.72722800  0.49419800  1
  F  F15  1  0.00413700  0.70343600  0.49661600  1
  F  F16  1  0.70343600  0.00413700  0.99661600  1
  F  F17  1  0.29656400  0.99586300  0.00338400  1
  F  F18  1  0.49707300  0.27277200  0.50580200  1
  F  F19  1  0.99586300  0.29656400  0.50338400  1
