# generated using pymatgen
data_Er6CoBr10
_symmetry_space_group_name_H-M   'P 1'
_cell_length_a   7.28478700
_cell_length_b   9.01683124
_cell_length_c   9.10465240
_cell_angle_alpha   108.26958823
_cell_angle_beta   97.12188250
_cell_angle_gamma   105.30304516
_symmetry_Int_Tables_number   1
_chemical_formula_structural   Er6CoBr10
_chemical_formula_sum   'Er6 Co1 Br10'
_cell_volume   533.63019526
_cell_formula_units_Z   1
loop_
 _symmetry_equiv_pos_site_id
 _symmetry_equiv_pos_as_xyz
  1  'x, y, z'
loop_
 _atom_site_type_symbol
 _atom_site_label
 _atom_site_symmetry_multiplicity
 _atom_site_fract_x
 _atom_site_fract_y
 _atom_site_fract_z
 _atom_site_occupancy
  Er  Er0  1  0.64383200  0.86629700  0.32476700  1
  Er  Er1  1  0.35616800  0.13370300  0.67523300  1
  Er  Er2  1  0.97338200  0.28886400  0.58969000  1
  Er  Er3  1  0.02661800  0.71113600  0.41031000  1
  Er  Er4  1  0.88130300  0.95708500  0.74263000  1
  Er  Er5  1  0.11869700  0.04291500  0.25737000  1
  Co  Co6  1  0.00000000  0.00000000  0.50000000  1
  Br  Br7  1  0.54826900  0.17949800  0.41264500  1
  Br  Br8  1  0.45173100  0.82050200  0.58735500  1
  Br  Br9  1  0.21222000  0.73987800  0.15149300  1
  Br  Br10  1  0.78778000  0.26012200  0.84850700  1
  Br  Br11  1  0.91352400  0.62796400  0.67386300  1
  Br  Br12  1  0.08647600  0.37203600  0.32613700  1
  Br  Br13  1  0.74474200  0.91336000  0.03832800  1
  Br  Br14  1  0.25525800  0.08664000  0.96167200  1
  Br  Br15  1  0.64462400  0.54263500  0.22566400  1
  Br  Br16  1  0.35537600  0.45736500  0.77433600  1
