# generated using pymatgen
data_Ba3Tb(BO2)9
_symmetry_space_group_name_H-M   'P 1'
_cell_length_a   7.27921156
_cell_length_b   7.27921156
_cell_length_c   17.55495300
_cell_angle_alpha   90.00000000
_cell_angle_beta   90.00000000
_cell_angle_gamma   119.99999597
_symmetry_Int_Tables_number   1
_chemical_formula_structural   Ba3Tb(BO2)9
_chemical_formula_sum   'Ba6 Tb2 B18 O36'
_cell_volume   805.56205933
_cell_formula_units_Z   2
loop_
 _symmetry_equiv_pos_site_id
 _symmetry_equiv_pos_as_xyz
  1  'x, y, z'
loop_
 _atom_site_type_symbol
 _atom_site_label
 _atom_site_symmetry_multiplicity
 _atom_site_fract_x
 _atom_site_fract_y
 _atom_site_fract_z
 _atom_site_occupancy
  Ba  Ba0  1  0.66666700  0.33333300  0.86748500  1
  Ba  Ba1  1  0.33333300  0.66666700  0.13251500  1
  Ba  Ba2  1  0.33333300  0.66666700  0.36748500  1
  Ba  Ba3  1  0.66666700  0.33333300  0.63251500  1
  Ba  Ba4  1  0.00000000  0.00000000  0.75000000  1
  Ba  Ba5  1  0.00000000  0.00000000  0.25000000  1
  Tb  Tb6  1  0.00000000  0.00000000  0.00000000  1
  Tb  Tb7  1  0.00000000  0.00000000  0.50000000  1
  B  B8  1  0.54990700  0.83494500  0.91816400  1
  B  B9  1  0.45009300  0.16505500  0.08183600  1
  B  B10  1  0.28503800  0.45009300  0.91816400  1
  B  B11  1  0.45009300  0.16505500  0.41816400  1
  B  B12  1  0.71496200  0.54990700  0.08183600  1
  B  B13  1  0.54990700  0.83494500  0.58183600  1
  B  B14  1  0.16505500  0.71496200  0.91816400  1
  B  B15  1  0.71496200  0.54990700  0.41816400  1
  B  B16  1  0.83494500  0.28503800  0.08183600  1
  B  B17  1  0.28503800  0.45009300  0.58183600  1
  B  B18  1  0.83494500  0.28503800  0.41816400  1
  B  B19  1  0.16505500  0.71496200  0.58183600  1
  B  B20  1  0.50481300  0.62215100  0.75000000  1
  B  B21  1  0.49518700  0.37784900  0.25000000  1
  B  B22  1  0.11733700  0.49518700  0.75000000  1
  B  B23  1  0.88266300  0.50481300  0.25000000  1
  B  B24  1  0.37784900  0.88266300  0.75000000  1
  B  B25  1  0.62215100  0.11733700  0.25000000  1
  O  O26  1  0.54193700  0.83297300  0.75000000  1
  O  O27  1  0.45806300  0.16702700  0.25000000  1
  O  O28  1  0.29103600  0.45806300  0.75000000  1
  O  O29  1  0.70896400  0.54193700  0.25000000  1
  O  O30  1  0.16702700  0.70896400  0.75000000  1
  O  O31  1  0.83297300  0.29103600  0.25000000  1
  O  O32  1  0.92012400  0.33297500  0.75000000  1
  O  O33  1  0.07987600  0.66702500  0.25000000  1
  O  O34  1  0.41285100  0.07987600  0.75000000  1
  O  O35  1  0.58714900  0.92012400  0.25000000  1
  O  O36  1  0.66702500  0.58714900  0.75000000  1
  O  O37  1  0.33297500  0.41285100  0.25000000  1
  O  O38  1  0.74918600  0.99519600  0.91882300  1
  O  O39  1  0.25081400  0.00480400  0.08117700  1
  O  O40  1  0.24601000  0.25081400  0.91882300  1
  O  O41  1  0.25081400  0.00480400  0.41882300  1
  O  O42  1  0.75399000  0.74918600  0.08117700  1
  O  O43  1  0.74918600  0.99519600  0.58117700  1
  O  O44  1  0.00480400  0.75399000  0.91882300  1
  O  O45  1  0.75399000  0.74918600  0.41882300  1
  O  O46  1  0.99519600  0.24601000  0.08117700  1
  O  O47  1  0.24601000  0.25081400  0.58117700  1
  O  O48  1  0.99519600  0.24601000  0.41882300  1
  O  O49  1  0.00480400  0.75399000  0.58117700  1
  O  O50  1  0.49681300  0.62009300  0.91804600  1
  O  O51  1  0.50318700  0.37990700  0.08195400  1
  O  O52  1  0.12328000  0.50318700  0.91804600  1
  O  O53  1  0.50318700  0.37990700  0.41804600  1
  O  O54  1  0.87672000  0.49681300  0.08195400  1
  O  O55  1  0.49681300  0.62009300  0.58195400  1
  O  O56  1  0.37990700  0.87672000  0.91804600  1
  O  O57  1  0.87672000  0.49681300  0.41804600  1
  O  O58  1  0.62009300  0.12328000  0.08195400  1
  O  O59  1  0.12328000  0.50318700  0.58195400  1
  O  O60  1  0.62009300  0.12328000  0.41804600  1
  O  O61  1  0.37990700  0.87672000  0.58195400  1
