# generated using pymatgen
data_K9Ni2O7
_symmetry_space_group_name_H-M   'P 1'
_cell_length_a   11.02154605
_cell_length_b   11.02154605
_cell_length_c   11.02154605
_cell_angle_alpha   90.00000000
_cell_angle_beta   90.00000000
_cell_angle_gamma   90.00000000
_symmetry_Int_Tables_number   1
_chemical_formula_structural   K9Ni2O7
_chemical_formula_sum   'K36 Ni8 O28'
_cell_volume   1338.83654582
_cell_formula_units_Z   4
loop_
 _symmetry_equiv_pos_site_id
 _symmetry_equiv_pos_as_xyz
  1  'x, y, z'
loop_
 _atom_site_type_symbol
 _atom_site_label
 _atom_site_symmetry_multiplicity
 _atom_site_fract_x
 _atom_site_fract_y
 _atom_site_fract_z
 _atom_site_occupancy
  O  O0  1  0.19820918  0.30179075  0.69820911  1
  O  O1  1  0.30179075  0.69820911  0.19820918  1
  O  O2  1  0.69820911  0.19820918  0.30179075  1
  O  O3  1  0.80179068  0.80179068  0.80179068  1
  O  O4  1  0.91975308  0.55720990  0.18256708  1
  O  O5  1  0.41975315  0.94278988  0.81743278  1
  O  O6  1  0.08024678  0.05720997  0.31743285  1
  O  O7  1  0.94278988  0.81743278  0.41975315  1
  O  O8  1  0.31743285  0.08024678  0.05720997  1
  O  O9  1  0.81743278  0.41975315  0.94278988  1
  O  O10  1  0.55720990  0.18256708  0.91975308  1
  O  O11  1  0.18256708  0.91975308  0.55720990  1
  O  O12  1  0.05720997  0.31743285  0.08024678  1
  O  O13  1  0.44278996  0.68256700  0.58024671  1
  O  O14  1  0.68256700  0.58024671  0.44278996  1
  O  O15  1  0.58024671  0.44278996  0.68256700  1
  O  O16  1  0.56491143  0.65824505  0.09158765  1
  O  O17  1  0.06491150  0.84175564  0.90841311  1
  O  O18  1  0.43508843  0.15824422  0.40841319  1
  O  O19  1  0.84175564  0.90841311  0.06491150  1
  O  O20  1  0.40841319  0.43508843  0.15824422  1
  O  O21  1  0.90841311  0.06491150  0.84175564  1
  O  O22  1  0.65824505  0.09158765  0.56491143  1
  O  O23  1  0.09158765  0.56491143  0.65824505  1
  O  O24  1  0.15824422  0.40841319  0.43508843  1
  O  O25  1  0.34175571  0.59158758  0.93508836  1
  O  O26  1  0.59158758  0.93508836  0.34175571  1
  O  O27  1  0.93508836  0.34175571  0.59158758  1
  K  K28  1  0.00364629  0.28965763  0.83794308  1
  K  K29  1  0.46112413  0.21751167  0.66601178  1
  K  K30  1  0.78248819  0.16601186  0.03887580  1
  K  K31  1  0.28248826  0.33398807  0.96112406  1
  K  K32  1  0.03887580  0.78248819  0.16601186  1
  K  K33  1  0.33398807  0.96112406  0.28248826  1
  K  K34  1  0.16601186  0.03887580  0.78248819  1
  K  K35  1  0.66601178  0.46112413  0.21751167  1
  K  K36  1  0.40226610  0.40226610  0.40226610  1
  K  K37  1  0.09773383  0.59773375  0.90226603  1
  K  K38  1  0.90226603  0.09773383  0.59773375  1
  K  K39  1  0.59773375  0.90226603  0.09773383  1
  K  K40  1  0.06609824  0.06609824  0.06609824  1
  K  K41  1  0.43390169  0.93390162  0.56609817  1
  K  K42  1  0.56609817  0.43390169  0.93390162  1
  K  K43  1  0.93390162  0.56609817  0.43390169  1
  K  K44  1  0.96112406  0.28248826  0.33398807  1
  K  K45  1  0.53887573  0.71751160  0.83398800  1
  K  K46  1  0.71751160  0.83398800  0.53887573  1
  K  K47  1  0.83398800  0.53887573  0.71751160  1
  K  K48  1  0.78965756  0.66205762  0.99635357  1
  K  K49  1  0.28965763  0.83794308  0.00364629  1
  K  K50  1  0.22861901  0.22861901  0.22861901  1
  K  K51  1  0.83794308  0.00364629  0.28965763  1
  K  K52  1  0.50364622  0.21034230  0.16205678  1
  K  K53  1  0.21751167  0.66601178  0.46112413  1
  K  K54  1  0.66205762  0.99635357  0.78965756  1
  K  K55  1  0.99635357  0.78965756  0.66205762  1
  K  K56  1  0.16205678  0.50364622  0.21034230  1
  K  K57  1  0.33794315  0.49635364  0.71034223  1
  K  K58  1  0.49635364  0.71034223  0.33794315  1
  K  K59  1  0.71034223  0.33794315  0.49635364  1
  K  K60  1  0.77138085  0.72861893  0.27138092  1
  K  K61  1  0.72861893  0.27138092  0.77138085  1
  K  K62  1  0.27138092  0.77138085  0.72861893  1
  K  K63  1  0.21034230  0.16205678  0.50364622  1
  Ni  Ni64  1  0.42490480  0.07509513  0.92490473  1
  Ni  Ni65  1  0.07509513  0.92490473  0.42490480  1
  Ni  Ni66  1  0.92490473  0.42490480  0.07509513  1
  Ni  Ni67  1  0.57509505  0.57509505  0.57509505  1
  Ni  Ni68  1  0.09704194  0.40295799  0.59704187  1
  Ni  Ni69  1  0.40295799  0.59704187  0.09704194  1
  Ni  Ni70  1  0.59704187  0.09704194  0.40295799  1
  Ni  Ni71  1  0.90295883  0.90295883  0.90295883  1
