# generated using pymatgen
data_KHo2CuSe4
_symmetry_space_group_name_H-M   'P 1'
_cell_length_a   7.30742653
_cell_length_b   7.30742653
_cell_length_c   14.33595800
_cell_angle_alpha   90.00000000
_cell_angle_beta   90.00000000
_cell_angle_gamma   147.41253703
_symmetry_Int_Tables_number   1
_chemical_formula_structural   KHo2CuSe4
_chemical_formula_sum   'K2 Ho4 Cu2 Se8'
_cell_volume   412.29782587
_cell_formula_units_Z   2
loop_
 _symmetry_equiv_pos_site_id
 _symmetry_equiv_pos_as_xyz
  1  'x, y, z'
loop_
 _atom_site_type_symbol
 _atom_site_label
 _atom_site_symmetry_multiplicity
 _atom_site_fract_x
 _atom_site_fract_y
 _atom_site_fract_z
 _atom_site_occupancy
  K  K0  1  0.11262000  0.88738000  0.25000000  1
  K  K1  1  0.88738000  0.11262000  0.75000000  1
  Ho  Ho2  1  0.36579200  0.63420800  0.43494600  1
  Ho  Ho3  1  0.63420800  0.36579200  0.56505400  1
  Ho  Ho4  1  0.63420800  0.36579200  0.93494600  1
  Ho  Ho5  1  0.36579200  0.63420800  0.06505400  1
  Cu  Cu6  1  0.83976000  0.16024000  0.25000000  1
  Cu  Cu7  1  0.16024000  0.83976000  0.75000000  1
  Se  Se8  1  0.56388400  0.43611600  0.75000000  1
  Se  Se9  1  0.43611600  0.56388400  0.25000000  1
  Se  Se10  1  0.26489700  0.73510300  0.88883000  1
  Se  Se11  1  0.73510300  0.26489700  0.11117000  1
  Se  Se12  1  0.73510300  0.26489700  0.38883000  1
  Se  Se13  1  0.26489700  0.73510300  0.61117000  1
  Se  Se14  1  0.00000000  0.00000000  0.00000000  1
  Se  Se15  1  0.00000000  0.00000000  0.50000000  1
