# generated using pymatgen
data_HoIn2Pd
_symmetry_space_group_name_H-M   'P 1'
_cell_length_a   10.82705574
_cell_length_b   10.82705574
_cell_length_c   10.82705574
_cell_angle_alpha   100.32402398
_cell_angle_beta   100.32402398
_cell_angle_gamma   129.90902916
_symmetry_Int_Tables_number   1
_chemical_formula_structural   HoIn2Pd
_chemical_formula_sum   'Ho10 In20 Pd10'
_cell_volume   882.01815567
_cell_formula_units_Z   10
loop_
 _symmetry_equiv_pos_site_id
 _symmetry_equiv_pos_as_xyz
  1  'x, y, z'
loop_
 _atom_site_type_symbol
 _atom_site_label
 _atom_site_symmetry_multiplicity
 _atom_site_fract_x
 _atom_site_fract_y
 _atom_site_fract_z
 _atom_site_occupancy
  Ho  Ho0  1  0.33025700  0.61153700  0.71872000  1
  Ho  Ho1  1  0.89281700  0.61153700  0.28128000  1
  Ho  Ho2  1  0.61153700  0.89281700  0.28128000  1
  Ho  Ho3  1  0.61153700  0.33025700  0.71872000  1
  Ho  Ho4  1  0.32438200  0.92126500  0.00000000  1
  Ho  Ho5  1  0.92126500  0.32438200  0.00000000  1
  Ho  Ho6  1  0.92126500  0.92126500  0.59688400  1
  Ho  Ho7  1  0.32438200  0.32438200  0.40311600  1
  Ho  Ho8  1  0.54233300  0.54233300  0.00000000  1
  Ho  Ho9  1  0.00468200  0.00468200  0.00000000  1
  In  In10  1  0.73175500  0.22497600  0.20886700  1
  In  In11  1  0.01610900  0.52288800  0.79113300  1
  In  In12  1  0.22497600  0.01610900  0.49322100  1
  In  In13  1  0.73175500  0.52288800  0.50677900  1
  In  In14  1  0.52288800  0.73175500  0.50677900  1
  In  In15  1  0.01610900  0.22497600  0.49322100  1
  In  In16  1  0.22497600  0.73175500  0.20886700  1
  In  In17  1  0.52288800  0.01610900  0.79113300  1
  In  In18  1  0.75275200  0.13513500  0.61761700  1
  In  In19  1  0.51751800  0.13513500  0.38238300  1
  In  In20  1  0.13513500  0.51751800  0.38238300  1
  In  In21  1  0.13513500  0.75275200  0.61761700  1
  In  In22  1  0.64167000  0.90700100  0.00000000  1
  In  In23  1  0.90700100  0.64167000  0.00000000  1
  In  In24  1  0.90700100  0.90700100  0.26533100  1
  In  In25  1  0.64167000  0.64167000  0.73466900  1
  In  In26  1  0.11930300  0.28071500  0.83858800  1
  In  In27  1  0.44212600  0.28071500  0.16141200  1
  In  In28  1  0.28071500  0.44212600  0.16141200  1
  In  In29  1  0.28071500  0.11930300  0.83858800  1
  Pd  Pd30  1  0.88559800  0.38559800  0.50000000  1
  Pd  Pd31  1  0.38559800  0.88559800  0.50000000  1
  Pd  Pd32  1  0.62718500  0.30532000  0.00000000  1
  Pd  Pd33  1  0.30532000  0.62718500  0.00000000  1
  Pd  Pd34  1  0.30532000  0.30532000  0.67813500  1
  Pd  Pd35  1  0.62718500  0.62718500  0.32186500  1
  Pd  Pd36  1  0.76049900  0.97351100  0.78698900  1
  Pd  Pd37  1  0.18652200  0.97351100  0.21301100  1
  Pd  Pd38  1  0.97351100  0.18652200  0.21301100  1
  Pd  Pd39  1  0.97351100  0.76049900  0.78698900  1
