# generated using pymatgen
data_TlCl3
_symmetry_space_group_name_H-M   'P 1'
_cell_length_a   6.76139545
_cell_length_b   6.76139545
_cell_length_c   6.91011999
_cell_angle_alpha   80.77530278
_cell_angle_beta   80.77530278
_cell_angle_gamma   119.95069227
_symmetry_Int_Tables_number   1
_chemical_formula_structural   TlCl3
_chemical_formula_sum   'Tl2 Cl6'
_cell_volume   259.29123866
_cell_formula_units_Z   2
loop_
 _symmetry_equiv_pos_site_id
 _symmetry_equiv_pos_as_xyz
  1  'x, y, z'
loop_
 _atom_site_type_symbol
 _atom_site_label
 _atom_site_symmetry_multiplicity
 _atom_site_fract_x
 _atom_site_fract_y
 _atom_site_fract_z
 _atom_site_occupancy
  Tl  Tl0  1  0.83354300  0.16645700  0.00000000  1
  Tl  Tl1  1  0.16645700  0.83354300  0.00000000  1
  Cl  Cl2  1  0.42485600  0.06727200  0.22979200  1
  Cl  Cl3  1  0.57514400  0.93272800  0.77020800  1
  Cl  Cl4  1  0.93272800  0.57514400  0.77020800  1
  Cl  Cl5  1  0.06727200  0.42485600  0.22979200  1
  Cl  Cl6  1  0.78319900  0.78319900  0.23209500  1
  Cl  Cl7  1  0.21680100  0.21680100  0.76790500  1
