# generated using pymatgen
data_Cu(RhSe2)2
_symmetry_space_group_name_H-M   'P 1'
_cell_length_a   7.35554818
_cell_length_b   7.35554818
_cell_length_c   7.35554818
_cell_angle_alpha   60.00000000
_cell_angle_beta   60.00000000
_cell_angle_gamma   60.00000000
_symmetry_Int_Tables_number   1
_chemical_formula_structural   Cu(RhSe2)2
_chemical_formula_sum   'Cu2 Rh4 Se8'
_cell_volume   281.40391576
_cell_formula_units_Z   2
loop_
 _symmetry_equiv_pos_site_id
 _symmetry_equiv_pos_as_xyz
  1  'x, y, z'
loop_
 _atom_site_type_symbol
 _atom_site_label
 _atom_site_symmetry_multiplicity
 _atom_site_fract_x
 _atom_site_fract_y
 _atom_site_fract_z
 _atom_site_occupancy
  Cu  Cu0  1  0.50000000  0.50000000  0.50000000  1
  Cu  Cu1  1  0.75000000  0.75000000  0.75000000  1
  Rh  Rh2  1  0.12500000  0.12500000  0.12500000  1
  Rh  Rh3  1  0.12500000  0.12500000  0.62500000  1
  Rh  Rh4  1  0.12500000  0.62500000  0.12500000  1
  Rh  Rh5  1  0.62500000  0.12500000  0.12500000  1
  Se  Se6  1  0.34651300  0.88449600  0.88449600  1
  Se  Se7  1  0.36550400  0.36550400  0.36550400  1
  Se  Se8  1  0.90348700  0.36550400  0.36550400  1
  Se  Se9  1  0.88449600  0.88449600  0.34651300  1
  Se  Se10  1  0.88449600  0.88449600  0.88449600  1
  Se  Se11  1  0.36550400  0.90348700  0.36550400  1
  Se  Se12  1  0.36550400  0.36550400  0.90348700  1
  Se  Se13  1  0.88449600  0.34651300  0.88449600  1
