# generated using pymatgen
data_SmBN2
_symmetry_space_group_name_H-M   'P 1'
_cell_length_a   7.32179775
_cell_length_b   7.32179775
_cell_length_c   7.32179820
_cell_angle_alpha   110.67906573
_cell_angle_beta   110.67906573
_cell_angle_gamma   110.67906883
_symmetry_Int_Tables_number   1
_chemical_formula_structural   SmBN2
_chemical_formula_sum   'Sm6 B6 N12'
_cell_volume   287.85299076
_cell_formula_units_Z   6
loop_
 _symmetry_equiv_pos_site_id
 _symmetry_equiv_pos_as_xyz
  1  'x, y, z'
loop_
 _atom_site_type_symbol
 _atom_site_label
 _atom_site_symmetry_multiplicity
 _atom_site_fract_x
 _atom_site_fract_y
 _atom_site_fract_z
 _atom_site_occupancy
  Sm  Sm0  1  0.20420900  0.75000000  0.29579100  1
  Sm  Sm1  1  0.29579100  0.20420900  0.75000000  1
  Sm  Sm2  1  0.75000000  0.29579100  0.20420900  1
  Sm  Sm3  1  0.79579100  0.25000000  0.70420900  1
  Sm  Sm4  1  0.70420900  0.79579100  0.25000000  1
  Sm  Sm5  1  0.25000000  0.70420900  0.79579100  1
  B  B6  1  0.37047300  0.12952700  0.25000000  1
  B  B7  1  0.25000000  0.37047300  0.12952700  1
  B  B8  1  0.12952700  0.25000000  0.37047300  1
  B  B9  1  0.75000000  0.62952700  0.87047300  1
  B  B10  1  0.87047300  0.75000000  0.62952700  1
  B  B11  1  0.62952700  0.87047300  0.75000000  1
  N  N12  1  0.25000000  0.12639200  0.37360800  1
  N  N13  1  0.37360800  0.25000000  0.12639200  1
  N  N14  1  0.12639200  0.37360800  0.25000000  1
  N  N15  1  0.87360800  0.62639200  0.75000000  1
  N  N16  1  0.75000000  0.87360800  0.62639200  1
  N  N17  1  0.62639200  0.75000000  0.87360800  1
  N  N18  1  0.25000000  0.49314000  0.00686000  1
  N  N19  1  0.00686000  0.25000000  0.49314000  1
  N  N20  1  0.49314000  0.00686000  0.25000000  1
  N  N21  1  0.50686000  0.99314000  0.75000000  1
  N  N22  1  0.75000000  0.50686000  0.99314000  1
  N  N23  1  0.99314000  0.75000000  0.50686000  1
