# generated using pymatgen
data_PrV2IO9
_symmetry_space_group_name_H-M   'P 1'
_cell_length_a   7.13385200
_cell_length_b   7.33233200
_cell_length_c   14.75730800
_cell_angle_alpha   90.00000000
_cell_angle_beta   90.00000000
_cell_angle_gamma   90.00000000
_symmetry_Int_Tables_number   1
_chemical_formula_structural   PrV2IO9
_chemical_formula_sum   'Pr4 V8 I4 O36'
_cell_volume   771.92189191
_cell_formula_units_Z   4
loop_
 _symmetry_equiv_pos_site_id
 _symmetry_equiv_pos_as_xyz
  1  'x, y, z'
loop_
 _atom_site_type_symbol
 _atom_site_label
 _atom_site_symmetry_multiplicity
 _atom_site_fract_x
 _atom_site_fract_y
 _atom_site_fract_z
 _atom_site_occupancy
  Pr  Pr0  1  0.85024500  0.25000000  0.95141200  1
  Pr  Pr1  1  0.14975500  0.75000000  0.04858800  1
  Pr  Pr2  1  0.85024500  0.75000000  0.54858800  1
  Pr  Pr3  1  0.14975500  0.25000000  0.45141200  1
  V  V4  1  0.46490000  0.00000000  0.25000000  1
  V  V5  1  0.53510000  0.50000000  0.75000000  1
  V  V6  1  0.53510000  0.00000000  0.75000000  1
  V  V7  1  0.46490000  0.50000000  0.25000000  1
  V  V8  1  0.81813800  0.25000000  0.22866500  1
  V  V9  1  0.18186200  0.75000000  0.77133500  1
  V  V10  1  0.81813800  0.75000000  0.27133500  1
  V  V11  1  0.18186200  0.25000000  0.72866500  1
  I  I12  1  0.29797000  0.25000000  0.05608000  1
  I  I13  1  0.70203000  0.75000000  0.94392000  1
  I  I14  1  0.29797000  0.75000000  0.44392000  1
  I  I15  1  0.70203000  0.25000000  0.55608000  1
  O  O16  1  0.17379200  0.07070200  0.99121000  1
  O  O17  1  0.82620800  0.57070200  0.00879000  1
  O  O18  1  0.17379200  0.92929800  0.50879000  1
  O  O19  1  0.82620800  0.42929800  0.49121000  1
  O  O20  1  0.82620800  0.92929800  0.00879000  1
  O  O21  1  0.17379200  0.42929800  0.99121000  1
  O  O22  1  0.82620800  0.07070200  0.49121000  1
  O  O23  1  0.17379200  0.57070200  0.50879000  1
  O  O24  1  0.52499300  0.25000000  0.00128200  1
  O  O25  1  0.47500700  0.75000000  0.99871800  1
  O  O26  1  0.52499300  0.75000000  0.49871800  1
  O  O27  1  0.47500700  0.25000000  0.50128200  1
  O  O28  1  0.33096600  0.95529200  0.15796300  1
  O  O29  1  0.66903400  0.45529200  0.84203700  1
  O  O30  1  0.33096600  0.04470800  0.34203700  1
  O  O31  1  0.66903400  0.54470800  0.65796300  1
  O  O32  1  0.66903400  0.04470800  0.84203700  1
  O  O33  1  0.33096600  0.54470800  0.15796300  1
  O  O34  1  0.66903400  0.95529200  0.65796300  1
  O  O35  1  0.33096600  0.45529200  0.34203700  1
  O  O36  1  0.53144000  0.75000000  0.27942200  1
  O  O37  1  0.46856000  0.25000000  0.72057800  1
  O  O38  1  0.53144000  0.25000000  0.22057800  1
  O  O39  1  0.46856000  0.75000000  0.77942200  1
  O  O40  1  0.73914400  0.00000000  0.25000000  1
  O  O41  1  0.26085600  0.50000000  0.75000000  1
  O  O42  1  0.26085600  0.00000000  0.75000000  1
  O  O43  1  0.73914400  0.50000000  0.25000000  1
  O  O44  1  0.98781100  0.25000000  0.30731700  1
  O  O45  1  0.01218900  0.75000000  0.69268300  1
  O  O46  1  0.98781100  0.75000000  0.19268300  1
  O  O47  1  0.01218900  0.25000000  0.80731700  1
  O  O48  1  0.91625000  0.25000000  0.12497100  1
  O  O49  1  0.08375000  0.75000000  0.87502900  1
  O  O50  1  0.91625000  0.75000000  0.37502900  1
  O  O51  1  0.08375000  0.25000000  0.62497100  1
