# generated using pymatgen
data_Na2Mg3(MoO4)4
_symmetry_space_group_name_H-M   'P 1'
_cell_length_a   9.90614900
_cell_length_b   10.43501086
_cell_length_c   12.46950427
_cell_angle_alpha   86.63083879
_cell_angle_beta   102.45485187
_cell_angle_gamma   116.09547548
_symmetry_Int_Tables_number   1
_chemical_formula_structural   Na2Mg3(MoO4)4
_chemical_formula_sum   'Na6 Mg9 Mo12 O48'
_cell_volume   1129.38601931
_cell_formula_units_Z   3
loop_
 _symmetry_equiv_pos_site_id
 _symmetry_equiv_pos_as_xyz
  1  'x, y, z'
loop_
 _atom_site_type_symbol
 _atom_site_label
 _atom_site_symmetry_multiplicity
 _atom_site_fract_x
 _atom_site_fract_y
 _atom_site_fract_z
 _atom_site_occupancy
  Na  Na0  1  0.75812400  0.55934300  0.21046100  1
  Na  Na1  1  0.01519200  0.51416700  0.50750500  1
  Na  Na2  1  0.47504400  0.48286000  0.98491100  1
  Na  Na3  1  0.54116300  0.80544100  0.24791100  1
  Na  Na4  1  0.04033100  0.80120900  0.74712500  1
  Na  Na5  1  0.96005000  0.19765800  0.25379400  1
  Mg  Mg6  1  0.91920300  0.60555100  0.95861500  1
  Mg  Mg7  1  0.41740400  0.60428100  0.46235200  1
  Mg  Mg8  1  0.08633400  0.39681400  0.03884600  1
  Mg  Mg9  1  0.58536000  0.39770700  0.54176500  1
  Mg  Mg10  1  0.62680600  0.98174800  0.82902600  1
  Mg  Mg11  1  0.12775000  0.98190100  0.32909800  1
  Mg  Mg12  1  0.37109500  0.01687000  0.17138100  1
  Mg  Mg13  1  0.86761800  0.01650800  0.66961700  1
  Mg  Mg14  1  0.47080100  0.19827700  0.74957500  1
  Mo  Mo15  1  0.35665400  0.33370800  0.26159600  1
  Mo  Mo16  1  0.85098100  0.33094800  0.76298500  1
  Mo  Mo17  1  0.64351600  0.66668100  0.73867100  1
  Mo  Mo18  1  0.14489500  0.66669500  0.23840100  1
  Mo  Mo19  1  0.68909200  0.26262300  0.02193800  1
  Mo  Mo20  1  0.19375100  0.25999400  0.53011900  1
  Mo  Mo21  1  0.31043100  0.73861000  0.97482200  1
  Mo  Mo22  1  0.80983100  0.73878500  0.47628900  1
  Mo  Mo23  1  0.82483600  0.86857900  0.08089300  1
  Mo  Mo24  1  0.32424800  0.87300100  0.58225500  1
  Mo  Mo25  1  0.18398800  0.13253100  0.91269000  1
  Mo  Mo26  1  0.67670100  0.13419900  0.41940500  1
  O  O27  1  0.65477700  0.75101900  0.12759600  1
  O  O28  1  0.14752300  0.75746200  0.61879500  1
  O  O29  1  0.35875600  0.22880100  0.85923700  1
  O  O30  1  0.85214700  0.24575200  0.37862300  1
  O  O31  1  0.45035300  0.00456800  0.69816900  1
  O  O32  1  0.96004100  0.98814300  0.19444600  1
  O  O33  1  0.54149800  0.01538400  0.30438000  1
  O  O34  1  0.03771800  0.01087600  0.80604500  1
  O  O35  1  0.77655500  0.96611800  0.96871500  1
  O  O36  1  0.27732900  0.96412200  0.46631300  1
  O  O37  1  0.22581700  0.03799100  0.02849000  1
  O  O38  1  0.71903200  0.03457500  0.53261600  1
  O  O39  1  0.89466500  0.74802100  0.04442100  1
  O  O40  1  0.39786700  0.75828400  0.54309400  1
  O  O41  1  0.12446700  0.25585600  0.95702200  1
  O  O42  1  0.60545500  0.24972300  0.46197000  1
  O  O43  1  0.49791600  0.42253400  0.18288100  1
  O  O44  1  0.98289600  0.42145500  0.68111900  1
  O  O45  1  0.50539200  0.57777400  0.81662600  1
  O  O46  1  0.99776500  0.58009500  0.31253100  1
  O  O47  1  0.42958300  0.41873000  0.40029200  1
  O  O48  1  0.92783800  0.42026800  0.90032000  1
  O  O49  1  0.56983400  0.57654200  0.60111800  1
  O  O50  1  0.06860900  0.57642300  0.10173000  1
  O  O51  1  0.31557800  0.14666100  0.25931300  1
  O  O52  1  0.81831400  0.14607700  0.76318900  1
  O  O53  1  0.68029700  0.85409100  0.73894100  1
  O  O54  1  0.18429200  0.85388000  0.23900200  1
  O  O55  1  0.55674800  0.17124500  0.10651400  1
  O  O56  1  0.05344600  0.17151900  0.60932600  1
  O  O57  1  0.44433800  0.82950100  0.88986000  1
  O  O58  1  0.93984100  0.82394700  0.38709700  1
  O  O59  1  0.61965600  0.16857400  0.88619100  1
  O  O60  1  0.13414400  0.16097100  0.40077900  1
  O  O61  1  0.37162300  0.83842200  0.10437100  1
  O  O62  1  0.87386700  0.84051800  0.60498800  1
  O  O63  1  0.71295900  0.44535600  0.01441600  1
  O  O64  1  0.21619400  0.43960000  0.50661500  1
  O  O65  1  0.28926100  0.55895000  0.99794300  1
  O  O66  1  0.78949400  0.55863100  0.49606700  1
  O  O67  1  0.67206100  0.34182500  0.69891900  1
  O  O68  1  0.18868100  0.35339300  0.19258800  1
  O  O69  1  0.31013500  0.64426900  0.30933400  1
  O  O70  1  0.81172600  0.64541700  0.80693900  1
  O  O71  1  0.86968000  0.26553900  0.08681600  1
  O  O72  1  0.37499200  0.26257400  0.60684100  1
  O  O73  1  0.12675600  0.72971800  0.90825300  1
  O  O74  1  0.62583600  0.72781500  0.40815700  1
