# generated using pymatgen
data_ZrUN2
_symmetry_space_group_name_H-M   'P 1'
_cell_length_a   5.86137420
_cell_length_b   5.86137420
_cell_length_c   5.86137365
_cell_angle_alpha   33.11882784
_cell_angle_beta   33.11882784
_cell_angle_gamma   33.11882615
_symmetry_Int_Tables_number   1
_chemical_formula_structural   ZrUN2
_chemical_formula_sum   'Zr1 U1 N2'
_cell_volume   53.50755308
_cell_formula_units_Z   1
loop_
 _symmetry_equiv_pos_site_id
 _symmetry_equiv_pos_as_xyz
  1  'x, y, z'
loop_
 _atom_site_type_symbol
 _atom_site_label
 _atom_site_symmetry_multiplicity
 _atom_site_fract_x
 _atom_site_fract_y
 _atom_site_fract_z
 _atom_site_occupancy
  Zr  Zr0  1  0.50000000  0.50000000  0.50000000  1
  U  U1  1  0.00000000  0.00000000  0.00000000  1
  N  N2  1  0.24669500  0.24669500  0.24669500  1
  N  N3  1  0.75330500  0.75330500  0.75330500  1
