# generated using pymatgen
data_OsRu
_symmetry_space_group_name_H-M   'P 1'
_cell_length_a   2.74385600
_cell_length_b   2.74385600
_cell_length_c   4.33964900
_cell_angle_alpha   90.00000000
_cell_angle_beta   90.00000000
_cell_angle_gamma   119.99999999
_symmetry_Int_Tables_number   1
_chemical_formula_structural   OsRu
_chemical_formula_sum   'Os1 Ru1'
_cell_volume   28.29488068
_cell_formula_units_Z   1
loop_
 _symmetry_equiv_pos_site_id
 _symmetry_equiv_pos_as_xyz
  1  'x, y, z'
loop_
 _atom_site_type_symbol
 _atom_site_label
 _atom_site_symmetry_multiplicity
 _atom_site_fract_x
 _atom_site_fract_y
 _atom_site_fract_z
 _atom_site_occupancy
  Os  Os0  1  0.66666700  0.33333300  0.50000000  1
  Ru  Ru1  1  0.33333300  0.66666700  0.00000000  1
