# generated using pymatgen
data_RbCdGeAs2
_symmetry_space_group_name_H-M   'P 1'
_cell_length_a   8.53809320
_cell_length_b   8.70034650
_cell_length_c   8.92521443
_cell_angle_alpha   70.70216220
_cell_angle_beta   75.41339112
_cell_angle_gamma   73.14244819
_symmetry_Int_Tables_number   1
_chemical_formula_structural   RbCdGeAs2
_chemical_formula_sum   'Rb4 Cd4 Ge4 As8'
_cell_volume   589.86274770
_cell_formula_units_Z   4
loop_
 _symmetry_equiv_pos_site_id
 _symmetry_equiv_pos_as_xyz
  1  'x, y, z'
loop_
 _atom_site_type_symbol
 _atom_site_label
 _atom_site_symmetry_multiplicity
 _atom_site_fract_x
 _atom_site_fract_y
 _atom_site_fract_z
 _atom_site_occupancy
  Rb  Rb0  1  0.45384000  0.76562900  0.32099400  1
  Rb  Rb1  1  0.54616000  0.23437100  0.67900600  1
  Rb  Rb2  1  0.44003800  0.80040500  0.81329400  1
  Rb  Rb3  1  0.55996200  0.19959500  0.18670600  1
  Cd  Cd4  1  0.99485200  0.89718600  0.68782500  1
  Cd  Cd5  1  0.00514800  0.10281400  0.31217500  1
  Cd  Cd6  1  0.96854700  0.81928900  0.16948500  1
  Cd  Cd7  1  0.03145300  0.18071100  0.83051500  1
  Ge  Ge8  1  0.95919900  0.58671300  0.59733600  1
  Ge  Ge9  1  0.04080100  0.41328700  0.40266400  1
  Ge  Ge10  1  0.15230900  0.44876200  0.97520400  1
  Ge  Ge11  1  0.84769100  0.55123800  0.02479600  1
  As  As12  1  0.80821900  0.87185400  0.46246700  1
  As  As13  1  0.19178100  0.12814600  0.53753300  1
  As  As14  1  0.78248700  0.40691900  0.31663200  1
  As  As15  1  0.21751300  0.59308100  0.68336800  1
  As  As16  1  0.76843100  0.86401900  0.96256600  1
  As  As17  1  0.23156900  0.13598100  0.03743400  1
  As  As18  1  0.76657900  0.44830200  0.82982200  1
  As  As19  1  0.23342100  0.55169800  0.17017800  1
