# generated using pymatgen
data_Tl2(SeO4)3
_symmetry_space_group_name_H-M   'P 1'
_cell_length_a   9.48020600
_cell_length_b   9.16628600
_cell_length_c   15.68709454
_cell_angle_alpha   55.26057943
_cell_angle_beta   90.00000000
_cell_angle_gamma   90.00000000
_symmetry_Int_Tables_number   1
_chemical_formula_structural   Tl2(SeO4)3
_chemical_formula_sum   'Tl8 Se12 O48'
_cell_volume   1120.19737925
_cell_formula_units_Z   4
loop_
 _symmetry_equiv_pos_site_id
 _symmetry_equiv_pos_as_xyz
  1  'x, y, z'
loop_
 _atom_site_type_symbol
 _atom_site_label
 _atom_site_symmetry_multiplicity
 _atom_site_fract_x
 _atom_site_fract_y
 _atom_site_fract_z
 _atom_site_occupancy
  Tl  Tl0  1  0.03202000  0.86277700  0.88790400  1
  Tl  Tl1  1  0.96798000  0.13722300  0.11209600  1
  Tl  Tl2  1  0.53202000  0.13722300  0.61209600  1
  Tl  Tl3  1  0.46798000  0.86277700  0.38790400  1
  Tl  Tl4  1  0.03487800  0.63804800  0.61429200  1
  Tl  Tl5  1  0.96512200  0.36195200  0.38570800  1
  Tl  Tl6  1  0.53487800  0.36195200  0.88570800  1
  Tl  Tl7  1  0.46512200  0.63804800  0.11429200  1
  Se  Se8  1  0.88197400  0.96306500  0.64729200  1
  Se  Se9  1  0.11802600  0.03693500  0.35270800  1
  Se  Se10  1  0.38197400  0.03693500  0.85270800  1
  Se  Se11  1  0.61802600  0.96306500  0.14729200  1
  Se  Se12  1  0.37852100  0.74321100  0.65613100  1
  Se  Se13  1  0.62147900  0.25678900  0.34386900  1
  Se  Se14  1  0.87852100  0.25678900  0.84386900  1
  Se  Se15  1  0.12147900  0.74321100  0.15613100  1
  Se  Se16  1  0.25284800  0.45639200  0.50292700  1
  Se  Se17  1  0.74715200  0.54360800  0.49707300  1
  Se  Se18  1  0.75284800  0.54360800  0.99707300  1
  Se  Se19  1  0.24715200  0.45639200  0.00292700  1
  O  O20  1  0.72304100  0.95511300  0.69668900  1
  O  O21  1  0.27695900  0.04488700  0.30331100  1
  O  O22  1  0.22304100  0.04488700  0.80331100  1
  O  O23  1  0.77695900  0.95511300  0.19668900  1
  O  O24  1  0.11544800  0.59761000  0.93458600  1
  O  O25  1  0.88455200  0.40239000  0.06541400  1
  O  O26  1  0.61544800  0.40239000  0.56541400  1
  O  O27  1  0.38455200  0.59761000  0.43458600  1
  O  O28  1  0.20392700  0.46367300  0.60319300  1
  O  O29  1  0.79607300  0.53632700  0.39680700  1
  O  O30  1  0.70392700  0.53632700  0.89680700  1
  O  O31  1  0.29607300  0.46367300  0.10319300  1
  O  O32  1  0.41991800  0.87273100  0.69637000  1
  O  O33  1  0.58008200  0.12726900  0.30363000  1
  O  O34  1  0.91991800  0.12726900  0.80363000  1
  O  O35  1  0.08008200  0.87273100  0.19637000  1
  O  O36  1  0.00368800  0.86998200  0.74098300  1
  O  O37  1  0.99631200  0.13001800  0.25901700  1
  O  O38  1  0.50368800  0.13001800  0.75901700  1
  O  O39  1  0.49631200  0.86998200  0.24098300  1
  O  O40  1  0.38011800  0.50985300  0.91902500  1
  O  O41  1  0.61988200  0.49014700  0.08097500  1
  O  O42  1  0.88011800  0.49014700  0.58097500  1
  O  O43  1  0.11988200  0.50985300  0.41902500  1
  O  O44  1  0.87896200  0.84645800  0.59421900  1
  O  O45  1  0.12103800  0.15354200  0.40578100  1
  O  O46  1  0.37896200  0.15354200  0.90578100  1
  O  O47  1  0.62103800  0.84645800  0.09421900  1
  O  O48  1  0.48542500  0.56536300  0.71179600  1
  O  O49  1  0.51457500  0.43463700  0.28820400  1
  O  O50  1  0.98542500  0.43463700  0.78820400  1
  O  O51  1  0.01457500  0.56536300  0.21179600  1
  O  O52  1  0.31098900  0.25093100  0.54816200  1
  O  O53  1  0.68901100  0.74906900  0.45183800  1
  O  O54  1  0.81098900  0.74906900  0.95183800  1
  O  O55  1  0.18901100  0.25093100  0.04816200  1
  O  O56  1  0.39052500  0.86020200  0.52672200  1
  O  O57  1  0.60947500  0.13979800  0.47327800  1
  O  O58  1  0.89052500  0.13979800  0.97327800  1
  O  O59  1  0.10947500  0.86020200  0.02672200  1
  O  O60  1  0.20954100  0.68496000  0.69278200  1
  O  O61  1  0.79045900  0.31504000  0.30721800  1
  O  O62  1  0.70954100  0.31504000  0.80721800  1
  O  O63  1  0.29045900  0.68496000  0.19278200  1
  O  O64  1  0.42261000  0.82280800  0.94103200  1
  O  O65  1  0.57739000  0.17719200  0.05896800  1
  O  O66  1  0.92261000  0.17719200  0.55896800  1
  O  O67  1  0.07739000  0.82280800  0.44103200  1
