# generated using pymatgen
data_In3SnAu4
_symmetry_space_group_name_H-M   'P 1'
_cell_length_a   3.76850600
_cell_length_b   4.39215600
_cell_length_c   10.71218300
_cell_angle_alpha   90.00000000
_cell_angle_beta   90.00000000
_cell_angle_gamma   90.00000000
_symmetry_Int_Tables_number   1
_chemical_formula_structural   In3SnAu4
_chemical_formula_sum   'In3 Sn1 Au4'
_cell_volume   177.30662014
_cell_formula_units_Z   1
loop_
 _symmetry_equiv_pos_site_id
 _symmetry_equiv_pos_as_xyz
  1  'x, y, z'
loop_
 _atom_site_type_symbol
 _atom_site_label
 _atom_site_symmetry_multiplicity
 _atom_site_fract_x
 _atom_site_fract_y
 _atom_site_fract_z
 _atom_site_occupancy
  In  In0  1  0.00000000  0.50000000  0.85757100  1
  In  In1  1  0.00000000  0.00000000  0.14061100  1
  In  In2  1  0.50000000  0.00000000  0.64353400  1
  Sn  Sn3  1  0.50000000  0.50000000  0.35700400  1
  Au  Au4  1  0.50000000  0.50000000  0.09246000  1
  Au  Au5  1  0.00000000  0.50000000  0.59504300  1
  Au  Au6  1  0.00000000  0.00000000  0.40611100  1
  Au  Au7  1  0.50000000  0.00000000  0.90766600  1
