# generated using pymatgen
data_Yb2(SO4)3
_symmetry_space_group_name_H-M   'P 1'
_cell_length_a   13.44995736
_cell_length_b   13.44995736
_cell_length_c   13.44995667
_cell_angle_alpha   87.59211742
_cell_angle_beta   87.59211742
_cell_angle_gamma   87.59211297
_symmetry_Int_Tables_number   1
_chemical_formula_structural   Yb2(SO4)3
_chemical_formula_sum   'Yb16 S24 O96'
_cell_volume   2426.84566217
_cell_formula_units_Z   8
loop_
 _symmetry_equiv_pos_site_id
 _symmetry_equiv_pos_as_xyz
  1  'x, y, z'
loop_
 _atom_site_type_symbol
 _atom_site_label
 _atom_site_symmetry_multiplicity
 _atom_site_fract_x
 _atom_site_fract_y
 _atom_site_fract_z
 _atom_site_occupancy
  Yb  Yb0  1  0.64978300  0.64978300  0.64978300  1
  Yb  Yb1  1  0.14978300  0.14978300  0.14978300  1
  Yb  Yb2  1  0.13644200  0.13806200  0.65056900  1
  Yb  Yb3  1  0.65056900  0.13644200  0.13806200  1
  Yb  Yb4  1  0.13806200  0.65056900  0.13644200  1
  Yb  Yb5  1  0.15056900  0.63806200  0.63644200  1
  Yb  Yb6  1  0.63644200  0.15056900  0.63806200  1
  Yb  Yb7  1  0.63806200  0.63644200  0.15056900  1
  Yb  Yb8  1  0.36591000  0.36591000  0.36591000  1
  Yb  Yb9  1  0.86591000  0.86591000  0.86591000  1
  Yb  Yb10  1  0.85865000  0.84772000  0.36711800  1
  Yb  Yb11  1  0.36711800  0.85865000  0.84772000  1
  Yb  Yb12  1  0.84772000  0.36711800  0.85865000  1
  Yb  Yb13  1  0.86711800  0.34772000  0.35865000  1
  Yb  Yb14  1  0.35865000  0.86711800  0.34772000  1
  Yb  Yb15  1  0.34772000  0.35865000  0.86711800  1
  S  S16  1  0.76468300  0.61722300  0.89728600  1
  S  S17  1  0.89728600  0.76468300  0.61722300  1
  S  S18  1  0.61722300  0.89728600  0.76468300  1
  S  S19  1  0.39728600  0.11722300  0.26468300  1
  S  S20  1  0.26468300  0.39728600  0.11722300  1
  S  S21  1  0.11722300  0.26468300  0.39728600  1
  S  S22  1  0.24827000  0.10339500  0.89915500  1
  S  S23  1  0.89915500  0.24827000  0.10339500  1
  S  S24  1  0.10339500  0.89915500  0.24827000  1
  S  S25  1  0.39915500  0.60339500  0.74827000  1
  S  S26  1  0.74827000  0.39915500  0.60339500  1
  S  S27  1  0.60339500  0.74827000  0.39915500  1
  S  S28  1  0.75948200  0.10255100  0.39120000  1
  S  S29  1  0.39120000  0.75948200  0.10255100  1
  S  S30  1  0.10255100  0.39120000  0.75948200  1
  S  S31  1  0.89120000  0.60255100  0.25948200  1
  S  S32  1  0.25948200  0.89120000  0.60255100  1
  S  S33  1  0.60255100  0.25948200  0.89120000  1
  S  S34  1  0.25267600  0.61807100  0.37791400  1
  S  S35  1  0.37791400  0.25267600  0.61807100  1
  S  S36  1  0.61807100  0.37791400  0.25267600  1
  S  S37  1  0.87791400  0.11807100  0.75267600  1
  S  S38  1  0.75267600  0.87791400  0.11807100  1
  S  S39  1  0.11807100  0.75267600  0.87791400  1
  O  O40  1  0.70203400  0.61152100  0.80992900  1
  O  O41  1  0.80992900  0.70203400  0.61152100  1
  O  O42  1  0.61152100  0.80992900  0.70203400  1
  O  O43  1  0.30992900  0.11152100  0.20203400  1
  O  O44  1  0.20203400  0.30992900  0.11152100  1
  O  O45  1  0.11152100  0.20203400  0.30992900  1
  O  O46  1  0.18326400  0.10513700  0.81247900  1
  O  O47  1  0.81247900  0.18326400  0.10513700  1
  O  O48  1  0.10513700  0.81247900  0.18326400  1
  O  O49  1  0.31247900  0.60513700  0.68326400  1
  O  O50  1  0.68326400  0.31247900  0.60513700  1
  O  O51  1  0.60513700  0.68326400  0.31247900  1
  O  O52  1  0.70424800  0.10405600  0.29803500  1
  O  O53  1  0.29803500  0.70424800  0.10405600  1
  O  O54  1  0.10405600  0.29803500  0.70424800  1
  O  O55  1  0.79803500  0.60405600  0.20424800  1
  O  O56  1  0.20424800  0.79803500  0.60405600  1
  O  O57  1  0.60405600  0.20424800  0.79803500  1
  O  O58  1  0.17795300  0.62812500  0.29963300  1
  O  O59  1  0.29963300  0.17795300  0.62812500  1
  O  O60  1  0.62812500  0.29963300  0.17795300  1
  O  O61  1  0.79963300  0.12812500  0.67795300  1
  O  O62  1  0.67795300  0.79963300  0.12812500  1
  O  O63  1  0.12812500  0.67795300  0.79963300  1
  O  O64  1  0.33310800  0.37888600  0.20071300  1
  O  O65  1  0.20071300  0.33310800  0.37888600  1
  O  O66  1  0.37888600  0.20071300  0.33310800  1
  O  O67  1  0.70071300  0.87888600  0.83310800  1
  O  O68  1  0.83310800  0.70071300  0.87888600  1
  O  O69  1  0.87888600  0.83310800  0.70071300  1
  O  O70  1  0.81305700  0.87292500  0.20717600  1
  O  O71  1  0.20717600  0.81305700  0.87292500  1
  O  O72  1  0.87292500  0.20717600  0.81305700  1
  O  O73  1  0.70717600  0.37292500  0.31305700  1
  O  O74  1  0.31305700  0.70717600  0.37292500  1
  O  O75  1  0.37292500  0.31305700  0.70717600  1
  O  O76  1  0.33115900  0.88567800  0.68344000  1
  O  O77  1  0.68344000  0.33115900  0.88567800  1
  O  O78  1  0.88567800  0.68344000  0.33115900  1
  O  O79  1  0.18344000  0.38567800  0.83115900  1
  O  O80  1  0.83115900  0.18344000  0.38567800  1
  O  O81  1  0.38567800  0.83115900  0.18344000  1
  O  O82  1  0.80137200  0.39865900  0.69746300  1
  O  O83  1  0.69746300  0.80137200  0.39865900  1
  O  O84  1  0.39865900  0.69746300  0.80137200  1
  O  O85  1  0.19746300  0.89865900  0.30137200  1
  O  O86  1  0.30137200  0.19746300  0.89865900  1
  O  O87  1  0.89865900  0.30137200  0.19746300  1
  O  O88  1  0.59100400  0.68722700  0.49231200  1
  O  O89  1  0.49231200  0.59100400  0.68722700  1
  O  O90  1  0.68722700  0.49231200  0.59100400  1
  O  O91  1  0.99231200  0.18722700  0.09100400  1
  O  O92  1  0.09100400  0.99231200  0.18722700  1
  O  O93  1  0.18722700  0.09100400  0.99231200  1
  O  O94  1  0.13477400  0.20153300  0.48805100  1
  O  O95  1  0.48805100  0.13477400  0.20153300  1
  O  O96  1  0.20153300  0.48805100  0.13477400  1
  O  O97  1  0.98805100  0.70153300  0.63477400  1
  O  O98  1  0.63477400  0.98805100  0.70153300  1
  O  O99  1  0.70153300  0.63477400  0.98805100  1
  O  O100  1  0.61698400  0.18827100  0.97660500  1
  O  O101  1  0.97660500  0.61698400  0.18827100  1
  O  O102  1  0.18827100  0.97660500  0.61698400  1
  O  O103  1  0.47660500  0.68827100  0.11698400  1
  O  O104  1  0.11698400  0.47660500  0.68827100  1
  O  O105  1  0.68827100  0.11698400  0.47660500  1
  O  O106  1  0.10714100  0.70082900  0.97650700  1
  O  O107  1  0.97650700  0.10714100  0.70082900  1
  O  O108  1  0.70082900  0.97650700  0.10714100  1
  O  O109  1  0.47650700  0.20082900  0.60714100  1
  O  O110  1  0.60714100  0.47650700  0.20082900  1
  O  O111  1  0.20082900  0.60714100  0.47650700  1
  O  O112  1  0.35849800  0.31886500  0.52987500  1
  O  O113  1  0.52987500  0.35849800  0.31886500  1
  O  O114  1  0.31886500  0.52987500  0.35849800  1
  O  O115  1  0.02987500  0.81886500  0.85849800  1
  O  O116  1  0.85849800  0.02987500  0.81886500  1
  O  O117  1  0.81886500  0.85849800  0.02987500  1
  O  O118  1  0.91220700  0.82592200  0.52444600  1
  O  O119  1  0.52444600  0.91220700  0.82592200  1
  O  O120  1  0.82592200  0.52444600  0.91220700  1
  O  O121  1  0.02444600  0.32592200  0.41220700  1
  O  O122  1  0.41220700  0.02444600  0.32592200  1
  O  O123  1  0.32592200  0.41220700  0.02444600  1
  O  O124  1  0.40359800  0.81504100  0.00595400  1
  O  O125  1  0.00595400  0.40359800  0.81504100  1
  O  O126  1  0.81504100  0.00595400  0.40359800  1
  O  O127  1  0.50595400  0.31504100  0.90359800  1
  O  O128  1  0.90359800  0.50595400  0.31504100  1
  O  O129  1  0.31504100  0.90359800  0.50595400  1
  O  O130  1  0.89096200  0.32198700  0.01857900  1
  O  O131  1  0.01857900  0.89096200  0.32198700  1
  O  O132  1  0.32198700  0.01857900  0.89096200  1
  O  O133  1  0.51857900  0.82198700  0.39096200  1
  O  O134  1  0.39096200  0.51857900  0.82198700  1
  O  O135  1  0.82198700  0.39096200  0.51857900  1
