# generated using pymatgen
data_CsTbCdTe3
_symmetry_space_group_name_H-M   'P 1'
_cell_length_a   8.98476200
_cell_length_b   8.98476200
_cell_length_c   11.91725800
_cell_angle_alpha   90.00000000
_cell_angle_beta   90.00000000
_cell_angle_gamma   150.59655508
_symmetry_Int_Tables_number   1
_chemical_formula_structural   CsTbCdTe3
_chemical_formula_sum   'Cs2 Tb2 Cd2 Te6'
_cell_volume   472.31548815
_cell_formula_units_Z   2
loop_
 _symmetry_equiv_pos_site_id
 _symmetry_equiv_pos_as_xyz
  1  'x, y, z'
loop_
 _atom_site_type_symbol
 _atom_site_label
 _atom_site_symmetry_multiplicity
 _atom_site_fract_x
 _atom_site_fract_y
 _atom_site_fract_z
 _atom_site_occupancy
  Cs  Cs0  1  0.24922100  0.75077900  0.25000000  1
  Cs  Cs1  1  0.75077900  0.24922100  0.75000000  1
  Tb  Tb2  1  0.00000000  0.00000000  0.50000000  1
  Tb  Tb3  1  0.00000000  0.00000000  0.00000000  1
  Cd  Cd4  1  0.53674900  0.46325100  0.25000000  1
  Cd  Cd5  1  0.46325100  0.53674900  0.75000000  1
  Te  Te6  1  0.62020900  0.37979100  0.04719000  1
  Te  Te7  1  0.37979100  0.62020900  0.95281000  1
  Te  Te8  1  0.06536500  0.93463500  0.75000000  1
  Te  Te9  1  0.93463500  0.06536500  0.25000000  1
  Te  Te10  1  0.62020900  0.37979100  0.45281000  1
  Te  Te11  1  0.37979100  0.62020900  0.54719000  1
