# generated using pymatgen
data_Y3Zn11
_symmetry_space_group_name_H-M   'P 1'
_cell_length_a   8.14237438
_cell_length_b   8.14237438
_cell_length_c   8.14237438
_cell_angle_alpha   148.40599238
_cell_angle_beta   114.31809273
_cell_angle_gamma   74.71717688
_symmetry_Int_Tables_number   1
_chemical_formula_structural   Y3Zn11
_chemical_formula_sum   'Y3 Zn11'
_cell_volume   253.38612154
_cell_formula_units_Z   1
loop_
 _symmetry_equiv_pos_site_id
 _symmetry_equiv_pos_as_xyz
  1  'x, y, z'
loop_
 _atom_site_type_symbol
 _atom_site_label
 _atom_site_symmetry_multiplicity
 _atom_site_fract_x
 _atom_site_fract_y
 _atom_site_fract_z
 _atom_site_occupancy
  Y  Y0  1  0.00000000  0.00000000  0.00000000  1
  Y  Y1  1  0.29384300  0.29384300  0.00000000  1
  Y  Y2  1  0.70615700  0.70615700  0.00000000  1
  Zn  Zn3  1  0.50000000  0.00000000  0.50000000  1
  Zn  Zn4  1  0.68232100  0.50000000  0.18232100  1
  Zn  Zn5  1  0.31767900  0.50000000  0.81767900  1
  Zn  Zn6  1  0.70133200  0.34163000  0.35970200  1
  Zn  Zn7  1  0.29866800  0.65837000  0.64029800  1
  Zn  Zn8  1  0.98192800  0.34163000  0.64029800  1
  Zn  Zn9  1  0.01807200  0.65837000  0.35970200  1
  Zn  Zn10  1  0.41868100  0.13840400  0.28027700  1
  Zn  Zn11  1  0.58131900  0.86159600  0.71972300  1
  Zn  Zn12  1  0.85812700  0.13840400  0.71972300  1
  Zn  Zn13  1  0.14187300  0.86159600  0.28027700  1
