# generated using pymatgen
data_TmMn2O5
_symmetry_space_group_name_H-M   'P 1'
_cell_length_a   5.75580400
_cell_length_b   7.27328000
_cell_length_c   8.53989900
_cell_angle_alpha   90.00000000
_cell_angle_beta   90.00000000
_cell_angle_gamma   90.00000000
_symmetry_Int_Tables_number   1
_chemical_formula_structural   TmMn2O5
_chemical_formula_sum   'Tm4 Mn8 O20'
_cell_volume   357.51069474
_cell_formula_units_Z   4
loop_
 _symmetry_equiv_pos_site_id
 _symmetry_equiv_pos_as_xyz
  1  'x, y, z'
loop_
 _atom_site_type_symbol
 _atom_site_label
 _atom_site_symmetry_multiplicity
 _atom_site_fract_x
 _atom_site_fract_y
 _atom_site_fract_z
 _atom_site_occupancy
  Tm  Tm0  1  0.50000000  0.36182300  0.32926100  1
  Tm  Tm1  1  0.50000000  0.63817700  0.67073900  1
  Tm  Tm2  1  0.50000000  0.13817700  0.82926100  1
  Tm  Tm3  1  0.50000000  0.86182300  0.17073900  1
  Mn  Mn4  1  0.00000000  0.08660300  0.15191400  1
  Mn  Mn5  1  0.00000000  0.91339700  0.84808600  1
  Mn  Mn6  1  0.00000000  0.41339700  0.65191400  1
  Mn  Mn7  1  0.00000000  0.58660300  0.34808600  1
  Mn  Mn8  1  0.24746500  0.00000000  0.50000000  1
  Mn  Mn9  1  0.75253500  0.00000000  0.50000000  1
  Mn  Mn10  1  0.75253500  0.50000000  0.00000000  1
  Mn  Mn11  1  0.24746500  0.50000000  0.00000000  1
  O  O12  1  0.23415200  0.00000000  0.00000000  1
  O  O13  1  0.76584800  0.00000000  0.00000000  1
  O  O14  1  0.76584800  0.50000000  0.50000000  1
  O  O15  1  0.23415200  0.50000000  0.50000000  1
  O  O16  1  0.00000000  0.34716800  0.06848200  1
  O  O17  1  0.00000000  0.65283200  0.93151800  1
  O  O18  1  0.00000000  0.15283200  0.56848200  1
  O  O19  1  0.00000000  0.84716800  0.43151800  1
  O  O20  1  0.50000000  0.33381200  0.05772900  1
  O  O21  1  0.50000000  0.66618800  0.94227100  1
  O  O22  1  0.50000000  0.16618800  0.55772900  1
  O  O23  1  0.50000000  0.83381200  0.44227100  1
  O  O24  1  0.26220900  0.10623100  0.29296100  1
  O  O25  1  0.73779100  0.89376900  0.70703900  1
  O  O26  1  0.26220900  0.89376900  0.70703900  1
  O  O27  1  0.73779100  0.39376900  0.79296100  1
  O  O28  1  0.73779100  0.10623100  0.29296100  1
  O  O29  1  0.26220900  0.60623100  0.20703900  1
  O  O30  1  0.73779100  0.60623100  0.20703900  1
  O  O31  1  0.26220900  0.39376900  0.79296100  1
