# generated using pymatgen
data_Y12InNi6
_symmetry_space_group_name_H-M   'P 1'
_cell_length_a   8.44639253
_cell_length_b   8.44639253
_cell_length_c   8.44639253
_cell_angle_alpha   109.47122063
_cell_angle_beta   109.47122063
_cell_angle_gamma   109.47122063
_symmetry_Int_Tables_number   1
_chemical_formula_structural   Y12InNi6
_chemical_formula_sum   'Y12 In1 Ni6'
_cell_volume   463.86530523
_cell_formula_units_Z   1
loop_
 _symmetry_equiv_pos_site_id
 _symmetry_equiv_pos_as_xyz
  1  'x, y, z'
loop_
 _atom_site_type_symbol
 _atom_site_label
 _atom_site_symmetry_multiplicity
 _atom_site_fract_x
 _atom_site_fract_y
 _atom_site_fract_z
 _atom_site_occupancy
  Y  Y0  1  0.81264600  0.69756200  0.51020800  1
  Y  Y1  1  0.18735400  0.30243800  0.48979200  1
  Y  Y2  1  0.18735400  0.69756200  0.88491600  1
  Y  Y3  1  0.81264600  0.30243800  0.11508400  1
  Y  Y4  1  0.69756200  0.51020800  0.81264600  1
  Y  Y5  1  0.30243800  0.48979200  0.18735400  1
  Y  Y6  1  0.69756200  0.88491600  0.18735400  1
  Y  Y7  1  0.30243800  0.11508400  0.81264600  1
  Y  Y8  1  0.51020800  0.81264600  0.69756200  1
  Y  Y9  1  0.48979200  0.18735400  0.30243800  1
  Y  Y10  1  0.11508400  0.81264600  0.30243800  1
  Y  Y11  1  0.88491600  0.18735400  0.69756200  1
  In  In12  1  0.00000000  0.00000000  0.00000000  1
  Ni  Ni13  1  0.87717700  0.37717700  0.50000000  1
  Ni  Ni14  1  0.12282300  0.62282300  0.50000000  1
  Ni  Ni15  1  0.37717700  0.50000000  0.87717700  1
  Ni  Ni16  1  0.62282300  0.50000000  0.12282300  1
  Ni  Ni17  1  0.50000000  0.87717700  0.37717700  1
  Ni  Ni18  1  0.50000000  0.12282300  0.62282300  1
