# generated using pymatgen
data_Sr3Ge2(B3O8)2
_symmetry_space_group_name_H-M   'P 1'
_cell_length_a   5.06346100
_cell_length_b   7.46609876
_cell_length_c   8.56458977
_cell_angle_alpha   103.28458590
_cell_angle_beta   102.84686043
_cell_angle_gamma   89.52854245
_symmetry_Int_Tables_number   1
_chemical_formula_structural   Sr3Ge2(B3O8)2
_chemical_formula_sum   'Sr3 Ge2 B6 O16'
_cell_volume   306.91262640
_cell_formula_units_Z   1
loop_
 _symmetry_equiv_pos_site_id
 _symmetry_equiv_pos_as_xyz
  1  'x, y, z'
loop_
 _atom_site_type_symbol
 _atom_site_label
 _atom_site_symmetry_multiplicity
 _atom_site_fract_x
 _atom_site_fract_y
 _atom_site_fract_z
 _atom_site_occupancy
  Sr  Sr0  1  0.09142200  0.09117900  0.74249000  1
  Sr  Sr1  1  0.90857800  0.90882100  0.25751000  1
  Sr  Sr2  1  0.00000000  0.50000000  0.50000000  1
  Ge  Ge3  1  0.69975800  0.31489500  0.05415900  1
  Ge  Ge4  1  0.30024200  0.68510500  0.94584100  1
  B  B5  1  0.45821300  0.80843900  0.53861600  1
  B  B6  1  0.54178700  0.19156100  0.46138400  1
  B  B7  1  0.45937500  0.58915700  0.25818900  1
  B  B8  1  0.54062500  0.41084300  0.74181100  1
  B  B9  1  0.26992100  0.24486800  0.19596900  1
  B  B10  1  0.73007900  0.75513200  0.80403100  1
  O  O11  1  0.62526700  0.88328800  0.69560900  1
  O  O12  1  0.37473300  0.11671200  0.30439100  1
  O  O13  1  0.18656400  0.82208000  0.51233800  1
  O  O14  1  0.81343600  0.17792000  0.48766200  1
  O  O15  1  0.58711400  0.72363000  0.41408000  1
  O  O16  1  0.41288600  0.27637000  0.58592000  1
  O  O17  1  0.70577900  0.53467600  0.19016000  1
  O  O18  1  0.29422100  0.46532400  0.80984000  1
  O  O19  1  0.26789400  0.68415600  0.14606700  1
  O  O20  1  0.73210600  0.31584400  0.85393300  1
  O  O21  1  0.32528800  0.43602800  0.29295600  1
  O  O22  1  0.67471200  0.56397200  0.70704400  1
  O  O23  1  0.97184500  0.19321100  0.14073400  1
  O  O24  1  0.02815500  0.80678900  0.85926600  1
  O  O25  1  0.38670200  0.20473800  0.04645200  1
  O  O26  1  0.61329800  0.79526200  0.95354800  1
