# generated using pymatgen
data_Sr2VBrO4
_symmetry_space_group_name_H-M   'P 1'
_cell_length_a   6.68723800
_cell_length_b   7.61702500
_cell_length_c   11.81136800
_cell_angle_alpha   90.00000000
_cell_angle_beta   90.00000000
_cell_angle_gamma   90.00000000
_symmetry_Int_Tables_number   1
_chemical_formula_structural   Sr2VBrO4
_chemical_formula_sum   'Sr8 V4 Br4 O16'
_cell_volume   601.63398673
_cell_formula_units_Z   4
loop_
 _symmetry_equiv_pos_site_id
 _symmetry_equiv_pos_as_xyz
  1  'x, y, z'
loop_
 _atom_site_type_symbol
 _atom_site_label
 _atom_site_symmetry_multiplicity
 _atom_site_fract_x
 _atom_site_fract_y
 _atom_site_fract_z
 _atom_site_occupancy
  Sr  Sr0  1  0.62502000  0.25000000  0.00000000  1
  Sr  Sr1  1  0.37498000  0.75000000  0.00000000  1
  Sr  Sr2  1  0.37498000  0.75000000  0.50000000  1
  Sr  Sr3  1  0.62502000  0.25000000  0.50000000  1
  Sr  Sr4  1  0.12198200  0.03055200  0.25000000  1
  Sr  Sr5  1  0.87801800  0.96944800  0.75000000  1
  Sr  Sr6  1  0.87801800  0.53055200  0.25000000  1
  Sr  Sr7  1  0.12198200  0.46944800  0.75000000  1
  V  V8  1  0.12485100  0.25000000  0.00000000  1
  V  V9  1  0.87514900  0.75000000  0.00000000  1
  V  V10  1  0.87514900  0.75000000  0.50000000  1
  V  V11  1  0.12485100  0.25000000  0.50000000  1
  Br  Br12  1  0.47207000  0.32357100  0.25000000  1
  Br  Br13  1  0.52793000  0.67642900  0.75000000  1
  Br  Br14  1  0.52793000  0.82357100  0.25000000  1
  Br  Br15  1  0.47207000  0.17642900  0.75000000  1
  O  O16  1  0.03180800  0.77117500  0.11859300  1
  O  O17  1  0.96819200  0.22882500  0.88140700  1
  O  O18  1  0.96819200  0.22882500  0.61859300  1
  O  O19  1  0.96819200  0.27117500  0.38140700  1
  O  O20  1  0.03180800  0.77117500  0.38140700  1
  O  O21  1  0.03180800  0.72882500  0.61859300  1
  O  O22  1  0.03180800  0.72882500  0.88140700  1
  O  O23  1  0.96819200  0.27117500  0.11859300  1
  O  O24  1  0.28056600  0.07239600  0.02762000  1
  O  O25  1  0.71943400  0.92760400  0.97238000  1
  O  O26  1  0.71943400  0.92760400  0.52762000  1
  O  O27  1  0.71943400  0.57239600  0.47238000  1
  O  O28  1  0.28056600  0.07239600  0.47238000  1
  O  O29  1  0.28056600  0.42760400  0.52762000  1
  O  O30  1  0.28056600  0.42760400  0.97238000  1
  O  O31  1  0.71943400  0.57239600  0.02762000  1
