# generated using pymatgen
data_Ba6Tb2Ga4O15
_symmetry_space_group_name_H-M   'P 1'
_cell_length_a   6.05144400
_cell_length_b   8.05463300
_cell_length_c   18.69429878
_cell_angle_alpha   88.60800919
_cell_angle_beta   90.00000000
_cell_angle_gamma   90.00000000
_symmetry_Int_Tables_number   1
_chemical_formula_structural   Ba6Tb2Ga4O15
_chemical_formula_sum   'Ba12 Tb4 Ga8 O30'
_cell_volume   910.93161254
_cell_formula_units_Z   2
loop_
 _symmetry_equiv_pos_site_id
 _symmetry_equiv_pos_as_xyz
  1  'x, y, z'
loop_
 _atom_site_type_symbol
 _atom_site_label
 _atom_site_symmetry_multiplicity
 _atom_site_fract_x
 _atom_site_fract_y
 _atom_site_fract_z
 _atom_site_occupancy
  Ba  Ba0  1  0.75678100  0.49866800  0.07849800  1
  Ba  Ba1  1  0.24321900  0.50133200  0.92150200  1
  Ba  Ba2  1  0.75678100  0.50133200  0.42150200  1
  Ba  Ba3  1  0.24321900  0.49866800  0.57849800  1
  Ba  Ba4  1  0.74321900  0.97090900  0.09003500  1
  Ba  Ba5  1  0.25678100  0.02909100  0.90996500  1
  Ba  Ba6  1  0.74321900  0.02909100  0.40996500  1
  Ba  Ba7  1  0.25678100  0.97090900  0.59003500  1
  Ba  Ba8  1  0.72420000  0.00000000  0.75000000  1
  Ba  Ba9  1  0.27580000  0.00000000  0.25000000  1
  Ba  Ba10  1  0.66538200  0.50000000  0.75000000  1
  Ba  Ba11  1  0.33461800  0.50000000  0.25000000  1
  Tb  Tb12  1  0.74559300  0.75181900  0.90995600  1
  Tb  Tb13  1  0.25440700  0.24818100  0.09004400  1
  Tb  Tb14  1  0.74559300  0.24818100  0.59004400  1
  Tb  Tb15  1  0.25440700  0.75181900  0.40995600  1
  Ga  Ga16  1  0.75042700  0.75440700  0.55894100  1
  Ga  Ga17  1  0.24957300  0.24559300  0.44105900  1
  Ga  Ga18  1  0.75042700  0.24559300  0.94105900  1
  Ga  Ga19  1  0.24957300  0.75440700  0.05894100  1
  Ga  Ga20  1  0.77536600  0.76987500  0.26566300  1
  Ga  Ga21  1  0.22463400  0.23012500  0.73433700  1
  Ga  Ga22  1  0.77536600  0.23012500  0.23433700  1
  Ga  Ga23  1  0.22463400  0.76987500  0.76566300  1
  O  O24  1  0.20608400  0.00000000  0.75000000  1
  O  O25  1  0.79391600  0.00000000  0.25000000  1
  O  O26  1  0.50460900  0.76563100  0.00108800  1
  O  O27  1  0.49539100  0.23436900  0.99891200  1
  O  O28  1  0.50460900  0.23436900  0.49891200  1
  O  O29  1  0.49539100  0.76563100  0.50108800  1
  O  O30  1  0.76210400  0.95300300  0.60922700  1
  O  O31  1  0.23789600  0.04699700  0.39077300  1
  O  O32  1  0.76210400  0.04699700  0.89077300  1
  O  O33  1  0.23789600  0.95300300  0.10922700  1
  O  O34  1  0.00589700  0.76372800  0.99505300  1
  O  O35  1  0.99410300  0.23627200  0.00494700  1
  O  O36  1  0.00589700  0.23627200  0.50494700  1
  O  O37  1  0.99410300  0.76372800  0.49505300  1
  O  O38  1  0.32727200  0.68959900  0.68155600  1
  O  O39  1  0.67272800  0.31040100  0.31844400  1
  O  O40  1  0.32727200  0.31040100  0.81844400  1
  O  O41  1  0.67272800  0.68959900  0.18155600  1
  O  O42  1  0.44867400  0.74816400  0.83571900  1
  O  O43  1  0.55132600  0.25183600  0.16428100  1
  O  O44  1  0.44867400  0.25183600  0.66428100  1
  O  O45  1  0.55132600  0.74816400  0.33571900  1
  O  O46  1  0.95560300  0.72474500  0.80915000  1
  O  O47  1  0.04439700  0.27525500  0.19085000  1
  O  O48  1  0.95560300  0.27525500  0.69085000  1
  O  O49  1  0.04439700  0.72474500  0.30915000  1
  O  O50  1  0.75626600  0.53298800  0.59196000  1
  O  O51  1  0.24373400  0.46701200  0.40804000  1
  O  O52  1  0.75626600  0.46701200  0.90804000  1
  O  O53  1  0.24373400  0.53298800  0.09196000  1
