# generated using pymatgen
data_Np2Se5
_symmetry_space_group_name_H-M   'P 1'
_cell_length_a   5.46845365
_cell_length_b   5.46845365
_cell_length_c   10.72896700
_cell_angle_alpha   90.00000000
_cell_angle_beta   90.00000000
_cell_angle_gamma   90.12110294
_symmetry_Int_Tables_number   1
_chemical_formula_structural   Np2Se5
_chemical_formula_sum   'Np4 Se10'
_cell_volume   320.83815516
_cell_formula_units_Z   2
loop_
 _symmetry_equiv_pos_site_id
 _symmetry_equiv_pos_as_xyz
  1  'x, y, z'
loop_
 _atom_site_type_symbol
 _atom_site_label
 _atom_site_symmetry_multiplicity
 _atom_site_fract_x
 _atom_site_fract_y
 _atom_site_fract_z
 _atom_site_occupancy
  Np  Np0  1  0.25000000  0.25000000  0.84850300  1
  Np  Np1  1  0.75000000  0.75000000  0.65149700  1
  Np  Np2  1  0.75000000  0.75000000  0.15149700  1
  Np  Np3  1  0.25000000  0.25000000  0.34850300  1
  Se  Se4  1  0.74999200  0.00641600  0.39747500  1
  Se  Se5  1  0.99358400  0.25000800  0.10252500  1
  Se  Se6  1  0.50641600  0.24999200  0.10252500  1
  Se  Se7  1  0.75000800  0.49358400  0.39747500  1
  Se  Se8  1  0.25000800  0.99358400  0.60252500  1
  Se  Se9  1  0.00641600  0.74999200  0.89747500  1
  Se  Se10  1  0.49358400  0.75000800  0.89747500  1
  Se  Se11  1  0.24999200  0.50641600  0.60252500  1
  Se  Se12  1  0.25000000  0.75000000  0.25000000  1
  Se  Se13  1  0.75000000  0.25000000  0.75000000  1
