# generated using pymatgen
data_Ga2Ru
_symmetry_space_group_name_H-M   'P 1'
_cell_length_a   6.03642184
_cell_length_b   4.99981450
_cell_length_c   4.78290464
_cell_angle_alpha   76.16603876
_cell_angle_beta   53.53774555
_cell_angle_gamma   50.29621569
_symmetry_Int_Tables_number   1
_chemical_formula_structural   Ga2Ru
_chemical_formula_sum   'Ga4 Ru2'
_cell_volume   86.98458947
_cell_formula_units_Z   2
loop_
 _symmetry_equiv_pos_site_id
 _symmetry_equiv_pos_as_xyz
  1  'x, y, z'
loop_
 _atom_site_type_symbol
 _atom_site_label
 _atom_site_symmetry_multiplicity
 _atom_site_fract_x
 _atom_site_fract_y
 _atom_site_fract_z
 _atom_site_occupancy
  Ga  Ga0  1  0.41883200  0.08116800  0.41883200  1
  Ga  Ga1  1  0.08116800  0.41883200  0.08116800  1
  Ga  Ga2  1  0.83116800  0.16883200  0.83116800  1
  Ga  Ga3  1  0.16883200  0.83116800  0.16883200  1
  Ru  Ru4  1  0.75000000  0.75000000  0.75000000  1
  Ru  Ru5  1  0.50000000  0.50000000  0.50000000  1
