# generated using pymatgen
data_NaCr(PS3)2
_symmetry_space_group_name_H-M   'P 1'
_cell_length_a   11.88784434
_cell_length_b   11.26207064
_cell_length_c   6.94543281
_cell_angle_alpha   77.54027369
_cell_angle_beta   67.67557670
_cell_angle_gamma   34.78414961
_symmetry_Int_Tables_number   1
_chemical_formula_structural   NaCr(PS3)2
_chemical_formula_sum   'Na2 Cr2 P4 S12'
_cell_volume   482.49024828
_cell_formula_units_Z   2
loop_
 _symmetry_equiv_pos_site_id
 _symmetry_equiv_pos_as_xyz
  1  'x, y, z'
loop_
 _atom_site_type_symbol
 _atom_site_label
 _atom_site_symmetry_multiplicity
 _atom_site_fract_x
 _atom_site_fract_y
 _atom_site_fract_z
 _atom_site_occupancy
  Na  Na0  1  0.33506000  0.33506000  0.66494000  1
  Na  Na1  1  0.58506000  0.58506000  0.91494000  1
  Cr  Cr2  1  0.99969900  0.99969900  0.00030100  1
  Cr  Cr3  1  0.24969900  0.24969900  0.25030100  1
  P  P4  1  0.10876600  0.21312400  0.00899000  1
  P  P5  1  0.21312400  0.10876600  0.66912000  1
  P  P6  1  0.24101000  0.58088000  0.14123400  1
  P  P7  1  0.58088000  0.24101000  0.03687600  1
  S  S8  1  0.86768600  0.28556200  0.15284400  1
  S  S9  1  0.28556200  0.86768600  0.69390800  1
  S  S10  1  0.09715600  0.55609200  0.38231400  1
  S  S11  1  0.55609200  0.09715600  0.96443800  1
  S  S12  1  0.01240100  0.46324300  0.05303700  1
  S  S13  1  0.46324300  0.01240100  0.47131900  1
  S  S14  1  0.19696300  0.77868100  0.23759900  1
  S  S15  1  0.77868100  0.19696300  0.78675700  1
  S  S16  1  0.36727600  0.97395300  0.09533600  1
  S  S17  1  0.97395300  0.36727600  0.56343500  1
  S  S18  1  0.15466400  0.68656500  0.88272400  1
  S  S19  1  0.68656500  0.15466400  0.27604700  1
