# generated using pymatgen
data_HgTe2(OF5)2
_symmetry_space_group_name_H-M   'P 1'
_cell_length_a   10.74006715
_cell_length_b   10.74006715
_cell_length_c   6.03262703
_cell_angle_alpha   83.19779998
_cell_angle_beta   83.19779998
_cell_angle_gamma   50.12687582
_symmetry_Int_Tables_number   1
_chemical_formula_structural   HgTe2(OF5)2
_chemical_formula_sum   'Hg2 Te4 O4 F20'
_cell_volume   529.46225542
_cell_formula_units_Z   2
loop_
 _symmetry_equiv_pos_site_id
 _symmetry_equiv_pos_as_xyz
  1  'x, y, z'
loop_
 _atom_site_type_symbol
 _atom_site_label
 _atom_site_symmetry_multiplicity
 _atom_site_fract_x
 _atom_site_fract_y
 _atom_site_fract_z
 _atom_site_occupancy
  Hg  Hg0  1  0.37311900  0.62688100  0.25000000  1
  Hg  Hg1  1  0.62688100  0.37311900  0.75000000  1
  Te  Te2  1  0.37530000  0.88070500  0.83392900  1
  Te  Te3  1  0.11929500  0.62470000  0.66607100  1
  Te  Te4  1  0.62470000  0.11929500  0.16607100  1
  Te  Te5  1  0.88070500  0.37530000  0.33392900  1
  O  O6  1  0.45441800  0.67055800  0.94893300  1
  O  O7  1  0.32944200  0.54558200  0.55106700  1
  O  O8  1  0.54558200  0.32944200  0.05106700  1
  O  O9  1  0.67055800  0.45441800  0.44893300  1
  F  F10  1  0.32498900  0.84953300  0.56532000  1
  F  F11  1  0.15046700  0.67501100  0.93468000  1
  F  F12  1  0.67501100  0.15046700  0.43468000  1
  F  F13  1  0.84953300  0.32498900  0.06532000  1
  F  F14  1  0.29728900  0.08545400  0.71101500  1
  F  F15  1  0.91454600  0.70271100  0.78898500  1
  F  F16  1  0.70271100  0.91454600  0.28898500  1
  F  F17  1  0.08545400  0.29728900  0.21101500  1
  F  F18  1  0.58161800  0.79330400  0.70523000  1
  F  F19  1  0.20669600  0.41838200  0.79477000  1
  F  F20  1  0.41838200  0.20669600  0.29477000  1
  F  F21  1  0.79330400  0.58161800  0.20523000  1
  F  F22  1  0.41845800  0.92632800  0.09210400  1
  F  F23  1  0.07367200  0.58154200  0.40789600  1
  F  F24  1  0.58154200  0.07367200  0.90789600  1
  F  F25  1  0.92632800  0.41845800  0.59210400  1
  F  F26  1  0.16112000  0.97976800  0.94971300  1
  F  F27  1  0.02023200  0.83888000  0.55028700  1
  F  F28  1  0.83888000  0.02023200  0.05028700  1
  F  F29  1  0.97976800  0.16112000  0.44971300  1
