# generated using pymatgen
data_Ta12Co3Pt3Se32
_symmetry_space_group_name_H-M   'P 1'
_cell_length_a   7.35083233
_cell_length_b   7.35083233
_cell_length_c   47.82144569
_cell_angle_alpha   89.45656044
_cell_angle_beta   89.45656044
_cell_angle_gamma   27.07071020
_symmetry_Int_Tables_number   1
_chemical_formula_structural   Ta12Co3Pt3Se32
_chemical_formula_sum   'Ta12 Co3 Pt3 Se32'
_cell_volume   1175.90473423
_cell_formula_units_Z   1
loop_
 _symmetry_equiv_pos_site_id
 _symmetry_equiv_pos_as_xyz
  1  'x, y, z'
loop_
 _atom_site_type_symbol
 _atom_site_label
 _atom_site_symmetry_multiplicity
 _atom_site_fract_x
 _atom_site_fract_y
 _atom_site_fract_z
 _atom_site_occupancy
  Ta  Ta0  1  0.41453000  0.41453000  0.61716100  1
  Ta  Ta1  1  0.91678200  0.91678200  0.11801100  1
  Ta  Ta2  1  0.08351200  0.08351200  0.88237800  1
  Ta  Ta3  1  0.58327700  0.58327700  0.38203400  1
  Ta  Ta4  1  0.53981000  0.53981000  0.94401100  1
  Ta  Ta5  1  0.04006700  0.04006700  0.44403300  1
  Ta  Ta6  1  0.96011400  0.96011400  0.55608800  1
  Ta  Ta7  1  0.46045700  0.46045700  0.05563800  1
  Ta  Ta8  1  0.44596200  0.44596200  0.71690400  1
  Ta  Ta9  1  0.94679100  0.94679100  0.21553800  1
  Ta  Ta10  1  0.05567700  0.05567700  0.78489700  1
  Ta  Ta11  1  0.55341500  0.55341500  0.28438900  1
  Co  Co12  1  0.38925300  0.38925300  0.16994400  1
  Co  Co13  1  0.61127100  0.61127100  0.83009700  1
  Co  Co14  1  0.11067600  0.11067600  0.32986000  1
  Pt  Pt15  1  0.99989800  0.99989800  0.00003700  1
  Pt  Pt16  1  0.50098900  0.50098900  0.49960800  1
  Pt  Pt17  1  0.88577300  0.88577300  0.66910000  1
  Se  Se18  1  0.04544800  0.04544800  0.60405900  1
  Se  Se19  1  0.54670300  0.54670300  0.10371600  1
  Se  Se20  1  0.45317900  0.45317900  0.89608200  1
  Se  Se21  1  0.95362600  0.95362600  0.39618800  1
  Se  Se22  1  0.68902600  0.68902600  0.78566200  1
  Se  Se23  1  0.18674600  0.18674600  0.28525900  1
  Se  Se24  1  0.81111000  0.81111000  0.71811200  1
  Se  Se25  1  0.31335000  0.31335000  0.21458700  1
  Se  Se26  1  0.51871400  0.51871400  0.66649900  1
  Se  Se27  1  0.00826100  0.00826100  0.16564500  1
  Se  Se28  1  0.99172400  0.99172400  0.83449400  1
  Se  Se29  1  0.49160100  0.49160100  0.33420300  1
  Se  Se30  1  0.42203700  0.42203700  0.77264100  1
  Se  Se31  1  0.92039700  0.92039700  0.27160200  1
  Se  Se32  1  0.07986800  0.07986800  0.72862900  1
  Se  Se33  1  0.57967000  0.57967000  0.22830900  1
  Se  Se34  1  0.21446000  0.21446000  0.84624800  1
  Se  Se35  1  0.71432000  0.71432000  0.34574400  1
  Se  Se36  1  0.27455300  0.27455300  0.65111000  1
  Se  Se37  1  0.78546100  0.78546100  0.15405700  1
  Se  Se38  1  0.81391900  0.81391900  0.58894900  1
  Se  Se39  1  0.31504200  0.31504200  0.09026800  1
  Se  Se40  1  0.68577300  0.68577300  0.90982200  1
  Se  Se41  1  0.18485600  0.18485600  0.40954300  1
  Se  Se42  1  0.35672600  0.35672600  0.52875900  1
  Se  Se43  1  0.85517200  0.85517200  0.02922600  1
  Se  Se44  1  0.14442200  0.14442200  0.97076000  1
  Se  Se45  1  0.64540200  0.64540200  0.47050600  1
  Se  Se46  1  0.59212600  0.59212600  0.54326600  1
  Se  Se47  1  0.09300700  0.09300700  0.04340500  1
  Se  Se48  1  0.90743900  0.90743900  0.95653800  1
  Se  Se49  1  0.40760700  0.40760700  0.45638400  1
