# generated using pymatgen
data_TlIn4S5Cl
_symmetry_space_group_name_H-M   'P 1'
_cell_length_a   3.99489500
_cell_length_b   9.11432008
_cell_length_c   15.22989069
_cell_angle_alpha   93.38787669
_cell_angle_beta   90.00000000
_cell_angle_gamma   90.00000000
_symmetry_Int_Tables_number   1
_chemical_formula_structural   TlIn4S5Cl
_chemical_formula_sum   'Tl2 In8 S10 Cl2'
_cell_volume   553.56264374
_cell_formula_units_Z   2
loop_
 _symmetry_equiv_pos_site_id
 _symmetry_equiv_pos_as_xyz
  1  'x, y, z'
loop_
 _atom_site_type_symbol
 _atom_site_label
 _atom_site_symmetry_multiplicity
 _atom_site_fract_x
 _atom_site_fract_y
 _atom_site_fract_z
 _atom_site_occupancy
  Tl  Tl0  1  0.75000000  0.60720300  0.65652000  1
  Tl  Tl1  1  0.25000000  0.39279700  0.34348000  1
  In  In2  1  0.75000000  0.23652100  0.79376500  1
  In  In3  1  0.25000000  0.76347900  0.20623500  1
  In  In4  1  0.75000000  0.86865700  0.43705800  1
  In  In5  1  0.25000000  0.13134300  0.56294200  1
  In  In6  1  0.75000000  0.34120500  0.05329400  1
  In  In7  1  0.25000000  0.65879500  0.94670600  1
  In  In8  1  0.75000000  0.95314600  0.85451400  1
  In  In9  1  0.25000000  0.04685400  0.14548600  1
  S  S10  1  0.75000000  0.46769700  0.89987900  1
  S  S11  1  0.25000000  0.53230300  0.10012100  1
  S  S12  1  0.75000000  0.83158400  0.00059000  1
  S  S13  1  0.25000000  0.16841600  0.99941000  1
  S  S14  1  0.75000000  0.96660700  0.60021400  1
  S  S15  1  0.25000000  0.03339300  0.39978600  1
  S  S16  1  0.75000000  0.20678100  0.20186200  1
  S  S17  1  0.25000000  0.79321900  0.79813800  1
  S  S18  1  0.75000000  0.68828500  0.30093100  1
  S  S19  1  0.25000000  0.31171500  0.69906900  1
  Cl  Cl20  1  0.75000000  0.32656500  0.50387300  1
  Cl  Cl21  1  0.25000000  0.67343500  0.49612700  1
