# generated using pymatgen
data_NdCO4
_symmetry_space_group_name_H-M   'P 1'
_cell_length_a   12.54171902
_cell_length_b   12.54171902
_cell_length_c   9.89108900
_cell_angle_alpha   90.00000000
_cell_angle_beta   90.00000000
_cell_angle_gamma   119.99999485
_symmetry_Int_Tables_number   1
_chemical_formula_structural   NdCO4
_chemical_formula_sum   'Nd18 C18 O72'
_cell_volume   1347.37628063
_cell_formula_units_Z   18
loop_
 _symmetry_equiv_pos_site_id
 _symmetry_equiv_pos_as_xyz
  1  'x, y, z'
loop_
 _atom_site_type_symbol
 _atom_site_label
 _atom_site_symmetry_multiplicity
 _atom_site_fract_x
 _atom_site_fract_y
 _atom_site_fract_z
 _atom_site_occupancy
  Nd  Nd0  1  0.56287000  0.78435200  0.75976700  1
  Nd  Nd1  1  0.22148200  0.43713000  0.75976700  1
  Nd  Nd2  1  0.21564800  0.77851800  0.75976700  1
  Nd  Nd3  1  0.56287000  0.78435200  0.24023300  1
  Nd  Nd4  1  0.22148200  0.43713000  0.24023300  1
  Nd  Nd5  1  0.21564800  0.77851800  0.24023300  1
  Nd  Nd6  1  0.89534900  0.45165300  0.74372300  1
  Nd  Nd7  1  0.55630500  0.10465100  0.74372300  1
  Nd  Nd8  1  0.54834700  0.44369500  0.74372300  1
  Nd  Nd9  1  0.89534900  0.45165300  0.25627700  1
  Nd  Nd10  1  0.55630500  0.10465100  0.25627700  1
  Nd  Nd11  1  0.54834700  0.44369500  0.25627700  1
  Nd  Nd12  1  0.87865100  0.76999900  0.74334500  1
  Nd  Nd13  1  0.89134800  0.12134900  0.74334500  1
  Nd  Nd14  1  0.23000100  0.10865200  0.74334500  1
  Nd  Nd15  1  0.87865100  0.76999900  0.25665500  1
  Nd  Nd16  1  0.89134800  0.12134900  0.25665500  1
  Nd  Nd17  1  0.23000100  0.10865200  0.25665500  1
  C  C18  1  0.84191100  0.31237400  0.00000000  1
  C  C19  1  0.47046300  0.15808900  0.00000000  1
  C  C20  1  0.68762600  0.52953700  0.00000000  1
  C  C21  1  0.44633100  0.86897300  0.00000000  1
  C  C22  1  0.42264100  0.55366900  0.00000000  1
  C  C23  1  0.13102700  0.57735900  0.00000000  1
  C  C24  1  0.80027200  0.82887300  0.00000000  1
  C  C25  1  0.02860000  0.19972800  0.00000000  1
  C  C26  1  0.17112700  0.97140000  0.00000000  1
  C  C27  1  0.75524600  0.53667000  0.50000000  1
  C  C28  1  0.78142400  0.24475400  0.50000000  1
  C  C29  1  0.46333000  0.21857600  0.50000000  1
  C  C30  1  0.10905500  0.90517200  0.50000000  1
  C  C31  1  0.79611600  0.89094500  0.50000000  1
  C  C32  1  0.09482800  0.20388400  0.50000000  1
  C  C33  1  0.51429700  0.86925800  0.50000000  1
  C  C34  1  0.35496000  0.48570300  0.50000000  1
  C  C35  1  0.13074200  0.64504000  0.50000000  1
  O  O36  1  0.84672600  0.41896700  0.00000000  1
  O  O37  1  0.57224100  0.15327400  0.00000000  1
  O  O38  1  0.58103300  0.42775900  0.00000000  1
  O  O39  1  0.84105600  0.26339100  0.88511600  1
  O  O40  1  0.42233400  0.15894400  0.88511600  1
  O  O41  1  0.73660900  0.57766600  0.88511600  1
  O  O42  1  0.84105600  0.26339100  0.11488400  1
  O  O43  1  0.42233400  0.15894400  0.11488400  1
  O  O44  1  0.73660900  0.57766600  0.11488400  1
  O  O45  1  0.50319300  0.80618200  0.00000000  1
  O  O46  1  0.30298900  0.49680700  0.00000000  1
  O  O47  1  0.19381800  0.69701100  0.00000000  1
  O  O48  1  0.48019100  0.58104800  0.88540600  1
  O  O49  1  0.10085700  0.51980900  0.88540600  1
  O  O50  1  0.41895200  0.89914300  0.88540600  1
  O  O51  1  0.48019100  0.58104800  0.11459400  1
  O  O52  1  0.10085700  0.51980900  0.11459400  1
  O  O53  1  0.41895200  0.89914300  0.11459400  1
  O  O54  1  0.90209600  0.82579800  0.00000000  1
  O  O55  1  0.92370300  0.09790400  0.00000000  1
  O  O56  1  0.17420200  0.07629700  0.00000000  1
  O  O57  1  0.75036600  0.82833900  0.88575200  1
  O  O58  1  0.07797300  0.24963400  0.88575200  1
  O  O59  1  0.17166100  0.92202700  0.88575200  1
  O  O60  1  0.75036600  0.82833900  0.11424800  1
  O  O61  1  0.07797300  0.24963400  0.11424800  1
  O  O62  1  0.17166100  0.92202700  0.11424800  1
  O  O63  1  0.83396300  0.36367700  0.50000000  1
  O  O64  1  0.52971400  0.16603700  0.50000000  1
  O  O65  1  0.63632300  0.47028600  0.50000000  1
  O  O66  1  0.81403800  0.56978200  0.61386100  1
  O  O67  1  0.75574400  0.18596200  0.61386100  1
  O  O68  1  0.43021800  0.24425600  0.61386100  1
  O  O69  1  0.81403800  0.56978200  0.38613900  1
  O  O70  1  0.75574400  0.18596200  0.38613900  1
  O  O71  1  0.43021800  0.24425600  0.38613900  1
  O  O72  1  0.85252500  0.82745500  0.50000000  1
  O  O73  1  0.97493000  0.14747500  0.50000000  1
  O  O74  1  0.17254500  0.02507000  0.50000000  1
  O  O75  1  0.07847100  0.84745800  0.61448200  1
  O  O76  1  0.76898700  0.92152900  0.61448200  1
  O  O77  1  0.15254200  0.23101300  0.61448200  1
  O  O78  1  0.07847100  0.84745800  0.38551800  1
  O  O79  1  0.76898700  0.92152900  0.38551800  1
  O  O80  1  0.15254200  0.23101300  0.38551800  1
  O  O81  1  0.51604400  0.76629200  0.50000000  1
  O  O82  1  0.25024800  0.48395600  0.50000000  1
  O  O83  1  0.23370800  0.74975200  0.50000000  1
  O  O84  1  0.51454000  0.91880900  0.61405500  1
  O  O85  1  0.40426900  0.48546000  0.61405500  1
  O  O86  1  0.08119100  0.59573100  0.61405500  1
  O  O87  1  0.51454000  0.91880900  0.38594500  1
  O  O88  1  0.40426900  0.48546000  0.38594500  1
  O  O89  1  0.08119100  0.59573100  0.38594500  1
  O  O90  1  0.33333300  0.66666700  0.73949700  1
  O  O91  1  0.33333300  0.66666700  0.26050300  1
  O  O92  1  0.66666700  0.33333300  0.75385400  1
  O  O93  1  0.66666700  0.33333300  0.24614600  1
  O  O94  1  0.00000000  0.00000000  0.75821700  1
  O  O95  1  0.00000000  0.00000000  0.24178300  1
  O  O96  1  0.00758400  0.34478100  0.69166300  1
  O  O97  1  0.33719800  0.99241600  0.69166300  1
  O  O98  1  0.65521900  0.66280200  0.69166300  1
  O  O99  1  0.00758400  0.34478100  0.30833700  1
  O  O100  1  0.33719800  0.99241600  0.30833700  1
  O  O101  1  0.65521900  0.66280200  0.30833700  1
  O  O102  1  0.99299000  0.66927800  0.80633000  1
  O  O103  1  0.67628800  0.00701000  0.80633000  1
  O  O104  1  0.33072200  0.32371200  0.80633000  1
  O  O105  1  0.99299000  0.66927800  0.19367000  1
  O  O106  1  0.67628800  0.00701000  0.19367000  1
  O  O107  1  0.33072200  0.32371200  0.19367000  1
