# generated using pymatgen
data_Ho2Sc3Si4
_symmetry_space_group_name_H-M   'P 1'
_cell_length_a   7.08744300
_cell_length_b   7.38016100
_cell_length_c   13.98965600
_cell_angle_alpha   90.00000000
_cell_angle_beta   90.00000000
_cell_angle_gamma   90.00000000
_symmetry_Int_Tables_number   1
_chemical_formula_structural   Ho2Sc3Si4
_chemical_formula_sum   'Ho8 Sc12 Si16'
_cell_volume   731.74952773
_cell_formula_units_Z   4
loop_
 _symmetry_equiv_pos_site_id
 _symmetry_equiv_pos_as_xyz
  1  'x, y, z'
loop_
 _atom_site_type_symbol
 _atom_site_label
 _atom_site_symmetry_multiplicity
 _atom_site_fract_x
 _atom_site_fract_y
 _atom_site_fract_z
 _atom_site_occupancy
  Ho  Ho0  1  0.01200200  0.17489100  0.09711900  1
  Ho  Ho1  1  0.98799800  0.82510900  0.90288100  1
  Ho  Ho2  1  0.48799800  0.67489100  0.90288100  1
  Ho  Ho3  1  0.98799800  0.82510900  0.59711900  1
  Ho  Ho4  1  0.51200200  0.32510900  0.09711900  1
  Ho  Ho5  1  0.01200200  0.17489100  0.40288100  1
  Ho  Ho6  1  0.51200200  0.32510900  0.40288100  1
  Ho  Ho7  1  0.48799800  0.67489100  0.59711900  1
  Sc  Sc8  1  0.16071500  0.50287500  0.75000000  1
  Sc  Sc9  1  0.83928500  0.49712500  0.25000000  1
  Sc  Sc10  1  0.33928500  0.00287500  0.25000000  1
  Sc  Sc11  1  0.66071500  0.99712500  0.75000000  1
  Sc  Sc12  1  0.33023900  0.17671600  0.62485500  1
  Sc  Sc13  1  0.66976100  0.82328400  0.37514500  1
  Sc  Sc14  1  0.16976100  0.67671600  0.37514500  1
  Sc  Sc15  1  0.66976100  0.82328400  0.12485500  1
  Sc  Sc16  1  0.83023900  0.32328400  0.62485500  1
  Sc  Sc17  1  0.33023900  0.17671600  0.87514500  1
  Sc  Sc18  1  0.83023900  0.32328400  0.87514500  1
  Sc  Sc19  1  0.16976100  0.67671600  0.12485500  1
  Si  Si20  1  0.03300100  0.11801600  0.75000000  1
  Si  Si21  1  0.96699900  0.88198400  0.25000000  1
  Si  Si22  1  0.46699900  0.61801600  0.25000000  1
  Si  Si23  1  0.53300100  0.38198400  0.75000000  1
  Si  Si24  1  0.28549500  0.87365100  0.75000000  1
  Si  Si25  1  0.71450500  0.12634900  0.25000000  1
  Si  Si26  1  0.21450500  0.37365100  0.25000000  1
  Si  Si27  1  0.78549500  0.62634900  0.75000000  1
  Si  Si28  1  0.15781200  0.46472700  0.53944700  1
  Si  Si29  1  0.84218800  0.53527300  0.46055300  1
  Si  Si30  1  0.34218800  0.96472700  0.46055300  1
  Si  Si31  1  0.84218800  0.53527300  0.03944700  1
  Si  Si32  1  0.65781200  0.03527300  0.53944700  1
  Si  Si33  1  0.15781200  0.46472700  0.96055300  1
  Si  Si34  1  0.65781200  0.03527300  0.96055300  1
  Si  Si35  1  0.34218800  0.96472700  0.03944700  1
