# generated using pymatgen
data_LiYbGe2
_symmetry_space_group_name_H-M   'P 1'
_cell_length_a   3.91768900
_cell_length_b   7.96165600
_cell_length_c   10.61510100
_cell_angle_alpha   90.00000000
_cell_angle_beta   90.00000000
_cell_angle_gamma   90.00000000
_symmetry_Int_Tables_number   1
_chemical_formula_structural   LiYbGe2
_chemical_formula_sum   'Li4 Yb4 Ge8'
_cell_volume   331.09871631
_cell_formula_units_Z   4
loop_
 _symmetry_equiv_pos_site_id
 _symmetry_equiv_pos_as_xyz
  1  'x, y, z'
loop_
 _atom_site_type_symbol
 _atom_site_label
 _atom_site_symmetry_multiplicity
 _atom_site_fract_x
 _atom_site_fract_y
 _atom_site_fract_z
 _atom_site_occupancy
  Li  Li0  1  0.25000000  0.48930800  0.39111900  1
  Li  Li1  1  0.75000000  0.51069200  0.60888100  1
  Li  Li2  1  0.25000000  0.98930800  0.10888100  1
  Li  Li3  1  0.75000000  0.01069200  0.89111900  1
  Yb  Yb4  1  0.25000000  0.13463000  0.63667900  1
  Yb  Yb5  1  0.75000000  0.86537000  0.36332100  1
  Yb  Yb6  1  0.25000000  0.63463000  0.86332100  1
  Yb  Yb7  1  0.75000000  0.36537000  0.13667900  1
  Ge  Ge8  1  0.75000000  0.34503200  0.81985200  1
  Ge  Ge9  1  0.25000000  0.65496800  0.18014800  1
  Ge  Ge10  1  0.75000000  0.84503200  0.68014800  1
  Ge  Ge11  1  0.25000000  0.15496800  0.31985200  1
  Ge  Ge12  1  0.75000000  0.26692400  0.43952800  1
  Ge  Ge13  1  0.25000000  0.73307600  0.56047200  1
  Ge  Ge14  1  0.75000000  0.76692400  0.06047200  1
  Ge  Ge15  1  0.25000000  0.23307600  0.93952800  1
