# generated using pymatgen
data_RbGa7
_symmetry_space_group_name_H-M   'P 1'
_cell_length_a   10.35170772
_cell_length_b   10.35170772
_cell_length_c   10.35170786
_cell_angle_alpha   38.11715903
_cell_angle_beta   38.11715903
_cell_angle_gamma   38.11716320
_symmetry_Int_Tables_number   1
_chemical_formula_structural   RbGa7
_chemical_formula_sum   'Rb2 Ga14'
_cell_volume   379.47816991
_cell_formula_units_Z   2
loop_
 _symmetry_equiv_pos_site_id
 _symmetry_equiv_pos_as_xyz
  1  'x, y, z'
loop_
 _atom_site_type_symbol
 _atom_site_label
 _atom_site_symmetry_multiplicity
 _atom_site_fract_x
 _atom_site_fract_y
 _atom_site_fract_z
 _atom_site_occupancy
  Rb  Rb0  1  0.19577200  0.19577200  0.19577200  1
  Rb  Rb1  1  0.80422800  0.80422800  0.80422800  1
  Ga  Ga2  1  0.45551800  0.45551800  0.45551800  1
  Ga  Ga3  1  0.54448200  0.54448200  0.54448200  1
  Ga  Ga4  1  0.58192300  0.18158100  0.18158100  1
  Ga  Ga5  1  0.18158100  0.18158100  0.58192300  1
  Ga  Ga6  1  0.18158100  0.58192300  0.18158100  1
  Ga  Ga7  1  0.81841900  0.41807700  0.81841900  1
  Ga  Ga8  1  0.41807700  0.81841900  0.81841900  1
  Ga  Ga9  1  0.81841900  0.81841900  0.41807700  1
  Ga  Ga10  1  0.79820700  0.21628900  0.21628900  1
  Ga  Ga11  1  0.21628900  0.21628900  0.79820700  1
  Ga  Ga12  1  0.21628900  0.79820700  0.21628900  1
  Ga  Ga13  1  0.78371100  0.20179300  0.78371100  1
  Ga  Ga14  1  0.20179300  0.78371100  0.78371100  1
  Ga  Ga15  1  0.78371100  0.78371100  0.20179300  1
