# generated using pymatgen
data_CsFeBr4
_symmetry_space_group_name_H-M   'P 1'
_cell_length_a   7.77259800
_cell_length_b   10.21296500
_cell_length_c   12.60196400
_cell_angle_alpha   90.00000000
_cell_angle_beta   90.00000000
_cell_angle_gamma   90.00000000
_symmetry_Int_Tables_number   1
_chemical_formula_structural   CsFeBr4
_chemical_formula_sum   'Cs4 Fe4 Br16'
_cell_volume   1000.35992361
_cell_formula_units_Z   4
loop_
 _symmetry_equiv_pos_site_id
 _symmetry_equiv_pos_as_xyz
  1  'x, y, z'
loop_
 _atom_site_type_symbol
 _atom_site_label
 _atom_site_symmetry_multiplicity
 _atom_site_fract_x
 _atom_site_fract_y
 _atom_site_fract_z
 _atom_site_occupancy
  Cs  Cs0  1  0.25000000  0.65863600  0.18355200  1
  Cs  Cs1  1  0.75000000  0.34136400  0.81644800  1
  Cs  Cs2  1  0.75000000  0.15863600  0.31644800  1
  Cs  Cs3  1  0.25000000  0.84136400  0.68355200  1
  Fe  Fe4  1  0.25000000  0.19140000  0.06320400  1
  Fe  Fe5  1  0.75000000  0.80860000  0.93679600  1
  Fe  Fe6  1  0.75000000  0.69140000  0.43679600  1
  Fe  Fe7  1  0.25000000  0.30860000  0.56320400  1
  Br  Br8  1  0.25000000  0.40190900  0.39347300  1
  Br  Br9  1  0.75000000  0.59809100  0.60652700  1
  Br  Br10  1  0.75000000  0.90190900  0.10652700  1
  Br  Br11  1  0.25000000  0.09809100  0.89347300  1
  Br  Br12  1  0.25000000  0.03265500  0.19823100  1
  Br  Br13  1  0.75000000  0.96734500  0.80176900  1
  Br  Br14  1  0.75000000  0.53265500  0.30176900  1
  Br  Br15  1  0.25000000  0.46734500  0.69823100  1
  Br  Br16  1  0.00288000  0.32582600  0.08242500  1
  Br  Br17  1  0.99712000  0.67417400  0.91757500  1
  Br  Br18  1  0.99712000  0.82582600  0.41757500  1
  Br  Br19  1  0.50288000  0.67417400  0.91757500  1
  Br  Br20  1  0.00288000  0.17417400  0.58242500  1
  Br  Br21  1  0.49712000  0.32582600  0.08242500  1
  Br  Br22  1  0.49712000  0.17417400  0.58242500  1
  Br  Br23  1  0.50288000  0.82582600  0.41757500  1
