# generated using pymatgen
data_Cd2AsHO5
_symmetry_space_group_name_H-M   'P 1'
_cell_length_a   14.39857100
_cell_length_b   10.85766900
_cell_length_c   13.32627715
_cell_angle_alpha   71.54965905
_cell_angle_beta   90.00000000
_cell_angle_gamma   90.00000000
_symmetry_Int_Tables_number   1
_chemical_formula_structural   Cd2AsHO5
_chemical_formula_sum   'Cd32 As16 H16 O80'
_cell_volume   1976.27409744
_cell_formula_units_Z   16
loop_
 _symmetry_equiv_pos_site_id
 _symmetry_equiv_pos_as_xyz
  1  'x, y, z'
loop_
 _atom_site_type_symbol
 _atom_site_label
 _atom_site_symmetry_multiplicity
 _atom_site_fract_x
 _atom_site_fract_y
 _atom_site_fract_z
 _atom_site_occupancy
  Cd  Cd0  1  0.01910300  0.81118000  0.69056000  1
  Cd  Cd1  1  0.51910300  0.18882000  0.80944000  1
  Cd  Cd2  1  0.98089700  0.18882000  0.30944000  1
  Cd  Cd3  1  0.48089700  0.81118000  0.19056000  1
  Cd  Cd4  1  0.50475900  0.78978700  0.69858100  1
  Cd  Cd5  1  0.00475900  0.21021300  0.80141900  1
  Cd  Cd6  1  0.49524100  0.21021300  0.30141900  1
  Cd  Cd7  1  0.99524100  0.78978700  0.19858100  1
  Cd  Cd8  1  0.74817500  0.70499500  0.80113500  1
  Cd  Cd9  1  0.24817500  0.29500500  0.69886500  1
  Cd  Cd10  1  0.25182500  0.29500500  0.19886500  1
  Cd  Cd11  1  0.75182500  0.70499500  0.30113500  1
  Cd  Cd12  1  0.23333900  0.69370000  0.81479800  1
  Cd  Cd13  1  0.73333900  0.30630000  0.68520200  1
  Cd  Cd14  1  0.76666100  0.30630000  0.18520200  1
  Cd  Cd15  1  0.26666100  0.69370000  0.31479800  1
  Cd  Cd16  1  0.42818300  0.53360700  0.59865000  1
  Cd  Cd17  1  0.92818300  0.46639300  0.90135000  1
  Cd  Cd18  1  0.57181700  0.46639300  0.40135000  1
  Cd  Cd19  1  0.07181700  0.53360700  0.09865000  1
  Cd  Cd20  1  0.92308900  0.55601900  0.58292400  1
  Cd  Cd21  1  0.42308900  0.44398100  0.91707600  1
  Cd  Cd22  1  0.07691100  0.44398100  0.41707600  1
  Cd  Cd23  1  0.57691100  0.55601900  0.08292400  1
  Cd  Cd24  1  0.82471200  0.96528300  0.89007400  1
  Cd  Cd25  1  0.32471200  0.03471700  0.60992600  1
  Cd  Cd26  1  0.17528800  0.03471700  0.10992600  1
  Cd  Cd27  1  0.67528800  0.96528300  0.39007400  1
  Cd  Cd28  1  0.32428900  0.95151500  0.92593700  1
  Cd  Cd29  1  0.82428900  0.04848500  0.57406300  1
  Cd  Cd30  1  0.67571100  0.04848500  0.07406300  1
  Cd  Cd31  1  0.17571100  0.95151500  0.42593700  1
  As  As32  1  0.67505200  0.62153900  0.57597000  1
  As  As33  1  0.17505200  0.37846100  0.92403000  1
  As  As34  1  0.32494800  0.37846100  0.42403000  1
  As  As35  1  0.82494800  0.62153900  0.07597000  1
  As  As36  1  0.17335300  0.61712000  0.57588800  1
  As  As37  1  0.67335300  0.38288000  0.92411200  1
  As  As38  1  0.82664700  0.38288000  0.42411200  1
  As  As39  1  0.32664700  0.61712000  0.07588800  1
  As  As40  1  0.07844000  0.88516000  0.92575300  1
  As  As41  1  0.57844000  0.11484000  0.57424700  1
  As  As42  1  0.92156000  0.11484000  0.07424700  1
  As  As43  1  0.42156000  0.88516000  0.42575300  1
  As  As44  1  0.57427300  0.87906000  0.92420900  1
  As  As45  1  0.07427300  0.12094000  0.57579100  1
  As  As46  1  0.42572700  0.12094000  0.07579100  1
  As  As47  1  0.92572700  0.87906000  0.42420900  1
  H  H48  1  0.53324700  0.54091800  0.76064200  1
  H  H49  1  0.03324700  0.45908200  0.73935800  1
  H  H50  1  0.46675300  0.45908200  0.23935800  1
  H  H51  1  0.96675300  0.54091800  0.26064200  1
  H  H52  1  0.33637400  0.78315500  0.64324500  1
  H  H53  1  0.83637400  0.21684500  0.85675500  1
  H  H54  1  0.66362600  0.21684500  0.35675500  1
  H  H55  1  0.16362600  0.78315500  0.14324500  1
  H  H56  1  0.71530000  0.95505600  0.72894600  1
  H  H57  1  0.21530000  0.04494400  0.77105400  1
  H  H58  1  0.28470000  0.04494400  0.27105400  1
  H  H59  1  0.78470000  0.95505600  0.22894600  1
  H  H60  1  0.91625600  0.72021400  0.86227000  1
  H  H61  1  0.41625600  0.27978600  0.63773000  1
  H  H62  1  0.08374400  0.27978600  0.13773000  1
  H  H63  1  0.58374400  0.72021400  0.36227000  1
  O  O64  1  0.08138300  0.53055700  0.55007300  1
  O  O65  1  0.58138300  0.46944300  0.94992700  1
  O  O66  1  0.91861700  0.46944300  0.44992700  1
  O  O67  1  0.41861700  0.53055700  0.05007300  1
  O  O68  1  0.58827100  0.51952000  0.55904000  1
  O  O69  1  0.08827100  0.48048000  0.94096000  1
  O  O70  1  0.41172900  0.48048000  0.44096000  1
  O  O71  1  0.91172900  0.51952000  0.05904000  1
  O  O72  1  0.66169700  0.98743200  0.92699700  1
  O  O73  1  0.16169700  0.01256800  0.57300300  1
  O  O74  1  0.33830300  0.01256800  0.07300300  1
  O  O75  1  0.83830300  0.98743200  0.42699700  1
  O  O76  1  0.16664100  0.97413100  0.95745600  1
  O  O77  1  0.66664100  0.02586900  0.54254400  1
  O  O78  1  0.83335900  0.02586900  0.04254400  1
  O  O79  1  0.33335900  0.97413100  0.45745600  1
  O  O80  1  0.45475500  0.75746800  0.53414700  1
  O  O81  1  0.95475500  0.24253200  0.96585300  1
  O  O82  1  0.54524500  0.24253200  0.46585300  1
  O  O83  1  0.04524500  0.75746800  0.03414700  1
  O  O84  1  0.94431000  0.77057000  0.54946800  1
  O  O85  1  0.44431000  0.22943000  0.95053200  1
  O  O86  1  0.05569000  0.22943000  0.45053200  1
  O  O87  1  0.55569000  0.77057000  0.04946800  1
  O  O88  1  0.79801100  0.74223400  0.96017600  1
  O  O89  1  0.29801100  0.25776600  0.53982400  1
  O  O90  1  0.20198900  0.25776600  0.03982400  1
  O  O91  1  0.70198900  0.74223400  0.46017600  1
  O  O92  1  0.29500800  0.73846300  0.96144700  1
  O  O93  1  0.79500800  0.26153700  0.53855300  1
  O  O94  1  0.70499200  0.26153700  0.03855300  1
  O  O95  1  0.20499200  0.73846300  0.46144700  1
  O  O96  1  0.64739600  0.68926000  0.67313400  1
  O  O97  1  0.14739600  0.31074000  0.82686600  1
  O  O98  1  0.35260400  0.31074000  0.32686600  1
  O  O99  1  0.85260400  0.68926000  0.17313400  1
  O  O100  1  0.14043500  0.68139600  0.67381900  1
  O  O101  1  0.64043500  0.31860400  0.82618100  1
  O  O102  1  0.85956500  0.31860400  0.32618100  1
  O  O103  1  0.35956500  0.68139600  0.17381900  1
  O  O104  1  0.11629400  0.83188600  0.82257400  1
  O  O105  1  0.61629400  0.16811400  0.67742600  1
  O  O106  1  0.88370600  0.16811400  0.17742600  1
  O  O107  1  0.38370600  0.83188600  0.32257400  1
  O  O108  1  0.59873300  0.79516300  0.83768100  1
  O  O109  1  0.09873300  0.20483700  0.66231900  1
  O  O110  1  0.40126700  0.20483700  0.16231900  1
  O  O111  1  0.90126700  0.79516300  0.33768100  1
  O  O112  1  0.77044000  0.52031200  0.61985300  1
  O  O113  1  0.27044000  0.47968800  0.88014700  1
  O  O114  1  0.22956000  0.47968800  0.38014700  1
  O  O115  1  0.72956000  0.52031200  0.11985300  1
  O  O116  1  0.26664200  0.51532700  0.61957500  1
  O  O117  1  0.76664200  0.48467300  0.88042500  1
  O  O118  1  0.73335800  0.48467300  0.38042500  1
  O  O119  1  0.23335800  0.51532700  0.11957500  1
  O  O120  1  0.47692700  0.97584400  0.88248500  1
  O  O121  1  0.97692700  0.02415600  0.61751500  1
  O  O122  1  0.52307300  0.02415600  0.11751500  1
  O  O123  1  0.02307300  0.97584400  0.38248500  1
  O  O124  1  0.98584300  0.98750800  0.87698300  1
  O  O125  1  0.48584300  0.01249200  0.62301700  1
  O  O126  1  0.01415700  0.01249200  0.12301700  1
  O  O127  1  0.51415700  0.98750800  0.37698300  1
  O  O128  1  0.46821300  0.56788600  0.75525900  1
  O  O129  1  0.96821300  0.43211400  0.74474100  1
  O  O130  1  0.53178700  0.43211400  0.24474100  1
  O  O131  1  0.03178700  0.56788600  0.25525900  1
  O  O132  1  0.34167600  0.81372900  0.70455300  1
  O  O133  1  0.84167600  0.18627100  0.79544700  1
  O  O134  1  0.65832400  0.18627100  0.29544700  1
  O  O135  1  0.15832400  0.81372900  0.20455300  1
  O  O136  1  0.77979500  0.92545500  0.73671100  1
  O  O137  1  0.27979500  0.07454500  0.76328900  1
  O  O138  1  0.22020500  0.07454500  0.26328900  1
  O  O139  1  0.72020500  0.92545500  0.23671100  1
  O  O140  1  0.91398300  0.68660300  0.80230700  1
  O  O141  1  0.41398300  0.31339700  0.69769300  1
  O  O142  1  0.08601700  0.31339700  0.19769300  1
  O  O143  1  0.58601700  0.68660300  0.30230700  1
