# generated using pymatgen
data_Cs2NaGaP2
_symmetry_space_group_name_H-M   'P 1'
_cell_length_a   9.41879321
_cell_length_b   9.41879321
_cell_length_c   9.41879321
_cell_angle_alpha   139.36585794
_cell_angle_beta   137.36350278
_cell_angle_gamma   60.35997470
_symmetry_Int_Tables_number   1
_chemical_formula_structural   Cs2NaGaP2
_chemical_formula_sum   'Cs4 Na2 Ga2 P4'
_cell_volume   364.70873012
_cell_formula_units_Z   2
loop_
 _symmetry_equiv_pos_site_id
 _symmetry_equiv_pos_as_xyz
  1  'x, y, z'
loop_
 _atom_site_type_symbol
 _atom_site_label
 _atom_site_symmetry_multiplicity
 _atom_site_fract_x
 _atom_site_fract_y
 _atom_site_fract_z
 _atom_site_occupancy
  Cs  Cs0  1  0.56739100  0.32805700  0.23933400  1
  Cs  Cs1  1  0.43260900  0.67194300  0.76066600  1
  Cs  Cs2  1  0.08872400  0.82805700  0.26066600  1
  Cs  Cs3  1  0.91127600  0.17194300  0.73933400  1
  Na  Na4  1  0.50000000  0.25000000  0.75000000  1
  Na  Na5  1  0.50000000  0.75000000  0.25000000  1
  Ga  Ga6  1  0.00000000  0.25000000  0.25000000  1
  Ga  Ga7  1  0.00000000  0.75000000  0.75000000  1
  P  P8  1  0.27725200  0.08035000  0.19690200  1
  P  P9  1  0.72274800  0.91965000  0.80309800  1
  P  P10  1  0.88344800  0.58035000  0.30309800  1
  P  P11  1  0.11655200  0.41965000  0.69690200  1
