# generated using pymatgen
data_Hf2Ag
_symmetry_space_group_name_H-M   'P 1'
_cell_length_a   6.44206656
_cell_length_b   6.44206656
_cell_length_c   6.44206656
_cell_angle_alpha   151.05602843
_cell_angle_beta   151.05602843
_cell_angle_gamma   41.39344269
_symmetry_Int_Tables_number   1
_chemical_formula_structural   Hf2Ag
_chemical_formula_sum   'Hf2 Ag1'
_cell_volume   62.47672995
_cell_formula_units_Z   1
loop_
 _symmetry_equiv_pos_site_id
 _symmetry_equiv_pos_as_xyz
  1  'x, y, z'
loop_
 _atom_site_type_symbol
 _atom_site_label
 _atom_site_symmetry_multiplicity
 _atom_site_fract_x
 _atom_site_fract_y
 _atom_site_fract_z
 _atom_site_occupancy
  Hf  Hf0  1  0.33446800  0.33446800  0.00000000  1
  Hf  Hf1  1  0.66553200  0.66553200  0.00000000  1
  Ag  Ag2  1  0.00000000  0.00000000  0.00000000  1
