# generated using pymatgen
data_AlH15(OF)6
_symmetry_space_group_name_H-M   'P 1'
_cell_length_a   8.18362000
_cell_length_b   8.19439418
_cell_length_c   8.19790169
_cell_angle_alpha   74.31289527
_cell_angle_beta   74.77228215
_cell_angle_gamma   75.24037420
_symmetry_Int_Tables_number   1
_chemical_formula_structural   AlH15(OF)6
_chemical_formula_sum   'Al2 H30 O12 F12'
_cell_volume   500.59993399
_cell_formula_units_Z   2
loop_
 _symmetry_equiv_pos_site_id
 _symmetry_equiv_pos_as_xyz
  1  'x, y, z'
loop_
 _atom_site_type_symbol
 _atom_site_label
 _atom_site_symmetry_multiplicity
 _atom_site_fract_x
 _atom_site_fract_y
 _atom_site_fract_z
 _atom_site_occupancy
  Al  Al0  1  0.50000000  0.50000000  0.50000000  1
  Al  Al1  1  0.00000000  0.00000000  0.00000000  1
  H  H2  1  0.81331300  0.71019400  0.05053700  1
  H  H3  1  0.71192400  0.05184600  0.81127700  1
  H  H4  1  0.04784900  0.81210200  0.70332100  1
  H  H5  1  0.21147400  0.31268000  0.54975100  1
  H  H6  1  0.31310700  0.54565200  0.20288500  1
  H  H7  1  0.54611800  0.20454500  0.31123700  1
  H  H8  1  0.18668700  0.28980600  0.94946300  1
  H  H9  1  0.28807600  0.94815400  0.18872300  1
  H  H10  1  0.95215100  0.18789800  0.29667900  1
  H  H11  1  0.78852600  0.68732000  0.45024900  1
  H  H12  1  0.68689300  0.45434800  0.79711500  1
  H  H13  1  0.45388200  0.79545500  0.68876300  1
  H  H14  1  0.62697000  0.63865000  0.13086900  1
  H  H15  1  0.64058800  0.13298500  0.62576200  1
  H  H16  1  0.12215600  0.63197200  0.63679800  1
  H  H17  1  0.13953700  0.12627200  0.63191900  1
  H  H18  1  0.13229600  0.62119300  0.13567100  1
  H  H19  1  0.62313300  0.13711900  0.13121900  1
  H  H20  1  0.37303000  0.36135000  0.86913100  1
  H  H21  1  0.35941200  0.86701500  0.37423800  1
  H  H22  1  0.87784400  0.36802800  0.36320200  1
  H  H23  1  0.86046300  0.87372800  0.36808100  1
  H  H24  1  0.86770400  0.37880700  0.86432900  1
  H  H25  1  0.37686700  0.86288100  0.86878100  1
  H  H26  1  0.74547500  0.59178500  0.93098900  1
  H  H27  1  0.59085900  0.93185600  0.74551600  1
  H  H28  1  0.09179600  0.24552400  0.43154900  1
  H  H29  1  0.25452500  0.40821500  0.06901100  1
  H  H30  1  0.40914100  0.06814400  0.25448400  1
  H  H31  1  0.90820400  0.75447600  0.56845100  1
  O  O32  1  0.71186600  0.68153900  0.02370200  1
  O  O33  1  0.68219100  0.02547500  0.71056400  1
  O  O34  1  0.01645800  0.71653900  0.67313300  1
  O  O35  1  0.18192200  0.21121700  0.52392500  1
  O  O36  1  0.21685900  0.51500600  0.17251900  1
  O  O37  1  0.51633900  0.17304100  0.21545200  1
  O  O38  1  0.28813400  0.31846100  0.97629800  1
  O  O39  1  0.31780900  0.97452500  0.28943600  1
  O  O40  1  0.98354200  0.28346100  0.32686700  1
  O  O41  1  0.81807800  0.78878300  0.47607500  1
  O  O42  1  0.78314100  0.48499400  0.82748100  1
  O  O43  1  0.48366100  0.82695900  0.78454800  1
  F  F44  1  0.47265600  0.57539400  0.27481300  1
  F  F45  1  0.57707100  0.27652100  0.47098600  1
  F  F46  1  0.27602600  0.46597400  0.57359000  1
  F  F47  1  0.07825500  0.97169500  0.77614700  1
  F  F48  1  0.96652600  0.77586100  0.07463500  1
  F  F49  1  0.77725100  0.07642700  0.96511100  1
  F  F50  1  0.52734400  0.42460600  0.72518700  1
  F  F51  1  0.42292900  0.72347900  0.52901400  1
  F  F52  1  0.72397400  0.53402600  0.42641000  1
  F  F53  1  0.92174500  0.02830500  0.22385300  1
  F  F54  1  0.03347400  0.22413900  0.92536500  1
  F  F55  1  0.22274900  0.92357400  0.03488900  1
