# generated using pymatgen
data_K3LiGe4
_symmetry_space_group_name_H-M   'P 1'
_cell_length_a   7.81149300
_cell_length_b   9.98763100
_cell_length_c   12.53963200
_cell_angle_alpha   90.00000000
_cell_angle_beta   90.00000000
_cell_angle_gamma   90.00000000
_symmetry_Int_Tables_number   1
_chemical_formula_structural   K3LiGe4
_chemical_formula_sum   'K12 Li4 Ge16'
_cell_volume   978.32089219
_cell_formula_units_Z   4
loop_
 _symmetry_equiv_pos_site_id
 _symmetry_equiv_pos_as_xyz
  1  'x, y, z'
loop_
 _atom_site_type_symbol
 _atom_site_label
 _atom_site_symmetry_multiplicity
 _atom_site_fract_x
 _atom_site_fract_y
 _atom_site_fract_z
 _atom_site_occupancy
  K  K0  1  0.15562300  0.25000000  0.60040500  1
  K  K1  1  0.84437700  0.75000000  0.39959500  1
  K  K2  1  0.34437700  0.75000000  0.10040500  1
  K  K3  1  0.65562300  0.25000000  0.89959500  1
  K  K4  1  0.15471600  0.05558400  0.30650700  1
  K  K5  1  0.84528400  0.94441600  0.69349300  1
  K  K6  1  0.34528400  0.94441600  0.80650700  1
  K  K7  1  0.84528400  0.55558400  0.69349300  1
  K  K8  1  0.65471600  0.05558400  0.19349300  1
  K  K9  1  0.15471600  0.44441600  0.30650700  1
  K  K10  1  0.65471600  0.44441600  0.19349300  1
  K  K11  1  0.34528400  0.55558400  0.80650700  1
  Li  Li12  1  0.00000000  0.00000000  0.00000000  1
  Li  Li13  1  0.50000000  0.00000000  0.50000000  1
  Li  Li14  1  0.00000000  0.50000000  0.00000000  1
  Li  Li15  1  0.50000000  0.50000000  0.50000000  1
  Ge  Ge16  1  0.63666300  0.25000000  0.60677400  1
  Ge  Ge17  1  0.36333700  0.75000000  0.39322600  1
  Ge  Ge18  1  0.86333700  0.75000000  0.10677400  1
  Ge  Ge19  1  0.13666300  0.25000000  0.89322600  1
  Ge  Ge20  1  0.29069700  0.12259300  0.04927100  1
  Ge  Ge21  1  0.70930300  0.87740700  0.95072900  1
  Ge  Ge22  1  0.20930300  0.87740700  0.54927100  1
  Ge  Ge23  1  0.70930300  0.62259300  0.95072900  1
  Ge  Ge24  1  0.79069700  0.12259300  0.45072900  1
  Ge  Ge25  1  0.29069700  0.37740700  0.04927100  1
  Ge  Ge26  1  0.79069700  0.37740700  0.45072900  1
  Ge  Ge27  1  0.20930300  0.62259300  0.54927100  1
  Ge  Ge28  1  0.00281700  0.25000000  0.08623600  1
  Ge  Ge29  1  0.99718300  0.75000000  0.91376400  1
  Ge  Ge30  1  0.49718300  0.75000000  0.58623600  1
  Ge  Ge31  1  0.50281700  0.25000000  0.41376400  1
