# generated using pymatgen
data_Ca2AlPbF9
_symmetry_space_group_name_H-M   'P 1'
_cell_length_a   5.44306800
_cell_length_b   5.44634997
_cell_length_c   12.37174031
_cell_angle_alpha   91.46204461
_cell_angle_beta   101.05176261
_cell_angle_gamma   91.71511613
_symmetry_Int_Tables_number   1
_chemical_formula_structural   Ca2AlPbF9
_chemical_formula_sum   'Ca4 Al2 Pb2 F18'
_cell_volume   359.61279152
_cell_formula_units_Z   2
loop_
 _symmetry_equiv_pos_site_id
 _symmetry_equiv_pos_as_xyz
  1  'x, y, z'
loop_
 _atom_site_type_symbol
 _atom_site_label
 _atom_site_symmetry_multiplicity
 _atom_site_fract_x
 _atom_site_fract_y
 _atom_site_fract_z
 _atom_site_occupancy
  Ca  Ca0  1  0.95838200  0.24216500  0.38605300  1
  Ca  Ca1  1  0.04161800  0.75783500  0.61394700  1
  Ca  Ca2  1  0.55125200  0.26564800  0.61339200  1
  Ca  Ca3  1  0.44874800  0.73435200  0.38660800  1
  Al  Al4  1  0.79636100  0.79314600  0.18136800  1
  Al  Al5  1  0.20363900  0.20685400  0.81863200  1
  Pb  Pb6  1  0.72774900  0.71784100  0.89451600  1
  Pb  Pb7  1  0.27225100  0.28215900  0.10548400  1
  F  F8  1  0.15134700  0.95125200  0.90420100  1
  F  F9  1  0.84865300  0.04874800  0.09579900  1
  F  F10  1  0.25807500  0.45068800  0.72512700  1
  F  F11  1  0.74192500  0.54931200  0.27487300  1
  F  F12  1  0.62935200  0.99956400  0.26498500  1
  F  F13  1  0.37064800  0.00043600  0.73501500  1
  F  F14  1  0.95822200  0.59395400  0.09917700  1
  F  F15  1  0.04177800  0.40604600  0.90082300  1
  F  F16  1  0.08428400  0.89009200  0.27909300  1
  F  F17  1  0.91571600  0.10990800  0.72090700  1
  F  F18  1  0.49960500  0.70379000  0.09228700  1
  F  F19  1  0.50039500  0.29621000  0.90771300  1
  F  F20  1  0.74813200  0.99208100  0.49881800  1
  F  F21  1  0.25186800  0.00791900  0.50118200  1
  F  F22  1  0.74955900  0.48822500  0.49434900  1
  F  F23  1  0.25044100  0.51177500  0.50565100  1
  F  F24  1  0.74342100  0.61358100  0.70844200  1
  F  F25  1  0.25657900  0.38641900  0.29155800  1
