# generated using pymatgen
data_NdGaNi
_symmetry_space_group_name_H-M   'P 1'
_cell_length_a   4.36626000
_cell_length_b   7.08927900
_cell_length_c   7.48457100
_cell_angle_alpha   90.00000000
_cell_angle_beta   90.00000000
_cell_angle_gamma   90.00000000
_symmetry_Int_Tables_number   1
_chemical_formula_structural   NdGaNi
_chemical_formula_sum   'Nd4 Ga4 Ni4'
_cell_volume   231.67468131
_cell_formula_units_Z   4
loop_
 _symmetry_equiv_pos_site_id
 _symmetry_equiv_pos_as_xyz
  1  'x, y, z'
loop_
 _atom_site_type_symbol
 _atom_site_label
 _atom_site_symmetry_multiplicity
 _atom_site_fract_x
 _atom_site_fract_y
 _atom_site_fract_z
 _atom_site_occupancy
  Nd  Nd0  1  0.25000000  0.02176800  0.79857300  1
  Nd  Nd1  1  0.25000000  0.52176800  0.70142700  1
  Nd  Nd2  1  0.75000000  0.97823200  0.20142700  1
  Nd  Nd3  1  0.75000000  0.47823200  0.29857300  1
  Ga  Ga4  1  0.25000000  0.18258900  0.42065100  1
  Ga  Ga5  1  0.25000000  0.68258900  0.07934900  1
  Ga  Ga6  1  0.75000000  0.81741100  0.57934900  1
  Ga  Ga7  1  0.75000000  0.31741100  0.92065100  1
  Ni  Ni8  1  0.25000000  0.79739600  0.40963000  1
  Ni  Ni9  1  0.25000000  0.29739600  0.09037000  1
  Ni  Ni10  1  0.75000000  0.20260400  0.59037000  1
  Ni  Ni11  1  0.75000000  0.70260400  0.90963000  1
