# generated using pymatgen
data_Nd8Ni18P11
_symmetry_space_group_name_H-M   'P 1'
_cell_length_a   18.29184436
_cell_length_b   18.29184436
_cell_length_c   3.93273200
_cell_angle_alpha   90.00000000
_cell_angle_beta   90.00000000
_cell_angle_gamma   120.00000130
_symmetry_Int_Tables_number   1
_chemical_formula_structural   Nd8Ni18P11
_chemical_formula_sum   'Nd16 Ni36 P22'
_cell_volume   1139.56728475
_cell_formula_units_Z   2
loop_
 _symmetry_equiv_pos_site_id
 _symmetry_equiv_pos_as_xyz
  1  'x, y, z'
loop_
 _atom_site_type_symbol
 _atom_site_label
 _atom_site_symmetry_multiplicity
 _atom_site_fract_x
 _atom_site_fract_y
 _atom_site_fract_z
 _atom_site_occupancy
  Nd  Nd0  1  0.81050100  0.18949900  0.50000000  1
  Nd  Nd1  1  0.81050100  0.62100200  0.50000000  1
  Nd  Nd2  1  0.37899800  0.18949900  0.50000000  1
  Nd  Nd3  1  0.59362100  0.40637900  0.50000000  1
  Nd  Nd4  1  0.59362100  0.18724100  0.50000000  1
  Nd  Nd5  1  0.81275900  0.40637900  0.50000000  1
  Nd  Nd6  1  0.11253400  0.88746600  0.00000000  1
  Nd  Nd7  1  0.11253400  0.22506900  0.00000000  1
  Nd  Nd8  1  0.77493100  0.88746600  0.00000000  1
  Nd  Nd9  1  0.33461100  0.88507600  0.00000000  1
  Nd  Nd10  1  0.11492400  0.44953600  0.00000000  1
  Nd  Nd11  1  0.11492400  0.66538900  0.00000000  1
  Nd  Nd12  1  0.55046400  0.66538900  0.00000000  1
  Nd  Nd13  1  0.55046400  0.88507600  0.00000000  1
  Nd  Nd14  1  0.33461100  0.44953600  0.00000000  1
  Nd  Nd15  1  0.33333300  0.66666700  0.00000000  1
  Ni  Ni16  1  0.04356000  0.95644000  0.50000000  1
  Ni  Ni17  1  0.04356000  0.08711900  0.50000000  1
  Ni  Ni18  1  0.91288100  0.95644000  0.50000000  1
  Ni  Ni19  1  0.40953400  0.03712100  0.50000000  1
  Ni  Ni20  1  0.96287900  0.37241300  0.50000000  1
  Ni  Ni21  1  0.96287900  0.59046600  0.50000000  1
  Ni  Ni22  1  0.62758700  0.59046600  0.50000000  1
  Ni  Ni23  1  0.62758700  0.03712100  0.50000000  1
  Ni  Ni24  1  0.40953400  0.37241300  0.50000000  1
  Ni  Ni25  1  0.73386500  0.69712300  0.00000000  1
  Ni  Ni26  1  0.30287700  0.03674200  0.00000000  1
  Ni  Ni27  1  0.30287700  0.26613500  0.00000000  1
  Ni  Ni28  1  0.96325800  0.26613500  0.00000000  1
  Ni  Ni29  1  0.96325800  0.69712300  0.00000000  1
  Ni  Ni30  1  0.73386500  0.03674200  0.00000000  1
  Ni  Ni31  1  0.51759700  0.48240300  0.00000000  1
  Ni  Ni32  1  0.51759700  0.03519500  0.00000000  1
  Ni  Ni33  1  0.96480500  0.48240300  0.00000000  1
  Ni  Ni34  1  0.73919300  0.26080700  0.00000000  1
  Ni  Ni35  1  0.73919300  0.47838700  0.00000000  1
  Ni  Ni36  1  0.52161300  0.26080700  0.00000000  1
  Ni  Ni37  1  0.40654200  0.59345800  0.50000000  1
  Ni  Ni38  1  0.40654200  0.81308400  0.50000000  1
  Ni  Ni39  1  0.18691600  0.59345800  0.50000000  1
  Ni  Ni40  1  0.83173800  0.79610600  0.50000000  1
  Ni  Ni41  1  0.20389400  0.03563200  0.50000000  1
  Ni  Ni42  1  0.20389400  0.16826200  0.50000000  1
  Ni  Ni43  1  0.96436800  0.16826200  0.50000000  1
  Ni  Ni44  1  0.96436800  0.79610600  0.50000000  1
  Ni  Ni45  1  0.83173800  0.03563200  0.50000000  1
  Ni  Ni46  1  0.94959900  0.05040100  0.00000000  1
  Ni  Ni47  1  0.94959900  0.89919800  0.00000000  1
  Ni  Ni48  1  0.10080200  0.05040100  0.00000000  1
  Ni  Ni49  1  0.18820700  0.81179300  0.50000000  1
  Ni  Ni50  1  0.18820700  0.37641500  0.50000000  1
  Ni  Ni51  1  0.62358500  0.81179300  0.50000000  1
  P  P52  1  0.66666700  0.33333300  0.00000000  1
  P  P53  1  0.47879100  0.52120900  0.50000000  1
  P  P54  1  0.47879100  0.95758200  0.50000000  1
  P  P55  1  0.04241800  0.52120900  0.50000000  1
  P  P56  1  0.45094300  0.11645700  0.00000000  1
  P  P57  1  0.88354300  0.33448600  0.00000000  1
  P  P58  1  0.88354300  0.54905700  0.00000000  1
  P  P59  1  0.66551400  0.54905700  0.00000000  1
  P  P60  1  0.66551400  0.11645700  0.00000000  1
  P  P61  1  0.45094300  0.33448600  0.00000000  1
  P  P62  1  0.88125400  0.11874600  0.00000000  1
  P  P63  1  0.88125400  0.76250800  0.00000000  1
  P  P64  1  0.23749200  0.11874600  0.00000000  1
  P  P65  1  0.69208400  0.73813100  0.50000000  1
  P  P66  1  0.26186900  0.95395300  0.50000000  1
  P  P67  1  0.26186900  0.30791600  0.50000000  1
  P  P68  1  0.04604700  0.30791600  0.50000000  1
  P  P69  1  0.04604700  0.73813100  0.50000000  1
  P  P70  1  0.69208400  0.95395300  0.50000000  1
  P  P71  1  0.26109700  0.73890300  0.50000000  1
  P  P72  1  0.26109700  0.52219300  0.50000000  1
  P  P73  1  0.47780700  0.73890300  0.50000000  1
