# generated using pymatgen
data_EuSn3Sb4
_symmetry_space_group_name_H-M   'P 1'
_cell_length_a   4.46424200
_cell_length_b   10.05762800
_cell_length_c   22.94427800
_cell_angle_alpha   90.00000000
_cell_angle_beta   90.00000000
_cell_angle_gamma   90.00000000
_symmetry_Int_Tables_number   1
_chemical_formula_structural   EuSn3Sb4
_chemical_formula_sum   'Eu4 Sn12 Sb16'
_cell_volume   1030.19086251
_cell_formula_units_Z   4
loop_
 _symmetry_equiv_pos_site_id
 _symmetry_equiv_pos_as_xyz
  1  'x, y, z'
loop_
 _atom_site_type_symbol
 _atom_site_label
 _atom_site_symmetry_multiplicity
 _atom_site_fract_x
 _atom_site_fract_y
 _atom_site_fract_z
 _atom_site_occupancy
  Eu  Eu0  1  0.25000000  0.06078500  0.87092000  1
  Eu  Eu1  1  0.25000000  0.56078500  0.62908000  1
  Eu  Eu2  1  0.75000000  0.93921500  0.12908000  1
  Eu  Eu3  1  0.75000000  0.43921500  0.37092000  1
  Sn  Sn4  1  0.25000000  0.27887700  0.75017500  1
  Sn  Sn5  1  0.25000000  0.77887700  0.74982500  1
  Sn  Sn6  1  0.75000000  0.72112300  0.24982500  1
  Sn  Sn7  1  0.75000000  0.22112300  0.25017500  1
  Sn  Sn8  1  0.25000000  0.35107700  0.98827700  1
  Sn  Sn9  1  0.25000000  0.85107700  0.51172300  1
  Sn  Sn10  1  0.75000000  0.64892300  0.01172300  1
  Sn  Sn11  1  0.75000000  0.14892300  0.48827700  1
  Sn  Sn12  1  0.25000000  0.45418200  0.14964400  1
  Sn  Sn13  1  0.25000000  0.95418200  0.35035600  1
  Sn  Sn14  1  0.75000000  0.54581800  0.85035600  1
  Sn  Sn15  1  0.75000000  0.04581800  0.64964400  1
  Sb  Sb16  1  0.25000000  0.03064900  0.22989500  1
  Sb  Sb17  1  0.25000000  0.53064900  0.27010500  1
  Sb  Sb18  1  0.75000000  0.96935100  0.77010500  1
  Sb  Sb19  1  0.75000000  0.46935100  0.72989500  1
  Sb  Sb20  1  0.25000000  0.20787700  0.40613200  1
  Sb  Sb21  1  0.25000000  0.70787700  0.09386800  1
  Sb  Sb22  1  0.75000000  0.79212300  0.59386800  1
  Sb  Sb23  1  0.75000000  0.29212300  0.90613200  1
  Sb  Sb24  1  0.25000000  0.21591600  0.62278500  1
  Sb  Sb25  1  0.25000000  0.71591600  0.87721500  1
  Sb  Sb26  1  0.75000000  0.78408400  0.37721500  1
  Sb  Sb27  1  0.75000000  0.28408400  0.12278500  1
  Sb  Sb28  1  0.25000000  0.56957800  0.47012500  1
  Sb  Sb29  1  0.25000000  0.06957800  0.02987500  1
  Sb  Sb30  1  0.75000000  0.43042200  0.52987500  1
  Sb  Sb31  1  0.75000000  0.93042200  0.97012500  1
