# generated using pymatgen
data_KP2H5O8
_symmetry_space_group_name_H-M   'P 1'
_cell_length_a   10.87106000
_cell_length_b   7.93603200
_cell_length_c   9.67109897
_cell_angle_alpha   65.92352006
_cell_angle_beta   90.00000000
_cell_angle_gamma   90.00000000
_symmetry_Int_Tables_number   1
_chemical_formula_structural   KP2H5O8
_chemical_formula_sum   'K4 P8 H20 O32'
_cell_volume   761.76800297
_cell_formula_units_Z   4
loop_
 _symmetry_equiv_pos_site_id
 _symmetry_equiv_pos_as_xyz
  1  'x, y, z'
loop_
 _atom_site_type_symbol
 _atom_site_label
 _atom_site_symmetry_multiplicity
 _atom_site_fract_x
 _atom_site_fract_y
 _atom_site_fract_z
 _atom_site_occupancy
  K  K0  1  0.87648300  0.20977000  0.86025100  1
  K  K1  1  0.37648300  0.79023000  0.63974900  1
  K  K2  1  0.12351700  0.79023000  0.13974900  1
  K  K3  1  0.62351700  0.20977000  0.36025100  1
  P  P4  1  0.72556200  0.64774000  0.71261900  1
  P  P5  1  0.22556200  0.35226000  0.78738100  1
  P  P6  1  0.27443800  0.35226000  0.28738100  1
  P  P7  1  0.77443800  0.64774000  0.21261900  1
  P  P8  1  0.56995400  0.11050200  0.77134000  1
  P  P9  1  0.06995400  0.88949800  0.72866000  1
  P  P10  1  0.43004600  0.88949800  0.22866000  1
  P  P11  1  0.93004600  0.11050200  0.27134000  1
  H  H12  1  0.71037200  0.96615500  0.67196100  1
  H  H13  1  0.21037200  0.03384500  0.82803900  1
  H  H14  1  0.28962800  0.03384500  0.32803900  1
  H  H15  1  0.78962800  0.96615500  0.17196200  1
  H  H16  1  0.75689700  0.56621300  0.51903100  1
  H  H17  1  0.25689700  0.43378700  0.98096900  1
  H  H18  1  0.24310300  0.43378700  0.48096900  1
  H  H19  1  0.74310300  0.56621300  0.01903100  1
  H  H20  1  0.57961900  0.43643500  0.80175900  1
  H  H21  1  0.07961900  0.56356500  0.69824100  1
  H  H22  1  0.42038100  0.56356500  0.19824100  1
  H  H23  1  0.92038100  0.43643500  0.30175900  1
  H  H24  1  0.91938000  0.70861600  0.86688800  1
  H  H25  1  0.41938000  0.29138400  0.63311200  1
  H  H26  1  0.08062000  0.29138400  0.13311200  1
  H  H27  1  0.58062000  0.70861600  0.36688800  1
  H  H28  1  0.47571800  0.87103600  0.95574400  1
  H  H29  1  0.97571800  0.12896400  0.54425600  1
  H  H30  1  0.52428200  0.12896400  0.04425600  1
  H  H31  1  0.02428200  0.87103600  0.45574400  1
  O  O32  1  0.71679700  0.85457500  0.61168400  1
  O  O33  1  0.21679700  0.14542500  0.88831600  1
  O  O34  1  0.28320300  0.14542500  0.38831600  1
  O  O35  1  0.78320300  0.85457500  0.11168400  1
  O  O36  1  0.78905600  0.54105500  0.62483100  1
  O  O37  1  0.28905600  0.45894500  0.87516900  1
  O  O38  1  0.21094400  0.45894500  0.37516900  1
  O  O39  1  0.71094400  0.54105500  0.12483100  1
  O  O40  1  0.58785400  0.57548800  0.74847900  1
  O  O41  1  0.08785400  0.42451200  0.75152100  1
  O  O42  1  0.41214600  0.42451200  0.25152100  1
  O  O43  1  0.91214600  0.57548800  0.24847900  1
  O  O44  1  0.79949500  0.59669300  0.85853700  1
  O  O45  1  0.29949500  0.40330700  0.64146300  1
  O  O46  1  0.20050500  0.40330700  0.14146300  1
  O  O47  1  0.70050500  0.59669300  0.35853700  1
  O  O48  1  0.49652900  0.22492600  0.62056200  1
  O  O49  1  0.99652900  0.77507400  0.87943800  1
  O  O50  1  0.50347100  0.77507400  0.37943800  1
  O  O51  1  0.00347100  0.22492600  0.12056200  1
  O  O52  1  0.50279500  0.91781200  0.84521900  1
  O  O53  1  0.00279500  0.08218800  0.65478100  1
  O  O54  1  0.49720500  0.08218800  0.15478100  1
  O  O55  1  0.99720500  0.91781200  0.34521900  1
  O  O56  1  0.69842500  0.08136800  0.71640000  1
  O  O57  1  0.19842500  0.91863200  0.78360000  1
  O  O58  1  0.30157500  0.91863200  0.28360000  1
  O  O59  1  0.80157500  0.08136800  0.21640000  1
  O  O60  1  0.57544600  0.20937000  0.87676200  1
  O  O61  1  0.07544600  0.79063000  0.62323800  1
  O  O62  1  0.42455400  0.79063000  0.12323800  1
  O  O63  1  0.92455400  0.20937000  0.37676200  1
