# generated using pymatgen
data_Yb(CuS)2
_symmetry_space_group_name_H-M   'P 1'
_cell_length_a   3.88975419
_cell_length_b   3.88975419
_cell_length_c   6.42283600
_cell_angle_alpha   90.00000000
_cell_angle_beta   90.00000000
_cell_angle_gamma   120.00000326
_symmetry_Int_Tables_number   1
_chemical_formula_structural   Yb(CuS)2
_chemical_formula_sum   'Yb1 Cu2 S2'
_cell_volume   84.15923233
_cell_formula_units_Z   1
loop_
 _symmetry_equiv_pos_site_id
 _symmetry_equiv_pos_as_xyz
  1  'x, y, z'
loop_
 _atom_site_type_symbol
 _atom_site_label
 _atom_site_symmetry_multiplicity
 _atom_site_fract_x
 _atom_site_fract_y
 _atom_site_fract_z
 _atom_site_occupancy
  Yb  Yb0  1  0.00000000  0.00000000  0.00000000  1
  Cu  Cu1  1  0.66666700  0.33333300  0.63214300  1
  Cu  Cu2  1  0.33333300  0.66666700  0.36785700  1
  S  S3  1  0.66666700  0.33333300  0.25558000  1
  S  S4  1  0.33333300  0.66666700  0.74442000  1
