# generated using pymatgen
data_Sr2HoTaO6
_symmetry_space_group_name_H-M   'P 1'
_cell_length_a   5.95154500
_cell_length_b   5.82492700
_cell_length_c   10.13558072
_cell_angle_alpha   55.05502541
_cell_angle_beta   90.00000000
_cell_angle_gamma   90.00000000
_symmetry_Int_Tables_number   1
_chemical_formula_structural   Sr2HoTaO6
_chemical_formula_sum   'Sr4 Ho2 Ta2 O12'
_cell_volume   288.02163581
_cell_formula_units_Z   2
loop_
 _symmetry_equiv_pos_site_id
 _symmetry_equiv_pos_as_xyz
  1  'x, y, z'
loop_
 _atom_site_type_symbol
 _atom_site_label
 _atom_site_symmetry_multiplicity
 _atom_site_fract_x
 _atom_site_fract_y
 _atom_site_fract_z
 _atom_site_occupancy
  Sr  Sr0  1  0.45817900  0.24149200  0.74798200  1
  Sr  Sr1  1  0.54182100  0.75850800  0.25201800  1
  Sr  Sr2  1  0.95817900  0.75850800  0.75201800  1
  Sr  Sr3  1  0.04182100  0.24149200  0.24798200  1
  Ho  Ho4  1  0.00000000  0.50000000  0.50000000  1
  Ho  Ho5  1  0.50000000  0.50000000  0.00000000  1
  Ta  Ta6  1  0.00000000  0.00000000  0.00000000  1
  Ta  Ta7  1  0.50000000  0.00000000  0.50000000  1
  O  O8  1  0.02545300  0.31504100  0.76455300  1
  O  O9  1  0.97454700  0.68495900  0.23544700  1
  O  O10  1  0.52545300  0.68495900  0.73544700  1
  O  O11  1  0.47454700  0.31504100  0.26455300  1
  O  O12  1  0.72633400  0.84932700  0.95425400  1
  O  O13  1  0.27366600  0.15067300  0.04574600  1
  O  O14  1  0.22633400  0.15067300  0.54574600  1
  O  O15  1  0.77366600  0.84932700  0.45425400  1
  O  O16  1  0.19755700  0.76389200  0.96070700  1
  O  O17  1  0.80244300  0.23610800  0.03929300  1
  O  O18  1  0.69755700  0.23610800  0.53929300  1
  O  O19  1  0.30244300  0.76389200  0.46070700  1
