# generated using pymatgen
data_Ca2H6Os
_symmetry_space_group_name_H-M   'P 1'
_cell_length_a   5.12688620
_cell_length_b   5.12688620
_cell_length_c   5.12688620
_cell_angle_alpha   60.00000000
_cell_angle_beta   60.00000000
_cell_angle_gamma   60.00000000
_symmetry_Int_Tables_number   1
_chemical_formula_structural   Ca2H6Os
_chemical_formula_sum   'Ca2 H6 Os1'
_cell_volume   95.28971668
_cell_formula_units_Z   1
loop_
 _symmetry_equiv_pos_site_id
 _symmetry_equiv_pos_as_xyz
  1  'x, y, z'
loop_
 _atom_site_type_symbol
 _atom_site_label
 _atom_site_symmetry_multiplicity
 _atom_site_fract_x
 _atom_site_fract_y
 _atom_site_fract_z
 _atom_site_occupancy
  Ca  Ca0  1  0.25000000  0.25000000  0.25000000  1
  Ca  Ca1  1  0.75000000  0.75000000  0.75000000  1
  H  H2  1  0.76208000  0.23792000  0.23792000  1
  H  H3  1  0.23792000  0.76208000  0.76208000  1
  H  H4  1  0.23792000  0.76208000  0.23792000  1
  H  H5  1  0.76208000  0.23792000  0.76208000  1
  H  H6  1  0.23792000  0.23792000  0.76208000  1
  H  H7  1  0.76208000  0.76208000  0.23792000  1
  Os  Os8  1  0.00000000  0.00000000  0.00000000  1
