# generated using pymatgen
data_Cs2UAs2O9
_symmetry_space_group_name_H-M   'P 1'
_cell_length_a   6.48138300
_cell_length_b   13.20276900
_cell_length_c   13.45183400
_cell_angle_alpha   90.00000000
_cell_angle_beta   90.00000000
_cell_angle_gamma   90.00000000
_symmetry_Int_Tables_number   1
_chemical_formula_structural   Cs2UAs2O9
_chemical_formula_sum   'Cs8 U4 As8 O36'
_cell_volume   1151.10306371
_cell_formula_units_Z   4
loop_
 _symmetry_equiv_pos_site_id
 _symmetry_equiv_pos_as_xyz
  1  'x, y, z'
loop_
 _atom_site_type_symbol
 _atom_site_label
 _atom_site_symmetry_multiplicity
 _atom_site_fract_x
 _atom_site_fract_y
 _atom_site_fract_z
 _atom_site_occupancy
  Cs  Cs0  1  0.51053800  0.00000000  0.32409000  1
  Cs  Cs1  1  0.51053800  0.00000000  0.67591000  1
  Cs  Cs2  1  0.48946200  0.50000000  0.82409000  1
  Cs  Cs3  1  0.48946200  0.50000000  0.17591000  1
  Cs  Cs4  1  0.49124900  0.82276000  0.00000000  1
  Cs  Cs5  1  0.50875100  0.32276000  0.50000000  1
  Cs  Cs6  1  0.50875100  0.67724000  0.50000000  1
  Cs  Cs7  1  0.49124900  0.17724000  0.00000000  1
  U  U8  1  0.00000000  0.75000000  0.25000000  1
  U  U9  1  0.00000000  0.75000000  0.75000000  1
  U  U10  1  0.00000000  0.25000000  0.75000000  1
  U  U11  1  0.00000000  0.25000000  0.25000000  1
  As  As12  1  0.98488000  0.62425700  0.00000000  1
  As  As13  1  0.01512000  0.12425700  0.50000000  1
  As  As14  1  0.01512000  0.87574300  0.50000000  1
  As  As15  1  0.98488000  0.37574300  0.00000000  1
  As  As16  1  0.00881300  0.00000000  0.12126800  1
  As  As17  1  0.00881300  0.00000000  0.87873200  1
  As  As18  1  0.99118700  0.50000000  0.62126800  1
  As  As19  1  0.99118700  0.50000000  0.37873200  1
  O  O20  1  0.72834000  0.61893200  0.00000000  1
  O  O21  1  0.27166000  0.11893200  0.50000000  1
  O  O22  1  0.27166000  0.88106800  0.50000000  1
  O  O23  1  0.72834000  0.38106800  0.00000000  1
  O  O24  1  0.88979500  0.89520300  0.17213900  1
  O  O25  1  0.88979500  0.89520300  0.82786100  1
  O  O26  1  0.11020500  0.39520300  0.67213900  1
  O  O27  1  0.11020500  0.60479700  0.32786100  1
  O  O28  1  0.88979500  0.10479700  0.82786100  1
  O  O29  1  0.88979500  0.10479700  0.17213900  1
  O  O30  1  0.11020500  0.60479700  0.67213900  1
  O  O31  1  0.11020500  0.39520300  0.32786100  1
  O  O32  1  0.26563300  0.00000000  0.11654600  1
  O  O33  1  0.26563300  0.00000000  0.88345400  1
  O  O34  1  0.73436700  0.50000000  0.61654600  1
  O  O35  1  0.73436700  0.50000000  0.38345400  1
  O  O36  1  0.10519600  0.50000000  0.00000000  1
  O  O37  1  0.89480400  0.00000000  0.50000000  1
  O  O38  1  0.10267100  0.67998900  0.10128100  1
  O  O39  1  0.10267100  0.67998900  0.89871900  1
  O  O40  1  0.89732900  0.17999000  0.60128100  1
  O  O41  1  0.89732900  0.82001100  0.39871900  1
  O  O42  1  0.10267100  0.32001100  0.89871900  1
  O  O43  1  0.10267100  0.32001100  0.10128100  1
  O  O44  1  0.89732900  0.82001100  0.60128100  1
  O  O45  1  0.89732900  0.17999000  0.39871900  1
  O  O46  1  0.88828600  0.00000000  0.00000000  1
  O  O47  1  0.11171400  0.50000000  0.50000000  1
  O  O48  1  0.73962500  0.69985500  0.23586000  1
  O  O49  1  0.73962500  0.69985500  0.76414000  1
  O  O50  1  0.26037500  0.19985500  0.73586000  1
  O  O51  1  0.26037500  0.80014500  0.26414000  1
  O  O52  1  0.73962500  0.30014500  0.76414000  1
  O  O53  1  0.73962500  0.30014500  0.23586000  1
  O  O54  1  0.26037500  0.80014500  0.73586000  1
  O  O55  1  0.26037500  0.19985500  0.26414000  1
