# generated using pymatgen
data_Cs
_symmetry_space_group_name_H-M   'P 1'
_cell_length_a   16.39740121
_cell_length_b   16.39740121
_cell_length_c   16.39740121
_cell_angle_alpha   109.47122063
_cell_angle_beta   109.47122063
_cell_angle_gamma   109.47122063
_symmetry_Int_Tables_number   1
_chemical_formula_structural   Cs
_chemical_formula_sum   Cs29
_cell_volume   3393.93232399
_cell_formula_units_Z   29
loop_
 _symmetry_equiv_pos_site_id
 _symmetry_equiv_pos_as_xyz
  1  'x, y, z'
loop_
 _atom_site_type_symbol
 _atom_site_label
 _atom_site_symmetry_multiplicity
 _atom_site_fract_x
 _atom_site_fract_y
 _atom_site_fract_z
 _atom_site_occupancy
  Cs  Cs0  1  0.00000000  0.00000000  0.00000000  1
  Cs  Cs1  1  0.63496800  0.00000000  0.00000000  1
  Cs  Cs2  1  0.37289900  0.18981500  0.00000000  1
  Cs  Cs3  1  0.18981500  0.37289900  0.00000000  1
  Cs  Cs4  1  0.68241700  0.40428300  0.00000000  1
  Cs  Cs5  1  0.00000000  0.63496800  0.00000000  1
  Cs  Cs6  1  0.40428300  0.68241700  0.00000000  1
  Cs  Cs7  1  0.81018500  0.81018500  0.18308400  1
  Cs  Cs8  1  0.37289900  0.00000000  0.18981500  1
  Cs  Cs9  1  0.00000000  0.37289900  0.18981500  1
  Cs  Cs10  1  0.59571700  0.59571700  0.27813400  1
  Cs  Cs11  1  0.72186600  0.31758300  0.31758300  1
  Cs  Cs12  1  0.31758300  0.72186600  0.31758300  1
  Cs  Cs13  1  0.36503200  0.36503200  0.36503200  1
  Cs  Cs14  1  0.18981500  0.00000000  0.37289900  1
  Cs  Cs15  1  0.00000000  0.18981500  0.37289900  1
  Cs  Cs16  1  0.68241700  0.00000000  0.40428300  1
  Cs  Cs17  1  0.00000000  0.68241700  0.40428300  1
  Cs  Cs18  1  0.59571700  0.27813400  0.59571700  1
  Cs  Cs19  1  0.27813400  0.59571700  0.59571700  1
  Cs  Cs20  1  0.81691600  0.62710100  0.62710100  1
  Cs  Cs21  1  0.62710100  0.81691600  0.62710100  1
  Cs  Cs22  1  0.00000000  0.00000000  0.63496800  1
  Cs  Cs23  1  0.40428300  0.00000000  0.68241700  1
  Cs  Cs24  1  0.00000000  0.40428300  0.68241700  1
  Cs  Cs25  1  0.31758300  0.31758300  0.72186600  1
  Cs  Cs26  1  0.81018500  0.18308400  0.81018500  1
  Cs  Cs27  1  0.18308400  0.81018500  0.81018500  1
  Cs  Cs28  1  0.62710100  0.62710100  0.81691600  1
