# generated using pymatgen
data_Ba3NaSm3(Si3O10)2
_symmetry_space_group_name_H-M   'P 1'
_cell_length_a   5.62404200
_cell_length_b   12.44749904
_cell_length_c   14.93099300
_cell_angle_alpha   90.00000000
_cell_angle_beta   90.00000000
_cell_angle_gamma   103.05642587
_symmetry_Int_Tables_number   1
_chemical_formula_structural   Ba3NaSm3(Si3O10)2
_chemical_formula_sum   'Ba6 Na2 Sm6 Si12 O40'
_cell_volume   1018.22631585
_cell_formula_units_Z   2
loop_
 _symmetry_equiv_pos_site_id
 _symmetry_equiv_pos_as_xyz
  1  'x, y, z'
loop_
 _atom_site_type_symbol
 _atom_site_label
 _atom_site_symmetry_multiplicity
 _atom_site_fract_x
 _atom_site_fract_y
 _atom_site_fract_z
 _atom_site_occupancy
  Ba  Ba0  1  0.84926900  0.83614400  0.25000000  1
  Ba  Ba1  1  0.01312500  0.16385600  0.75000000  1
  Ba  Ba2  1  0.17442300  0.48633900  0.88654800  1
  Ba  Ba3  1  0.68808400  0.51366100  0.11345200  1
  Ba  Ba4  1  0.17442300  0.48633900  0.61345200  1
  Ba  Ba5  1  0.68808400  0.51366100  0.38654800  1
  Na  Na6  1  0.24517500  0.77739800  0.75000000  1
  Na  Na7  1  0.46777700  0.22260200  0.25000000  1
  Sm  Sm8  1  0.39309600  0.77874400  0.03064200  1
  Sm  Sm9  1  0.61435200  0.22125600  0.96935800  1
  Sm  Sm10  1  0.39309600  0.77874400  0.46935800  1
  Sm  Sm11  1  0.61435200  0.22125600  0.53064200  1
  Sm  Sm12  1  0.00507700  0.00000000  0.00000000  1
  Sm  Sm13  1  0.00507700  0.00000000  0.50000000  1
  Si  Si14  1  0.28247500  0.63947900  0.25000000  1
  Si  Si15  1  0.64299600  0.36052100  0.75000000  1
  Si  Si16  1  0.81169600  0.69695300  0.94264400  1
  Si  Si17  1  0.11474300  0.30304700  0.05735600  1
  Si  Si18  1  0.81169600  0.69695300  0.55735600  1
  Si  Si19  1  0.11474300  0.30304700  0.44264400  1
  Si  Si20  1  0.44271700  0.00128400  0.86011200  1
  Si  Si21  1  0.44143300  0.99871600  0.13988800  1
  Si  Si22  1  0.44271700  0.00128400  0.63988800  1
  Si  Si23  1  0.44143300  0.99871600  0.36011200  1
  Si  Si24  1  0.71454500  0.62010700  0.75000000  1
  Si  Si25  1  0.09443700  0.37989300  0.25000000  1
  O  O26  1  0.78928500  0.82171400  0.96735400  1
  O  O27  1  0.96757100  0.17828600  0.03264600  1
  O  O28  1  0.78928500  0.82171400  0.53264600  1
  O  O29  1  0.96757100  0.17828600  0.46735400  1
  O  O30  1  0.54162100  0.62171100  0.96810300  1
  O  O31  1  0.91991000  0.37828900  0.03189700  1
  O  O32  1  0.54162100  0.62171100  0.53189700  1
  O  O33  1  0.91991000  0.37828900  0.46810300  1
  O  O34  1  0.43319200  0.97396300  0.75000000  1
  O  O35  1  0.45922900  0.02603700  0.25000000  1
  O  O36  1  0.87574400  0.68480800  0.83453000  1
  O  O37  1  0.19093600  0.31519200  0.16547000  1
  O  O38  1  0.87574400  0.68480800  0.66547000  1
  O  O39  1  0.19093600  0.31519200  0.33453000  1
  O  O40  1  0.28866800  0.50296400  0.25000000  1
  O  O41  1  0.78570400  0.49703600  0.75000000  1
  O  O42  1  0.72360000  0.05380200  0.89159400  1
  O  O43  1  0.66979800  0.94619800  0.10840600  1
  O  O44  1  0.72360000  0.05380200  0.60840600  1
  O  O45  1  0.66979800  0.94619800  0.39159400  1
  O  O46  1  0.02456200  0.65414000  0.99699300  1
  O  O47  1  0.37042200  0.34586000  0.00300700  1
  O  O48  1  0.02456200  0.65414000  0.50300700  1
  O  O49  1  0.37042200  0.34586000  0.49699300  1
  O  O50  1  0.44611500  0.68942200  0.16213500  1
  O  O51  1  0.75669200  0.31057800  0.83786500  1
  O  O52  1  0.44611500  0.68942200  0.33786500  1
  O  O53  1  0.75669200  0.31057800  0.66213500  1
  O  O54  1  0.19181000  0.90350900  0.11681300  1
  O  O55  1  0.28830100  0.09649100  0.88318700  1
  O  O56  1  0.19181000  0.90350900  0.38318700  1
  O  O57  1  0.28830100  0.09649100  0.61681300  1
  O  O58  1  0.99832200  0.64644900  0.25000000  1
  O  O59  1  0.35187300  0.35355100  0.75000000  1
  O  O60  1  0.30483200  0.89089700  0.91354400  1
  O  O61  1  0.41393500  0.10910300  0.08645600  1
  O  O62  1  0.30483200  0.89089700  0.58645600  1
  O  O63  1  0.41393500  0.10910300  0.41354400  1
  O  O64  1  0.42971100  0.61837900  0.75000000  1
  O  O65  1  0.81133200  0.38162100  0.25000000  1
