# generated using pymatgen
data_Sm(PO3)3
_symmetry_space_group_name_H-M   'P 1'
_cell_length_a   7.05935869
_cell_length_b   7.05935869
_cell_length_c   7.35205300
_cell_angle_alpha   90.00000000
_cell_angle_beta   90.00000000
_cell_angle_gamma   105.25446375
_symmetry_Int_Tables_number   1
_chemical_formula_structural   Sm(PO3)3
_chemical_formula_sum   'Sm2 P6 O18'
_cell_volume   353.47726904
_cell_formula_units_Z   2
loop_
 _symmetry_equiv_pos_site_id
 _symmetry_equiv_pos_as_xyz
  1  'x, y, z'
loop_
 _atom_site_type_symbol
 _atom_site_label
 _atom_site_symmetry_multiplicity
 _atom_site_fract_x
 _atom_site_fract_y
 _atom_site_fract_z
 _atom_site_occupancy
  Sm  Sm0  1  0.62598800  0.62598800  0.50000000  1
  Sm  Sm1  1  0.37401200  0.37401200  0.00000000  1
  P  P2  1  0.83441900  0.18541700  0.95444000  1
  P  P3  1  0.16558100  0.81458300  0.45444000  1
  P  P4  1  0.81458300  0.16558100  0.54556000  1
  P  P5  1  0.18541700  0.83441900  0.04556000  1
  P  P6  1  0.25085000  0.25085000  0.50000000  1
  P  P7  1  0.74915000  0.74915000  0.00000000  1
  O  O8  1  0.33100200  0.36763000  0.66914500  1
  O  O9  1  0.66899800  0.63237000  0.16914500  1
  O  O10  1  0.63237000  0.66899800  0.83085500  1
  O  O11  1  0.36763000  0.33100200  0.33085500  1
  O  O12  1  0.87487100  0.12512900  0.75000000  1
  O  O13  1  0.12512900  0.87487100  0.25000000  1
  O  O14  1  0.71527300  0.32742100  0.53659000  1
  O  O15  1  0.28472700  0.67257900  0.03659000  1
  O  O16  1  0.67257900  0.28472700  0.96341000  1
  O  O17  1  0.32742100  0.71527300  0.46341000  1
  O  O18  1  0.96964300  0.74976900  0.95639300  1
  O  O19  1  0.03035700  0.25023100  0.45639300  1
  O  O20  1  0.25023100  0.03035700  0.54360700  1
  O  O21  1  0.74976900  0.96964300  0.04360700  1
  O  O22  1  0.97069700  0.71877500  0.53702100  1
  O  O23  1  0.02930300  0.28122500  0.03702100  1
  O  O24  1  0.28122500  0.02930300  0.96297900  1
  O  O25  1  0.71877500  0.97069700  0.46297900  1
