# generated using pymatgen
data_Sm2Co14B
_symmetry_space_group_name_H-M   'P 1'
_cell_length_a   8.62570600
_cell_length_b   8.62570600
_cell_length_c   11.76378800
_cell_angle_alpha   90.00000000
_cell_angle_beta   90.00000000
_cell_angle_gamma   90.00000000
_symmetry_Int_Tables_number   1
_chemical_formula_structural   Sm2Co14B
_chemical_formula_sum   'Sm8 Co56 B4'
_cell_volume   875.25881284
_cell_formula_units_Z   4
loop_
 _symmetry_equiv_pos_site_id
 _symmetry_equiv_pos_as_xyz
  1  'x, y, z'
loop_
 _atom_site_type_symbol
 _atom_site_label
 _atom_site_symmetry_multiplicity
 _atom_site_fract_x
 _atom_site_fract_y
 _atom_site_fract_z
 _atom_site_occupancy
  Sm  Sm0  1  0.22442400  0.77557600  0.50000000  1
  Sm  Sm1  1  0.77557600  0.22442400  0.50000000  1
  Sm  Sm2  1  0.27557600  0.27557600  0.00000000  1
  Sm  Sm3  1  0.72442400  0.72442400  0.00000000  1
  Sm  Sm4  1  0.64536100  0.64536100  0.50000000  1
  Sm  Sm5  1  0.35463900  0.35463900  0.50000000  1
  Sm  Sm6  1  0.85463900  0.14536100  0.00000000  1
  Sm  Sm7  1  0.14536100  0.85463900  0.00000000  1
  Co  Co8  1  0.00000000  0.50000000  0.50000000  1
  Co  Co9  1  0.50000000  0.00000000  0.00000000  1
  Co  Co10  1  0.50000000  0.00000000  0.50000000  1
  Co  Co11  1  0.00000000  0.50000000  0.00000000  1
  Co  Co12  1  0.50000000  0.50000000  0.11660900  1
  Co  Co13  1  0.00000000  0.00000000  0.61660900  1
  Co  Co14  1  0.50000000  0.50000000  0.88339100  1
  Co  Co15  1  0.00000000  0.00000000  0.38339100  1
  Co  Co16  1  0.18194300  0.81805700  0.25357900  1
  Co  Co17  1  0.81805700  0.18194300  0.25357900  1
  Co  Co18  1  0.31805700  0.31805700  0.75357900  1
  Co  Co19  1  0.68194300  0.68194300  0.75357900  1
  Co  Co20  1  0.81805700  0.18194300  0.74642100  1
  Co  Co21  1  0.18194300  0.81805700  0.74642100  1
  Co  Co22  1  0.68194300  0.68194300  0.24642100  1
  Co  Co23  1  0.31805700  0.31805700  0.24642100  1
  Co  Co24  1  0.40148100  0.59851900  0.29550200  1
  Co  Co25  1  0.59851900  0.40148100  0.29550200  1
  Co  Co26  1  0.09851900  0.09851900  0.79550200  1
  Co  Co27  1  0.90148100  0.90148100  0.79550200  1
  Co  Co28  1  0.59851900  0.40148100  0.70449800  1
  Co  Co29  1  0.40148100  0.59851900  0.70449800  1
  Co  Co30  1  0.90148100  0.90148100  0.20449800  1
  Co  Co31  1  0.09851900  0.09851900  0.20449800  1
  Co  Co32  1  0.13965400  0.53645900  0.32118600  1
  Co  Co33  1  0.86034600  0.46354100  0.32118600  1
  Co  Co34  1  0.36034600  0.03645900  0.82118600  1
  Co  Co35  1  0.63965400  0.96354100  0.82118600  1
  Co  Co36  1  0.86034600  0.46354100  0.67881400  1
  Co  Co37  1  0.13965400  0.53645900  0.67881400  1
  Co  Co38  1  0.63965400  0.96354100  0.17881400  1
  Co  Co39  1  0.36034600  0.03645900  0.17881400  1
  Co  Co40  1  0.53645900  0.13965400  0.32118600  1
  Co  Co41  1  0.46354100  0.86034600  0.32118600  1
  Co  Co42  1  0.03645900  0.36034600  0.82118600  1
  Co  Co43  1  0.96354100  0.63965400  0.82118600  1
  Co  Co44  1  0.46354100  0.86034600  0.67881400  1
  Co  Co45  1  0.53645900  0.13965400  0.67881400  1
  Co  Co46  1  0.96354100  0.63965400  0.17881400  1
  Co  Co47  1  0.03645900  0.36034600  0.17881400  1
  Co  Co48  1  0.93083400  0.72421500  0.37333100  1
  Co  Co49  1  0.06916600  0.27578500  0.37333100  1
  Co  Co50  1  0.56916600  0.22421500  0.87333100  1
  Co  Co51  1  0.43083400  0.77578500  0.87333100  1
  Co  Co52  1  0.06916600  0.27578500  0.62666900  1
  Co  Co53  1  0.93083400  0.72421500  0.62666900  1
  Co  Co54  1  0.43083400  0.77578500  0.12666900  1
  Co  Co55  1  0.56916600  0.22421500  0.12666900  1
  Co  Co56  1  0.72421500  0.93083400  0.37333100  1
  Co  Co57  1  0.27578500  0.06916600  0.37333100  1
  Co  Co58  1  0.22421500  0.56916600  0.87333100  1
  Co  Co59  1  0.77578500  0.43083400  0.87333100  1
  Co  Co60  1  0.27578500  0.06916600  0.62666900  1
  Co  Co61  1  0.72421500  0.93083400  0.62666900  1
  Co  Co62  1  0.77578500  0.43083400  0.12666900  1
  Co  Co63  1  0.22421500  0.56916600  0.12666900  1
  B  B64  1  0.87759000  0.87759000  0.50000000  1
  B  B65  1  0.12241000  0.12241000  0.50000000  1
  B  B66  1  0.62241000  0.37759000  0.00000000  1
  B  B67  1  0.37759000  0.62241000  0.00000000  1
