# generated using pymatgen
data_Np2N3
_symmetry_space_group_name_H-M   'P 1'
_cell_length_a   9.16785058
_cell_length_b   9.16785058
_cell_length_c   9.16785058
_cell_angle_alpha   109.47122063
_cell_angle_beta   109.47122063
_cell_angle_gamma   109.47122063
_symmetry_Int_Tables_number   1
_chemical_formula_structural   Np2N3
_chemical_formula_sum   'Np16 N24'
_cell_volume   593.17206287
_cell_formula_units_Z   8
loop_
 _symmetry_equiv_pos_site_id
 _symmetry_equiv_pos_as_xyz
  1  'x, y, z'
loop_
 _atom_site_type_symbol
 _atom_site_label
 _atom_site_symmetry_multiplicity
 _atom_site_fract_x
 _atom_site_fract_y
 _atom_site_fract_z
 _atom_site_occupancy
  Np  Np0  1  0.50000000  0.00000000  0.50000000  1
  Np  Np1  1  0.50000000  0.50000000  0.00000000  1
  Np  Np2  1  0.00000000  0.50000000  0.50000000  1
  Np  Np3  1  0.00000000  0.00000000  0.00000000  1
  Np  Np4  1  0.77381400  0.25000000  0.02381400  1
  Np  Np5  1  0.72618600  0.75000000  0.47618600  1
  Np  Np6  1  0.25000000  0.02381400  0.77381400  1
  Np  Np7  1  0.75000000  0.47618600  0.72618600  1
  Np  Np8  1  0.02381400  0.77381400  0.25000000  1
  Np  Np9  1  0.47618600  0.72618600  0.75000000  1
  Np  Np10  1  0.22618600  0.75000000  0.97618600  1
  Np  Np11  1  0.27381400  0.25000000  0.52381400  1
  Np  Np12  1  0.75000000  0.97618600  0.22618600  1
  Np  Np13  1  0.25000000  0.52381400  0.27381400  1
  Np  Np14  1  0.97618600  0.22618600  0.75000000  1
  Np  Np15  1  0.52381400  0.27381400  0.25000000  1
  N  N16  1  0.49719600  0.23383300  0.47047300  1
  N  N17  1  0.23664000  0.26616700  0.76336300  1
  N  N18  1  0.00280400  0.47327700  0.73663700  1
  N  N19  1  0.26336000  0.02672300  0.02952700  1
  N  N20  1  0.23383300  0.47047300  0.49719600  1
  N  N21  1  0.26616700  0.76336300  0.23664000  1
  N  N22  1  0.47327700  0.73663700  0.00280400  1
  N  N23  1  0.02672300  0.02952700  0.26336000  1
  N  N24  1  0.47047300  0.49719600  0.23383300  1
  N  N25  1  0.76336300  0.23664000  0.26616700  1
  N  N26  1  0.73663700  0.00280400  0.47327700  1
  N  N27  1  0.02952700  0.26336000  0.02672300  1
  N  N28  1  0.50280400  0.76616700  0.52952700  1
  N  N29  1  0.76336000  0.73383300  0.23663700  1
  N  N30  1  0.99719600  0.52672300  0.26336300  1
  N  N31  1  0.73664000  0.97327700  0.97047300  1
  N  N32  1  0.76616700  0.52952700  0.50280400  1
  N  N33  1  0.73383300  0.23663700  0.76336000  1
  N  N34  1  0.52672300  0.26336300  0.99719600  1
  N  N35  1  0.97327700  0.97047300  0.73664000  1
  N  N36  1  0.52952700  0.50280400  0.76616700  1
  N  N37  1  0.23663700  0.76336000  0.73383300  1
  N  N38  1  0.26336300  0.99719600  0.52672300  1
  N  N39  1  0.97047300  0.73664000  0.97327700  1
