# generated using pymatgen
data_La21Mn8Sb7C12
_symmetry_space_group_name_H-M   'P 1'
_cell_length_a   11.64595535
_cell_length_b   11.64595535
_cell_length_c   11.64595535
_cell_angle_alpha   60.00000000
_cell_angle_beta   60.00000000
_cell_angle_gamma   60.00000000
_symmetry_Int_Tables_number   1
_chemical_formula_structural   La21Mn8Sb7C12
_chemical_formula_sum   'La21 Mn8 Sb7 C12'
_cell_volume   1116.88990114
_cell_formula_units_Z   1
loop_
 _symmetry_equiv_pos_site_id
 _symmetry_equiv_pos_as_xyz
  1  'x, y, z'
loop_
 _atom_site_type_symbol
 _atom_site_label
 _atom_site_symmetry_multiplicity
 _atom_site_fract_x
 _atom_site_fract_y
 _atom_site_fract_z
 _atom_site_occupancy
  La  La0  1  0.00000000  0.00000000  0.34033300  1
  La  La1  1  0.65966700  0.00000000  0.34033300  1
  La  La2  1  0.00000000  0.65966700  0.34033300  1
  La  La3  1  0.65966700  0.34033300  0.00000000  1
  La  La4  1  0.00000000  0.34033300  0.00000000  1
  La  La5  1  0.00000000  0.34033300  0.65966700  1
  La  La6  1  0.34033300  0.65966700  0.00000000  1
  La  La7  1  0.34033300  0.00000000  0.65966700  1
  La  La8  1  0.34033300  0.00000000  0.00000000  1
  La  La9  1  0.00000000  0.00000000  0.65966700  1
  La  La10  1  0.00000000  0.65966700  0.00000000  1
  La  La11  1  0.65966700  0.00000000  0.00000000  1
  La  La12  1  0.63505400  0.63505400  0.09483900  1
  La  La13  1  0.63505400  0.09483900  0.63505400  1
  La  La14  1  0.09483900  0.63505400  0.63505400  1
  La  La15  1  0.63505400  0.63505400  0.63505400  1
  La  La16  1  0.36494600  0.36494600  0.90516100  1
  La  La17  1  0.36494600  0.90516100  0.36494600  1
  La  La18  1  0.90516100  0.36494600  0.36494600  1
  La  La19  1  0.36494600  0.36494600  0.36494600  1
  La  La20  1  0.50000000  0.50000000  0.50000000  1
  Mn  Mn21  1  0.80189000  0.80189000  0.59432900  1
  Mn  Mn22  1  0.80189000  0.59432900  0.80189000  1
  Mn  Mn23  1  0.59432900  0.80189000  0.80189000  1
  Mn  Mn24  1  0.80189000  0.80189000  0.80189000  1
  Mn  Mn25  1  0.19811000  0.19811000  0.40567100  1
  Mn  Mn26  1  0.19811000  0.40567100  0.19811000  1
  Mn  Mn27  1  0.40567100  0.19811000  0.19811000  1
  Mn  Mn28  1  0.19811000  0.19811000  0.19811000  1
  Sb  Sb29  1  0.70896400  0.70896400  0.29103600  1
  Sb  Sb30  1  0.29103600  0.70896400  0.29103600  1
  Sb  Sb31  1  0.70896400  0.29103600  0.29103600  1
  Sb  Sb32  1  0.29103600  0.29103600  0.70896400  1
  Sb  Sb33  1  0.70896400  0.29103600  0.70896400  1
  Sb  Sb34  1  0.29103600  0.70896400  0.70896400  1
  Sb  Sb35  1  0.00000000  0.00000000  0.00000000  1
  C  C36  1  0.89364500  0.89364500  0.60635500  1
  C  C37  1  0.60635500  0.89364500  0.60635500  1
  C  C38  1  0.89364500  0.60635500  0.60635500  1
  C  C39  1  0.60635500  0.60635500  0.89364500  1
  C  C40  1  0.89364500  0.60635500  0.89364500  1
  C  C41  1  0.60635500  0.89364500  0.89364500  1
  C  C42  1  0.10635500  0.10635500  0.39364500  1
  C  C43  1  0.39364500  0.10635500  0.39364500  1
  C  C44  1  0.10635500  0.39364500  0.39364500  1
  C  C45  1  0.39364500  0.39364500  0.10635500  1
  C  C46  1  0.10635500  0.39364500  0.10635500  1
  C  C47  1  0.39364500  0.10635500  0.10635500  1
