# generated using pymatgen
data_Mn(AsO3)2
_symmetry_space_group_name_H-M   'P 1'
_cell_length_a   4.88647600
_cell_length_b   10.74554585
_cell_length_c   8.46362400
_cell_angle_alpha   66.80759264
_cell_angle_beta   90.00000000
_cell_angle_gamma   76.85759081
_symmetry_Int_Tables_number   1
_chemical_formula_structural   Mn(AsO3)2
_chemical_formula_sum   'Mn4 As8 O24'
_cell_volume   395.79841701
_cell_formula_units_Z   4
loop_
 _symmetry_equiv_pos_site_id
 _symmetry_equiv_pos_as_xyz
  1  'x, y, z'
loop_
 _atom_site_type_symbol
 _atom_site_label
 _atom_site_symmetry_multiplicity
 _atom_site_fract_x
 _atom_site_fract_y
 _atom_site_fract_z
 _atom_site_occupancy
  Mn  Mn0  1  0.50000000  0.00000000  0.50000000  1
  Mn  Mn1  1  0.25000000  0.50000000  0.25000000  1
  Mn  Mn2  1  0.75000000  0.50000000  0.75000000  1
  Mn  Mn3  1  0.00000000  0.00000000  0.00000000  1
  As  As4  1  0.62500000  0.75000000  0.29166700  1
  As  As5  1  0.37500000  0.25000000  0.04166700  1
  As  As6  1  0.12500000  0.75000000  0.79166700  1
  As  As7  1  0.87500000  0.25000000  0.54166700  1
  As  As8  1  0.12500000  0.75000000  0.45833300  1
  As  As9  1  0.87500000  0.25000000  0.20833300  1
  As  As10  1  0.62500000  0.75000000  0.95833300  1
  As  As11  1  0.37500000  0.25000000  0.70833300  1
  O  O12  1  0.75524500  0.85855600  0.38619900  1
  O  O13  1  0.50524500  0.35855600  0.13619900  1
  O  O14  1  0.25524500  0.85855600  0.88619900  1
  O  O15  1  0.00524500  0.35855600  0.63619900  1
  O  O16  1  0.20167600  0.85855600  0.57072200  1
  O  O17  1  0.95167600  0.35855600  0.32072200  1
  O  O18  1  0.70167600  0.85855600  0.07072200  1
  O  O19  1  0.45167600  0.35855600  0.82072200  1
  O  O20  1  0.25524500  0.85855600  0.25524500  1
  O  O21  1  0.00524500  0.35855600  0.00524500  1
  O  O22  1  0.75524500  0.85855600  0.75524500  1
  O  O23  1  0.50524500  0.35855600  0.50524500  1
  O  O24  1  0.04832400  0.64144400  0.67927800  1
  O  O25  1  0.79832400  0.14144400  0.42927800  1
  O  O26  1  0.54832400  0.64144400  0.17927800  1
  O  O27  1  0.29832400  0.14144400  0.92927800  1
  O  O28  1  0.49475500  0.64144400  0.49475500  1
  O  O29  1  0.24475500  0.14144400  0.24475500  1
  O  O30  1  0.99475500  0.64144400  0.99475500  1
  O  O31  1  0.74475500  0.14144400  0.74475500  1
  O  O32  1  0.99475500  0.64144400  0.36380100  1
  O  O33  1  0.74475500  0.14144400  0.11380100  1
  O  O34  1  0.49475500  0.64144400  0.86380100  1
  O  O35  1  0.24475500  0.14144400  0.61380100  1
