# generated using pymatgen
data_Eu2NiRuO6
_symmetry_space_group_name_H-M   'P 1'
_cell_length_a   5.69891600
_cell_length_b   5.46758600
_cell_length_c   9.52498284
_cell_angle_alpha   55.13276812
_cell_angle_beta   90.00000000
_cell_angle_gamma   90.00000000
_symmetry_Int_Tables_number   1
_chemical_formula_structural   Eu2NiRuO6
_chemical_formula_sum   'Eu4 Ni2 Ru2 O12'
_cell_volume   243.51152937
_cell_formula_units_Z   2
loop_
 _symmetry_equiv_pos_site_id
 _symmetry_equiv_pos_as_xyz
  1  'x, y, z'
loop_
 _atom_site_type_symbol
 _atom_site_label
 _atom_site_symmetry_multiplicity
 _atom_site_fract_x
 _atom_site_fract_y
 _atom_site_fract_z
 _atom_site_occupancy
  Eu  Eu0  1  0.05958300  0.73468600  0.75129100  1
  Eu  Eu1  1  0.94041700  0.26531400  0.24870900  1
  Eu  Eu2  1  0.55958300  0.26531400  0.74870900  1
  Eu  Eu3  1  0.44041700  0.73468600  0.25129100  1
  Ni  Ni4  1  0.50000000  0.50000000  0.00000000  1
  Ni  Ni5  1  0.00000000  0.50000000  0.50000000  1
  Ru  Ru6  1  0.50000000  0.00000000  0.50000000  1
  Ru  Ru7  1  0.00000000  0.00000000  0.00000000  1
  O  O8  1  0.47277400  0.84700200  0.74579800  1
  O  O9  1  0.52722600  0.15299800  0.25420200  1
  O  O10  1  0.97277400  0.15299800  0.75420200  1
  O  O11  1  0.02722600  0.84700200  0.24579800  1
  O  O12  1  0.79152300  0.75805300  0.55013000  1
  O  O13  1  0.20847700  0.24194700  0.44987000  1
  O  O14  1  0.29152300  0.24194700  0.94987000  1
  O  O15  1  0.70847700  0.75805300  0.05013000  1
  O  O16  1  0.30463000  0.65794600  0.54565700  1
  O  O17  1  0.69537000  0.34205400  0.45434300  1
  O  O18  1  0.80463000  0.34205400  0.95434300  1
  O  O19  1  0.19537000  0.65794600  0.04565700  1
