# generated using pymatgen
data_Tm2Si2O7
_symmetry_space_group_name_H-M   'P 1'
_cell_length_a   5.62650026
_cell_length_b   5.62650026
_cell_length_c   4.76489795
_cell_angle_alpha   82.69691079
_cell_angle_beta   82.69691079
_cell_angle_gamma   105.26436886
_symmetry_Int_Tables_number   1
_chemical_formula_structural   Tm2Si2O7
_chemical_formula_sum   'Tm2 Si2 O7'
_cell_volume   142.29554998
_cell_formula_units_Z   1
loop_
 _symmetry_equiv_pos_site_id
 _symmetry_equiv_pos_as_xyz
  1  'x, y, z'
loop_
 _atom_site_type_symbol
 _atom_site_label
 _atom_site_symmetry_multiplicity
 _atom_site_fract_x
 _atom_site_fract_y
 _atom_site_fract_z
 _atom_site_occupancy
  Tm  Tm0  1  0.30809500  0.69190500  0.50000000  1
  Tm  Tm1  1  0.69190500  0.30809500  0.50000000  1
  Si  Si2  1  0.21890600  0.21890600  0.09039100  1
  Si  Si3  1  0.78109400  0.78109400  0.90960900  1
  O  O4  1  0.38278500  0.38278500  0.78358400  1
  O  O5  1  0.61721500  0.61721500  0.21641600  1
  O  O6  1  0.00000000  0.00000000  0.00000000  1
  O  O7  1  0.08414100  0.38637000  0.28128200  1
  O  O8  1  0.38637000  0.08414100  0.28128200  1
  O  O9  1  0.91585900  0.61363000  0.71871800  1
  O  O10  1  0.61363000  0.91585900  0.71871800  1
