# generated using pymatgen
data_Zr7Pt10
_symmetry_space_group_name_H-M   'P 1'
_cell_length_a   8.22013989
_cell_length_b   8.22013989
_cell_length_c   9.74121100
_cell_angle_alpha   90.00000000
_cell_angle_beta   90.00000000
_cell_angle_gamma   107.61287305
_symmetry_Int_Tables_number   1
_chemical_formula_structural   Zr7Pt10
_chemical_formula_sum   'Zr14 Pt20'
_cell_volume   627.36485279
_cell_formula_units_Z   2
loop_
 _symmetry_equiv_pos_site_id
 _symmetry_equiv_pos_as_xyz
  1  'x, y, z'
loop_
 _atom_site_type_symbol
 _atom_site_label
 _atom_site_symmetry_multiplicity
 _atom_site_fract_x
 _atom_site_fract_y
 _atom_site_fract_z
 _atom_site_occupancy
  Zr  Zr0  1  0.69015700  0.30984300  0.00000000  1
  Zr  Zr1  1  0.30984300  0.69015700  0.00000000  1
  Zr  Zr2  1  0.80984300  0.19015700  0.50000000  1
  Zr  Zr3  1  0.19015700  0.80984300  0.50000000  1
  Zr  Zr4  1  0.00000000  0.00000000  0.00000000  1
  Zr  Zr5  1  0.50000000  0.50000000  0.50000000  1
  Zr  Zr6  1  0.00334200  0.50334200  0.25000000  1
  Zr  Zr7  1  0.99665800  0.49665800  0.75000000  1
  Zr  Zr8  1  0.49665800  0.99665800  0.75000000  1
  Zr  Zr9  1  0.50334200  0.00334200  0.25000000  1
  Zr  Zr10  1  0.31775400  0.31775400  0.18333800  1
  Zr  Zr11  1  0.68224600  0.68224600  0.81666200  1
  Zr  Zr12  1  0.18224600  0.18224600  0.68333800  1
  Zr  Zr13  1  0.81775400  0.81775400  0.31666200  1
  Pt  Pt14  1  0.85377300  0.14632100  0.20942800  1
  Pt  Pt15  1  0.14622700  0.85367900  0.79057200  1
  Pt  Pt16  1  0.64622700  0.35367900  0.70942800  1
  Pt  Pt17  1  0.64632100  0.35377300  0.29057200  1
  Pt  Pt18  1  0.35377300  0.64632100  0.29057200  1
  Pt  Pt19  1  0.35367900  0.64622700  0.70942800  1
  Pt  Pt20  1  0.85367900  0.14622700  0.79057200  1
  Pt  Pt21  1  0.14632100  0.85377300  0.20942800  1
  Pt  Pt22  1  0.93670800  0.64461900  0.99994100  1
  Pt  Pt23  1  0.06329200  0.35538100  0.00005900  1
  Pt  Pt24  1  0.56329200  0.85538100  0.49994100  1
  Pt  Pt25  1  0.14461900  0.43670800  0.50005900  1
  Pt  Pt26  1  0.43670800  0.14461900  0.50005900  1
  Pt  Pt27  1  0.85538100  0.56329200  0.49994100  1
  Pt  Pt28  1  0.35538100  0.06329200  0.00005900  1
  Pt  Pt29  1  0.64461900  0.93670800  0.99994100  1
  Pt  Pt30  1  0.10810600  0.10810600  0.39356000  1
  Pt  Pt31  1  0.89189400  0.89189400  0.60644000  1
  Pt  Pt32  1  0.39189400  0.39189400  0.89356000  1
  Pt  Pt33  1  0.60810600  0.60810600  0.10644000  1
