# generated using pymatgen
data_CsAg3Te2
_symmetry_space_group_name_H-M   'P 1'
_cell_length_a   9.21735676
_cell_length_b   9.21735676
_cell_length_c   9.64149004
_cell_angle_alpha   68.79924136
_cell_angle_beta   68.79924136
_cell_angle_gamma   29.48336506
_symmetry_Int_Tables_number   1
_chemical_formula_structural   CsAg3Te2
_chemical_formula_sum   'Cs2 Ag6 Te4'
_cell_volume   373.90695030
_cell_formula_units_Z   2
loop_
 _symmetry_equiv_pos_site_id
 _symmetry_equiv_pos_as_xyz
  1  'x, y, z'
loop_
 _atom_site_type_symbol
 _atom_site_label
 _atom_site_symmetry_multiplicity
 _atom_site_fract_x
 _atom_site_fract_y
 _atom_site_fract_z
 _atom_site_occupancy
  Cs  Cs0  1  0.86319400  0.86319400  0.04897600  1
  Cs  Cs1  1  0.13680600  0.13680600  0.95102400  1
  Ag  Ag2  1  0.58891000  0.58891000  0.37594200  1
  Ag  Ag3  1  0.41109000  0.41109000  0.62405800  1
  Ag  Ag4  1  0.93848200  0.93848200  0.40985600  1
  Ag  Ag5  1  0.06151800  0.06151800  0.59014400  1
  Ag  Ag6  1  0.68824900  0.68824900  0.55586200  1
  Ag  Ag7  1  0.31175100  0.31175100  0.44413800  1
  Te  Te8  1  0.80340100  0.80340100  0.68671400  1
  Te  Te9  1  0.19659900  0.19659900  0.31328600  1
  Te  Te10  1  0.47918300  0.47918300  0.23313900  1
  Te  Te11  1  0.52081700  0.52081700  0.76686100  1
