# generated using pymatgen
data_Ag5Te2Br
_symmetry_space_group_name_H-M   'P 1'
_cell_length_a   7.78133600
_cell_length_b   14.18392100
_cell_length_c   14.23949900
_cell_angle_alpha   90.00000000
_cell_angle_beta   90.00000000
_cell_angle_gamma   90.00000000
_symmetry_Int_Tables_number   1
_chemical_formula_structural   Ag5Te2Br
_chemical_formula_sum   'Ag40 Te16 Br8'
_cell_volume   1571.61144130
_cell_formula_units_Z   8
loop_
 _symmetry_equiv_pos_site_id
 _symmetry_equiv_pos_as_xyz
  1  'x, y, z'
loop_
 _atom_site_type_symbol
 _atom_site_label
 _atom_site_symmetry_multiplicity
 _atom_site_fract_x
 _atom_site_fract_y
 _atom_site_fract_z
 _atom_site_occupancy
  Ag  Ag0  1  0.20652800  0.35220000  0.70025200  1
  Ag  Ag1  1  0.79347200  0.64780000  0.29974800  1
  Ag  Ag2  1  0.70652800  0.14780000  0.79974800  1
  Ag  Ag3  1  0.29347200  0.85220000  0.20025200  1
  Ag  Ag4  1  0.43498300  0.25000000  0.57166300  1
  Ag  Ag5  1  0.56501700  0.75000000  0.42833700  1
  Ag  Ag6  1  0.93498300  0.25000000  0.92833700  1
  Ag  Ag7  1  0.06501700  0.75000000  0.07166300  1
  Ag  Ag8  1  0.13150100  0.07319200  0.92130200  1
  Ag  Ag9  1  0.86849900  0.92680800  0.07869800  1
  Ag  Ag10  1  0.63150100  0.42680800  0.57869800  1
  Ag  Ag11  1  0.36849900  0.57319200  0.42130200  1
  Ag  Ag12  1  0.00707800  0.85752700  0.89401000  1
  Ag  Ag13  1  0.99292200  0.14247300  0.10599000  1
  Ag  Ag14  1  0.50707800  0.64247300  0.60599000  1
  Ag  Ag15  1  0.49292200  0.35752700  0.39401000  1
  Ag  Ag16  1  0.35404700  0.75000000  0.87965100  1
  Ag  Ag17  1  0.64595300  0.25000000  0.12034900  1
  Ag  Ag18  1  0.85404700  0.75000000  0.62034900  1
  Ag  Ag19  1  0.14595300  0.25000000  0.37965100  1
  Ag  Ag20  1  0.00707800  0.64247300  0.89401000  1
  Ag  Ag21  1  0.99292200  0.35752700  0.10599000  1
  Ag  Ag22  1  0.50707800  0.85752700  0.60599000  1
  Ag  Ag23  1  0.49292200  0.14247300  0.39401000  1
  Ag  Ag24  1  0.62442500  0.60107100  0.92100700  1
  Ag  Ag25  1  0.37557500  0.39892900  0.07899300  1
  Ag  Ag26  1  0.12442500  0.89892900  0.57899300  1
  Ag  Ag27  1  0.87557500  0.10107100  0.42100700  1
  Ag  Ag28  1  0.12442500  0.60107100  0.57899300  1
  Ag  Ag29  1  0.87557500  0.39892900  0.42100700  1
  Ag  Ag30  1  0.62442500  0.89892900  0.92100700  1
  Ag  Ag31  1  0.37557500  0.10107100  0.07899300  1
  Ag  Ag32  1  0.70652800  0.35220000  0.79974800  1
  Ag  Ag33  1  0.29347200  0.64780000  0.20025200  1
  Ag  Ag34  1  0.20652800  0.14780000  0.70025200  1
  Ag  Ag35  1  0.79347200  0.85220000  0.29974800  1
  Ag  Ag36  1  0.13150100  0.42680800  0.92130200  1
  Ag  Ag37  1  0.86849900  0.57319200  0.07869800  1
  Ag  Ag38  1  0.63150100  0.07319200  0.57869800  1
  Ag  Ag39  1  0.36849900  0.92680800  0.42130200  1
  Te  Te40  1  0.21237300  0.41152800  0.50869500  1
  Te  Te41  1  0.78762700  0.58847200  0.49130500  1
  Te  Te42  1  0.71237300  0.08847200  0.99130500  1
  Te  Te43  1  0.28762700  0.91152800  0.00869500  1
  Te  Te44  1  0.21237300  0.08847200  0.50869500  1
  Te  Te45  1  0.78762700  0.91152800  0.49130500  1
  Te  Te46  1  0.71237300  0.41152800  0.99130500  1
  Te  Te47  1  0.28762700  0.58847200  0.00869500  1
  Te  Te48  1  0.24173600  0.75000000  0.68822300  1
  Te  Te49  1  0.75826400  0.25000000  0.31177700  1
  Te  Te50  1  0.74173600  0.75000000  0.81177700  1
  Te  Te51  1  0.25826400  0.25000000  0.18822300  1
  Te  Te52  1  0.78155300  0.25000000  0.63602400  1
  Te  Te53  1  0.21844700  0.75000000  0.36397600  1
  Te  Te54  1  0.28155300  0.25000000  0.86397600  1
  Te  Te55  1  0.71844700  0.75000000  0.13602400  1
  Br  Br56  1  0.47962400  0.49922900  0.74879100  1
  Br  Br57  1  0.52037600  0.50077100  0.25120900  1
  Br  Br58  1  0.97962400  0.00077100  0.75120900  1
  Br  Br59  1  0.02037600  0.99922900  0.24879100  1
  Br  Br60  1  0.47962400  0.00077100  0.74879100  1
  Br  Br61  1  0.52037600  0.99922900  0.25120900  1
  Br  Br62  1  0.97962400  0.49922900  0.75120900  1
  Br  Br63  1  0.02037600  0.50077100  0.24879100  1
