# generated using pymatgen
data_Rb3Ta2AsS11
_symmetry_space_group_name_H-M   'P 1'
_cell_length_a   9.93659157
_cell_length_b   9.93659157
_cell_length_c   9.79468760
_cell_angle_alpha   83.60113002
_cell_angle_beta   83.60113002
_cell_angle_gamma   83.70509896
_symmetry_Int_Tables_number   1
_chemical_formula_structural   Rb3Ta2AsS11
_chemical_formula_sum   'Rb6 Ta4 As2 S22'
_cell_volume   950.43514551
_cell_formula_units_Z   2
loop_
 _symmetry_equiv_pos_site_id
 _symmetry_equiv_pos_as_xyz
  1  'x, y, z'
loop_
 _atom_site_type_symbol
 _atom_site_label
 _atom_site_symmetry_multiplicity
 _atom_site_fract_x
 _atom_site_fract_y
 _atom_site_fract_z
 _atom_site_occupancy
  Rb  Rb0  1  0.30631000  0.46083300  0.33976400  1
  Rb  Rb1  1  0.46083300  0.30631000  0.83976400  1
  Rb  Rb2  1  0.56733900  0.69974700  0.66969200  1
  Rb  Rb3  1  0.69974700  0.56733900  0.16969200  1
  Rb  Rb4  1  0.93319200  0.09520000  0.92674700  1
  Rb  Rb5  1  0.09520000  0.93319200  0.42674700  1
  Ta  Ta6  1  0.20209800  0.66222300  0.94647300  1
  Ta  Ta7  1  0.66222300  0.20209800  0.44647300  1
  Ta  Ta8  1  0.95524000  0.53810100  0.76135000  1
  Ta  Ta9  1  0.53810100  0.95524000  0.26135000  1
  As  As10  1  0.00646600  0.32350600  0.50318400  1
  As  As11  1  0.32350600  0.00646600  0.00318400  1
  S  S12  1  0.21927000  0.63644200  0.69604900  1
  S  S13  1  0.63644200  0.21927000  0.19604900  1
  S  S14  1  0.23074800  0.83388800  0.74676400  1
  S  S15  1  0.83388800  0.23074800  0.24676400  1
  S  S16  1  0.41223100  0.58364800  0.99856100  1
  S  S17  1  0.58364800  0.41223100  0.49856100  1
  S  S18  1  0.12132800  0.33648900  0.69278500  1
  S  S19  1  0.33648900  0.12132800  0.19278500  1
  S  S20  1  0.55314600  0.05287000  0.63775800  1
  S  S21  1  0.05287000  0.55314600  0.13775800  1
  S  S22  1  0.77094200  0.43557100  0.84894600  1
  S  S23  1  0.43557100  0.77094200  0.34894600  1
  S  S24  1  0.91908300  0.54252500  0.51294800  1
  S  S25  1  0.54252500  0.91908300  0.01294800  1
  S  S26  1  0.88167100  0.78160600  0.70671500  1
  S  S27  1  0.78160600  0.88167100  0.20671500  1
  S  S28  1  0.85419200  0.17326500  0.59581000  1
  S  S29  1  0.17326500  0.85419200  0.09581000  1
  S  S30  1  0.09843400  0.43897800  0.96931800  1
  S  S31  1  0.43897800  0.09843400  0.46931800  1
  S  S32  1  0.92628600  0.72763200  0.90848700  1
  S  S33  1  0.72763200  0.92628600  0.40848700  1
