# generated using pymatgen
data_CaFeP2O7
_symmetry_space_group_name_H-M   'P 1'
_cell_length_a   7.33241153
_cell_length_b   9.78334029
_cell_length_c   8.67192917
_cell_angle_alpha   105.87316253
_cell_angle_beta   110.49958444
_cell_angle_gamma   69.67493662
_symmetry_Int_Tables_number   1
_chemical_formula_structural   CaFeP2O7
_chemical_formula_sum   'Ca4 Fe4 P8 O28'
_cell_volume   538.18187849
_cell_formula_units_Z   4
loop_
 _symmetry_equiv_pos_site_id
 _symmetry_equiv_pos_as_xyz
  1  'x, y, z'
loop_
 _atom_site_type_symbol
 _atom_site_label
 _atom_site_symmetry_multiplicity
 _atom_site_fract_x
 _atom_site_fract_y
 _atom_site_fract_z
 _atom_site_occupancy
  Ca  Ca0  1  0.51994100  0.65055700  0.79318800  1
  Ca  Ca1  1  0.01989100  0.15072800  0.29315200  1
  Ca  Ca2  1  0.98008500  0.84926000  0.70683300  1
  Ca  Ca3  1  0.48005500  0.34943400  0.20683700  1
  Fe  Fe4  1  0.51051200  0.26122800  0.61286000  1
  Fe  Fe5  1  0.48931000  0.73874900  0.38697500  1
  Fe  Fe6  1  0.01047900  0.76133900  0.11286700  1
  Fe  Fe7  1  0.98953100  0.23866500  0.88711800  1
  P  P8  1  0.18756800  0.56095600  0.41461600  1
  P  P9  1  0.68759500  0.06098000  0.91468000  1
  P  P10  1  0.31243200  0.93902700  0.08532800  1
  P  P11  1  0.81243900  0.43903800  0.58541700  1
  P  P12  1  0.70038200  0.97047400  0.34151200  1
  P  P13  1  0.20037000  0.47031200  0.84146500  1
  P  P14  1  0.79965700  0.52971500  0.15858700  1
  P  P15  1  0.29966200  0.02950700  0.65846100  1
  O  O16  1  0.54847500  0.93038500  0.15788900  1
  O  O17  1  0.04852900  0.43029700  0.65783900  1
  O  O18  1  0.95150200  0.56965000  0.34221000  1
  O  O19  1  0.45157500  0.06950900  0.84207200  1
  O  O20  1  0.81509800  0.89889100  0.91702400  1
  O  O21  1  0.31498400  0.39886200  0.41685900  1
  O  O22  1  0.68507300  0.60115400  0.58318000  1
  O  O23  1  0.18494900  0.10112300  0.08298500  1
  O  O24  1  0.79005000  0.63320400  0.04847300  1
  O  O25  1  0.28988400  0.13313700  0.54844500  1
  O  O26  1  0.71025000  0.86685300  0.45155800  1
  O  O27  1  0.20998200  0.36680800  0.95156200  1
  O  O28  1  0.59705600  0.56422300  0.19760100  1
  O  O29  1  0.09716700  0.06375900  0.69750500  1
  O  O30  1  0.90286100  0.93627000  0.30246900  1
  O  O31  1  0.40298200  0.43587900  0.80252500  1
  O  O32  1  0.29539500  0.84410100  0.91311400  1
  O  O33  1  0.79521100  0.34418500  0.41315700  1
  O  O34  1  0.20480200  0.65579000  0.58687500  1
  O  O35  1  0.70457200  0.15590100  0.08688900  1
  O  O36  1  0.25727500  0.87941000  0.20711400  1
  O  O37  1  0.75740900  0.37942400  0.70725700  1
  O  O38  1  0.24251000  0.62058300  0.29274800  1
  O  O39  1  0.74272000  0.12063000  0.79291800  1
  O  O40  1  0.88819700  0.36648400  0.09479400  1
  O  O41  1  0.38845400  0.86631400  0.59464400  1
  O  O42  1  0.61141700  0.13366700  0.40520800  1
  O  O43  1  0.11170700  0.63353500  0.90518600  1
