# generated using pymatgen
data_La2Ge5Rh3
_symmetry_space_group_name_H-M   'P 1'
_cell_length_a   8.56296898
_cell_length_b   8.56296898
_cell_length_c   8.56296898
_cell_angle_alpha   138.18794441
_cell_angle_beta   106.33866111
_cell_angle_gamma   88.47288525
_symmetry_Int_Tables_number   1
_chemical_formula_structural   La2Ge5Rh3
_chemical_formula_sum   'La4 Ge10 Rh6'
_cell_volume   384.90435849
_cell_formula_units_Z   2
loop_
 _symmetry_equiv_pos_site_id
 _symmetry_equiv_pos_as_xyz
  1  'x, y, z'
loop_
 _atom_site_type_symbol
 _atom_site_label
 _atom_site_symmetry_multiplicity
 _atom_site_fract_x
 _atom_site_fract_y
 _atom_site_fract_z
 _atom_site_occupancy
  La  La0  1  0.36463100  0.13261400  0.23201700  1
  La  La1  1  0.63536900  0.86738600  0.76798300  1
  La  La2  1  0.09940300  0.36738600  0.73201700  1
  La  La3  1  0.90059700  0.63261400  0.26798300  1
  Ge  Ge4  1  0.00000000  0.25000000  0.25000000  1
  Ge  Ge5  1  0.00000000  0.75000000  0.75000000  1
  Ge  Ge6  1  0.72491100  0.97491100  0.25000000  1
  Ge  Ge7  1  0.27508900  0.52508900  0.25000000  1
  Ge  Ge8  1  0.27508900  0.02508900  0.75000000  1
  Ge  Ge9  1  0.72491100  0.47491100  0.75000000  1
  Ge  Ge10  1  0.55688000  0.39960000  0.15728000  1
  Ge  Ge11  1  0.24232000  0.89960000  0.34272000  1
  Ge  Ge12  1  0.75768000  0.10040000  0.65728000  1
  Ge  Ge13  1  0.44312000  0.60040000  0.84272000  1
  Rh  Rh14  1  0.96833200  0.86012700  0.10820500  1
  Rh  Rh15  1  0.50000000  0.75000000  0.25000000  1
  Rh  Rh16  1  0.75192100  0.36012700  0.39179500  1
  Rh  Rh17  1  0.24807900  0.63987300  0.60820500  1
  Rh  Rh18  1  0.03166800  0.13987300  0.89179500  1
  Rh  Rh19  1  0.50000000  0.25000000  0.75000000  1
