# generated using pymatgen
data_DyGaPt
_symmetry_space_group_name_H-M   'P 1'
_cell_length_a   4.45458600
_cell_length_b   6.87967800
_cell_length_c   7.69253200
_cell_angle_alpha   90.00000000
_cell_angle_beta   90.00000000
_cell_angle_gamma   90.00000000
_symmetry_Int_Tables_number   1
_chemical_formula_structural   DyGaPt
_chemical_formula_sum   'Dy4 Ga4 Pt4'
_cell_volume   235.74623803
_cell_formula_units_Z   4
loop_
 _symmetry_equiv_pos_site_id
 _symmetry_equiv_pos_as_xyz
  1  'x, y, z'
loop_
 _atom_site_type_symbol
 _atom_site_label
 _atom_site_symmetry_multiplicity
 _atom_site_fract_x
 _atom_site_fract_y
 _atom_site_fract_z
 _atom_site_occupancy
  Dy  Dy0  1  0.25000000  0.98465500  0.30256900  1
  Dy  Dy1  1  0.25000000  0.48465500  0.19743100  1
  Dy  Dy2  1  0.75000000  0.01534500  0.69743100  1
  Dy  Dy3  1  0.75000000  0.51534500  0.80256900  1
  Ga  Ga4  1  0.25000000  0.32500400  0.57209800  1
  Ga  Ga5  1  0.25000000  0.82500400  0.92790200  1
  Ga  Ga6  1  0.75000000  0.67499600  0.42790200  1
  Ga  Ga7  1  0.75000000  0.17499600  0.07209800  1
  Pt  Pt8  1  0.25000000  0.22062600  0.89834000  1
  Pt  Pt9  1  0.25000000  0.72062600  0.60166000  1
  Pt  Pt10  1  0.75000000  0.77937400  0.10166000  1
  Pt  Pt11  1  0.75000000  0.27937400  0.39834000  1
