# generated using pymatgen
data_Mg2SiS4
_symmetry_space_group_name_H-M   'P 1'
_cell_length_a   5.95911200
_cell_length_b   7.47771500
_cell_length_c   12.80588500
_cell_angle_alpha   90.00000000
_cell_angle_beta   90.00000000
_cell_angle_gamma   90.00000000
_symmetry_Int_Tables_number   1
_chemical_formula_structural   Mg2SiS4
_chemical_formula_sum   'Mg8 Si4 S16'
_cell_volume   570.63716601
_cell_formula_units_Z   4
loop_
 _symmetry_equiv_pos_site_id
 _symmetry_equiv_pos_as_xyz
  1  'x, y, z'
loop_
 _atom_site_type_symbol
 _atom_site_label
 _atom_site_symmetry_multiplicity
 _atom_site_fract_x
 _atom_site_fract_y
 _atom_site_fract_z
 _atom_site_occupancy
  Mg  Mg0  1  0.00000000  0.50000000  0.00000000  1
  Mg  Mg1  1  0.50000000  0.00000000  0.50000000  1
  Mg  Mg2  1  0.00000000  0.00000000  0.00000000  1
  Mg  Mg3  1  0.50000000  0.50000000  0.50000000  1
  Mg  Mg4  1  0.49202900  0.75000000  0.23124400  1
  Mg  Mg5  1  0.00797100  0.75000000  0.73124400  1
  Mg  Mg6  1  0.50797100  0.25000000  0.76875600  1
  Mg  Mg7  1  0.99202900  0.25000000  0.26875600  1
  Si  Si8  1  0.90681900  0.75000000  0.41110800  1
  Si  Si9  1  0.59318100  0.75000000  0.91110800  1
  Si  Si10  1  0.09318100  0.25000000  0.58889200  1
  Si  Si11  1  0.40681900  0.25000000  0.08889200  1
  S  S12  1  0.26241900  0.75000000  0.40746900  1
  S  S13  1  0.23758100  0.75000000  0.90746900  1
  S  S14  1  0.73758100  0.25000000  0.59253100  1
  S  S15  1  0.76241900  0.25000000  0.09253100  1
  S  S16  1  0.76149100  0.75000000  0.56534600  1
  S  S17  1  0.73850900  0.75000000  0.06534600  1
  S  S18  1  0.23850900  0.25000000  0.43465400  1
  S  S19  1  0.26149100  0.25000000  0.93465400  1
  S  S20  1  0.75316600  0.52437800  0.33444700  1
  S  S21  1  0.74683400  0.97562200  0.83444700  1
  S  S22  1  0.24683400  0.02437800  0.66555300  1
  S  S23  1  0.25316600  0.47562200  0.16555300  1
  S  S24  1  0.24683400  0.47562200  0.66555300  1
  S  S25  1  0.25316600  0.02437800  0.16555300  1
  S  S26  1  0.75316600  0.97562200  0.33444700  1
  S  S27  1  0.74683400  0.52437800  0.83444700  1
