# generated using pymatgen
data_Li3Tb(NO3)6
_symmetry_space_group_name_H-M   'P 1'
_cell_length_a   7.67367200
_cell_length_b   7.93873900
_cell_length_c   25.45831382
_cell_angle_alpha   73.23511275
_cell_angle_beta   90.00000000
_cell_angle_gamma   90.00000000
_symmetry_Int_Tables_number   1
_chemical_formula_structural   Li3Tb(NO3)6
_chemical_formula_sum   'Li12 Tb4 N24 O72'
_cell_volume   1484.98327451
_cell_formula_units_Z   4
loop_
 _symmetry_equiv_pos_site_id
 _symmetry_equiv_pos_as_xyz
  1  'x, y, z'
loop_
 _atom_site_type_symbol
 _atom_site_label
 _atom_site_symmetry_multiplicity
 _atom_site_fract_x
 _atom_site_fract_y
 _atom_site_fract_z
 _atom_site_occupancy
  Li  Li0  1  0.18371000  0.92678900  0.36559300  1
  Li  Li1  1  0.81629000  0.07321100  0.63440700  1
  Li  Li2  1  0.68371000  0.07321100  0.13440700  1
  Li  Li3  1  0.31629000  0.92678900  0.86559300  1
  Li  Li4  1  0.44214600  0.74645100  0.25484100  1
  Li  Li5  1  0.55785400  0.25354900  0.74515900  1
  Li  Li6  1  0.94214600  0.25354900  0.24515900  1
  Li  Li7  1  0.05785400  0.74645100  0.75484100  1
  Li  Li8  1  0.71023400  0.78368300  0.47430800  1
  Li  Li9  1  0.28976600  0.21631700  0.52569200  1
  Li  Li10  1  0.21023400  0.21631700  0.02569200  1
  Li  Li11  1  0.78976600  0.78368300  0.97430800  1
  Tb  Tb12  1  0.69420600  0.36703600  0.39032600  1
  Tb  Tb13  1  0.30579400  0.63296400  0.60967400  1
  Tb  Tb14  1  0.19420600  0.63296400  0.10967400  1
  Tb  Tb15  1  0.80579400  0.36703600  0.89032600  1
  N  N16  1  0.20161300  0.00000900  0.26476000  1
  N  N17  1  0.79838700  0.99999100  0.73524000  1
  N  N18  1  0.70161300  0.99999100  0.23524000  1
  N  N19  1  0.29838700  0.00000900  0.76476000  1
  N  N20  1  0.69778600  0.46935400  0.26974300  1
  N  N21  1  0.30221400  0.53064600  0.73025700  1
  N  N22  1  0.19778600  0.53064600  0.23025700  1
  N  N23  1  0.80221400  0.46935400  0.76974300  1
  N  N24  1  0.50785100  0.80060000  0.05394000  1
  N  N25  1  0.49214900  0.19940000  0.94606000  1
  N  N26  1  0.00785100  0.19940000  0.44606000  1
  N  N27  1  0.99214900  0.80060000  0.55394000  1
  N  N28  1  0.87138600  0.53583400  0.06382900  1
  N  N29  1  0.12861400  0.46416600  0.93617100  1
  N  N30  1  0.37138600  0.46416600  0.43617100  1
  N  N31  1  0.62861400  0.53583400  0.56382900  1
  N  N32  1  0.88565500  0.68237000  0.39361100  1
  N  N33  1  0.11434500  0.31763000  0.60638900  1
  N  N34  1  0.38565500  0.31763000  0.10638900  1
  N  N35  1  0.61434500  0.68237000  0.89361100  1
  N  N36  1  0.99254800  0.95804700  0.09720300  1
  N  N37  1  0.00745200  0.04195300  0.90279700  1
  N  N38  1  0.49254800  0.04195300  0.40279700  1
  N  N39  1  0.50745200  0.95804700  0.59720300  1
  O  O40  1  0.60287100  0.54729800  0.29759400  1
  O  O41  1  0.39712900  0.45270200  0.70240600  1
  O  O42  1  0.10287100  0.45270200  0.20240600  1
  O  O43  1  0.89712900  0.54729800  0.79759400  1
  O  O44  1  0.47601800  0.80587100  0.10261700  1
  O  O45  1  0.52398200  0.19412900  0.89738300  1
  O  O46  1  0.97601800  0.19412900  0.39738300  1
  O  O47  1  0.02398200  0.80587100  0.60261700  1
  O  O48  1  0.39540400  0.72279900  0.03187600  1
  O  O49  1  0.60459600  0.27720100  0.96812400  1
  O  O50  1  0.89540400  0.27720100  0.46812400  1
  O  O51  1  0.10459600  0.72279900  0.53187600  1
  O  O52  1  0.69975500  0.51189200  0.21954500  1
  O  O53  1  0.30024500  0.48810800  0.78045500  1
  O  O54  1  0.19975500  0.48810800  0.28045500  1
  O  O55  1  0.80024500  0.51189200  0.71954500  1
  O  O56  1  0.73675100  0.50102400  0.04271600  1
  O  O57  1  0.26324900  0.49897600  0.95728400  1
  O  O58  1  0.23675100  0.49897600  0.45728400  1
  O  O59  1  0.76324900  0.50102400  0.54271600  1
  O  O60  1  0.95158600  0.81327000  0.13205600  1
  O  O61  1  0.04841400  0.18673000  0.86794400  1
  O  O62  1  0.45158600  0.18673000  0.36794400  1
  O  O63  1  0.54841400  0.81327000  0.63205600  1
  O  O64  1  0.64235200  0.86814800  0.02913800  1
  O  O65  1  0.35764800  0.13185200  0.97086200  1
  O  O66  1  0.14235200  0.13185200  0.47086200  1
  O  O67  1  0.85764800  0.86814800  0.52913800  1
  O  O68  1  0.70402600  0.95952300  0.28606700  1
  O  O69  1  0.29597400  0.04047700  0.71393300  1
  O  O70  1  0.20402600  0.04047700  0.21393300  1
  O  O71  1  0.79597400  0.95952300  0.78606700  1
  O  O72  1  0.36408100  0.95974200  0.57051700  1
  O  O73  1  0.63591900  0.04025800  0.42948300  1
  O  O74  1  0.86408100  0.04025800  0.92948300  1
  O  O75  1  0.13591900  0.95974200  0.07051700  1
  O  O76  1  0.96722700  0.80916900  0.40053900  1
  O  O77  1  0.03277300  0.19083100  0.59946100  1
  O  O78  1  0.46722700  0.19083100  0.09946100  1
  O  O79  1  0.53277300  0.80916900  0.90053900  1
  O  O80  1  0.97556500  0.66023400  0.03533900  1
  O  O81  1  0.02443500  0.33976600  0.96466100  1
  O  O82  1  0.47556500  0.33976600  0.46466100  1
  O  O83  1  0.52443500  0.66023400  0.53533900  1
  O  O84  1  0.91833700  0.46010200  0.11256900  1
  O  O85  1  0.08166300  0.53989800  0.88743100  1
  O  O86  1  0.41833700  0.53989800  0.38743100  1
  O  O87  1  0.58166300  0.46010200  0.61256900  1
  O  O88  1  0.79153300  0.34143200  0.29941500  1
  O  O89  1  0.20846700  0.65856800  0.70058500  1
  O  O90  1  0.29153300  0.65856800  0.20058500  1
  O  O91  1  0.70846700  0.34143200  0.79941500  1
  O  O92  1  0.40103300  0.90792800  0.41172900  1
  O  O93  1  0.59896700  0.09207200  0.58827100  1
  O  O94  1  0.90103300  0.09207200  0.08827100  1
  O  O95  1  0.09896700  0.90792800  0.91172900  1
  O  O96  1  0.93585900  0.59229900  0.36272300  1
  O  O97  1  0.06414100  0.40770100  0.63727700  1
  O  O98  1  0.43585900  0.40770100  0.13727700  1
  O  O99  1  0.56414100  0.59229900  0.86272300  1
  O  O100  1  0.74033400  0.63585600  0.41945800  1
  O  O101  1  0.25966600  0.36414400  0.58054200  1
  O  O102  1  0.24033400  0.36414400  0.08054200  1
  O  O103  1  0.75966600  0.63585600  0.91945800  1
  O  O104  1  0.60852500  0.91575800  0.20922100  1
  O  O105  1  0.39147500  0.08424200  0.79077900  1
  O  O106  1  0.10852500  0.08424200  0.29077900  1
  O  O107  1  0.89147500  0.91575800  0.70922100  1
  O  O108  1  0.29098900  0.87181000  0.29480600  1
  O  O109  1  0.70901100  0.12819000  0.70519400  1
  O  O110  1  0.79098900  0.12819000  0.20519400  1
  O  O111  1  0.20901100  0.87181000  0.79480600  1
