# generated using pymatgen
data_Tb4Ge6Ir7
_symmetry_space_group_name_H-M   'P 1'
_cell_length_a   7.29727554
_cell_length_b   7.29727554
_cell_length_c   7.29727554
_cell_angle_alpha   109.47122063
_cell_angle_beta   109.47122063
_cell_angle_gamma   109.47122063
_symmetry_Int_Tables_number   1
_chemical_formula_structural   Tb4Ge6Ir7
_chemical_formula_sum   'Tb4 Ge6 Ir7'
_cell_volume   299.13025811
_cell_formula_units_Z   1
loop_
 _symmetry_equiv_pos_site_id
 _symmetry_equiv_pos_as_xyz
  1  'x, y, z'
loop_
 _atom_site_type_symbol
 _atom_site_label
 _atom_site_symmetry_multiplicity
 _atom_site_fract_x
 _atom_site_fract_y
 _atom_site_fract_z
 _atom_site_occupancy
  Tb  Tb0  1  0.00000000  0.00000000  0.50000000  1
  Tb  Tb1  1  0.00000000  0.50000000  0.00000000  1
  Tb  Tb2  1  0.50000000  0.00000000  0.00000000  1
  Tb  Tb3  1  0.50000000  0.50000000  0.50000000  1
  Ge  Ge4  1  0.68157100  0.68157100  0.00000000  1
  Ge  Ge5  1  0.31842900  0.00000000  0.31842900  1
  Ge  Ge6  1  0.00000000  0.31842900  0.31842900  1
  Ge  Ge7  1  0.31842900  0.31842900  0.00000000  1
  Ge  Ge8  1  0.68157100  0.00000000  0.68157100  1
  Ge  Ge9  1  0.00000000  0.68157100  0.68157100  1
  Ir  Ir10  1  0.75000000  0.25000000  0.50000000  1
  Ir  Ir11  1  0.75000000  0.50000000  0.25000000  1
  Ir  Ir12  1  0.50000000  0.25000000  0.75000000  1
  Ir  Ir13  1  0.25000000  0.50000000  0.75000000  1
  Ir  Ir14  1  0.25000000  0.75000000  0.50000000  1
  Ir  Ir15  1  0.50000000  0.75000000  0.25000000  1
  Ir  Ir16  1  0.00000000  0.00000000  0.00000000  1
