# generated using pymatgen
data_P2W2O11
_symmetry_space_group_name_H-M   'P 1'
_cell_length_a   6.31864300
_cell_length_b   8.16928300
_cell_length_c   16.16907100
_cell_angle_alpha   90.00000000
_cell_angle_beta   90.00000000
_cell_angle_gamma   90.00000000
_symmetry_Int_Tables_number   1
_chemical_formula_structural   P2W2O11
_chemical_formula_sum   'P8 W8 O44'
_cell_volume   834.62776472
_cell_formula_units_Z   4
loop_
 _symmetry_equiv_pos_site_id
 _symmetry_equiv_pos_as_xyz
  1  'x, y, z'
loop_
 _atom_site_type_symbol
 _atom_site_label
 _atom_site_symmetry_multiplicity
 _atom_site_fract_x
 _atom_site_fract_y
 _atom_site_fract_z
 _atom_site_occupancy
  P  P0  1  0.75000000  0.58796400  0.58475600  1
  P  P1  1  0.25000000  0.41203600  0.41524400  1
  P  P2  1  0.25000000  0.08796400  0.91524400  1
  P  P3  1  0.75000000  0.91203600  0.08475600  1
  P  P4  1  0.75000000  0.99380700  0.75664900  1
  P  P5  1  0.25000000  0.00619300  0.24335100  1
  P  P6  1  0.25000000  0.49380700  0.74335100  1
  P  P7  1  0.75000000  0.50619300  0.25664900  1
  W  W8  1  0.25000000  0.73034800  0.56232600  1
  W  W9  1  0.75000000  0.26965200  0.43767400  1
  W  W10  1  0.75000000  0.23034800  0.93767400  1
  W  W11  1  0.25000000  0.76965200  0.06232600  1
  W  W12  1  0.25000000  0.08753500  0.69918600  1
  W  W13  1  0.75000000  0.91246500  0.30081400  1
  W  W14  1  0.75000000  0.58753500  0.80081400  1
  W  W15  1  0.25000000  0.41246500  0.19918600  1
  O  O16  1  0.25000000  0.54746400  0.48109400  1
  O  O17  1  0.75000000  0.45253600  0.51890600  1
  O  O18  1  0.75000000  0.04746400  0.01890600  1
  O  O19  1  0.25000000  0.95253600  0.98109400  1
  O  O20  1  0.25000000  0.53381300  0.65250800  1
  O  O21  1  0.75000000  0.46618700  0.34749200  1
  O  O22  1  0.75000000  0.03381300  0.84749200  1
  O  O23  1  0.25000000  0.96618700  0.15250800  1
  O  O24  1  0.44391800  0.29845900  0.43120400  1
  O  O25  1  0.94391800  0.70154100  0.56879600  1
  O  O26  1  0.55608200  0.79845900  0.06879600  1
  O  O27  1  0.05608200  0.20154100  0.93120400  1
  O  O28  1  0.55608200  0.70154100  0.56879600  1
  O  O29  1  0.05608200  0.29845900  0.43120400  1
  O  O30  1  0.25000000  0.30759200  0.75953100  1
  O  O31  1  0.44391800  0.20154100  0.93120400  1
  O  O32  1  0.25000000  0.63125100  0.15800600  1
  O  O33  1  0.75000000  0.36874900  0.84199400  1
  O  O34  1  0.75000000  0.13125100  0.34199400  1
  O  O35  1  0.25000000  0.86874900  0.65800600  1
  O  O36  1  0.25000000  0.31294100  0.10592000  1
  O  O37  1  0.75000000  0.68705900  0.89408000  1
  O  O38  1  0.75000000  0.81294100  0.39408000  1
  O  O39  1  0.25000000  0.18705900  0.60592000  1
  O  O40  1  0.25000000  0.61346400  0.99139400  1
  O  O41  1  0.75000000  0.38653600  0.00860600  1
  O  O42  1  0.75000000  0.11346400  0.50860600  1
  O  O43  1  0.25000000  0.88653600  0.49139400  1
  O  O44  1  0.94372000  0.42919000  0.21090800  1
  O  O45  1  0.44372000  0.57081000  0.78909200  1
  O  O46  1  0.05628000  0.92919000  0.28909200  1
  O  O47  1  0.55628000  0.07081000  0.71090800  1
  O  O48  1  0.05628000  0.57081000  0.78909200  1
  O  O49  1  0.55628000  0.42919000  0.21090800  1
  O  O50  1  0.94372000  0.07081000  0.71090800  1
  O  O51  1  0.44372000  0.92919000  0.28909200  1
  O  O52  1  0.25000000  0.48549400  0.32895600  1
  O  O53  1  0.75000000  0.51450600  0.67104400  1
  O  O54  1  0.75000000  0.98549400  0.17104400  1
  O  O55  1  0.25000000  0.01450600  0.82895600  1
  O  O56  1  0.25000000  0.19240800  0.25953100  1
  O  O57  1  0.75000000  0.80759200  0.74046900  1
  O  O58  1  0.75000000  0.69240800  0.24046900  1
  O  O59  1  0.94391800  0.79845900  0.06879600  1
