# generated using pymatgen
data_SrLuCuS3
_symmetry_space_group_name_H-M   'P 1'
_cell_length_a   6.79769946
_cell_length_b   6.79769946
_cell_length_c   10.03607200
_cell_angle_alpha   90.00000000
_cell_angle_beta   90.00000000
_cell_angle_gamma   146.66209468
_symmetry_Int_Tables_number   1
_chemical_formula_structural   SrLuCuS3
_chemical_formula_sum   'Sr2 Lu2 Cu2 S6'
_cell_volume   254.86791490
_cell_formula_units_Z   2
loop_
 _symmetry_equiv_pos_site_id
 _symmetry_equiv_pos_as_xyz
  1  'x, y, z'
loop_
 _atom_site_type_symbol
 _atom_site_label
 _atom_site_symmetry_multiplicity
 _atom_site_fract_x
 _atom_site_fract_y
 _atom_site_fract_z
 _atom_site_occupancy
  Sr  Sr0  1  0.74889700  0.25110300  0.75000000  1
  Sr  Sr1  1  0.25110300  0.74889700  0.25000000  1
  Lu  Lu2  1  0.00000000  0.00000000  0.00000000  1
  Lu  Lu3  1  0.00000000  0.00000000  0.50000000  1
  Cu  Cu4  1  0.52796000  0.47204000  0.25000000  1
  Cu  Cu5  1  0.47204000  0.52796000  0.75000000  1
  S  S6  1  0.07533100  0.92466900  0.75000000  1
  S  S7  1  0.92466900  0.07533100  0.25000000  1
  S  S8  1  0.63476100  0.36523900  0.06441900  1
  S  S9  1  0.63476100  0.36523900  0.43558100  1
  S  S10  1  0.36523900  0.63476100  0.56441900  1
  S  S11  1  0.36523900  0.63476100  0.93558100  1
