# generated using pymatgen
data_Hf5NiSb3
_symmetry_space_group_name_H-M   'P 1'
_cell_length_a   8.57615380
_cell_length_b   8.57615380
_cell_length_c   5.73059100
_cell_angle_alpha   90.00000000
_cell_angle_beta   90.00000000
_cell_angle_gamma   119.99999846
_symmetry_Int_Tables_number   1
_chemical_formula_structural   Hf5NiSb3
_chemical_formula_sum   'Hf10 Ni2 Sb6'
_cell_volume   365.01874995
_cell_formula_units_Z   2
loop_
 _symmetry_equiv_pos_site_id
 _symmetry_equiv_pos_as_xyz
  1  'x, y, z'
loop_
 _atom_site_type_symbol
 _atom_site_label
 _atom_site_symmetry_multiplicity
 _atom_site_fract_x
 _atom_site_fract_y
 _atom_site_fract_z
 _atom_site_occupancy
  Hf  Hf0  1  0.66666700  0.33333300  0.50000000  1
  Hf  Hf1  1  0.33333300  0.66666700  0.50000000  1
  Hf  Hf2  1  0.33333300  0.66666700  0.00000000  1
  Hf  Hf3  1  0.66666700  0.33333300  0.00000000  1
  Hf  Hf4  1  0.74281600  0.74281600  0.25000000  1
  Hf  Hf5  1  0.25718400  0.00000000  0.25000000  1
  Hf  Hf6  1  0.00000000  0.25718400  0.25000000  1
  Hf  Hf7  1  0.25718400  0.25718400  0.75000000  1
  Hf  Hf8  1  0.74281600  0.00000000  0.75000000  1
  Hf  Hf9  1  0.00000000  0.74281600  0.75000000  1
  Ni  Ni10  1  0.00000000  0.00000000  0.00000000  1
  Ni  Ni11  1  0.00000000  0.00000000  0.50000000  1
  Sb  Sb12  1  0.38747600  0.38747600  0.25000000  1
  Sb  Sb13  1  0.61252400  0.00000000  0.25000000  1
  Sb  Sb14  1  0.00000000  0.61252400  0.25000000  1
  Sb  Sb15  1  0.61252400  0.61252400  0.75000000  1
  Sb  Sb16  1  0.38747600  0.00000000  0.75000000  1
  Sb  Sb17  1  0.00000000  0.38747600  0.75000000  1
