# generated using pymatgen
data_Rb2NdI5
_symmetry_space_group_name_H-M   'P 1'
_cell_length_a   9.49351300
_cell_length_b   10.02737800
_cell_length_c   15.13437600
_cell_angle_alpha   90.00000000
_cell_angle_beta   90.00000000
_cell_angle_gamma   90.00000000
_symmetry_Int_Tables_number   1
_chemical_formula_structural   Rb2NdI5
_chemical_formula_sum   'Rb8 Nd4 I20'
_cell_volume   1440.71758014
_cell_formula_units_Z   4
loop_
 _symmetry_equiv_pos_site_id
 _symmetry_equiv_pos_as_xyz
  1  'x, y, z'
loop_
 _atom_site_type_symbol
 _atom_site_label
 _atom_site_symmetry_multiplicity
 _atom_site_fract_x
 _atom_site_fract_y
 _atom_site_fract_z
 _atom_site_occupancy
  Rb  Rb0  1  0.94460200  0.00367300  0.82694400  1
  Rb  Rb1  1  0.05539800  0.99632700  0.17305600  1
  Rb  Rb2  1  0.44460200  0.99632700  0.67305600  1
  Rb  Rb3  1  0.05539800  0.50367300  0.17305600  1
  Rb  Rb4  1  0.55539800  0.00367300  0.32694400  1
  Rb  Rb5  1  0.94460200  0.49632700  0.82694400  1
  Rb  Rb6  1  0.55539800  0.49632700  0.32694400  1
  Rb  Rb7  1  0.44460200  0.50367300  0.67305600  1
  Nd  Nd8  1  0.92235700  0.75000000  0.50437900  1
  Nd  Nd9  1  0.07764300  0.25000000  0.49562100  1
  Nd  Nd10  1  0.42235700  0.25000000  0.99562100  1
  Nd  Nd11  1  0.57764300  0.75000000  0.00437900  1
  I  I12  1  0.12190600  0.75000000  0.67436300  1
  I  I13  1  0.87809400  0.25000000  0.32563700  1
  I  I14  1  0.62190600  0.25000000  0.82563700  1
  I  I15  1  0.37809400  0.75000000  0.17436300  1
  I  I16  1  0.83742900  0.04436500  0.57335100  1
  I  I17  1  0.16257100  0.95563500  0.42664900  1
  I  I18  1  0.33742900  0.95563500  0.92664900  1
  I  I19  1  0.16257100  0.54436500  0.42664900  1
  I  I20  1  0.66257100  0.04436500  0.07335100  1
  I  I21  1  0.83742900  0.45563500  0.57335100  1
  I  I22  1  0.66257100  0.45563500  0.07335100  1
  I  I23  1  0.33742900  0.54436500  0.92664900  1
  I  I24  1  0.58253200  0.75000000  0.50992600  1
  I  I25  1  0.41746800  0.25000000  0.49007400  1
  I  I26  1  0.08253200  0.25000000  0.99007400  1
  I  I27  1  0.91746800  0.75000000  0.00992600  1
  I  I28  1  0.65845900  0.75000000  0.80078500  1
  I  I29  1  0.34154100  0.25000000  0.19921500  1
  I  I30  1  0.15845900  0.25000000  0.69921500  1
  I  I31  1  0.84154100  0.75000000  0.30078500  1
