# generated using pymatgen
data_Ce(BOs)4
_symmetry_space_group_name_H-M   'P 1'
_cell_length_a   4.02117800
_cell_length_b   7.58260200
_cell_length_c   7.58260200
_cell_angle_alpha   90.00000000
_cell_angle_beta   90.00000000
_cell_angle_gamma   90.00000000
_symmetry_Int_Tables_number   1
_chemical_formula_structural   Ce(BOs)4
_chemical_formula_sum   'Ce2 B8 Os8'
_cell_volume   231.20105954
_cell_formula_units_Z   2
loop_
 _symmetry_equiv_pos_site_id
 _symmetry_equiv_pos_as_xyz
  1  'x, y, z'
loop_
 _atom_site_type_symbol
 _atom_site_label
 _atom_site_symmetry_multiplicity
 _atom_site_fract_x
 _atom_site_fract_y
 _atom_site_fract_z
 _atom_site_occupancy
  Ce  Ce0  1  0.25000000  0.25000000  0.25000000  1
  Ce  Ce1  1  0.75000000  0.75000000  0.75000000  1
  B  B2  1  0.36234300  0.91275400  0.03059800  1
  B  B3  1  0.36234300  0.58724600  0.46940200  1
  B  B4  1  0.86234300  0.53059800  0.08724600  1
  B  B5  1  0.86234300  0.96940200  0.41275400  1
  B  B6  1  0.63765700  0.08724600  0.96940200  1
  B  B7  1  0.63765700  0.41275400  0.53059800  1
  B  B8  1  0.13765700  0.46940200  0.91275400  1
  B  B9  1  0.13765700  0.03059800  0.58724600  1
  Os  Os10  1  0.13846100  0.39474000  0.64137300  1
  Os  Os11  1  0.13846100  0.10526000  0.85862700  1
  Os  Os12  1  0.63846100  0.14137300  0.60526000  1
  Os  Os13  1  0.63846100  0.35862700  0.89474000  1
  Os  Os14  1  0.86153900  0.60526000  0.35862700  1
  Os  Os15  1  0.86153900  0.89474000  0.14137300  1
  Os  Os16  1  0.36153900  0.85862700  0.39474000  1
  Os  Os17  1  0.36153900  0.64137300  0.10526000  1
