# generated using pymatgen
data_LiNd6B3O14
_symmetry_space_group_name_H-M   'P 1'
_cell_length_a   16.09829400
_cell_length_b   8.71192300
_cell_length_c   12.43621615
_cell_angle_alpha   48.00761790
_cell_angle_beta   90.00000000
_cell_angle_gamma   90.00000000
_symmetry_Int_Tables_number   1
_chemical_formula_structural   LiNd6B3O14
_chemical_formula_sum   'Li4 Nd24 B12 O56'
_cell_volume   1296.30616854
_cell_formula_units_Z   4
loop_
 _symmetry_equiv_pos_site_id
 _symmetry_equiv_pos_as_xyz
  1  'x, y, z'
loop_
 _atom_site_type_symbol
 _atom_site_label
 _atom_site_symmetry_multiplicity
 _atom_site_fract_x
 _atom_site_fract_y
 _atom_site_fract_z
 _atom_site_occupancy
  Li  Li0  1  0.60364800  0.88072900  0.44016000  1
  Li  Li1  1  0.39635200  0.11927100  0.55984000  1
  Li  Li2  1  0.10364800  0.11927100  0.05984000  1
  Li  Li3  1  0.89635200  0.88072900  0.94016000  1
  Nd  Nd4  1  0.82181700  0.55341800  0.30567900  1
  Nd  Nd5  1  0.17818300  0.44658200  0.69432100  1
  Nd  Nd6  1  0.32181700  0.44658200  0.19432100  1
  Nd  Nd7  1  0.67818300  0.55341800  0.80567900  1
  Nd  Nd8  1  0.32497600  0.98558600  0.05435800  1
  Nd  Nd9  1  0.67502400  0.01441400  0.94564200  1
  Nd  Nd10  1  0.82497600  0.01441400  0.44564200  1
  Nd  Nd11  1  0.17502400  0.98558600  0.55435800  1
  Nd  Nd12  1  0.35661900  0.84817500  0.42405600  1
  Nd  Nd13  1  0.64338100  0.15182500  0.57594400  1
  Nd  Nd14  1  0.85661900  0.15182500  0.07594400  1
  Nd  Nd15  1  0.14338100  0.84817500  0.92405600  1
  Nd  Nd16  1  0.51418800  0.66452700  0.28386000  1
  Nd  Nd17  1  0.48581200  0.33547300  0.71614000  1
  Nd  Nd18  1  0.01418800  0.33547300  0.21614000  1
  Nd  Nd19  1  0.98581200  0.66452700  0.78386000  1
  Nd  Nd20  1  0.50449900  0.23631500  0.06285700  1
  Nd  Nd21  1  0.49550100  0.76368500  0.93714300  1
  Nd  Nd22  1  0.00449900  0.76368500  0.43714300  1
  Nd  Nd23  1  0.99550100  0.23631500  0.56285700  1
  Nd  Nd24  1  0.66582100  0.41103100  0.16685100  1
  Nd  Nd25  1  0.33417900  0.58896900  0.83314900  1
  Nd  Nd26  1  0.16582100  0.58896900  0.33314900  1
  Nd  Nd27  1  0.83417900  0.41103100  0.66685100  1
  B  B28  1  0.82699800  0.54421800  0.02682100  1
  B  B29  1  0.17300200  0.45578200  0.97317900  1
  B  B30  1  0.32699800  0.45578200  0.47317900  1
  B  B31  1  0.67300200  0.54421800  0.52682100  1
  B  B32  1  0.99923900  0.79266200  0.14399500  1
  B  B33  1  0.00076100  0.20733800  0.85600500  1
  B  B34  1  0.49923900  0.20733800  0.35600500  1
  B  B35  1  0.50076100  0.79266200  0.64399500  1
  B  B36  1  0.69314300  0.95816900  0.22136700  1
  B  B37  1  0.30685700  0.04183100  0.77863300  1
  B  B38  1  0.19314300  0.04183100  0.27863300  1
  B  B39  1  0.80685700  0.95816900  0.72136700  1
  O  O40  1  0.75013500  0.88563000  0.17834200  1
  O  O41  1  0.24986500  0.11437000  0.82165800  1
  O  O42  1  0.25013500  0.11437000  0.32165800  1
  O  O43  1  0.74986500  0.88563000  0.67834200  1
  O  O44  1  0.46747000  0.69863300  0.59592300  1
  O  O45  1  0.53253000  0.30136700  0.40407700  1
  O  O46  1  0.96747000  0.30136700  0.90407700  1
  O  O47  1  0.03253000  0.69863300  0.09592300  1
  O  O48  1  0.42110500  0.93389400  0.22018300  1
  O  O49  1  0.57889500  0.06610600  0.77981700  1
  O  O50  1  0.92110500  0.06610600  0.27981700  1
  O  O51  1  0.07889500  0.93389400  0.72018300  1
  O  O52  1  0.91637400  0.85178200  0.11750100  1
  O  O53  1  0.08362600  0.14821800  0.88249900  1
  O  O54  1  0.41637400  0.14821800  0.38249900  1
  O  O55  1  0.58362600  0.85178200  0.61750100  1
  O  O56  1  0.91030900  0.52477800  0.01004700  1
  O  O57  1  0.08969100  0.47522200  0.98995300  1
  O  O58  1  0.41030900  0.47522200  0.48995300  1
  O  O59  1  0.58969100  0.52477800  0.51004700  1
  O  O60  1  0.79711500  0.64081700  0.07345300  1
  O  O61  1  0.20288500  0.35918300  0.92654700  1
  O  O62  1  0.29711500  0.35918300  0.42654700  1
  O  O63  1  0.70288500  0.64081700  0.57345300  1
  O  O64  1  0.45007000  0.82510400  0.71696500  1
  O  O65  1  0.54993000  0.17489600  0.28303500  1
  O  O66  1  0.95007000  0.17489600  0.78303500  1
  O  O67  1  0.04993000  0.82510400  0.21696500  1
  O  O68  1  0.59805400  0.70242400  0.10522700  1
  O  O69  1  0.40194600  0.29757600  0.89477300  1
  O  O70  1  0.09805400  0.29757600  0.39477300  1
  O  O71  1  0.90194600  0.70242400  0.60522700  1
  O  O72  1  0.91086300  0.52696100  0.46394000  1
  O  O73  1  0.08913700  0.47303900  0.53606000  1
  O  O74  1  0.41086300  0.47303900  0.03606000  1
  O  O75  1  0.58913700  0.52696100  0.96394000  1
  O  O76  1  0.41409900  0.71516100  0.12295600  1
  O  O77  1  0.58590100  0.28483900  0.87704400  1
  O  O78  1  0.91409900  0.28483900  0.37704400  1
  O  O79  1  0.08590100  0.71516100  0.62295600  1
  O  O80  1  0.23268400  0.72424100  0.12056600  1
  O  O81  1  0.76731600  0.27575900  0.87943400  1
  O  O82  1  0.73268400  0.27575900  0.37943400  1
  O  O83  1  0.26731600  0.72424100  0.62056600  1
  O  O84  1  0.22419900  0.94866100  0.23008100  1
  O  O85  1  0.77580100  0.05133900  0.76991900  1
  O  O86  1  0.72419900  0.05133900  0.26991900  1
  O  O87  1  0.27580100  0.94866100  0.73008100  1
  O  O88  1  0.60936700  0.94816200  0.20166000  1
  O  O89  1  0.39063300  0.05183800  0.79834000  1
  O  O90  1  0.10936700  0.05183800  0.29834000  1
  O  O91  1  0.89063300  0.94816200  0.70166000  1
  O  O92  1  0.76883200  0.44947300  0.00405000  1
  O  O93  1  0.23116800  0.55052700  0.99595000  1
  O  O94  1  0.26883200  0.55052700  0.49595000  1
  O  O95  1  0.73116800  0.44947300  0.50405000  1
