# generated using pymatgen
data_Ce2CuSi3
_symmetry_space_group_name_H-M   'P 1'
_cell_length_a   4.11126618
_cell_length_b   4.11126618
_cell_length_c   8.06108300
_cell_angle_alpha   90.00000000
_cell_angle_beta   90.00000000
_cell_angle_gamma   120.00000282
_symmetry_Int_Tables_number   1
_chemical_formula_structural   Ce2CuSi3
_chemical_formula_sum   'Ce2 Cu1 Si3'
_cell_volume   117.99815112
_cell_formula_units_Z   1
loop_
 _symmetry_equiv_pos_site_id
 _symmetry_equiv_pos_as_xyz
  1  'x, y, z'
loop_
 _atom_site_type_symbol
 _atom_site_label
 _atom_site_symmetry_multiplicity
 _atom_site_fract_x
 _atom_site_fract_y
 _atom_site_fract_z
 _atom_site_occupancy
  Ce  Ce0  1  0.33333300  0.66666700  0.75226700  1
  Ce  Ce1  1  0.33333300  0.66666700  0.24773300  1
  Cu  Cu2  1  0.66666700  0.33333300  0.50000000  1
  Si  Si3  1  0.66666700  0.33333300  0.00000000  1
  Si  Si4  1  0.00000000  0.00000000  0.50000000  1
  Si  Si5  1  0.00000000  0.00000000  0.00000000  1
