# generated using pymatgen
data_Zr2S
_symmetry_space_group_name_H-M   'P 1'
_cell_length_a   3.57162600
_cell_length_b   12.40372600
_cell_length_c   15.32995000
_cell_angle_alpha   90.00000000
_cell_angle_beta   90.00000000
_cell_angle_gamma   90.00000000
_symmetry_Int_Tables_number   1
_chemical_formula_structural   Zr2S
_chemical_formula_sum   'Zr24 S12'
_cell_volume   679.13932430
_cell_formula_units_Z   12
loop_
 _symmetry_equiv_pos_site_id
 _symmetry_equiv_pos_as_xyz
  1  'x, y, z'
loop_
 _atom_site_type_symbol
 _atom_site_label
 _atom_site_symmetry_multiplicity
 _atom_site_fract_x
 _atom_site_fract_y
 _atom_site_fract_z
 _atom_site_occupancy
  Zr  Zr0  1  0.50000000  0.65772200  0.47799400  1
  Zr  Zr1  1  0.50000000  0.34227800  0.52200600  1
  Zr  Zr2  1  0.00000000  0.84227800  0.97799400  1
  Zr  Zr3  1  0.00000000  0.15772200  0.02200600  1
  Zr  Zr4  1  0.50000000  0.58145600  0.25006400  1
  Zr  Zr5  1  0.50000000  0.41854400  0.74993600  1
  Zr  Zr6  1  0.00000000  0.91854400  0.75006400  1
  Zr  Zr7  1  0.00000000  0.08145600  0.24993600  1
  Zr  Zr8  1  0.50000000  0.09045100  0.41815600  1
  Zr  Zr9  1  0.50000000  0.90954900  0.58184400  1
  Zr  Zr10  1  0.00000000  0.40954900  0.91815600  1
  Zr  Zr11  1  0.00000000  0.59045100  0.08184400  1
  Zr  Zr12  1  0.50000000  0.97024800  0.10996200  1
  Zr  Zr13  1  0.50000000  0.02975200  0.89003800  1
  Zr  Zr14  1  0.00000000  0.52975200  0.60996200  1
  Zr  Zr15  1  0.00000000  0.47024800  0.39003800  1
  Zr  Zr16  1  0.50000000  0.30605700  0.29244300  1
  Zr  Zr17  1  0.50000000  0.69394300  0.70755700  1
  Zr  Zr18  1  0.00000000  0.19394300  0.79244300  1
  Zr  Zr19  1  0.00000000  0.80605700  0.20755700  1
  Zr  Zr20  1  0.50000000  0.37875600  0.08026100  1
  Zr  Zr21  1  0.50000000  0.62124400  0.91973900  1
  Zr  Zr22  1  0.00000000  0.12124400  0.58026100  1
  Zr  Zr23  1  0.00000000  0.87875600  0.41973900  1
  S  S24  1  0.50000000  0.92981600  0.29280000  1
  S  S25  1  0.50000000  0.07018400  0.70720000  1
  S  S26  1  0.00000000  0.57018400  0.79280000  1
  S  S27  1  0.00000000  0.42981600  0.20720000  1
  S  S28  1  0.50000000  0.74918900  0.08501600  1
  S  S29  1  0.50000000  0.25081100  0.91498400  1
  S  S30  1  0.00000000  0.75081100  0.58501600  1
  S  S31  1  0.00000000  0.24918900  0.41498400  1
  S  S32  1  0.50000000  0.18500900  0.14996500  1
  S  S33  1  0.50000000  0.81499100  0.85003500  1
  S  S34  1  0.00000000  0.31499100  0.64996500  1
  S  S35  1  0.00000000  0.68500900  0.35003500  1
