# generated using pymatgen
data_Hf(FeGe)6
_symmetry_space_group_name_H-M   'P 1'
_cell_length_a   5.06147308
_cell_length_b   5.06147308
_cell_length_c   8.08268200
_cell_angle_alpha   90.00000000
_cell_angle_beta   90.00000000
_cell_angle_gamma   119.99998795
_symmetry_Int_Tables_number   1
_chemical_formula_structural   Hf(FeGe)6
_chemical_formula_sum   'Hf1 Fe6 Ge6'
_cell_volume   179.32466959
_cell_formula_units_Z   1
loop_
 _symmetry_equiv_pos_site_id
 _symmetry_equiv_pos_as_xyz
  1  'x, y, z'
loop_
 _atom_site_type_symbol
 _atom_site_label
 _atom_site_symmetry_multiplicity
 _atom_site_fract_x
 _atom_site_fract_y
 _atom_site_fract_z
 _atom_site_occupancy
  Hf  Hf0  1  0.00000000  0.00000000  0.00000000  1
  Fe  Fe1  1  0.50000000  0.00000000  0.24833200  1
  Fe  Fe2  1  0.50000000  0.50000000  0.24833200  1
  Fe  Fe3  1  0.00000000  0.50000000  0.24833200  1
  Fe  Fe4  1  0.50000000  0.00000000  0.75166800  1
  Fe  Fe5  1  0.50000000  0.50000000  0.75166800  1
  Fe  Fe6  1  0.00000000  0.50000000  0.75166800  1
  Ge  Ge7  1  0.00000000  0.00000000  0.65804900  1
  Ge  Ge8  1  0.33333300  0.66666700  0.00000000  1
  Ge  Ge9  1  0.66666700  0.33333300  0.00000000  1
  Ge  Ge10  1  0.33333300  0.66666700  0.50000000  1
  Ge  Ge11  1  0.66666700  0.33333300  0.50000000  1
  Ge  Ge12  1  0.00000000  0.00000000  0.34195100  1
