# generated using pymatgen
data_Gd3MoO7
_symmetry_space_group_name_H-M   'P 1'
_cell_length_a   7.57073100
_cell_length_b   7.57928200
_cell_length_c   10.66093100
_cell_angle_alpha   90.00000000
_cell_angle_beta   90.00000000
_cell_angle_gamma   90.00000000
_symmetry_Int_Tables_number   1
_chemical_formula_structural   Gd3MoO7
_chemical_formula_sum   'Gd12 Mo4 O28'
_cell_volume   611.73173882
_cell_formula_units_Z   4
loop_
 _symmetry_equiv_pos_site_id
 _symmetry_equiv_pos_as_xyz
  1  'x, y, z'
loop_
 _atom_site_type_symbol
 _atom_site_label
 _atom_site_symmetry_multiplicity
 _atom_site_fract_x
 _atom_site_fract_y
 _atom_site_fract_z
 _atom_site_occupancy
  Gd  Gd0  1  0.02799200  0.50870800  0.74281000  1
  Gd  Gd1  1  0.47200800  0.49129200  0.24281000  1
  Gd  Gd2  1  0.52799200  0.99129200  0.25719000  1
  Gd  Gd3  1  0.97200800  0.00870800  0.75719000  1
  Gd  Gd4  1  0.27650200  0.25441900  0.96705700  1
  Gd  Gd5  1  0.22349800  0.74558100  0.46705700  1
  Gd  Gd6  1  0.77650200  0.24558100  0.03294300  1
  Gd  Gd7  1  0.72349800  0.75441900  0.53294300  1
  Gd  Gd8  1  0.30054500  0.24612300  0.51396600  1
  Gd  Gd9  1  0.19945500  0.75387700  0.01396600  1
  Gd  Gd10  1  0.80054500  0.25387700  0.48603400  1
  Gd  Gd11  1  0.69945500  0.74612300  0.98603400  1
  Mo  Mo12  1  0.50277300  0.50023400  0.75068000  1
  Mo  Mo13  1  0.99722700  0.49976600  0.25068000  1
  Mo  Mo14  1  0.00277300  0.99976600  0.24932000  1
  Mo  Mo15  1  0.49722700  0.00023400  0.74932000  1
  O  O16  1  0.41057600  0.24769700  0.74227400  1
  O  O17  1  0.08942400  0.75230300  0.24227400  1
  O  O18  1  0.91057600  0.25230300  0.25772600  1
  O  O19  1  0.58942400  0.74769700  0.75772600  1
  O  O20  1  0.22051100  0.46398900  0.36774700  1
  O  O21  1  0.27948900  0.53601100  0.86774700  1
  O  O22  1  0.72051100  0.03601100  0.63225300  1
  O  O23  1  0.77948900  0.96398900  0.13225300  1
  O  O24  1  0.87249600  0.54989600  0.40032700  1
  O  O25  1  0.62750400  0.45010400  0.90032700  1
  O  O26  1  0.37249600  0.95010400  0.59967300  1
  O  O27  1  0.12750400  0.04989600  0.09967300  1
  O  O28  1  0.16995700  0.46406200  0.11610700  1
  O  O29  1  0.33004300  0.53593800  0.61610700  1
  O  O30  1  0.66995700  0.03593800  0.88389300  1
  O  O31  1  0.83004300  0.96406200  0.38389300  1
  O  O32  1  0.78806700  0.52919200  0.13379800  1
  O  O33  1  0.71193300  0.47080800  0.63379800  1
  O  O34  1  0.28806700  0.97080800  0.86620200  1
  O  O35  1  0.21193300  0.02919200  0.36620200  1
  O  O36  1  0.04035500  0.24647700  0.61453100  1
  O  O37  1  0.45964500  0.75352300  0.11453100  1
  O  O38  1  0.54035500  0.25352300  0.38546900  1
  O  O39  1  0.95964500  0.74647700  0.88546900  1
  O  O40  1  0.99473100  0.26279600  0.88095500  1
  O  O41  1  0.50526900  0.73720400  0.38095500  1
  O  O42  1  0.49473100  0.23720400  0.11904500  1
  O  O43  1  0.00526900  0.76279600  0.61904500  1
