# generated using pymatgen
data_Sr4LaTi5O15
_symmetry_space_group_name_H-M   'P 1'
_cell_length_a   8.83356508
_cell_length_b   8.83356508
_cell_length_c   6.84162570
_cell_angle_alpha   75.04614325
_cell_angle_beta   75.04614325
_cell_angle_gamma   36.89161878
_symmetry_Int_Tables_number   1
_chemical_formula_structural   Sr4LaTi5O15
_chemical_formula_sum   'Sr4 La1 Ti5 O15'
_cell_volume   308.39631841
_cell_formula_units_Z   1
loop_
 _symmetry_equiv_pos_site_id
 _symmetry_equiv_pos_as_xyz
  1  'x, y, z'
loop_
 _atom_site_type_symbol
 _atom_site_label
 _atom_site_symmetry_multiplicity
 _atom_site_fract_x
 _atom_site_fract_y
 _atom_site_fract_z
 _atom_site_occupancy
  Sr  Sr0  1  0.60045800  0.60045800  0.59977800  1
  Sr  Sr1  1  0.20034700  0.20034700  0.20013100  1
  Sr  Sr2  1  0.79965300  0.79965300  0.79986900  1
  Sr  Sr3  1  0.39954200  0.39954200  0.40022200  1
  La  La4  1  0.00000000  0.00000000  0.00000000  1
  Ti  Ti5  1  0.20068800  0.20068800  0.69821100  1
  Ti  Ti6  1  0.79931200  0.79931200  0.30178900  1
  Ti  Ti7  1  0.39907000  0.39907000  0.90031700  1
  Ti  Ti8  1  0.00000000  0.00000000  0.50000000  1
  Ti  Ti9  1  0.60093000  0.60093000  0.09968300  1
  O  O10  1  0.39364400  0.90103600  0.90151600  1
  O  O11  1  0.00000000  0.50000000  0.50000000  1
  O  O12  1  0.60635600  0.09896400  0.09848400  1
  O  O13  1  0.19720100  0.70456600  0.70460200  1
  O  O14  1  0.80279900  0.29543400  0.29539800  1
  O  O15  1  0.29990000  0.29990000  0.80077700  1
  O  O16  1  0.90168500  0.90168500  0.39414400  1
  O  O17  1  0.50000000  0.50000000  0.00000000  1
  O  O18  1  0.09831500  0.09831500  0.60585600  1
  O  O19  1  0.70010000  0.70010000  0.19922300  1
  O  O20  1  0.50000000  0.00000000  0.50000000  1
  O  O21  1  0.09896400  0.60635600  0.09848400  1
  O  O22  1  0.70456600  0.19720100  0.70460200  1
  O  O23  1  0.29543400  0.80279900  0.29539800  1
  O  O24  1  0.90103600  0.39364400  0.90151600  1
