# generated using pymatgen
data_Cs2Bi2Pd
_symmetry_space_group_name_H-M   'P 1'
_cell_length_a   8.58962228
_cell_length_b   8.58962228
_cell_length_c   7.17007400
_cell_angle_alpha   90.00000000
_cell_angle_beta   90.00000000
_cell_angle_gamma   123.98763113
_symmetry_Int_Tables_number   1
_chemical_formula_structural   Cs2Bi2Pd
_chemical_formula_sum   'Cs4 Bi4 Pd2'
_cell_volume   438.64098498
_cell_formula_units_Z   2
loop_
 _symmetry_equiv_pos_site_id
 _symmetry_equiv_pos_as_xyz
  1  'x, y, z'
loop_
 _atom_site_type_symbol
 _atom_site_label
 _atom_site_symmetry_multiplicity
 _atom_site_fract_x
 _atom_site_fract_y
 _atom_site_fract_z
 _atom_site_occupancy
  Cs  Cs0  1  0.60185100  0.39814900  0.75000000  1
  Cs  Cs1  1  0.39814900  0.60185100  0.25000000  1
  Cs  Cs2  1  0.19483100  0.80516900  0.75000000  1
  Cs  Cs3  1  0.80516900  0.19483100  0.25000000  1
  Bi  Bi4  1  0.71459100  0.91528500  0.75000000  1
  Bi  Bi5  1  0.91528500  0.71459100  0.25000000  1
  Bi  Bi6  1  0.28540900  0.08471500  0.25000000  1
  Bi  Bi7  1  0.08471500  0.28540900  0.75000000  1
  Pd  Pd8  1  0.00000000  0.00000000  0.00000000  1
  Pd  Pd9  1  0.00000000  0.00000000  0.50000000  1
