# generated using pymatgen
data_TeHO3
_symmetry_space_group_name_H-M   'P 1'
_cell_length_a   4.82682600
_cell_length_b   8.17201600
_cell_length_c   12.31589200
_cell_angle_alpha   90.00000000
_cell_angle_beta   90.00000000
_cell_angle_gamma   90.00000000
_symmetry_Int_Tables_number   1
_chemical_formula_structural   TeHO3
_chemical_formula_sum   'Te8 H8 O24'
_cell_volume   485.79911974
_cell_formula_units_Z   8
loop_
 _symmetry_equiv_pos_site_id
 _symmetry_equiv_pos_as_xyz
  1  'x, y, z'
loop_
 _atom_site_type_symbol
 _atom_site_label
 _atom_site_symmetry_multiplicity
 _atom_site_fract_x
 _atom_site_fract_y
 _atom_site_fract_z
 _atom_site_occupancy
  Te  Te0  1  0.00045700  0.53319100  0.60953600  1
  Te  Te1  1  0.50045700  0.46680900  0.39046400  1
  Te  Te2  1  0.50045700  0.03319100  0.89046400  1
  Te  Te3  1  0.00045700  0.96680900  0.10953600  1
  Te  Te4  1  0.13867900  0.64235300  0.94116000  1
  Te  Te5  1  0.63867900  0.35764700  0.05884000  1
  Te  Te6  1  0.63867900  0.14235300  0.55884000  1
  Te  Te7  1  0.13867900  0.85764700  0.44116000  1
  H  H8  1  0.28775400  0.38736100  0.74931700  1
  H  H9  1  0.78775400  0.61263900  0.25068300  1
  H  H10  1  0.78775400  0.88736100  0.75068300  1
  H  H11  1  0.28775400  0.11263900  0.24931700  1
  H  H12  1  0.59137300  0.61449100  0.71830000  1
  H  H13  1  0.09137300  0.38550900  0.28170000  1
  H  H14  1  0.09137300  0.11449100  0.78170000  1
  H  H15  1  0.59137300  0.88550900  0.21830000  1
  O  O16  1  0.26540900  0.50581600  0.73135500  1
  O  O17  1  0.76540900  0.49418400  0.26864500  1
  O  O18  1  0.76540900  0.00581600  0.76864500  1
  O  O19  1  0.26540900  0.99418400  0.23135500  1
  O  O20  1  0.49351600  0.54525500  0.95291100  1
  O  O21  1  0.99351600  0.45474500  0.04708900  1
  O  O22  1  0.99351600  0.04525500  0.54708900  1
  O  O23  1  0.49351600  0.95474500  0.45291100  1
  O  O24  1  0.31271700  0.66294100  0.35380200  1
  O  O25  1  0.81271700  0.33705900  0.64619800  1
  O  O26  1  0.81271700  0.16294100  0.14619800  1
  O  O27  1  0.31271700  0.83705900  0.85380200  1
  O  O28  1  0.76184500  0.59283300  0.48432800  1
  O  O29  1  0.26184500  0.40716700  0.51567200  1
  O  O30  1  0.26184500  0.09283300  0.01567200  1
  O  O31  1  0.76184500  0.90716700  0.98432800  1
  O  O32  1  0.20039400  0.73448300  0.57682900  1
  O  O33  1  0.70039400  0.26551700  0.42317100  1
  O  O34  1  0.70039400  0.23448300  0.92317100  1
  O  O35  1  0.20039400  0.76551700  0.07682900  1
  O  O36  1  0.77566300  0.66701500  0.70777300  1
  O  O37  1  0.27566300  0.33298500  0.29222700  1
  O  O38  1  0.27566300  0.16701500  0.79222700  1
  O  O39  1  0.77566300  0.83298500  0.20777300  1
