# generated using pymatgen
data_Tb7PtI12
_symmetry_space_group_name_H-M   'P 1'
_cell_length_a   9.77696364
_cell_length_b   9.77696364
_cell_length_c   9.77696455
_cell_angle_alpha   107.41800754
_cell_angle_beta   107.41800754
_cell_angle_gamma   107.41800782
_symmetry_Int_Tables_number   1
_chemical_formula_structural   Tb7PtI12
_chemical_formula_sum   'Tb7 Pt1 I12'
_cell_volume   769.27166469
_cell_formula_units_Z   1
loop_
 _symmetry_equiv_pos_site_id
 _symmetry_equiv_pos_as_xyz
  1  'x, y, z'
loop_
 _atom_site_type_symbol
 _atom_site_label
 _atom_site_symmetry_multiplicity
 _atom_site_fract_x
 _atom_site_fract_y
 _atom_site_fract_z
 _atom_site_occupancy
  Tb  Tb0  1  0.10162200  0.03229000  0.30567000  1
  Tb  Tb1  1  0.30567000  0.10162200  0.03229000  1
  Tb  Tb2  1  0.03229000  0.30567000  0.10162200  1
  Tb  Tb3  1  0.89837800  0.96771000  0.69433000  1
  Tb  Tb4  1  0.69433000  0.89837800  0.96771000  1
  Tb  Tb5  1  0.96771000  0.69433000  0.89837800  1
  Tb  Tb6  1  0.50000000  0.50000000  0.50000000  1
  Pt  Pt7  1  0.00000000  0.00000000  0.00000000  1
  I  I8  1  0.07447600  0.68045900  0.22724100  1
  I  I9  1  0.22724100  0.07447600  0.68045900  1
  I  I10  1  0.68045900  0.22724100  0.07447600  1
  I  I11  1  0.92552400  0.31954100  0.77275900  1
  I  I12  1  0.77275900  0.92552400  0.31954100  1
  I  I13  1  0.31954100  0.77275900  0.92552400  1
  I  I14  1  0.46982500  0.15702000  0.39109100  1
  I  I15  1  0.39109100  0.46982500  0.15702000  1
  I  I16  1  0.15702000  0.39109100  0.46982500  1
  I  I17  1  0.53017500  0.84298000  0.60890900  1
  I  I18  1  0.60890900  0.53017500  0.84298000  1
  I  I19  1  0.84298000  0.60890900  0.53017500  1
