# generated using pymatgen
data_Ti5CuSb3
_symmetry_space_group_name_H-M   'P 1'
_cell_length_a   8.18869844
_cell_length_b   8.18869844
_cell_length_c   5.50063200
_cell_angle_alpha   90.00000000
_cell_angle_beta   90.00000000
_cell_angle_gamma   120.00000356
_symmetry_Int_Tables_number   1
_chemical_formula_structural   Ti5CuSb3
_chemical_formula_sum   'Ti10 Cu2 Sb6'
_cell_volume   319.42798581
_cell_formula_units_Z   2
loop_
 _symmetry_equiv_pos_site_id
 _symmetry_equiv_pos_as_xyz
  1  'x, y, z'
loop_
 _atom_site_type_symbol
 _atom_site_label
 _atom_site_symmetry_multiplicity
 _atom_site_fract_x
 _atom_site_fract_y
 _atom_site_fract_z
 _atom_site_occupancy
  Ti  Ti0  1  0.66666700  0.33333300  0.50000000  1
  Ti  Ti1  1  0.33333300  0.66666700  0.50000000  1
  Ti  Ti2  1  0.33333300  0.66666700  0.00000000  1
  Ti  Ti3  1  0.66666700  0.33333300  0.00000000  1
  Ti  Ti4  1  0.73096400  0.73096400  0.25000000  1
  Ti  Ti5  1  0.26903600  0.00000000  0.25000000  1
  Ti  Ti6  1  0.00000000  0.26903600  0.25000000  1
  Ti  Ti7  1  0.26903600  0.26903600  0.75000000  1
  Ti  Ti8  1  0.73096400  0.00000000  0.75000000  1
  Ti  Ti9  1  0.00000000  0.73096400  0.75000000  1
  Cu  Cu10  1  0.00000000  0.00000000  0.00000000  1
  Cu  Cu11  1  0.00000000  0.00000000  0.50000000  1
  Sb  Sb12  1  0.38288700  0.38288700  0.25000000  1
  Sb  Sb13  1  0.61711300  0.00000000  0.25000000  1
  Sb  Sb14  1  0.00000000  0.61711300  0.25000000  1
  Sb  Sb15  1  0.61711300  0.61711300  0.75000000  1
  Sb  Sb16  1  0.38288700  0.00000000  0.75000000  1
  Sb  Sb17  1  0.00000000  0.38288700  0.75000000  1
