# generated using pymatgen
data_La(Mo3S4)2
_symmetry_space_group_name_H-M   'P 1'
_cell_length_a   6.57425946
_cell_length_b   6.57425946
_cell_length_c   6.57425947
_cell_angle_alpha   88.96273578
_cell_angle_beta   88.96273578
_cell_angle_gamma   88.96272926
_symmetry_Int_Tables_number   1
_chemical_formula_structural   La(Mo3S4)2
_chemical_formula_sum   'La1 Mo6 S8'
_cell_volume   284.00730563
_cell_formula_units_Z   1
loop_
 _symmetry_equiv_pos_site_id
 _symmetry_equiv_pos_as_xyz
  1  'x, y, z'
loop_
 _atom_site_type_symbol
 _atom_site_label
 _atom_site_symmetry_multiplicity
 _atom_site_fract_x
 _atom_site_fract_y
 _atom_site_fract_z
 _atom_site_occupancy
  La  La0  1  0.00000000  0.00000000  0.00000000  1
  Mo  Mo1  1  0.43764500  0.57928300  0.77328000  1
  Mo  Mo2  1  0.77328000  0.43764500  0.57928300  1
  Mo  Mo3  1  0.57928300  0.77328000  0.43764500  1
  Mo  Mo4  1  0.56235500  0.42071700  0.22672000  1
  Mo  Mo5  1  0.22672000  0.56235500  0.42071700  1
  Mo  Mo6  1  0.42071700  0.22672000  0.56235500  1
  S  S7  1  0.75584800  0.75584800  0.75584800  1
  S  S8  1  0.24415200  0.24415200  0.24415200  1
  S  S9  1  0.25330200  0.87241500  0.62691000  1
  S  S10  1  0.62691000  0.25330200  0.87241500  1
  S  S11  1  0.87241500  0.62691000  0.25330200  1
  S  S12  1  0.74669800  0.12758500  0.37309000  1
  S  S13  1  0.37309000  0.74669800  0.12758500  1
  S  S14  1  0.12758500  0.37309000  0.74669800  1
