# generated using pymatgen
data_Li3SbS3
_symmetry_space_group_name_H-M   'P 1'
_cell_length_a   6.84638600
_cell_length_b   7.99900100
_cell_length_c   10.15862000
_cell_angle_alpha   90.00000000
_cell_angle_beta   90.00000000
_cell_angle_gamma   90.00000000
_symmetry_Int_Tables_number   1
_chemical_formula_structural   Li3SbS3
_chemical_formula_sum   'Li12 Sb4 S12'
_cell_volume   556.32918969
_cell_formula_units_Z   4
loop_
 _symmetry_equiv_pos_site_id
 _symmetry_equiv_pos_as_xyz
  1  'x, y, z'
loop_
 _atom_site_type_symbol
 _atom_site_label
 _atom_site_symmetry_multiplicity
 _atom_site_fract_x
 _atom_site_fract_y
 _atom_site_fract_z
 _atom_site_occupancy
  Li  Li0  1  0.54076100  0.55599600  0.27545300  1
  Li  Li1  1  0.45923900  0.44400400  0.77545300  1
  Li  Li2  1  0.04076100  0.94400400  0.77545300  1
  Li  Li3  1  0.95923900  0.05599600  0.27545300  1
  Li  Li4  1  0.15488300  0.41129200  0.31733100  1
  Li  Li5  1  0.84511700  0.58870800  0.81733100  1
  Li  Li6  1  0.65488300  0.08870800  0.81733100  1
  Li  Li7  1  0.34511700  0.91129200  0.31733100  1
  Li  Li8  1  0.12566800  0.26047900  0.61462700  1
  Li  Li9  1  0.87433200  0.73952100  0.11462700  1
  Li  Li10  1  0.62566800  0.23952100  0.11462700  1
  Li  Li11  1  0.37433200  0.76047900  0.61462700  1
  Sb  Sb12  1  0.60542200  0.23463200  0.49969300  1
  Sb  Sb13  1  0.39457800  0.76536800  0.99969300  1
  Sb  Sb14  1  0.10542200  0.26536800  0.99969300  1
  Sb  Sb15  1  0.89457800  0.73463200  0.49969300  1
  S  S16  1  0.80513900  0.33776800  0.31639000  1
  S  S17  1  0.19486100  0.66223200  0.81639000  1
  S  S18  1  0.30513900  0.16223200  0.81639000  1
  S  S19  1  0.69486100  0.83776800  0.31639000  1
  S  S20  1  0.36219000  0.46497300  0.50868400  1
  S  S21  1  0.63781000  0.53502700  0.00868400  1
  S  S22  1  0.86219000  0.03502700  0.00868400  1
  S  S23  1  0.13781000  0.96497300  0.50868400  1
  S  S24  1  0.79667700  0.32108900  0.69352300  1
  S  S25  1  0.20332300  0.67891100  0.19352300  1
  S  S26  1  0.29667700  0.17891100  0.19352300  1
  S  S27  1  0.70332300  0.82108900  0.69352300  1
