# generated using pymatgen
data_Rb5SiAs3
_symmetry_space_group_name_H-M   'P 1'
_cell_length_a   5.72284800
_cell_length_b   14.42962200
_cell_length_c   15.87823500
_cell_angle_alpha   90.00000000
_cell_angle_beta   90.00000000
_cell_angle_gamma   90.00000000
_symmetry_Int_Tables_number   1
_chemical_formula_structural   Rb5SiAs3
_chemical_formula_sum   'Rb20 Si4 As12'
_cell_volume   1311.20135934
_cell_formula_units_Z   4
loop_
 _symmetry_equiv_pos_site_id
 _symmetry_equiv_pos_as_xyz
  1  'x, y, z'
loop_
 _atom_site_type_symbol
 _atom_site_label
 _atom_site_symmetry_multiplicity
 _atom_site_fract_x
 _atom_site_fract_y
 _atom_site_fract_z
 _atom_site_occupancy
  Rb  Rb0  1  0.75000000  0.44764600  0.14739700  1
  Rb  Rb1  1  0.25000000  0.55235400  0.85260300  1
  Rb  Rb2  1  0.75000000  0.94764600  0.35260300  1
  Rb  Rb3  1  0.25000000  0.05235400  0.64739700  1
  Rb  Rb4  1  0.25000000  0.27670700  0.78533100  1
  Rb  Rb5  1  0.75000000  0.72329300  0.21466900  1
  Rb  Rb6  1  0.25000000  0.77670700  0.71466900  1
  Rb  Rb7  1  0.75000000  0.22329300  0.28533100  1
  Rb  Rb8  1  0.25000000  0.85034000  0.46142500  1
  Rb  Rb9  1  0.75000000  0.14966000  0.53857500  1
  Rb  Rb10  1  0.25000000  0.35034000  0.03857500  1
  Rb  Rb11  1  0.75000000  0.64966000  0.96142500  1
  Rb  Rb12  1  0.25000000  0.61276300  0.31890100  1
  Rb  Rb13  1  0.75000000  0.38723700  0.68109900  1
  Rb  Rb14  1  0.25000000  0.11276300  0.18109900  1
  Rb  Rb15  1  0.75000000  0.88723700  0.81890100  1
  Rb  Rb16  1  0.25000000  0.56710800  0.55805400  1
  Rb  Rb17  1  0.75000000  0.43289200  0.44194600  1
  Rb  Rb18  1  0.25000000  0.06710800  0.94194600  1
  Rb  Rb19  1  0.75000000  0.93289200  0.05805400  1
  Si  Si20  1  0.75000000  0.23881300  0.92452600  1
  Si  Si21  1  0.25000000  0.76118700  0.07547400  1
  Si  Si22  1  0.75000000  0.73881300  0.57547400  1
  Si  Si23  1  0.25000000  0.26118700  0.42452600  1
  As  As24  1  0.25000000  0.31262800  0.56313500  1
  As  As25  1  0.75000000  0.68737200  0.43686500  1
  As  As26  1  0.25000000  0.81262800  0.93686500  1
  As  As27  1  0.75000000  0.18737200  0.06313500  1
  As  As28  1  0.25000000  0.10185700  0.40309100  1
  As  As29  1  0.75000000  0.89814300  0.59690900  1
  As  As30  1  0.25000000  0.60185700  0.09690900  1
  As  As31  1  0.75000000  0.39814300  0.90309100  1
  As  As32  1  0.75000000  0.13499600  0.81183800  1
  As  As33  1  0.25000000  0.86500400  0.18816200  1
  As  As34  1  0.75000000  0.63499600  0.68816200  1
  As  As35  1  0.25000000  0.36500400  0.31183800  1
