# generated using pymatgen
data_Sm3NiGe2
_symmetry_space_group_name_H-M   'P 1'
_cell_length_a   4.25938100
_cell_length_b   11.46403900
_cell_length_c   11.65036200
_cell_angle_alpha   90.00000000
_cell_angle_beta   90.00000000
_cell_angle_gamma   90.00000000
_symmetry_Int_Tables_number   1
_chemical_formula_structural   Sm3NiGe2
_chemical_formula_sum   'Sm12 Ni4 Ge8'
_cell_volume   568.88379669
_cell_formula_units_Z   4
loop_
 _symmetry_equiv_pos_site_id
 _symmetry_equiv_pos_as_xyz
  1  'x, y, z'
loop_
 _atom_site_type_symbol
 _atom_site_label
 _atom_site_symmetry_multiplicity
 _atom_site_fract_x
 _atom_site_fract_y
 _atom_site_fract_z
 _atom_site_occupancy
  Sm  Sm0  1  0.25000000  0.37449200  0.05804200  1
  Sm  Sm1  1  0.75000000  0.62550800  0.94195800  1
  Sm  Sm2  1  0.75000000  0.87449200  0.44195800  1
  Sm  Sm3  1  0.25000000  0.12550800  0.55804200  1
  Sm  Sm4  1  0.25000000  0.69691800  0.21445400  1
  Sm  Sm5  1  0.75000000  0.30308200  0.78554600  1
  Sm  Sm6  1  0.75000000  0.19691800  0.28554600  1
  Sm  Sm7  1  0.25000000  0.80308200  0.71445400  1
  Sm  Sm8  1  0.25000000  0.44051800  0.38138900  1
  Sm  Sm9  1  0.75000000  0.55948200  0.61861100  1
  Sm  Sm10  1  0.75000000  0.94051800  0.11861100  1
  Sm  Sm11  1  0.25000000  0.05948200  0.88138900  1
  Ni  Ni12  1  0.25000000  0.13368300  0.12918800  1
  Ni  Ni13  1  0.75000000  0.86631700  0.87081200  1
  Ni  Ni14  1  0.75000000  0.63368300  0.37081200  1
  Ni  Ni15  1  0.25000000  0.36631700  0.62918800  1
  Ge  Ge16  1  0.25000000  0.68641000  0.47517900  1
  Ge  Ge17  1  0.75000000  0.31359000  0.52482100  1
  Ge  Ge18  1  0.75000000  0.18641000  0.02482100  1
  Ge  Ge19  1  0.25000000  0.81359000  0.97517900  1
  Ge  Ge20  1  0.25000000  0.00444000  0.30432100  1
  Ge  Ge21  1  0.75000000  0.99556000  0.69567900  1
  Ge  Ge22  1  0.75000000  0.50444000  0.19567900  1
  Ge  Ge23  1  0.25000000  0.49556000  0.80432100  1
