# generated using pymatgen
data_BaTh(PO4)2
_symmetry_space_group_name_H-M   'P 1'
_cell_length_a   7.05081124
_cell_length_b   7.05081124
_cell_length_c   9.62000077
_cell_angle_alpha   79.14500635
_cell_angle_beta   79.14500635
_cell_angle_gamma   45.74276371
_symmetry_Int_Tables_number   1
_chemical_formula_structural   BaTh(PO4)2
_chemical_formula_sum   'Ba2 Th2 P4 O16'
_cell_volume   335.29674135
_cell_formula_units_Z   2
loop_
 _symmetry_equiv_pos_site_id
 _symmetry_equiv_pos_as_xyz
  1  'x, y, z'
loop_
 _atom_site_type_symbol
 _atom_site_label
 _atom_site_symmetry_multiplicity
 _atom_site_fract_x
 _atom_site_fract_y
 _atom_site_fract_z
 _atom_site_occupancy
  Ba  Ba0  1  0.00000000  0.50000000  0.00000000  1
  Ba  Ba1  1  0.50000000  0.00000000  0.50000000  1
  Th  Th2  1  0.17621900  0.82378100  0.25000000  1
  Th  Th3  1  0.82378100  0.17621900  0.75000000  1
  P  P4  1  0.64360800  0.17319600  0.10977400  1
  P  P5  1  0.82680400  0.35639200  0.39022600  1
  P  P6  1  0.35639200  0.82680400  0.89022600  1
  P  P7  1  0.17319600  0.64360800  0.60977400  1
  O  O8  1  0.78816800  0.90599400  0.20476500  1
  O  O9  1  0.09400600  0.21183200  0.29523500  1
  O  O10  1  0.21183200  0.09400600  0.79523500  1
  O  O11  1  0.90599400  0.78816800  0.70476500  1
  O  O12  1  0.37102700  0.40805500  0.18119200  1
  O  O13  1  0.59194500  0.62897300  0.31880800  1
  O  O14  1  0.62897300  0.59194500  0.81880800  1
  O  O15  1  0.40805500  0.37102700  0.68119200  1
  O  O16  1  0.83668200  0.21557000  0.08937800  1
  O  O17  1  0.78443000  0.16331800  0.41062200  1
  O  O18  1  0.16331800  0.78443000  0.91062200  1
  O  O19  1  0.21557000  0.83668200  0.58937800  1
  O  O20  1  0.59800600  0.14797700  0.96490400  1
  O  O21  1  0.85202300  0.40199400  0.53509600  1
  O  O22  1  0.40199400  0.85202300  0.03509600  1
  O  O23  1  0.14797700  0.59800600  0.46490400  1
