# generated using pymatgen
data_TmSc(BO3)2
_symmetry_space_group_name_H-M   'P 1'
_cell_length_a   6.01792197
_cell_length_b   6.01792197
_cell_length_c   6.01792215
_cell_angle_alpha   47.84979377
_cell_angle_beta   47.84979377
_cell_angle_gamma   47.84979408
_symmetry_Int_Tables_number   1
_chemical_formula_structural   TmSc(BO3)2
_chemical_formula_sum   'Tm1 Sc1 B2 O6'
_cell_volume   109.70897899
_cell_formula_units_Z   1
loop_
 _symmetry_equiv_pos_site_id
 _symmetry_equiv_pos_as_xyz
  1  'x, y, z'
loop_
 _atom_site_type_symbol
 _atom_site_label
 _atom_site_symmetry_multiplicity
 _atom_site_fract_x
 _atom_site_fract_y
 _atom_site_fract_z
 _atom_site_occupancy
  Tm  Tm0  1  0.00000000  0.00000000  0.00000000  1
  Sc  Sc1  1  0.50000000  0.50000000  0.50000000  1
  B  B2  1  0.24627700  0.24627700  0.24627700  1
  B  B3  1  0.75372300  0.75372300  0.75372300  1
  O  O4  1  0.52438200  0.95622600  0.26169000  1
  O  O5  1  0.26169000  0.52438200  0.95622600  1
  O  O6  1  0.95622600  0.26169000  0.52438200  1
  O  O7  1  0.73831000  0.47561800  0.04377400  1
  O  O8  1  0.04377400  0.73831000  0.47561800  1
  O  O9  1  0.47561800  0.04377400  0.73831000  1
