# generated using pymatgen
data_TiMnO3
_symmetry_space_group_name_H-M   'P 1'
_cell_length_a   5.18905581
_cell_length_b   5.18904900
_cell_length_c   5.66642265
_cell_angle_alpha   62.74894810
_cell_angle_beta   117.25120082
_cell_angle_gamma   120.00106331
_symmetry_Int_Tables_number   1
_chemical_formula_structural   TiMnO3
_chemical_formula_sum   'Ti2 Mn2 O6'
_cell_volume   112.15356088
_cell_formula_units_Z   2
loop_
 _symmetry_equiv_pos_site_id
 _symmetry_equiv_pos_as_xyz
  1  'x, y, z'
loop_
 _atom_site_type_symbol
 _atom_site_label
 _atom_site_symmetry_multiplicity
 _atom_site_fract_x
 _atom_site_fract_y
 _atom_site_fract_z
 _atom_site_occupancy
  Ti  Ti0  1  0.85359700  0.14640200  0.56079300  1
  Ti  Ti1  1  0.14639300  0.85360100  0.43918600  1
  Mn  Mn2  1  0.35883100  0.64119200  0.07645600  1
  Mn  Mn3  1  0.64121100  0.35879100  0.92363900  1
  O  O4  1  0.43659700  0.21350600  0.26766700  1
  O  O5  1  0.04458100  0.56339100  0.26766900  1
  O  O6  1  0.78649200  0.95541900  0.26766900  1
  O  O7  1  0.56339400  0.78648900  0.73230800  1
  O  O8  1  0.95539600  0.43661100  0.73230600  1
  O  O9  1  0.21350700  0.04459800  0.73230600  1
