# generated using pymatgen
data_Rb2P2Pd
_symmetry_space_group_name_H-M   'P 1'
_cell_length_a   8.01874483
_cell_length_b   8.01874483
_cell_length_c   6.15183800
_cell_angle_alpha   90.00000000
_cell_angle_beta   90.00000000
_cell_angle_gamma   130.95376645
_symmetry_Int_Tables_number   1
_chemical_formula_structural   Rb2P2Pd
_chemical_formula_sum   'Rb4 P4 Pd2'
_cell_volume   298.74588339
_cell_formula_units_Z   2
loop_
 _symmetry_equiv_pos_site_id
 _symmetry_equiv_pos_as_xyz
  1  'x, y, z'
loop_
 _atom_site_type_symbol
 _atom_site_label
 _atom_site_symmetry_multiplicity
 _atom_site_fract_x
 _atom_site_fract_y
 _atom_site_fract_z
 _atom_site_occupancy
  Rb  Rb0  1  0.78584800  0.21415200  0.25000000  1
  Rb  Rb1  1  0.21415200  0.78584800  0.75000000  1
  Rb  Rb2  1  0.42082700  0.57917300  0.25000000  1
  Rb  Rb3  1  0.57917300  0.42082700  0.75000000  1
  P  P4  1  0.94188700  0.73128100  0.25000000  1
  P  P5  1  0.05811300  0.26871900  0.75000000  1
  P  P6  1  0.26871900  0.05811300  0.25000000  1
  P  P7  1  0.73128100  0.94188700  0.75000000  1
  Pd  Pd8  1  0.00000000  0.00000000  0.00000000  1
  Pd  Pd9  1  0.00000000  0.00000000  0.50000000  1
