# generated using pymatgen
data_CsTm2Cl7
_symmetry_space_group_name_H-M   'P 1'
_cell_length_a   6.97317700
_cell_length_b   12.57390100
_cell_length_c   13.87123200
_cell_angle_alpha   90.00000000
_cell_angle_beta   90.00000000
_cell_angle_gamma   90.00000000
_symmetry_Int_Tables_number   1
_chemical_formula_structural   CsTm2Cl7
_chemical_formula_sum   'Cs4 Tm8 Cl28'
_cell_volume   1216.23013851
_cell_formula_units_Z   4
loop_
 _symmetry_equiv_pos_site_id
 _symmetry_equiv_pos_as_xyz
  1  'x, y, z'
loop_
 _atom_site_type_symbol
 _atom_site_label
 _atom_site_symmetry_multiplicity
 _atom_site_fract_x
 _atom_site_fract_y
 _atom_site_fract_z
 _atom_site_occupancy
  Cs  Cs0  1  0.25000000  0.80395700  0.04205900  1
  Cs  Cs1  1  0.75000000  0.19604300  0.95794100  1
  Cs  Cs2  1  0.75000000  0.30395700  0.45794100  1
  Cs  Cs3  1  0.25000000  0.69604300  0.54205900  1
  Tm  Tm4  1  0.25000000  0.45944200  0.23882300  1
  Tm  Tm5  1  0.75000000  0.54055800  0.76117700  1
  Tm  Tm6  1  0.75000000  0.95944200  0.26117700  1
  Tm  Tm7  1  0.25000000  0.04055800  0.73882300  1
  Tm  Tm8  1  0.25000000  0.15663000  0.25072400  1
  Tm  Tm9  1  0.75000000  0.84337000  0.74927600  1
  Tm  Tm10  1  0.75000000  0.65663000  0.24927600  1
  Tm  Tm11  1  0.25000000  0.34337000  0.75072400  1
  Cl  Cl12  1  0.01432300  0.30627900  0.17884600  1
  Cl  Cl13  1  0.98567700  0.69372100  0.82115400  1
  Cl  Cl14  1  0.98567700  0.80627900  0.32115400  1
  Cl  Cl15  1  0.51432300  0.69372100  0.82115400  1
  Cl  Cl16  1  0.01432300  0.19372100  0.67884600  1
  Cl  Cl17  1  0.48567700  0.30627900  0.17884600  1
  Cl  Cl18  1  0.48567700  0.19372100  0.67884600  1
  Cl  Cl19  1  0.51432300  0.80627900  0.32115400  1
  Cl  Cl20  1  0.00856400  0.57415000  0.12813600  1
  Cl  Cl21  1  0.99143600  0.42585000  0.87186400  1
  Cl  Cl22  1  0.99143600  0.07415000  0.37186400  1
  Cl  Cl23  1  0.50856400  0.42585000  0.87186400  1
  Cl  Cl24  1  0.00856400  0.92585000  0.62813600  1
  Cl  Cl25  1  0.49143600  0.57415000  0.12813600  1
  Cl  Cl26  1  0.49143600  0.92585000  0.62813600  1
  Cl  Cl27  1  0.50856400  0.07415000  0.37186400  1
  Cl  Cl28  1  0.00963400  0.04038300  0.13857300  1
  Cl  Cl29  1  0.99036600  0.95961700  0.86142700  1
  Cl  Cl30  1  0.99036600  0.54038300  0.36142700  1
  Cl  Cl31  1  0.50963400  0.95961700  0.86142700  1
  Cl  Cl32  1  0.00963400  0.45961700  0.63857300  1
  Cl  Cl33  1  0.49036600  0.04038300  0.13857300  1
  Cl  Cl34  1  0.49036600  0.45961700  0.63857300  1
  Cl  Cl35  1  0.50963400  0.54038300  0.36142700  1
  Cl  Cl36  1  0.25000000  0.31079500  0.38587500  1
  Cl  Cl37  1  0.75000000  0.68920500  0.61412500  1
  Cl  Cl38  1  0.75000000  0.81079500  0.11412500  1
  Cl  Cl39  1  0.25000000  0.18920500  0.88587500  1
