# generated using pymatgen
data_ErNiC2
_symmetry_space_group_name_H-M   'P 1'
_cell_length_a   3.74325949
_cell_length_b   3.74325949
_cell_length_c   3.53707400
_cell_angle_alpha   90.00000000
_cell_angle_beta   90.00000000
_cell_angle_gamma   105.98377721
_symmetry_Int_Tables_number   1
_chemical_formula_structural   ErNiC2
_chemical_formula_sum   'Er1 Ni1 C2'
_cell_volume   47.64539075
_cell_formula_units_Z   1
loop_
 _symmetry_equiv_pos_site_id
 _symmetry_equiv_pos_as_xyz
  1  'x, y, z'
loop_
 _atom_site_type_symbol
 _atom_site_label
 _atom_site_symmetry_multiplicity
 _atom_site_fract_x
 _atom_site_fract_y
 _atom_site_fract_z
 _atom_site_occupancy
  Er  Er0  1  0.99748400  0.00251600  0.00000000  1
  Ni  Ni1  1  0.38616200  0.61383800  0.50000000  1
  C  C2  1  0.85026300  0.45491000  0.50000000  1
  C  C3  1  0.54509000  0.14973700  0.50000000  1
