# generated using pymatgen
data_Nb5Si3B
_symmetry_space_group_name_H-M   'P 1'
_cell_length_a   7.67326885
_cell_length_b   7.67326885
_cell_length_c   5.31003900
_cell_angle_alpha   90.00000000
_cell_angle_beta   90.00000000
_cell_angle_gamma   120.00000733
_symmetry_Int_Tables_number   1
_chemical_formula_structural   Nb5Si3B
_chemical_formula_sum   'Nb10 Si6 B2'
_cell_volume   270.76288964
_cell_formula_units_Z   2
loop_
 _symmetry_equiv_pos_site_id
 _symmetry_equiv_pos_as_xyz
  1  'x, y, z'
loop_
 _atom_site_type_symbol
 _atom_site_label
 _atom_site_symmetry_multiplicity
 _atom_site_fract_x
 _atom_site_fract_y
 _atom_site_fract_z
 _atom_site_occupancy
  Nb  Nb0  1  0.66666700  0.33333300  0.50000000  1
  Nb  Nb1  1  0.33333300  0.66666700  0.50000000  1
  Nb  Nb2  1  0.33333300  0.66666700  0.00000000  1
  Nb  Nb3  1  0.66666700  0.33333300  0.00000000  1
  Nb  Nb4  1  0.75289500  0.75289500  0.25000000  1
  Nb  Nb5  1  0.24710500  0.00000000  0.25000000  1
  Nb  Nb6  1  0.00000000  0.24710500  0.25000000  1
  Nb  Nb7  1  0.24710500  0.24710500  0.75000000  1
  Nb  Nb8  1  0.75289500  0.00000000  0.75000000  1
  Nb  Nb9  1  0.00000000  0.75289500  0.75000000  1
  Si  Si10  1  0.40128300  0.40128300  0.25000000  1
  Si  Si11  1  0.59871700  0.00000000  0.25000000  1
  Si  Si12  1  0.00000000  0.59871700  0.25000000  1
  Si  Si13  1  0.59871700  0.59871700  0.75000000  1
  Si  Si14  1  0.40128300  0.00000000  0.75000000  1
  Si  Si15  1  0.00000000  0.40128300  0.75000000  1
  B  B16  1  0.00000000  0.00000000  0.50000000  1
  B  B17  1  0.00000000  0.00000000  0.00000000  1
