# generated using pymatgen
data_DySiPd2
_symmetry_space_group_name_H-M   'P 1'
_cell_length_a   5.54440100
_cell_length_b   6.96499300
_cell_length_c   7.35394500
_cell_angle_alpha   90.00000000
_cell_angle_beta   90.00000000
_cell_angle_gamma   90.00000000
_symmetry_Int_Tables_number   1
_chemical_formula_structural   DySiPd2
_chemical_formula_sum   'Dy4 Si4 Pd8'
_cell_volume   283.98519197
_cell_formula_units_Z   4
loop_
 _symmetry_equiv_pos_site_id
 _symmetry_equiv_pos_as_xyz
  1  'x, y, z'
loop_
 _atom_site_type_symbol
 _atom_site_label
 _atom_site_symmetry_multiplicity
 _atom_site_fract_x
 _atom_site_fract_y
 _atom_site_fract_z
 _atom_site_occupancy
  Dy  Dy0  1  0.35584700  0.75000000  0.02990600  1
  Dy  Dy1  1  0.14415300  0.75000000  0.52990600  1
  Dy  Dy2  1  0.64415300  0.25000000  0.97009400  1
  Dy  Dy3  1  0.85584700  0.25000000  0.47009400  1
  Si  Si4  1  0.64510800  0.75000000  0.37850700  1
  Si  Si5  1  0.85489200  0.75000000  0.87850700  1
  Si  Si6  1  0.35489200  0.25000000  0.62149300  1
  Si  Si7  1  0.14510800  0.25000000  0.12149300  1
  Pd  Pd8  1  0.90626100  0.55110800  0.17805100  1
  Pd  Pd9  1  0.59373900  0.94889200  0.67805100  1
  Pd  Pd10  1  0.09373900  0.05110800  0.82194900  1
  Pd  Pd11  1  0.40626100  0.44889200  0.32194900  1
  Pd  Pd12  1  0.09373900  0.44889200  0.82194900  1
  Pd  Pd13  1  0.40626100  0.05110800  0.32194900  1
  Pd  Pd14  1  0.90626100  0.94889200  0.17805100  1
  Pd  Pd15  1  0.59373900  0.55110800  0.67805100  1
