# generated using pymatgen
data_La3As2BrO7
_symmetry_space_group_name_H-M   'P 1'
_cell_length_a   13.17389700
_cell_length_b   13.17389700
_cell_length_c   5.67251500
_cell_angle_alpha   90.00000000
_cell_angle_beta   90.00000000
_cell_angle_gamma   90.00000000
_symmetry_Int_Tables_number   1
_chemical_formula_structural   La3As2BrO7
_chemical_formula_sum   'La12 As8 Br4 O28'
_cell_volume   984.47383966
_cell_formula_units_Z   4
loop_
 _symmetry_equiv_pos_site_id
 _symmetry_equiv_pos_as_xyz
  1  'x, y, z'
loop_
 _atom_site_type_symbol
 _atom_site_label
 _atom_site_symmetry_multiplicity
 _atom_site_fract_x
 _atom_site_fract_y
 _atom_site_fract_z
 _atom_site_occupancy
  La  La0  1  0.76249500  0.23750500  0.50000000  1
  La  La1  1  0.23750500  0.76249500  0.50000000  1
  La  La2  1  0.26249500  0.26249500  0.00000000  1
  La  La3  1  0.73750500  0.73750500  0.00000000  1
  La  La4  1  0.63706500  0.95326500  0.50000000  1
  La  La5  1  0.36293500  0.04673500  0.50000000  1
  La  La6  1  0.13706500  0.54673500  0.00000000  1
  La  La7  1  0.86293500  0.45326500  0.00000000  1
  La  La8  1  0.95326500  0.63706500  0.50000000  1
  La  La9  1  0.04673500  0.36293500  0.50000000  1
  La  La10  1  0.54673500  0.13706500  0.00000000  1
  La  La11  1  0.45326500  0.86293500  0.00000000  1
  As  As12  1  0.47272000  0.28885000  0.50000000  1
  As  As13  1  0.52728000  0.71115000  0.50000000  1
  As  As14  1  0.97272000  0.21115000  0.00000000  1
  As  As15  1  0.02728000  0.78885000  0.00000000  1
  As  As16  1  0.28885000  0.47272000  0.50000000  1
  As  As17  1  0.71115000  0.52728000  0.50000000  1
  As  As18  1  0.21115000  0.97272000  0.00000000  1
  As  As19  1  0.78885000  0.02728000  0.00000000  1
  Br  Br20  1  0.85280400  0.85280400  0.50000000  1
  Br  Br21  1  0.14719600  0.14719600  0.50000000  1
  Br  Br22  1  0.35280400  0.64719600  0.00000000  1
  Br  Br23  1  0.64719600  0.35280400  0.00000000  1
  O  O24  1  0.50000000  0.00000000  0.25000000  1
  O  O25  1  0.00000000  0.50000000  0.75000000  1
  O  O26  1  0.50000000  0.00000000  0.75000000  1
  O  O27  1  0.00000000  0.50000000  0.25000000  1
  O  O28  1  0.58175200  0.20776900  0.50000000  1
  O  O29  1  0.41824800  0.79223100  0.50000000  1
  O  O30  1  0.08175200  0.29223100  0.00000000  1
  O  O31  1  0.91824800  0.70776900  0.00000000  1
  O  O32  1  0.20776900  0.58175200  0.50000000  1
  O  O33  1  0.79223100  0.41824800  0.50000000  1
  O  O34  1  0.29223100  0.08175200  0.00000000  1
  O  O35  1  0.70776900  0.91824800  0.00000000  1
  O  O36  1  0.40758800  0.22018500  0.26337500  1
  O  O37  1  0.59241200  0.77981500  0.26337500  1
  O  O38  1  0.90758800  0.27981500  0.76337500  1
  O  O39  1  0.09241200  0.72018500  0.76337500  1
  O  O40  1  0.59241200  0.77981500  0.73662500  1
  O  O41  1  0.40758800  0.22018500  0.73662500  1
  O  O42  1  0.09241200  0.72018500  0.23662500  1
  O  O43  1  0.90758800  0.27981500  0.23662500  1
  O  O44  1  0.22018500  0.40758800  0.26337500  1
  O  O45  1  0.77981500  0.59241200  0.26337500  1
  O  O46  1  0.27981500  0.90758800  0.76337500  1
  O  O47  1  0.72018500  0.09241200  0.76337500  1
  O  O48  1  0.77981500  0.59241200  0.73662500  1
  O  O49  1  0.22018500  0.40758800  0.73662500  1
  O  O50  1  0.72018500  0.09241200  0.23662500  1
  O  O51  1  0.27981500  0.90758800  0.23662500  1
