# generated using pymatgen
data_CaZrTlF7
_symmetry_space_group_name_H-M   'P 1'
_cell_length_a   6.66332229
_cell_length_b   6.66332229
_cell_length_c   8.65100100
_cell_angle_alpha   90.00000000
_cell_angle_beta   90.00000000
_cell_angle_gamma   116.55188635
_symmetry_Int_Tables_number   1
_chemical_formula_structural   CaZrTlF7
_chemical_formula_sum   'Ca2 Zr2 Tl2 F14'
_cell_volume   343.59186631
_cell_formula_units_Z   2
loop_
 _symmetry_equiv_pos_site_id
 _symmetry_equiv_pos_as_xyz
  1  'x, y, z'
loop_
 _atom_site_type_symbol
 _atom_site_label
 _atom_site_symmetry_multiplicity
 _atom_site_fract_x
 _atom_site_fract_y
 _atom_site_fract_z
 _atom_site_occupancy
  Ca  Ca0  1  0.30876100  0.69123900  0.75000000  1
  Ca  Ca1  1  0.69123900  0.30876100  0.25000000  1
  Zr  Zr2  1  0.69262900  0.30737100  0.75000000  1
  Zr  Zr3  1  0.30737100  0.69262900  0.25000000  1
  Tl  Tl4  1  0.00000000  0.00000000  0.00000000  1
  Tl  Tl5  1  0.00000000  0.00000000  0.50000000  1
  F  F6  1  0.34854400  0.06463300  0.75000000  1
  F  F7  1  0.65145600  0.93536700  0.25000000  1
  F  F8  1  0.93536700  0.65145600  0.75000000  1
  F  F9  1  0.06463300  0.34854400  0.25000000  1
  F  F10  1  0.70105900  0.29894100  0.98676900  1
  F  F11  1  0.29894100  0.70105900  0.01323100  1
  F  F12  1  0.29894100  0.70105900  0.48676900  1
  F  F13  1  0.70105900  0.29894100  0.51323100  1
  F  F14  1  0.51022900  0.48977100  0.75000000  1
  F  F15  1  0.48977100  0.51022900  0.25000000  1
  F  F16  1  0.67168100  0.97747400  0.75000000  1
  F  F17  1  0.32831900  0.02252600  0.25000000  1
  F  F18  1  0.02252600  0.32831900  0.75000000  1
  F  F19  1  0.97747400  0.67168100  0.25000000  1
