# generated using pymatgen
data_Rb5V3O10
_symmetry_space_group_name_H-M   'P 1'
_cell_length_a   8.58799100
_cell_length_b   8.58799100
_cell_length_c   19.88582700
_cell_angle_alpha   90.00000000
_cell_angle_beta   90.00000000
_cell_angle_gamma   90.00000000
_symmetry_Int_Tables_number   1
_chemical_formula_structural   Rb5V3O10
_chemical_formula_sum   'Rb20 V12 O40'
_cell_volume   1466.65111976
_cell_formula_units_Z   4
loop_
 _symmetry_equiv_pos_site_id
 _symmetry_equiv_pos_as_xyz
  1  'x, y, z'
loop_
 _atom_site_type_symbol
 _atom_site_label
 _atom_site_symmetry_multiplicity
 _atom_site_fract_x
 _atom_site_fract_y
 _atom_site_fract_z
 _atom_site_occupancy
  Rb  Rb0  1  0.47654100  0.01025600  0.13255400  1
  Rb  Rb1  1  0.52345900  0.98974400  0.63255400  1
  Rb  Rb2  1  0.48974400  0.97654100  0.38255400  1
  Rb  Rb3  1  0.02345900  0.51025600  0.11744600  1
  Rb  Rb4  1  0.51025600  0.02345900  0.88255400  1
  Rb  Rb5  1  0.97654100  0.48974400  0.61744600  1
  Rb  Rb6  1  0.01025600  0.47654100  0.86744600  1
  Rb  Rb7  1  0.98974400  0.52345900  0.36744600  1
  Rb  Rb8  1  0.00071100  0.02876700  0.11110500  1
  Rb  Rb9  1  0.99928900  0.97123300  0.61110500  1
  Rb  Rb10  1  0.47123300  0.50071100  0.36110500  1
  Rb  Rb11  1  0.49928900  0.52876700  0.13889500  1
  Rb  Rb12  1  0.52876700  0.49928900  0.86110500  1
  Rb  Rb13  1  0.50071100  0.47123300  0.63889500  1
  Rb  Rb14  1  0.02876700  0.00071100  0.88889500  1
  Rb  Rb15  1  0.97123300  0.99928900  0.38889500  1
  Rb  Rb16  1  0.76287600  0.76287600  0.00000000  1
  Rb  Rb17  1  0.23712400  0.23712400  0.50000000  1
  Rb  Rb18  1  0.73712400  0.26287600  0.25000000  1
  Rb  Rb19  1  0.26287600  0.73712400  0.75000000  1
  V  V20  1  0.22961800  0.22788400  0.26783300  1
  V  V21  1  0.77038200  0.77211600  0.76783300  1
  V  V22  1  0.27211600  0.72961800  0.51783300  1
  V  V23  1  0.27038200  0.72788400  0.98216700  1
  V  V24  1  0.72788400  0.27038200  0.01783300  1
  V  V25  1  0.72961800  0.27211600  0.48216700  1
  V  V26  1  0.22788400  0.22961800  0.73216700  1
  V  V27  1  0.77211600  0.77038200  0.23216700  1
  V  V28  1  0.31141000  0.31141000  0.00000000  1
  V  V29  1  0.68859000  0.68859000  0.50000000  1
  V  V30  1  0.18859000  0.81141000  0.25000000  1
  V  V31  1  0.81141000  0.18859000  0.75000000  1
  O  O32  1  0.06651700  0.31931300  0.23784200  1
  O  O33  1  0.93348300  0.68068700  0.73784200  1
  O  O34  1  0.18068700  0.56651700  0.48784200  1
  O  O35  1  0.43348300  0.81931300  0.01215800  1
  O  O36  1  0.81931300  0.43348300  0.98784200  1
  O  O37  1  0.56651700  0.18068700  0.51215800  1
  O  O38  1  0.31931300  0.06651700  0.76215800  1
  O  O39  1  0.68068700  0.93348300  0.26215800  1
  O  O40  1  0.24361500  0.22559000  0.07028800  1
  O  O41  1  0.75638500  0.77441000  0.57028800  1
  O  O42  1  0.27441000  0.74361500  0.32028800  1
  O  O43  1  0.25638500  0.72559000  0.17971200  1
  O  O44  1  0.72559000  0.25638500  0.82028800  1
  O  O45  1  0.74361500  0.27441000  0.67971200  1
  O  O46  1  0.22559000  0.24361500  0.92971200  1
  O  O47  1  0.77441000  0.75638500  0.42971200  1
  O  O48  1  0.23122300  0.23893000  0.35427500  1
  O  O49  1  0.76877700  0.76107000  0.85427500  1
  O  O50  1  0.26107000  0.73122300  0.60427500  1
  O  O51  1  0.26877700  0.73893000  0.89572500  1
  O  O52  1  0.73893000  0.26877700  0.10427500  1
  O  O53  1  0.73122300  0.26107000  0.39572500  1
  O  O54  1  0.23893000  0.23122300  0.64572500  1
  O  O55  1  0.76107000  0.76877700  0.14572500  1
  O  O56  1  0.22088400  0.01865500  0.24160300  1
  O  O57  1  0.77911600  0.98134500  0.74160300  1
  O  O58  1  0.48134500  0.72088400  0.49160300  1
  O  O59  1  0.27911600  0.51865500  0.00839700  1
  O  O60  1  0.51865500  0.27911600  0.99160300  1
  O  O61  1  0.72088400  0.48134500  0.50839700  1
  O  O62  1  0.01865500  0.22088400  0.75839700  1
  O  O63  1  0.98134500  0.77911600  0.25839700  1
  O  O64  1  0.39792600  0.30906300  0.23780600  1
  O  O65  1  0.60207400  0.69093700  0.73780600  1
  O  O66  1  0.19093700  0.89792600  0.48780600  1
  O  O67  1  0.10207400  0.80906300  0.01219400  1
  O  O68  1  0.80906300  0.10207400  0.98780600  1
  O  O69  1  0.89792600  0.19093700  0.51219400  1
  O  O70  1  0.30906300  0.39792600  0.76219400  1
  O  O71  1  0.69093700  0.60207400  0.26219400  1
