# generated using pymatgen
data_Rb3HoCl6
_symmetry_space_group_name_H-M   'P 1'
_cell_length_a   13.69146669
_cell_length_b   13.69146669
_cell_length_c   12.97832161
_cell_angle_alpha   80.91377687
_cell_angle_beta   80.91377687
_cell_angle_gamma   34.04908033
_symmetry_Int_Tables_number   1
_chemical_formula_structural   Rb3HoCl6
_chemical_formula_sum   'Rb12 Ho4 Cl24'
_cell_volume   1343.46305380
_cell_formula_units_Z   4
loop_
 _symmetry_equiv_pos_site_id
 _symmetry_equiv_pos_as_xyz
  1  'x, y, z'
loop_
 _atom_site_type_symbol
 _atom_site_label
 _atom_site_symmetry_multiplicity
 _atom_site_fract_x
 _atom_site_fract_y
 _atom_site_fract_z
 _atom_site_occupancy
  Rb  Rb0  1  0.30261900  0.79633600  0.06701400  1
  Rb  Rb1  1  0.69738100  0.20366400  0.93298600  1
  Rb  Rb2  1  0.20366400  0.69738100  0.43298600  1
  Rb  Rb3  1  0.79633600  0.30261900  0.56701400  1
  Rb  Rb4  1  0.46576500  0.84156700  0.35580900  1
  Rb  Rb5  1  0.53423500  0.15843300  0.64419100  1
  Rb  Rb6  1  0.15843300  0.53423500  0.14419100  1
  Rb  Rb7  1  0.84156700  0.46576500  0.85580900  1
  Rb  Rb8  1  0.65093800  0.02550800  0.29941000  1
  Rb  Rb9  1  0.34906200  0.97449200  0.70059000  1
  Rb  Rb10  1  0.97449200  0.34906200  0.20059000  1
  Rb  Rb11  1  0.02550800  0.65093800  0.79941000  1
  Ho  Ho12  1  0.78318900  0.21681100  0.25000000  1
  Ho  Ho13  1  0.21681100  0.78318900  0.75000000  1
  Ho  Ho14  1  0.50000000  0.00000000  0.00000000  1
  Ho  Ho15  1  0.00000000  0.50000000  0.50000000  1
  Cl  Cl16  1  0.62227000  0.72335500  0.08135200  1
  Cl  Cl17  1  0.37773000  0.27664500  0.91864800  1
  Cl  Cl18  1  0.27664500  0.37773000  0.41864800  1
  Cl  Cl19  1  0.72335500  0.62227000  0.58135200  1
  Cl  Cl20  1  0.49616900  0.38664700  0.17968900  1
  Cl  Cl21  1  0.50383100  0.61335300  0.82031100  1
  Cl  Cl22  1  0.61335300  0.50383100  0.32031100  1
  Cl  Cl23  1  0.38664700  0.49616900  0.67968900  1
  Cl  Cl24  1  0.78233200  0.86352000  0.03487400  1
  Cl  Cl25  1  0.21766800  0.13648000  0.96512600  1
  Cl  Cl26  1  0.13648000  0.21766800  0.46512600  1
  Cl  Cl27  1  0.86352000  0.78233200  0.53487400  1
  Cl  Cl28  1  0.91430000  0.96826900  0.69550300  1
  Cl  Cl29  1  0.08570000  0.03173100  0.30449700  1
  Cl  Cl30  1  0.03173100  0.08570000  0.80449700  1
  Cl  Cl31  1  0.96826900  0.91430000  0.19550300  1
  Cl  Cl32  1  0.71721000  0.16687900  0.43445000  1
  Cl  Cl33  1  0.28279000  0.83312100  0.56555000  1
  Cl  Cl34  1  0.83312100  0.28279000  0.06555000  1
  Cl  Cl35  1  0.16687900  0.71721000  0.93445000  1
  Cl  Cl36  1  0.36073800  0.14015700  0.18550300  1
  Cl  Cl37  1  0.63926200  0.85984300  0.81449700  1
  Cl  Cl38  1  0.85984300  0.63926200  0.31449700  1
  Cl  Cl39  1  0.14015700  0.36073800  0.68550300  1
