# generated using pymatgen
data_NaNdSiO4
_symmetry_space_group_name_H-M   'P 1'
_cell_length_a   5.56223900
_cell_length_b   9.37183200
_cell_length_c   21.10564000
_cell_angle_alpha   90.00000000
_cell_angle_beta   90.00000000
_cell_angle_gamma   90.00000000
_symmetry_Int_Tables_number   1
_chemical_formula_structural   NaNdSiO4
_chemical_formula_sum   'Na12 Nd12 Si12 O48'
_cell_volume   1100.20259944
_cell_formula_units_Z   12
loop_
 _symmetry_equiv_pos_site_id
 _symmetry_equiv_pos_as_xyz
  1  'x, y, z'
loop_
 _atom_site_type_symbol
 _atom_site_label
 _atom_site_symmetry_multiplicity
 _atom_site_fract_x
 _atom_site_fract_y
 _atom_site_fract_z
 _atom_site_occupancy
  Na  Na0  1  0.95578400  0.43258100  0.05605200  1
  Na  Na1  1  0.45578400  0.56741900  0.94394800  1
  Na  Na2  1  0.95578400  0.06741900  0.55605200  1
  Na  Na3  1  0.45578400  0.93258100  0.44394800  1
  Na  Na4  1  0.01594500  0.07420700  0.22356800  1
  Na  Na5  1  0.51594500  0.92579300  0.77643200  1
  Na  Na6  1  0.01594500  0.42579300  0.72356800  1
  Na  Na7  1  0.51594500  0.57420700  0.27643200  1
  Na  Na8  1  0.00631800  0.42677700  0.39126200  1
  Na  Na9  1  0.50631800  0.57322300  0.60873800  1
  Na  Na10  1  0.00631800  0.07322300  0.89126200  1
  Na  Na11  1  0.50631800  0.92677700  0.10873800  1
  Nd  Nd12  1  0.52792200  0.30317500  0.16612900  1
  Nd  Nd13  1  0.02792200  0.69682500  0.83387100  1
  Nd  Nd14  1  0.52792200  0.19682500  0.66612900  1
  Nd  Nd15  1  0.02792200  0.80317500  0.33387100  1
  Nd  Nd16  1  0.51085300  0.19916500  0.33253200  1
  Nd  Nd17  1  0.01085300  0.80083500  0.66746800  1
  Nd  Nd18  1  0.51085300  0.30083500  0.83253200  1
  Nd  Nd19  1  0.01085300  0.69916500  0.16746800  1
  Nd  Nd20  1  0.46239300  0.30366400  0.49935900  1
  Nd  Nd21  1  0.96239300  0.69633600  0.50064100  1
  Nd  Nd22  1  0.46239300  0.19633600  0.99935900  1
  Nd  Nd23  1  0.96239300  0.80366400  0.00064100  1
  Si  Si24  1  0.00717400  0.08603800  0.07665400  1
  Si  Si25  1  0.50717400  0.91396200  0.92334600  1
  Si  Si26  1  0.00717400  0.41396200  0.57665400  1
  Si  Si27  1  0.50717400  0.58603800  0.42334600  1
  Si  Si28  1  0.00544200  0.41695000  0.24323700  1
  Si  Si29  1  0.50544200  0.58305000  0.75676300  1
  Si  Si30  1  0.00544200  0.08305000  0.74323700  1
  Si  Si31  1  0.50544200  0.91695000  0.25676300  1
  Si  Si32  1  0.97153400  0.08630100  0.40900100  1
  Si  Si33  1  0.47153400  0.91369900  0.59099900  1
  Si  Si34  1  0.97153400  0.41369900  0.90900100  1
  Si  Si35  1  0.47153400  0.58630100  0.09099900  1
  O  O36  1  0.45022900  0.42977300  0.39122600  1
  O  O37  1  0.95022900  0.57022700  0.60877400  1
  O  O38  1  0.45022900  0.07022700  0.89122600  1
  O  O39  1  0.95022900  0.92977300  0.10877400  1
  O  O40  1  0.07587300  0.44227800  0.50137500  1
  O  O41  1  0.57587300  0.55772200  0.49862500  1
  O  O42  1  0.07587300  0.05772200  0.00137500  1
  O  O43  1  0.57587300  0.94227800  0.99862500  1
  O  O44  1  0.77394000  0.19236600  0.08377800  1
  O  O45  1  0.27394000  0.80763400  0.91622200  1
  O  O46  1  0.77394000  0.30763400  0.58377800  1
  O  O47  1  0.27394000  0.69236600  0.41622200  1
  O  O48  1  0.25388700  0.15833000  0.10603200  1
  O  O49  1  0.75388700  0.84167000  0.89396800  1
  O  O50  1  0.25388700  0.34167000  0.60603200  1
  O  O51  1  0.75388700  0.65833000  0.39396800  1
  O  O52  1  0.56928000  0.07483800  0.22595500  1
  O  O53  1  0.06928000  0.92516200  0.77404500  1
  O  O54  1  0.56928000  0.42516200  0.72595500  1
  O  O55  1  0.06928000  0.57483800  0.27404500  1
  O  O56  1  0.92932500  0.05766100  0.33283200  1
  O  O57  1  0.93384500  0.44032000  0.16784900  1
  O  O58  1  0.93384500  0.05968000  0.66784900  1
  O  O59  1  0.43384500  0.94032000  0.33215100  1
  O  O60  1  0.22986400  0.30445800  0.25295900  1
  O  O61  1  0.72986400  0.69554200  0.74704100  1
  O  O62  1  0.22986400  0.19554200  0.75295900  1
  O  O63  1  0.72986400  0.80445800  0.24704100  1
  O  O64  1  0.75409400  0.35405400  0.27357200  1
  O  O65  1  0.25409400  0.64594600  0.72642800  1
  O  O66  1  0.75409400  0.14594600  0.77357200  1
  O  O67  1  0.25409400  0.85405400  0.22642800  1
  O  O68  1  0.46264800  0.42898800  0.05600300  1
  O  O69  1  0.96264800  0.57101200  0.94399700  1
  O  O70  1  0.46264800  0.07101200  0.55600300  1
  O  O71  1  0.96264800  0.92898800  0.44399700  1
  O  O72  1  0.72986500  0.66461900  0.07687100  1
  O  O73  1  0.22986500  0.33538100  0.92312900  1
  O  O74  1  0.72986500  0.83538100  0.57687100  1
  O  O75  1  0.22986500  0.16461900  0.42312900  1
  O  O76  1  0.24778300  0.68940800  0.06882200  1
  O  O77  1  0.74778300  0.31059200  0.93117800  1
  O  O78  1  0.24778300  0.81059200  0.56882200  1
  O  O79  1  0.74778300  0.18940800  0.43117800  1
  O  O80  1  0.42932500  0.55766100  0.16716800  1
  O  O81  1  0.92932500  0.44233900  0.83283200  1
  O  O82  1  0.42932500  0.94233900  0.66716800  1
  O  O83  1  0.43384500  0.55968000  0.83215100  1
