# generated using pymatgen
data_Nd2CdPd2
_symmetry_space_group_name_H-M   'P 1'
_cell_length_a   7.84139500
_cell_length_b   7.84139500
_cell_length_c   3.95059200
_cell_angle_alpha   90.00000000
_cell_angle_beta   90.00000000
_cell_angle_gamma   90.00000000
_symmetry_Int_Tables_number   1
_chemical_formula_structural   Nd2CdPd2
_chemical_formula_sum   'Nd4 Cd2 Pd4'
_cell_volume   242.91192899
_cell_formula_units_Z   2
loop_
 _symmetry_equiv_pos_site_id
 _symmetry_equiv_pos_as_xyz
  1  'x, y, z'
loop_
 _atom_site_type_symbol
 _atom_site_label
 _atom_site_symmetry_multiplicity
 _atom_site_fract_x
 _atom_site_fract_y
 _atom_site_fract_z
 _atom_site_occupancy
  Nd  Nd0  1  0.67441000  0.17441000  0.50000000  1
  Nd  Nd1  1  0.32559000  0.82559000  0.50000000  1
  Nd  Nd2  1  0.17441000  0.32559000  0.50000000  1
  Nd  Nd3  1  0.82559000  0.67441000  0.50000000  1
  Cd  Cd4  1  0.00000000  0.00000000  0.00000000  1
  Cd  Cd5  1  0.50000000  0.50000000  0.00000000  1
  Pd  Pd6  1  0.12794600  0.62794600  0.00000000  1
  Pd  Pd7  1  0.87205400  0.37205400  0.00000000  1
  Pd  Pd8  1  0.62794600  0.87205400  0.00000000  1
  Pd  Pd9  1  0.37205400  0.12794600  0.00000000  1
