# generated using pymatgen
data_RbNa8(GaP2)3
_symmetry_space_group_name_H-M   'P 1'
_cell_length_a   4.74266600
_cell_length_b   16.48672900
_cell_length_c   22.45069500
_cell_angle_alpha   90.00000000
_cell_angle_beta   90.00000000
_cell_angle_gamma   90.00000000
_symmetry_Int_Tables_number   1
_chemical_formula_structural   RbNa8(GaP2)3
_chemical_formula_sum   'Rb4 Na32 Ga12 P24'
_cell_volume   1755.44339461
_cell_formula_units_Z   4
loop_
 _symmetry_equiv_pos_site_id
 _symmetry_equiv_pos_as_xyz
  1  'x, y, z'
loop_
 _atom_site_type_symbol
 _atom_site_label
 _atom_site_symmetry_multiplicity
 _atom_site_fract_x
 _atom_site_fract_y
 _atom_site_fract_z
 _atom_site_occupancy
  Rb  Rb0  1  0.25000000  0.80803800  0.50048900  1
  Rb  Rb1  1  0.25000000  0.69196200  0.00048900  1
  Rb  Rb2  1  0.75000000  0.19196200  0.49951100  1
  Rb  Rb3  1  0.75000000  0.30803800  0.99951100  1
  Na  Na4  1  0.25000000  0.03253100  0.55199700  1
  Na  Na5  1  0.25000000  0.46746900  0.05199700  1
  Na  Na6  1  0.75000000  0.96746900  0.44800300  1
  Na  Na7  1  0.75000000  0.53253100  0.94800300  1
  Na  Na8  1  0.25000000  0.35095700  0.55664300  1
  Na  Na9  1  0.25000000  0.14904300  0.05664300  1
  Na  Na10  1  0.75000000  0.64904300  0.44335700  1
  Na  Na11  1  0.75000000  0.85095700  0.94335700  1
  Na  Na12  1  0.25000000  0.92206900  0.68089600  1
  Na  Na13  1  0.25000000  0.57793100  0.18089600  1
  Na  Na14  1  0.75000000  0.07793100  0.31910400  1
  Na  Na15  1  0.75000000  0.42206900  0.81910400  1
  Na  Na16  1  0.25000000  0.69267500  0.68086500  1
  Na  Na17  1  0.25000000  0.80732500  0.18086500  1
  Na  Na18  1  0.75000000  0.30732500  0.31913500  1
  Na  Na19  1  0.75000000  0.19267500  0.81913500  1
  Na  Na20  1  0.25000000  0.45643000  0.69212400  1
  Na  Na21  1  0.25000000  0.04357000  0.19212400  1
  Na  Na22  1  0.75000000  0.54357000  0.30787600  1
  Na  Na23  1  0.75000000  0.95643000  0.80787600  1
  Na  Na24  1  0.25000000  0.80013000  0.83706100  1
  Na  Na25  1  0.25000000  0.69987000  0.33706100  1
  Na  Na26  1  0.75000000  0.19987000  0.16293900  1
  Na  Na27  1  0.75000000  0.30013000  0.66293900  1
  Na  Na28  1  0.25000000  0.58011800  0.84068800  1
  Na  Na29  1  0.25000000  0.91988200  0.34068800  1
  Na  Na30  1  0.75000000  0.41988200  0.15931200  1
  Na  Na31  1  0.75000000  0.08011800  0.65931200  1
  Na  Na32  1  0.25000000  0.94324500  0.03941100  1
  Na  Na33  1  0.25000000  0.55675500  0.53941100  1
  Na  Na34  1  0.75000000  0.05675500  0.96058900  1
  Na  Na35  1  0.75000000  0.44324500  0.46058900  1
  Ga  Ga36  1  0.25000000  0.19083100  0.71641600  1
  Ga  Ga37  1  0.25000000  0.30916900  0.21641600  1
  Ga  Ga38  1  0.75000000  0.80916900  0.28358400  1
  Ga  Ga39  1  0.75000000  0.69083100  0.78358400  1
  Ga  Ga40  1  0.25000000  0.06924300  0.86454900  1
  Ga  Ga41  1  0.25000000  0.43075700  0.36454900  1
  Ga  Ga42  1  0.75000000  0.93075700  0.13545100  1
  Ga  Ga43  1  0.75000000  0.56924300  0.63545100  1
  Ga  Ga44  1  0.25000000  0.30935900  0.87287100  1
  Ga  Ga45  1  0.25000000  0.19064100  0.37287100  1
  Ga  Ga46  1  0.75000000  0.69064100  0.12712900  1
  Ga  Ga47  1  0.75000000  0.80935900  0.62712900  1
  P  P48  1  0.25000000  0.19202900  0.61554600  1
  P  P49  1  0.25000000  0.30797100  0.11554600  1
  P  P50  1  0.75000000  0.80797100  0.38445400  1
  P  P51  1  0.75000000  0.69202900  0.88445400  1
  P  P52  1  0.25000000  0.06431400  0.76150400  1
  P  P53  1  0.25000000  0.43568600  0.26150400  1
  P  P54  1  0.75000000  0.93568600  0.23849600  1
  P  P55  1  0.75000000  0.56431400  0.73849600  1
  P  P56  1  0.25000000  0.31312000  0.76836700  1
  P  P57  1  0.25000000  0.18688000  0.26836700  1
  P  P58  1  0.75000000  0.68688000  0.23163300  1
  P  P59  1  0.75000000  0.81312000  0.73163300  1
  P  P60  1  0.25000000  0.94560600  0.91023100  1
  P  P61  1  0.25000000  0.55439400  0.41023100  1
  P  P62  1  0.75000000  0.05439400  0.08976900  1
  P  P63  1  0.75000000  0.44560600  0.58976900  1
  P  P64  1  0.25000000  0.43418600  0.91708300  1
  P  P65  1  0.25000000  0.06581400  0.41708300  1
  P  P66  1  0.75000000  0.56581400  0.08291700  1
  P  P67  1  0.75000000  0.93418600  0.58291700  1
  P  P68  1  0.25000000  0.18466600  0.92387100  1
  P  P69  1  0.25000000  0.31533400  0.42387100  1
  P  P70  1  0.75000000  0.81533400  0.07612900  1
  P  P71  1  0.75000000  0.68466600  0.57612900  1
