# generated using pymatgen
data_LaP5
_symmetry_space_group_name_H-M   'P 1'
_cell_length_a   9.73887200
_cell_length_b   5.61140700
_cell_length_c   9.83017614
_cell_angle_alpha   74.61553312
_cell_angle_beta   90.00000000
_cell_angle_gamma   90.00000000
_symmetry_Int_Tables_number   1
_chemical_formula_structural   LaP5
_chemical_formula_sum   'La4 P20'
_cell_volume   517.95753266
_cell_formula_units_Z   4
loop_
 _symmetry_equiv_pos_site_id
 _symmetry_equiv_pos_as_xyz
  1  'x, y, z'
loop_
 _atom_site_type_symbol
 _atom_site_label
 _atom_site_symmetry_multiplicity
 _atom_site_fract_x
 _atom_site_fract_y
 _atom_site_fract_z
 _atom_site_occupancy
  La  La0  1  0.75000000  0.63835000  0.51298500  1
  La  La1  1  0.75000000  0.61013100  0.03491100  1
  La  La2  1  0.25000000  0.38986900  0.96508900  1
  La  La3  1  0.25000000  0.36165000  0.48701500  1
  P  P4  1  0.59442700  0.02561100  0.81106400  1
  P  P5  1  0.09442700  0.97438900  0.18893600  1
  P  P6  1  0.90557300  0.02561100  0.81106400  1
  P  P7  1  0.03877600  0.58873200  0.65649700  1
  P  P8  1  0.46122400  0.58873200  0.65649700  1
  P  P9  1  0.53877600  0.41126800  0.34350300  1
  P  P10  1  0.41432700  0.95041900  0.68953100  1
  P  P11  1  0.45548500  0.62984000  0.13730500  1
  P  P12  1  0.95548500  0.37016000  0.86269500  1
  P  P13  1  0.40557300  0.97438900  0.18893600  1
  P  P14  1  0.91432700  0.04958100  0.31046900  1
  P  P15  1  0.54451500  0.37016000  0.86269500  1
  P  P16  1  0.75000000  0.05731900  0.15177000  1
  P  P17  1  0.75000000  0.08330800  0.63932000  1
  P  P18  1  0.96122400  0.41126800  0.34350300  1
  P  P19  1  0.25000000  0.94268100  0.84823000  1
  P  P20  1  0.04451500  0.62984000  0.13730500  1
  P  P21  1  0.08567300  0.95041900  0.68953100  1
  P  P22  1  0.58567300  0.04958100  0.31046900  1
  P  P23  1  0.25000000  0.91669200  0.36068000  1
