# generated using pymatgen
data_Hf3N2
_symmetry_space_group_name_H-M   'P 1'
_cell_length_a   8.00631620
_cell_length_b   8.00631620
_cell_length_c   8.00631665
_cell_angle_alpha   23.19574058
_cell_angle_beta   23.19574058
_cell_angle_gamma   23.19574210
_symmetry_Int_Tables_number   1
_chemical_formula_structural   Hf3N2
_chemical_formula_sum   'Hf3 N2'
_cell_volume   69.89258644
_cell_formula_units_Z   1
loop_
 _symmetry_equiv_pos_site_id
 _symmetry_equiv_pos_as_xyz
  1  'x, y, z'
loop_
 _atom_site_type_symbol
 _atom_site_label
 _atom_site_symmetry_multiplicity
 _atom_site_fract_x
 _atom_site_fract_y
 _atom_site_fract_z
 _atom_site_occupancy
  Hf  Hf0  1  0.77910500  0.77910500  0.77910500  1
  Hf  Hf1  1  0.22089500  0.22089500  0.22089500  1
  Hf  Hf2  1  0.00000000  0.00000000  0.00000000  1
  N  N3  1  0.61158200  0.61158200  0.61158200  1
  N  N4  1  0.38841800  0.38841800  0.38841800  1
