# generated using pymatgen
data_LuCo5Si3
_symmetry_space_group_name_H-M   'P 1'
_cell_length_a   3.64652100
_cell_length_b   14.67943867
_cell_length_c   14.67943867
_cell_angle_alpha   120.00000304
_cell_angle_beta   90.00000000
_cell_angle_gamma   90.00000000
_symmetry_Int_Tables_number   1
_chemical_formula_structural   LuCo5Si3
_chemical_formula_sum   'Lu6 Co30 Si18'
_cell_volume   680.50016567
_cell_formula_units_Z   6
loop_
 _symmetry_equiv_pos_site_id
 _symmetry_equiv_pos_as_xyz
  1  'x, y, z'
loop_
 _atom_site_type_symbol
 _atom_site_label
 _atom_site_symmetry_multiplicity
 _atom_site_fract_x
 _atom_site_fract_y
 _atom_site_fract_z
 _atom_site_occupancy
  Lu  Lu0  1  0.75000000  0.70637800  0.10075900  1
  Lu  Lu1  1  0.25000000  0.29362200  0.89924100  1
  Lu  Lu2  1  0.75000000  0.39438100  0.29362200  1
  Lu  Lu3  1  0.25000000  0.60561900  0.70637800  1
  Lu  Lu4  1  0.75000000  0.89924100  0.60561900  1
  Lu  Lu5  1  0.25000000  0.10075900  0.39438100  1
  Co  Co6  1  0.75000000  0.58641900  0.85190600  1
  Co  Co7  1  0.25000000  0.41358100  0.14809400  1
  Co  Co8  1  0.75000000  0.26548800  0.41358100  1
  Co  Co9  1  0.25000000  0.73451200  0.58641900  1
  Co  Co10  1  0.75000000  0.14809400  0.73451200  1
  Co  Co11  1  0.25000000  0.85190600  0.26548800  1
  Co  Co12  1  0.75000000  0.45977100  0.53416900  1
  Co  Co13  1  0.25000000  0.54022900  0.46583100  1
  Co  Co14  1  0.75000000  0.07439800  0.54022900  1
  Co  Co15  1  0.25000000  0.92560200  0.45977100  1
  Co  Co16  1  0.75000000  0.46583100  0.92560200  1
  Co  Co17  1  0.25000000  0.53416900  0.07439800  1
  Co  Co18  1  0.75000000  0.89798900  0.02872900  1
  Co  Co19  1  0.25000000  0.10201100  0.97127100  1
  Co  Co20  1  0.75000000  0.13074000  0.10201100  1
  Co  Co21  1  0.25000000  0.86926000  0.89798900  1
  Co  Co22  1  0.75000000  0.97127100  0.86926000  1
  Co  Co23  1  0.25000000  0.02872900  0.13074000  1
  Co  Co24  1  0.75000000  0.77530800  0.34756000  1
  Co  Co25  1  0.25000000  0.22469200  0.65244000  1
  Co  Co26  1  0.75000000  0.57225300  0.22469200  1
  Co  Co27  1  0.25000000  0.42774700  0.77530800  1
  Co  Co28  1  0.75000000  0.65244000  0.42774700  1
  Co  Co29  1  0.25000000  0.34756000  0.57225300  1
  Co  Co30  1  0.75000000  0.95181400  0.21966200  1
  Co  Co31  1  0.25000000  0.04818600  0.78033800  1
  Co  Co32  1  0.75000000  0.26784800  0.04818600  1
  Co  Co33  1  0.25000000  0.73215200  0.95181400  1
  Co  Co34  1  0.75000000  0.78033800  0.73215200  1
  Co  Co35  1  0.25000000  0.21966200  0.26784800  1
  Si  Si36  1  0.75000000  0.44384900  0.68211400  1
  Si  Si37  1  0.25000000  0.55615100  0.31788600  1
  Si  Si38  1  0.75000000  0.23826500  0.55615100  1
  Si  Si39  1  0.25000000  0.76173500  0.44384900  1
  Si  Si40  1  0.75000000  0.31788600  0.76173500  1
  Si  Si41  1  0.25000000  0.68211400  0.23826500  1
  Si  Si42  1  0.75000000  0.75076900  0.86923900  1
  Si  Si43  1  0.25000000  0.24923100  0.13076100  1
  Si  Si44  1  0.75000000  0.11847000  0.24923100  1
  Si  Si45  1  0.25000000  0.88153000  0.75076900  1
  Si  Si46  1  0.75000000  0.13076100  0.88153000  1
  Si  Si47  1  0.25000000  0.86923900  0.11847000  1
  Si  Si48  1  0.75000000  0.93889800  0.37020100  1
  Si  Si49  1  0.25000000  0.06110200  0.62979900  1
  Si  Si50  1  0.75000000  0.43130300  0.06110200  1
  Si  Si51  1  0.25000000  0.56869700  0.93889800  1
  Si  Si52  1  0.75000000  0.62979900  0.56869700  1
  Si  Si53  1  0.25000000  0.37020100  0.43130300  1
