# generated using pymatgen
data_TaNbMo
_symmetry_space_group_name_H-M   'P 1'
_cell_length_a   7.22802675
_cell_length_b   7.02610679
_cell_length_c   2.85763245
_cell_angle_alpha   82.43314499
_cell_angle_beta   74.49335504
_cell_angle_gamma   23.07349996
_symmetry_Int_Tables_number   1
_chemical_formula_structural   TaNbMo
_chemical_formula_sum   'Ta1 Nb1 Mo1'
_cell_volume   52.23606388
_cell_formula_units_Z   1
loop_
 _symmetry_equiv_pos_site_id
 _symmetry_equiv_pos_as_xyz
  1  'x, y, z'
loop_
 _atom_site_type_symbol
 _atom_site_label
 _atom_site_symmetry_multiplicity
 _atom_site_fract_x
 _atom_site_fract_y
 _atom_site_fract_z
 _atom_site_occupancy
  Ta  Ta0  1  0.66183100  0.66183100  0.33816900  1
  Nb  Nb1  1  0.33755000  0.33755000  0.66245000  1
  Mo  Mo2  1  0.00062100  0.00062100  0.99937900  1
