# generated using pymatgen
data_Y2CrSbO7
_symmetry_space_group_name_H-M   'P 1'
_cell_length_a   7.28946904
_cell_length_b   7.26155531
_cell_length_c   7.34613518
_cell_angle_alpha   90.00001103
_cell_angle_beta   59.74255806
_cell_angle_gamma   119.87351672
_symmetry_Int_Tables_number   1
_chemical_formula_structural   Y2CrSbO7
_chemical_formula_sum   'Y4 Cr2 Sb2 O14'
_cell_volume   274.41174502
_cell_formula_units_Z   2
loop_
 _symmetry_equiv_pos_site_id
 _symmetry_equiv_pos_as_xyz
  1  'x, y, z'
loop_
 _atom_site_type_symbol
 _atom_site_label
 _atom_site_symmetry_multiplicity
 _atom_site_fract_x
 _atom_site_fract_y
 _atom_site_fract_z
 _atom_site_occupancy
  Y  Y0  1  0.50000100  0.50000000  0.00000000  1
  Y  Y1  1  0.50000100  0.00000000  0.00000000  1
  Y  Y2  1  0.00000000  0.00000000  0.50000000  1
  Y  Y3  1  0.00000000  0.00000000  0.00000000  1
  Cr  Cr4  1  0.49998800  0.99999700  0.50000800  1
  Cr  Cr5  1  0.50000000  0.50000100  0.50000100  1
  Sb  Sb6  1  0.00000100  0.50000000  0.99999900  1
  Sb  Sb7  1  0.00000100  0.50000000  0.50000000  1
  O  O8  1  0.25532100  0.12765900  0.12233800  1
  O  O9  1  0.74467900  0.87234000  0.87766100  1
  O  O10  1  0.67981200  0.83990500  0.41009800  1
  O  O11  1  0.83733900  0.41866900  0.83133300  1
  O  O12  1  0.25204300  0.83102500  0.83646900  1
  O  O13  1  0.25204600  0.42101900  0.41148500  1
  O  O14  1  0.25204300  0.42101700  0.83646800  1
  O  O15  1  0.25204500  0.83102800  0.41148600  1
  O  O16  1  0.32019000  0.16009600  0.58990100  1
  O  O17  1  0.16266300  0.58133100  0.16866600  1
  O  O18  1  0.74795900  0.16897500  0.16353000  1
  O  O19  1  0.74795500  0.57898200  0.58851400  1
  O  O20  1  0.74795800  0.57898300  0.16353100  1
  O  O21  1  0.74795600  0.16897200  0.58851400  1
