# generated using pymatgen
data_Rb4Zn(MoO4)3
_symmetry_space_group_name_H-M   'P 1'
_cell_length_a   11.14163198
_cell_length_b   12.79304449
_cell_length_c   22.74037404
_cell_angle_alpha   90.00000000
_cell_angle_beta   90.00000000
_cell_angle_gamma   90.00000000
_symmetry_Int_Tables_number   1
_chemical_formula_structural   Rb4Zn(MoO4)3
_chemical_formula_sum   'Rb32 Zn8 Mo24 O96'
_cell_volume   3241.30816466
_cell_formula_units_Z   8
loop_
 _symmetry_equiv_pos_site_id
 _symmetry_equiv_pos_as_xyz
  1  'x, y, z'
loop_
 _atom_site_type_symbol
 _atom_site_label
 _atom_site_symmetry_multiplicity
 _atom_site_fract_x
 _atom_site_fract_y
 _atom_site_fract_z
 _atom_site_occupancy
  Rb  Rb0  1  0.91856056  0.62710574  0.97180165  1
  Rb  Rb1  1  0.08143944  0.37289426  0.02819835  1
  Rb  Rb2  1  0.58143944  0.12710574  0.02819835  1
  Rb  Rb3  1  0.08143944  0.87289426  0.47180165  1
  Rb  Rb4  1  0.41856056  0.87289426  0.97180165  1
  Rb  Rb5  1  0.91856056  0.12710574  0.52819835  1
  Rb  Rb6  1  0.41856056  0.37289426  0.52819835  1
  Rb  Rb7  1  0.58143944  0.62710574  0.47180165  1
  Rb  Rb8  1  0.57002650  0.60545491  0.66043882  1
  Rb  Rb9  1  0.42997350  0.39454509  0.33956118  1
  Rb  Rb10  1  0.92997350  0.10545491  0.33956118  1
  Rb  Rb11  1  0.42997350  0.89454509  0.16043882  1
  Rb  Rb12  1  0.07002650  0.89454509  0.66043882  1
  Rb  Rb13  1  0.57002650  0.10545491  0.83956118  1
  Rb  Rb14  1  0.07002650  0.39454509  0.83956118  1
  Rb  Rb15  1  0.92997350  0.60545491  0.16043882  1
  Rb  Rb16  1  0.59885627  0.62438148  0.84274690  1
  Rb  Rb17  1  0.40114373  0.37561852  0.15725310  1
  Rb  Rb18  1  0.90114373  0.12438148  0.15725310  1
  Rb  Rb19  1  0.40114373  0.87561852  0.34274690  1
  Rb  Rb20  1  0.09885627  0.87561852  0.84274690  1
  Rb  Rb21  1  0.59885627  0.12438148  0.65725310  1
  Rb  Rb22  1  0.09885627  0.37561852  0.65725310  1
  Rb  Rb23  1  0.90114373  0.62438148  0.34274690  1
  Rb  Rb24  1  0.91557626  0.62427509  0.53138916  1
  Rb  Rb25  1  0.08442374  0.37572491  0.46861084  1
  Rb  Rb26  1  0.58442374  0.12427509  0.46861084  1
  Rb  Rb27  1  0.08442374  0.87572491  0.03138916  1
  Rb  Rb28  1  0.41557626  0.87572491  0.53138916  1
  Rb  Rb29  1  0.91557626  0.12427509  0.96861084  1
  Rb  Rb30  1  0.41557626  0.37572491  0.96861084  1
  Rb  Rb31  1  0.58442374  0.62427509  0.03138916  1
  Zn  Zn32  1  0.71706113  0.82022786  0.74584552  1
  Zn  Zn33  1  0.28293887  0.17977214  0.25415448  1
  Zn  Zn34  1  0.78293887  0.32022786  0.25415448  1
  Zn  Zn35  1  0.28293887  0.67977214  0.24584552  1
  Zn  Zn36  1  0.21706113  0.67977214  0.74584552  1
  Zn  Zn37  1  0.71706113  0.32022786  0.75415448  1
  Zn  Zn38  1  0.21706113  0.17977214  0.75415448  1
  Zn  Zn39  1  0.78293887  0.82022786  0.24584552  1
  Mo  Mo40  1  0.92226972  0.62574054  0.76591341  1
  Mo  Mo41  1  0.07773028  0.37425946  0.23408659  1
  Mo  Mo42  1  0.57773028  0.12574054  0.23408659  1
  Mo  Mo43  1  0.07773028  0.87425946  0.26591341  1
  Mo  Mo44  1  0.42226972  0.87425946  0.76591341  1
  Mo  Mo45  1  0.92226972  0.12574054  0.73408659  1
  Mo  Mo46  1  0.42226972  0.37425946  0.73408659  1
  Mo  Mo47  1  0.57773028  0.62574054  0.26591341  1
  Mo  Mo48  1  0.74719196  0.87658665  0.59455595  1
  Mo  Mo49  1  0.25280804  0.12341335  0.40544405  1
  Mo  Mo50  1  0.75280804  0.37658665  0.40544405  1
  Mo  Mo51  1  0.25280804  0.62341335  0.09455595  1
  Mo  Mo52  1  0.24719196  0.62341335  0.59455595  1
  Mo  Mo53  1  0.74719196  0.37658665  0.90544405  1
  Mo  Mo54  1  0.24719196  0.12341335  0.90544405  1
  Mo  Mo55  1  0.75280804  0.87658665  0.09455595  1
  Mo  Mo56  1  0.75403514  0.87287858  0.90669761  1
  Mo  Mo57  1  0.24596486  0.12712142  0.09330239  1
  Mo  Mo58  1  0.74596486  0.37287858  0.09330239  1
  Mo  Mo59  1  0.24596486  0.62712142  0.40669761  1
  Mo  Mo60  1  0.25403514  0.62712142  0.90669761  1
  Mo  Mo61  1  0.75403514  0.37287858  0.59330239  1
  Mo  Mo62  1  0.25403514  0.12712142  0.59330239  1
  Mo  Mo63  1  0.74596486  0.87287858  0.40669761  1
  O  O64  1  0.66811093  0.75941814  0.57708776  1
  O  O65  1  0.33188907  0.24058186  0.42291224  1
  O  O66  1  0.83188907  0.25941814  0.42291224  1
  O  O67  1  0.33188907  0.74058186  0.07708776  1
  O  O68  1  0.16811093  0.74058186  0.57708776  1
  O  O69  1  0.66811093  0.25941814  0.92291224  1
  O  O70  1  0.16811093  0.24058186  0.92291224  1
  O  O71  1  0.83188907  0.75941814  0.07708776  1
  O  O72  1  0.89677067  0.86823776  0.56677629  1
  O  O73  1  0.10322933  0.13176224  0.43322371  1
  O  O74  1  0.60322933  0.36823776  0.43322371  1
  O  O75  1  0.10322933  0.63176224  0.06677629  1
  O  O76  1  0.39677067  0.63176224  0.56677629  1
  O  O77  1  0.89677067  0.36823776  0.93322371  1
  O  O78  1  0.39677067  0.13176224  0.93322371  1
  O  O79  1  0.60322933  0.86823776  0.06677629  1
  O  O80  1  0.91738450  0.61656623  0.84354452  1
  O  O81  1  0.08261550  0.38343377  0.15645548  1
  O  O82  1  0.58261550  0.11656623  0.15645548  1
  O  O83  1  0.08261550  0.88343377  0.34354452  1
  O  O84  1  0.41738450  0.88343377  0.84354452  1
  O  O85  1  0.91738450  0.11656623  0.65645548  1
  O  O86  1  0.41738450  0.38343377  0.65645548  1
  O  O87  1  0.58261550  0.61656623  0.34354452  1
  O  O88  1  0.77645292  0.67123238  0.73794736  1
  O  O89  1  0.22354708  0.32876762  0.26205264  1
  O  O90  1  0.72354708  0.17123238  0.26205264  1
  O  O91  1  0.22354708  0.82876762  0.23794736  1
  O  O92  1  0.27645292  0.82876762  0.73794736  1
  O  O93  1  0.77645292  0.17123238  0.76205264  1
  O  O94  1  0.27645292  0.32876762  0.76205264  1
  O  O95  1  0.72354708  0.67123238  0.23794736  1
  O  O96  1  0.68451294  0.75917549  0.93762611  1
  O  O97  1  0.31548706  0.24082451  0.06237389  1
  O  O98  1  0.81548706  0.25917549  0.06237389  1
  O  O99  1  0.31548706  0.74082451  0.43762611  1
  O  O100  1  0.18451294  0.74082451  0.93762611  1
  O  O101  1  0.68451294  0.25917549  0.56237389  1
  O  O102  1  0.18451294  0.24082451  0.56237389  1
  O  O103  1  0.81548706  0.75917549  0.43762611  1
  O  O104  1  0.75219654  0.89741619  0.67500667  1
  O  O105  1  0.24780346  0.10258381  0.32499333  1
  O  O106  1  0.74780346  0.39741619  0.32499333  1
  O  O107  1  0.24780346  0.60258381  0.17500667  1
  O  O108  1  0.25219654  0.60258381  0.67500667  1
  O  O109  1  0.75219654  0.39741619  0.82499333  1
  O  O110  1  0.25219654  0.10258381  0.82499333  1
  O  O111  1  0.74780346  0.89741619  0.17500667  1
  O  O112  1  0.67002440  0.98500390  0.56204204  1
  O  O113  1  0.32997560  0.01499610  0.43795796  1
  O  O114  1  0.82997560  0.48500390  0.43795796  1
  O  O115  1  0.32997560  0.51499610  0.06204204  1
  O  O116  1  0.17002440  0.51499610  0.56204204  1
  O  O117  1  0.67002440  0.48500390  0.93795796  1
  O  O118  1  0.17002440  0.01499610  0.93795796  1
  O  O119  1  0.82997560  0.98500390  0.06204204  1
  O  O120  1  0.90766736  0.87714663  0.92962143  1
  O  O121  1  0.09233264  0.12285337  0.07037857  1
  O  O122  1  0.59233264  0.37714663  0.07037857  1
  O  O123  1  0.09233264  0.62285337  0.42962143  1
  O  O124  1  0.40766736  0.62285337  0.92962143  1
  O  O125  1  0.90766736  0.37714663  0.57037857  1
  O  O126  1  0.40766736  0.12285337  0.57037857  1
  O  O127  1  0.59233264  0.87714663  0.42962143  1
  O  O128  1  0.68039421  0.98745851  0.93312251  1
  O  O129  1  0.31960579  0.01254149  0.06687749  1
  O  O130  1  0.81960579  0.48745851  0.06687749  1
  O  O131  1  0.31960579  0.51254149  0.43312251  1
  O  O132  1  0.18039421  0.51254149  0.93312251  1
  O  O133  1  0.68039421  0.48745851  0.56687749  1
  O  O134  1  0.18039421  0.01254149  0.56687749  1
  O  O135  1  0.81960579  0.98745851  0.43312251  1
  O  O136  1  0.74271301  0.86864075  0.82602179  1
  O  O137  1  0.25728699  0.13135925  0.17397821  1
  O  O138  1  0.75728699  0.36864075  0.17397821  1
  O  O139  1  0.25728699  0.63135925  0.32602179  1
  O  O140  1  0.24271301  0.63135925  0.82602179  1
  O  O141  1  0.74271301  0.36864075  0.67397821  1
  O  O142  1  0.24271301  0.13135925  0.67397821  1
  O  O143  1  0.75728699  0.86864075  0.32602179  1
  O  O144  1  0.96148149  0.50164211  0.73719720  1
  O  O145  1  0.03851851  0.49835789  0.26280280  1
  O  O146  1  0.53851851  0.00164211  0.26280280  1
  O  O147  1  0.03851851  0.99835789  0.23719720  1
  O  O148  1  0.46148149  0.99835789  0.73719720  1
  O  O149  1  0.96148149  0.00164211  0.76280280  1
  O  O150  1  0.46148149  0.49835789  0.76280280  1
  O  O151  1  0.53851851  0.50164211  0.23719720  1
  O  O152  1  0.54022072  0.78141853  0.74532673  1
  O  O153  1  0.45977928  0.21858147  0.25467327  1
  O  O154  1  0.95977928  0.28141853  0.25467327  1
  O  O155  1  0.45977928  0.71858147  0.24532673  1
  O  O156  1  0.04022072  0.71858147  0.74532673  1
  O  O157  1  0.54022072  0.28141853  0.75467327  1
  O  O158  1  0.04022072  0.21858147  0.75467327  1
  O  O159  1  0.95977928  0.78141853  0.24532673  1
