# generated using pymatgen
data_Na3Mo4P5O24
_symmetry_space_group_name_H-M   'P 1'
_cell_length_a   8.64756500
_cell_length_b   9.57358947
_cell_length_c   14.18902885
_cell_angle_alpha   93.18197141
_cell_angle_beta   72.25825201
_cell_angle_gamma   116.84872570
_symmetry_Int_Tables_number   1
_chemical_formula_structural   Na3Mo4P5O24
_chemical_formula_sum   'Na6 Mo8 P10 O48'
_cell_volume   993.53836288
_cell_formula_units_Z   2
loop_
 _symmetry_equiv_pos_site_id
 _symmetry_equiv_pos_as_xyz
  1  'x, y, z'
loop_
 _atom_site_type_symbol
 _atom_site_label
 _atom_site_symmetry_multiplicity
 _atom_site_fract_x
 _atom_site_fract_y
 _atom_site_fract_z
 _atom_site_occupancy
  Na  Na0  1  0.30238900  0.02319200  0.73080900  1
  Na  Na1  1  0.01581700  0.47766100  0.76703500  1
  Na  Na2  1  0.69480900  0.97766100  0.26703500  1
  Na  Na3  1  0.98999400  0.52319200  0.23080900  1
  Na  Na4  1  0.54156900  0.46328400  0.92698100  1
  Na  Na5  1  0.99473400  0.96328400  0.42698100  1
  Mo  Mo6  1  0.46821200  0.49086700  0.67936300  1
  Mo  Mo7  1  0.66102500  0.00935300  0.81912800  1
  Mo  Mo8  1  0.52920000  0.50935300  0.31912800  1
  Mo  Mo9  1  0.34329200  0.99086700  0.17936300  1
  Mo  Mo10  1  0.81061200  0.22198100  0.48393800  1
  Mo  Mo11  1  0.07200400  0.27997500  0.01813600  1
  Mo  Mo12  1  0.18983500  0.77997500  0.51813600  1
  Mo  Mo13  1  0.92743100  0.72198100  0.98393800  1
  P  P14  1  0.85162900  0.74948300  0.75001800  1
  P  P15  1  0.14783600  0.24948300  0.25001800  1
  P  P16  1  0.19512100  0.44247300  0.54069000  1
  P  P17  1  0.29467000  0.05722800  0.95836700  1
  P  P18  1  0.80419100  0.55722800  0.45836700  1
  P  P19  1  0.70666100  0.94247300  0.04069000  1
  P  P20  1  0.55830800  0.87377300  0.60426600  1
  P  P21  1  0.28803100  0.62720700  0.89533900  1
  P  P22  1  0.44383600  0.12720700  0.39533900  1
  P  P23  1  0.71119900  0.37377300  0.10426600  1
  O  O24  1  0.24466300  0.40232800  0.62796600  1
  O  O25  1  0.47277700  0.10013900  0.87186900  1
  O  O26  1  0.75549300  0.60013900  0.37186900  1
  O  O27  1  0.52969900  0.90232800  0.12796600  1
  O  O28  1  0.05104300  0.28951100  0.51521300  1
  O  O29  1  0.28153100  0.21295300  0.98250700  1
  O  O30  1  0.94891500  0.71295300  0.48250700  1
  O  O31  1  0.72325500  0.78951100  0.01521300  1
  O  O32  1  0.68885300  0.60625000  0.73018500  1
  O  O33  1  0.81165400  0.89076000  0.77315700  1
  O  O34  1  0.30594900  0.39076000  0.27315700  1
  O  O35  1  0.18721200  0.10625000  0.23018500  1
  O  O36  1  0.60984600  0.12820900  0.41672000  1
  O  O37  1  0.89750300  0.37229800  0.08369500  1
  O  O38  1  0.39110000  0.87229800  0.58369500  1
  O  O39  1  0.10164400  0.62820900  0.91672000  1
  O  O40  1  0.55180700  0.71258500  0.60450900  1
  O  O41  1  0.44271600  0.78823600  0.89483000  1
  O  O42  1  0.45069000  0.28823600  0.39483000  1
  O  O43  1  0.55626900  0.21258500  0.10450900  1
  O  O44  1  0.63442400  0.47376300  0.54853900  1
  O  O45  1  0.70815300  0.02604300  0.95132000  1
  O  O46  1  0.36657000  0.52604300  0.45132000  1
  O  O47  1  0.29080000  0.97376300  0.04853900  1
  O  O48  1  0.40287700  0.30942100  0.73591300  1
  O  O49  1  0.82753800  0.19389700  0.76589600  1
  O  O50  1  0.60046200  0.69389700  0.26589600  1
  O  O51  1  0.17063100  0.80942100  0.23591300  1
  O  O52  1  0.96799700  0.18573700  0.33956200  1
  O  O53  1  0.11327000  0.30669800  0.16230200  1
  O  O54  1  0.03112600  0.80669800  0.66230200  1
  O  O55  1  0.87817800  0.68573700  0.83956200  1
  O  O56  1  0.73898100  0.98591900  0.52288600  1
  O  O57  1  0.28003900  0.51273300  0.97350400  1
  O  O58  1  0.25919000  0.01273300  0.47350400  1
  O  O59  1  0.72405300  0.48591900  0.02288600  1
  O  O60  1  0.89185900  0.44461600  0.42053000  1
  O  O61  1  0.86776500  0.05609700  0.07955900  1
  O  O62  1  0.10877200  0.55609700  0.57955900  1
  O  O63  1  0.13222600  0.94461600  0.92053000  1
  O  O64  1  0.31243800  0.56142800  0.79173900  1
  O  O65  1  0.54501500  0.93946400  0.70738700  1
  O  O66  1  0.68706200  0.43946400  0.20738700  1
  O  O67  1  0.45725200  0.06142800  0.29173900  1
  O  O68  1  0.68753000  0.23852700  0.59909800  1
  O  O69  1  0.04755200  0.26001000  0.90274300  1
  O  O70  1  0.30971600  0.76001000  0.40274300  1
  O  O71  1  0.95189800  0.73852700  0.09909800  1
