# generated using pymatgen
data_Mn(Ni3O4)2
_symmetry_space_group_name_H-M   'P 1'
_cell_length_a   5.93840341
_cell_length_b   5.94663750
_cell_length_c   5.93844594
_cell_angle_alpha   120.04624353
_cell_angle_beta   119.90868293
_cell_angle_gamma   89.99948179
_symmetry_Int_Tables_number   1
_chemical_formula_structural   Mn(Ni3O4)2
_chemical_formula_sum   'Mn1 Ni6 O8'
_cell_volume   148.38702067
_cell_formula_units_Z   1
loop_
 _symmetry_equiv_pos_site_id
 _symmetry_equiv_pos_as_xyz
  1  'x, y, z'
loop_
 _atom_site_type_symbol
 _atom_site_label
 _atom_site_symmetry_multiplicity
 _atom_site_fract_x
 _atom_site_fract_y
 _atom_site_fract_z
 _atom_site_occupancy
  Mn  Mn0  1  0.99999900  0.99999900  0.99999900  1
  Ni  Ni1  1  0.00000000  0.50000000  0.00000100  1
  Ni  Ni2  1  0.49999900  0.50000000  0.50000000  1
  Ni  Ni3  1  0.50000000  0.00000100  0.50000100  1
  Ni  Ni4  1  0.00000000  0.49999900  0.49999900  1
  Ni  Ni5  1  0.50000100  0.00000100  0.00000100  1
  Ni  Ni6  1  0.00000100  0.00000100  0.50000000  1
  O  O7  1  0.25017200  0.74982800  0.49965600  1
  O  O8  1  0.74982800  0.25017200  0.50034500  1
  O  O9  1  0.77033400  0.77020300  0.99986900  1
  O  O10  1  0.22979600  0.22966500  0.45933000  1
  O  O11  1  0.77020200  0.77033400  0.54066800  1
  O  O12  1  0.22966500  0.77033500  0.00013000  1
  O  O13  1  0.77033500  0.22966500  0.99987000  1
  O  O14  1  0.22966500  0.22979700  0.00013100  1
