# generated using pymatgen
data_Hf2Co
_symmetry_space_group_name_H-M   'P 1'
_cell_length_a   8.49719754
_cell_length_b   8.49719754
_cell_length_c   8.49719754
_cell_angle_alpha   60.00000000
_cell_angle_beta   60.00000000
_cell_angle_gamma   60.00000000
_symmetry_Int_Tables_number   1
_chemical_formula_structural   Hf2Co
_chemical_formula_sum   'Hf16 Co8'
_cell_volume   433.82257311
_cell_formula_units_Z   8
loop_
 _symmetry_equiv_pos_site_id
 _symmetry_equiv_pos_as_xyz
  1  'x, y, z'
loop_
 _atom_site_type_symbol
 _atom_site_label
 _atom_site_symmetry_multiplicity
 _atom_site_fract_x
 _atom_site_fract_y
 _atom_site_fract_z
 _atom_site_occupancy
  Hf  Hf0  1  0.12500000  0.62500000  0.62500000  1
  Hf  Hf1  1  0.62500000  0.12500000  0.62500000  1
  Hf  Hf2  1  0.62500000  0.62500000  0.12500000  1
  Hf  Hf3  1  0.62500000  0.62500000  0.62500000  1
  Hf  Hf4  1  0.81218100  0.81218100  0.18781900  1
  Hf  Hf5  1  0.18781900  0.18781900  0.81218100  1
  Hf  Hf6  1  0.81218100  0.18781900  0.81218100  1
  Hf  Hf7  1  0.18781900  0.81218100  0.18781900  1
  Hf  Hf8  1  0.18781900  0.81218100  0.81218100  1
  Hf  Hf9  1  0.81218100  0.18781900  0.18781900  1
  Hf  Hf10  1  0.43781900  0.43781900  0.06218100  1
  Hf  Hf11  1  0.06218100  0.06218100  0.43781900  1
  Hf  Hf12  1  0.43781900  0.06218100  0.43781900  1
  Hf  Hf13  1  0.06218100  0.43781900  0.06218100  1
  Hf  Hf14  1  0.06218100  0.43781900  0.43781900  1
  Hf  Hf15  1  0.43781900  0.06218100  0.06218100  1
  Co  Co16  1  0.79084900  0.40305000  0.40305000  1
  Co  Co17  1  0.40305000  0.79084900  0.40305000  1
  Co  Co18  1  0.40305000  0.40305000  0.79084900  1
  Co  Co19  1  0.40305000  0.40305000  0.40305000  1
  Co  Co20  1  0.45915100  0.84695000  0.84695000  1
  Co  Co21  1  0.84695000  0.45915100  0.84695000  1
  Co  Co22  1  0.84695000  0.84695000  0.45915100  1
  Co  Co23  1  0.84695000  0.84695000  0.84695000  1
