# generated using pymatgen
data_Ce2H5
_symmetry_space_group_name_H-M   'P 1'
_cell_length_a   6.70433749
_cell_length_b   6.70433749
_cell_length_c   6.70433749
_cell_angle_alpha   132.19923219
_cell_angle_beta   132.19923219
_cell_angle_gamma   69.91454274
_symmetry_Int_Tables_number   1
_chemical_formula_structural   Ce2H5
_chemical_formula_sum   'Ce4 H10'
_cell_volume   162.16065873
_cell_formula_units_Z   2
loop_
 _symmetry_equiv_pos_site_id
 _symmetry_equiv_pos_as_xyz
  1  'x, y, z'
loop_
 _atom_site_type_symbol
 _atom_site_label
 _atom_site_symmetry_multiplicity
 _atom_site_fract_x
 _atom_site_fract_y
 _atom_site_fract_z
 _atom_site_occupancy
  Ce  Ce0  1  0.50649600  0.00649600  0.50000000  1
  Ce  Ce1  1  0.75649600  0.75649600  0.00000000  1
  Ce  Ce2  1  0.99350400  0.49350400  0.50000000  1
  Ce  Ce3  1  0.24350400  0.24350400  0.00000000  1
  H  H4  1  0.37500000  0.39519600  0.52019600  1
  H  H5  1  0.87500000  0.85480400  0.47980400  1
  H  H6  1  0.60480400  0.12500000  0.97980400  1
  H  H7  1  0.14519600  0.62500000  0.02019600  1
  H  H8  1  0.37500000  0.85480400  0.97980400  1
  H  H9  1  0.87500000  0.39519600  0.02019600  1
  H  H10  1  0.60480400  0.62500000  0.47980400  1
  H  H11  1  0.14519600  0.12500000  0.52019600  1
  H  H12  1  0.75000000  0.25000000  0.50000000  1
  H  H13  1  0.00000000  0.00000000  0.00000000  1
