# generated using pymatgen
data_Yb3Pd4
_symmetry_space_group_name_H-M   'P 1'
_cell_length_a   7.69383771
_cell_length_b   7.69383771
_cell_length_c   7.69383797
_cell_angle_alpha   113.90569534
_cell_angle_beta   113.90569534
_cell_angle_gamma   113.90568066
_symmetry_Int_Tables_number   1
_chemical_formula_structural   Yb3Pd4
_chemical_formula_sum   'Yb6 Pd8'
_cell_volume   278.62635890
_cell_formula_units_Z   2
loop_
 _symmetry_equiv_pos_site_id
 _symmetry_equiv_pos_as_xyz
  1  'x, y, z'
loop_
 _atom_site_type_symbol
 _atom_site_label
 _atom_site_symmetry_multiplicity
 _atom_site_fract_x
 _atom_site_fract_y
 _atom_site_fract_z
 _atom_site_occupancy
  Yb  Yb0  1  0.26697600  0.39809100  0.01225600  1
  Yb  Yb1  1  0.39809100  0.01225600  0.26697600  1
  Yb  Yb2  1  0.01225600  0.26697600  0.39809100  1
  Yb  Yb3  1  0.73302400  0.60190900  0.98774400  1
  Yb  Yb4  1  0.60190900  0.98774400  0.73302400  1
  Yb  Yb5  1  0.98774400  0.73302400  0.60190900  1
  Pd  Pd6  1  0.00000000  0.00000000  0.00000000  1
  Pd  Pd7  1  0.50000000  0.50000000  0.50000000  1
  Pd  Pd8  1  0.54962500  0.23886000  0.07843800  1
  Pd  Pd9  1  0.23886000  0.07843800  0.54962500  1
  Pd  Pd10  1  0.07843800  0.54962500  0.23886000  1
  Pd  Pd11  1  0.45037500  0.76114000  0.92156200  1
  Pd  Pd12  1  0.76114000  0.92156200  0.45037500  1
  Pd  Pd13  1  0.92156200  0.45037500  0.76114000  1
