# generated using pymatgen
data_Co21(GeB3)2
_symmetry_space_group_name_H-M   'P 1'
_cell_length_a   7.39228097
_cell_length_b   7.39228097
_cell_length_c   7.39228097
_cell_angle_alpha   60.00000000
_cell_angle_beta   60.00000000
_cell_angle_gamma   60.00000000
_symmetry_Int_Tables_number   1
_chemical_formula_structural   Co21(GeB3)2
_chemical_formula_sum   'Co21 Ge2 B6'
_cell_volume   285.64090336
_cell_formula_units_Z   1
loop_
 _symmetry_equiv_pos_site_id
 _symmetry_equiv_pos_as_xyz
  1  'x, y, z'
loop_
 _atom_site_type_symbol
 _atom_site_label
 _atom_site_symmetry_multiplicity
 _atom_site_fract_x
 _atom_site_fract_y
 _atom_site_fract_z
 _atom_site_occupancy
  Co  Co0  1  0.00000000  0.00000000  0.00000000  1
  Co  Co1  1  0.61941100  0.61941100  0.14176600  1
  Co  Co2  1  0.61941100  0.14176600  0.61941100  1
  Co  Co3  1  0.14176600  0.61941100  0.61941100  1
  Co  Co4  1  0.61941100  0.61941100  0.61941100  1
  Co  Co5  1  0.38058900  0.38058900  0.85823400  1
  Co  Co6  1  0.38058900  0.85823400  0.38058900  1
  Co  Co7  1  0.85823400  0.38058900  0.38058900  1
  Co  Co8  1  0.38058900  0.38058900  0.38058900  1
  Co  Co9  1  0.00000000  0.00000000  0.33557200  1
  Co  Co10  1  0.66442800  0.00000000  0.33557200  1
  Co  Co11  1  0.00000000  0.66442800  0.33557200  1
  Co  Co12  1  0.66442800  0.33557200  0.00000000  1
  Co  Co13  1  0.00000000  0.33557200  0.00000000  1
  Co  Co14  1  0.00000000  0.33557200  0.66442800  1
  Co  Co15  1  0.33557200  0.66442800  0.00000000  1
  Co  Co16  1  0.33557200  0.00000000  0.66442800  1
  Co  Co17  1  0.33557200  0.00000000  0.00000000  1
  Co  Co18  1  0.00000000  0.00000000  0.66442800  1
  Co  Co19  1  0.00000000  0.66442800  0.00000000  1
  Co  Co20  1  0.66442800  0.00000000  0.00000000  1
  Ge  Ge21  1  0.75000000  0.75000000  0.75000000  1
  Ge  Ge22  1  0.25000000  0.25000000  0.25000000  1
  B  B23  1  0.72353100  0.72353100  0.27646900  1
  B  B24  1  0.27646900  0.72353100  0.27646900  1
  B  B25  1  0.72353100  0.27646900  0.27646900  1
  B  B26  1  0.27646900  0.27646900  0.72353100  1
  B  B27  1  0.72353100  0.27646900  0.72353100  1
  B  B28  1  0.27646900  0.72353100  0.72353100  1
