# generated using pymatgen
data_Na3FeS2(O4F)2
_symmetry_space_group_name_H-M   'P 1'
_cell_length_a   6.73968800
_cell_length_b   8.94933400
_cell_length_c   14.24180400
_cell_angle_alpha   90.00000000
_cell_angle_beta   90.00000000
_cell_angle_gamma   90.00000000
_symmetry_Int_Tables_number   1
_chemical_formula_structural   Na3FeS2(O4F)2
_chemical_formula_sum   'Na12 Fe4 S8 O32 F8'
_cell_volume   859.00464766
_cell_formula_units_Z   4
loop_
 _symmetry_equiv_pos_site_id
 _symmetry_equiv_pos_as_xyz
  1  'x, y, z'
loop_
 _atom_site_type_symbol
 _atom_site_label
 _atom_site_symmetry_multiplicity
 _atom_site_fract_x
 _atom_site_fract_y
 _atom_site_fract_z
 _atom_site_occupancy
  Na  Na0  1  0.52101600  0.66599900  0.90405500  1
  Na  Na1  1  0.02101600  0.83400100  0.59594500  1
  Na  Na2  1  0.47898400  0.16599900  0.59594500  1
  Na  Na3  1  0.97898400  0.33400100  0.90405500  1
  Na  Na4  1  0.47898400  0.33400100  0.09594500  1
  Na  Na5  1  0.97898400  0.16599900  0.40405500  1
  Na  Na6  1  0.52101600  0.83400100  0.40405500  1
  Na  Na7  1  0.02101600  0.66599900  0.09594500  1
  Na  Na8  1  0.75000000  0.00000000  0.04834900  1
  Na  Na9  1  0.25000000  0.50000000  0.45165100  1
  Na  Na10  1  0.25000000  0.00000000  0.95165100  1
  Na  Na11  1  0.75000000  0.50000000  0.54834900  1
  Fe  Fe12  1  0.75000000  0.00000000  0.80484600  1
  Fe  Fe13  1  0.25000000  0.50000000  0.69515400  1
  Fe  Fe14  1  0.25000000  0.00000000  0.19515400  1
  Fe  Fe15  1  0.75000000  0.50000000  0.30484600  1
  S  S16  1  0.00379100  0.69323400  0.85637700  1
  S  S17  1  0.50379100  0.80676600  0.64362300  1
  S  S18  1  0.99620900  0.19323400  0.64362300  1
  S  S19  1  0.49620900  0.30676600  0.85637700  1
  S  S20  1  0.99620900  0.30676600  0.14362300  1
  S  S21  1  0.49620900  0.19323400  0.35637700  1
  S  S22  1  0.00379100  0.80676600  0.35637700  1
  S  S23  1  0.50379100  0.69323400  0.14362300  1
  O  O24  1  0.44783600  0.44293300  0.79728600  1
  O  O25  1  0.94783600  0.05706700  0.70271400  1
  O  O26  1  0.55216400  0.94293300  0.70271400  1
  O  O27  1  0.05216400  0.55706700  0.79728600  1
  O  O28  1  0.55216400  0.55706700  0.20271400  1
  O  O29  1  0.05216400  0.94293300  0.29728600  1
  O  O30  1  0.44783600  0.05706700  0.29728600  1
  O  O31  1  0.94783600  0.44293300  0.20271400  1
  O  O32  1  0.18642300  0.76656900  0.88819300  1
  O  O33  1  0.68642300  0.73343100  0.61180700  1
  O  O34  1  0.81357700  0.26656900  0.61180700  1
  O  O35  1  0.31357700  0.23343100  0.88819300  1
  O  O36  1  0.81357700  0.23343100  0.11180700  1
  O  O37  1  0.31357700  0.26656900  0.38819300  1
  O  O38  1  0.18642300  0.73343100  0.38819300  1
  O  O39  1  0.68642300  0.76656900  0.11180700  1
  O  O40  1  0.88082000  0.63966700  0.93523000  1
  O  O41  1  0.38082000  0.86033300  0.56477000  1
  O  O42  1  0.11918000  0.13966700  0.56477000  1
  O  O43  1  0.61918000  0.36033300  0.93523000  1
  O  O44  1  0.11918000  0.36033300  0.06477000  1
  O  O45  1  0.61918000  0.13966700  0.43523000  1
  O  O46  1  0.88082000  0.86033300  0.43523000  1
  O  O47  1  0.38082000  0.63966700  0.06477000  1
  O  O48  1  0.38457800  0.70515400  0.70634100  1
  O  O49  1  0.88457800  0.79484600  0.79365900  1
  O  O50  1  0.61542200  0.20515400  0.79365900  1
  O  O51  1  0.11542200  0.29484600  0.70634100  1
  O  O52  1  0.61542200  0.29484600  0.29365900  1
  O  O53  1  0.11542200  0.20515400  0.20634100  1
  O  O54  1  0.38457800  0.79484600  0.20634100  1
  O  O55  1  0.88457800  0.70515400  0.29365900  1
  F  F56  1  0.57673000  0.92791500  0.90446300  1
  F  F57  1  0.07673000  0.57208500  0.59553700  1
  F  F58  1  0.42327000  0.42791500  0.59553700  1
  F  F59  1  0.92327000  0.07208500  0.90446300  1
  F  F60  1  0.42327000  0.07208500  0.09553700  1
  F  F61  1  0.92327000  0.42791500  0.40446300  1
  F  F62  1  0.57673000  0.57208500  0.40446300  1
  F  F63  1  0.07673000  0.92791500  0.09553700  1
