# generated using pymatgen
data_Ba2SiO4
_symmetry_space_group_name_H-M   'P 1'
_cell_length_a   5.88373800
_cell_length_b   7.60173000
_cell_length_c   10.41336700
_cell_angle_alpha   90.00000000
_cell_angle_beta   90.00000000
_cell_angle_gamma   90.00000000
_symmetry_Int_Tables_number   1
_chemical_formula_structural   Ba2SiO4
_chemical_formula_sum   'Ba8 Si4 O16'
_cell_volume   465.75437203
_cell_formula_units_Z   4
loop_
 _symmetry_equiv_pos_site_id
 _symmetry_equiv_pos_as_xyz
  1  'x, y, z'
loop_
 _atom_site_type_symbol
 _atom_site_label
 _atom_site_symmetry_multiplicity
 _atom_site_fract_x
 _atom_site_fract_y
 _atom_site_fract_z
 _atom_site_occupancy
  Ba  Ba0  1  0.25000000  0.99349400  0.30567100  1
  Ba  Ba1  1  0.75000000  0.00650600  0.69432900  1
  Ba  Ba2  1  0.25000000  0.49349400  0.19432900  1
  Ba  Ba3  1  0.75000000  0.50650600  0.80567100  1
  Ba  Ba4  1  0.25000000  0.16139400  0.91838800  1
  Ba  Ba5  1  0.75000000  0.83860600  0.08161200  1
  Ba  Ba6  1  0.25000000  0.66139400  0.58161200  1
  Ba  Ba7  1  0.75000000  0.33860600  0.41838800  1
  Si  Si8  1  0.25000000  0.22727900  0.57948700  1
  Si  Si9  1  0.75000000  0.77272100  0.42051300  1
  Si  Si10  1  0.25000000  0.72727900  0.92051300  1
  Si  Si11  1  0.75000000  0.27272100  0.07948700  1
  O  O12  1  0.51924300  0.69454000  0.35010500  1
  O  O13  1  0.01924300  0.30546000  0.64989500  1
  O  O14  1  0.98075700  0.19454000  0.14989500  1
  O  O15  1  0.48075700  0.80546000  0.85010500  1
  O  O16  1  0.48075700  0.30546000  0.64989500  1
  O  O17  1  0.98075700  0.69454000  0.35010500  1
  O  O18  1  0.01924300  0.80546000  0.85010500  1
  O  O19  1  0.51924300  0.19454000  0.14989500  1
  O  O20  1  0.25000000  0.30694300  0.43006100  1
  O  O21  1  0.75000000  0.69305700  0.56993900  1
  O  O22  1  0.25000000  0.80694300  0.06993900  1
  O  O23  1  0.75000000  0.19305700  0.93006100  1
  O  O24  1  0.75000000  0.48920800  0.08200800  1
  O  O25  1  0.25000000  0.51079200  0.91799200  1
  O  O26  1  0.75000000  0.98920800  0.41799200  1
  O  O27  1  0.25000000  0.01079200  0.58200800  1
