# generated using pymatgen
data_DyHfF7
_symmetry_space_group_name_H-M   'P 1'
_cell_length_a   5.68275900
_cell_length_b   6.08992352
_cell_length_c   8.25066392
_cell_angle_alpha   101.88421923
_cell_angle_beta   90.00000000
_cell_angle_gamma   90.00000000
_symmetry_Int_Tables_number   1
_chemical_formula_structural   DyHfF7
_chemical_formula_sum   'Dy2 Hf2 F14'
_cell_volume   279.41517072
_cell_formula_units_Z   2
loop_
 _symmetry_equiv_pos_site_id
 _symmetry_equiv_pos_as_xyz
  1  'x, y, z'
loop_
 _atom_site_type_symbol
 _atom_site_label
 _atom_site_symmetry_multiplicity
 _atom_site_fract_x
 _atom_site_fract_y
 _atom_site_fract_z
 _atom_site_occupancy
  Dy  Dy0  1  0.69765100  0.65594200  0.68515100  1
  Dy  Dy1  1  0.19765100  0.34405800  0.31484900  1
  Hf  Hf2  1  0.70782300  0.81159100  0.22359000  1
  Hf  Hf3  1  0.20782300  0.18840900  0.77641000  1
  F  F4  1  0.88781400  0.45220600  0.47671000  1
  F  F5  1  0.38781400  0.54779400  0.52329000  1
  F  F6  1  0.42562500  0.92649700  0.76809200  1
  F  F7  1  0.92562500  0.07350300  0.23190800  1
  F  F8  1  0.94510800  0.96225800  0.76036000  1
  F  F9  1  0.44510800  0.03774200  0.23964000  1
  F  F10  1  0.99575800  0.45461000  0.78683000  1
  F  F11  1  0.49575800  0.54539000  0.21317000  1
  F  F12  1  0.70416800  0.75574900  0.97711300  1
  F  F13  1  0.20416800  0.24425100  0.02288700  1
  F  F14  1  0.71142900  0.86038900  0.47206200  1
  F  F15  1  0.21142900  0.13961100  0.52793800  1
  F  F16  1  0.50098600  0.37822200  0.78209500  1
  F  F17  1  0.00098600  0.62177800  0.21790500  1
