# generated using pymatgen
data_Lu5BiPd2
_symmetry_space_group_name_H-M   'P 1'
_cell_length_a   8.72317895
_cell_length_b   8.72317895
_cell_length_c   8.72317895
_cell_angle_alpha   128.28852521
_cell_angle_beta   128.28852521
_cell_angle_gamma   76.15809277
_symmetry_Int_Tables_number   1
_chemical_formula_structural   Lu5BiPd2
_chemical_formula_sum   'Lu10 Bi2 Pd4'
_cell_volume   397.49646046
_cell_formula_units_Z   2
loop_
 _symmetry_equiv_pos_site_id
 _symmetry_equiv_pos_as_xyz
  1  'x, y, z'
loop_
 _atom_site_type_symbol
 _atom_site_label
 _atom_site_symmetry_multiplicity
 _atom_site_fract_x
 _atom_site_fract_y
 _atom_site_fract_z
 _atom_site_occupancy
  Lu  Lu0  1  0.00000000  0.00000000  0.00000000  1
  Lu  Lu1  1  0.50000000  0.50000000  0.00000000  1
  Lu  Lu2  1  0.79517500  0.29517500  0.81191900  1
  Lu  Lu3  1  0.20482500  0.70482500  0.18808100  1
  Lu  Lu4  1  0.48325700  0.98325700  0.18808100  1
  Lu  Lu5  1  0.29517500  0.48325700  0.50000000  1
  Lu  Lu6  1  0.01674300  0.20482500  0.50000000  1
  Lu  Lu7  1  0.51674300  0.01674300  0.81191900  1
  Lu  Lu8  1  0.70482500  0.51674300  0.50000000  1
  Lu  Lu9  1  0.98325700  0.79517500  0.50000000  1
  Bi  Bi10  1  0.25000000  0.25000000  0.00000000  1
  Bi  Bi11  1  0.75000000  0.75000000  0.00000000  1
  Pd  Pd12  1  0.13798600  0.63798600  0.77597200  1
  Pd  Pd13  1  0.86201400  0.36201400  0.22402800  1
  Pd  Pd14  1  0.63798600  0.86201400  0.50000000  1
  Pd  Pd15  1  0.36201400  0.13798600  0.50000000  1
