# generated using pymatgen
data_Hf6Al2Fe
_symmetry_space_group_name_H-M   'P 1'
_cell_length_a   3.26598200
_cell_length_b   7.86239501
_cell_length_c   7.86239512
_cell_angle_alpha   60.00463610
_cell_angle_beta   90.00000000
_cell_angle_gamma   90.00000000
_symmetry_Int_Tables_number   1
_chemical_formula_structural   Hf6Al2Fe
_chemical_formula_sum   'Hf6 Al2 Fe1'
_cell_volume   174.85354021
_cell_formula_units_Z   1
loop_
 _symmetry_equiv_pos_site_id
 _symmetry_equiv_pos_as_xyz
  1  'x, y, z'
loop_
 _atom_site_type_symbol
 _atom_site_label
 _atom_site_symmetry_multiplicity
 _atom_site_fract_x
 _atom_site_fract_y
 _atom_site_fract_z
 _atom_site_occupancy
  Hf  Hf0  1  0.50000000  0.60421800  0.39578200  1
  Hf  Hf1  1  0.50000000  0.39575600  0.00006800  1
  Hf  Hf2  1  0.50000000  0.99993200  0.60424400  1
  Hf  Hf3  1  0.00000000  0.25019500  0.74980500  1
  Hf  Hf4  1  0.00000000  0.74969500  0.99996100  1
  Hf  Hf5  1  0.00000000  0.00003900  0.25030500  1
  Al  Al6  1  0.00000000  0.33317200  0.33345200  1
  Al  Al7  1  0.00000000  0.66654800  0.66682800  1
  Fe  Fe8  1  0.50000000  0.00034500  0.99965500  1
