# generated using pymatgen
data_Li7PN4
_symmetry_space_group_name_H-M   'P 1'
_cell_length_a   9.40237800
_cell_length_b   9.40237800
_cell_length_c   9.40237800
_cell_angle_alpha   90.00000000
_cell_angle_beta   90.00000000
_cell_angle_gamma   90.00000000
_symmetry_Int_Tables_number   1
_chemical_formula_structural   Li7PN4
_chemical_formula_sum   'Li56 P8 N32'
_cell_volume   831.21451972
_cell_formula_units_Z   8
loop_
 _symmetry_equiv_pos_site_id
 _symmetry_equiv_pos_as_xyz
  1  'x, y, z'
loop_
 _atom_site_type_symbol
 _atom_site_label
 _atom_site_symmetry_multiplicity
 _atom_site_fract_x
 _atom_site_fract_y
 _atom_site_fract_z
 _atom_site_occupancy
  Li  Li0  1  0.00000000  0.50000000  0.50000000  1
  Li  Li1  1  0.50000000  0.00000000  0.00000000  1
  Li  Li2  1  0.00000000  0.00000000  0.50000000  1
  Li  Li3  1  0.00000000  0.50000000  0.00000000  1
  Li  Li4  1  0.50000000  0.00000000  0.50000000  1
  Li  Li5  1  0.50000000  0.50000000  0.00000000  1
  Li  Li6  1  0.25000000  0.00000000  0.50000000  1
  Li  Li7  1  0.00000000  0.50000000  0.75000000  1
  Li  Li8  1  0.00000000  0.50000000  0.25000000  1
  Li  Li9  1  0.50000000  0.25000000  0.00000000  1
  Li  Li10  1  0.50000000  0.75000000  0.00000000  1
  Li  Li11  1  0.75000000  0.00000000  0.50000000  1
  Li  Li12  1  0.22537400  0.22537400  0.22537400  1
  Li  Li13  1  0.27462600  0.72537400  0.27462600  1
  Li  Li14  1  0.27462600  0.27462600  0.72537400  1
  Li  Li15  1  0.72537400  0.27462600  0.27462600  1
  Li  Li16  1  0.77462600  0.77462600  0.22537400  1
  Li  Li17  1  0.22537400  0.77462600  0.77462600  1
  Li  Li18  1  0.77462600  0.22537400  0.77462600  1
  Li  Li19  1  0.72537400  0.72537400  0.72537400  1
  Li  Li20  1  0.25333600  0.23708300  0.97516400  1
  Li  Li21  1  0.24666400  0.47516400  0.26291700  1
  Li  Li22  1  0.24666400  0.52483600  0.73708300  1
  Li  Li23  1  0.52483600  0.26291700  0.75333600  1
  Li  Li24  1  0.47516400  0.26291700  0.24666400  1
  Li  Li25  1  0.73708300  0.24666400  0.52483600  1
  Li  Li26  1  0.26291700  0.75333600  0.52483600  1
  Li  Li27  1  0.97516400  0.25333600  0.23708300  1
  Li  Li28  1  0.23708300  0.97516400  0.25333600  1
  Li  Li29  1  0.76291700  0.02483600  0.25333600  1
  Li  Li30  1  0.97516400  0.74666400  0.76291700  1
  Li  Li31  1  0.76291700  0.97516400  0.74666400  1
  Li  Li32  1  0.02483600  0.74666400  0.23708300  1
  Li  Li33  1  0.02483600  0.25333600  0.76291700  1
  Li  Li34  1  0.23708300  0.02483600  0.74666400  1
  Li  Li35  1  0.25333600  0.76291700  0.02483600  1
  Li  Li36  1  0.74666400  0.23708300  0.02483600  1
  Li  Li37  1  0.74666400  0.76291700  0.97516400  1
  Li  Li38  1  0.26291700  0.24666400  0.47516400  1
  Li  Li39  1  0.73708300  0.75333600  0.47516400  1
  Li  Li40  1  0.52483600  0.73708300  0.24666400  1
  Li  Li41  1  0.47516400  0.73708300  0.75333600  1
  Li  Li42  1  0.75333600  0.52483600  0.26291700  1
  Li  Li43  1  0.75333600  0.47516400  0.73708300  1
  Li  Li44  1  0.26438700  0.00000000  0.00000000  1
  Li  Li45  1  0.23561300  0.50000000  0.50000000  1
  Li  Li46  1  0.50000000  0.50000000  0.76438700  1
  Li  Li47  1  0.50000000  0.50000000  0.23561300  1
  Li  Li48  1  0.50000000  0.23561300  0.50000000  1
  Li  Li49  1  0.50000000  0.76438700  0.50000000  1
  Li  Li50  1  0.00000000  0.26438700  0.00000000  1
  Li  Li51  1  0.00000000  0.00000000  0.26438700  1
  Li  Li52  1  0.00000000  0.73561300  0.00000000  1
  Li  Li53  1  0.00000000  0.00000000  0.73561300  1
  Li  Li54  1  0.73561300  0.00000000  0.00000000  1
  Li  Li55  1  0.76438700  0.50000000  0.50000000  1
  P  P56  1  0.50000000  0.50000000  0.50000000  1
  P  P57  1  0.00000000  0.00000000  0.00000000  1
  P  P58  1  0.50000000  0.00000000  0.75000000  1
  P  P59  1  0.75000000  0.50000000  0.00000000  1
  P  P60  1  0.25000000  0.50000000  0.00000000  1
  P  P61  1  0.00000000  0.25000000  0.50000000  1
  P  P62  1  0.00000000  0.75000000  0.50000000  1
  P  P63  1  0.50000000  0.00000000  0.25000000  1
  N  N64  1  0.60346100  0.60346100  0.60346100  1
  N  N65  1  0.89653900  0.10346100  0.89653900  1
  N  N66  1  0.10346100  0.89653900  0.89653900  1
  N  N67  1  0.89653900  0.89653900  0.10346100  1
  N  N68  1  0.60346100  0.39653900  0.39653900  1
  N  N69  1  0.39653900  0.39653900  0.60346100  1
  N  N70  1  0.39653900  0.60346100  0.39653900  1
  N  N71  1  0.10346100  0.10346100  0.10346100  1
  N  N72  1  0.35073100  0.38738500  0.09942100  1
  N  N73  1  0.14926900  0.59942100  0.11261500  1
  N  N74  1  0.14926900  0.40057900  0.88738500  1
  N  N75  1  0.40057900  0.11261500  0.85073100  1
  N  N76  1  0.59942100  0.11261500  0.14926900  1
  N  N77  1  0.88738500  0.14926900  0.40057900  1
  N  N78  1  0.11261500  0.85073100  0.40057900  1
  N  N79  1  0.09942100  0.35073100  0.38738500  1
  N  N80  1  0.38738500  0.09942100  0.35073100  1
  N  N81  1  0.61261500  0.90057900  0.35073100  1
  N  N82  1  0.09942100  0.64926900  0.61261500  1
  N  N83  1  0.61261500  0.09942100  0.64926900  1
  N  N84  1  0.90057900  0.64926900  0.38738500  1
  N  N85  1  0.90057900  0.35073100  0.61261500  1
  N  N86  1  0.38738500  0.90057900  0.64926900  1
  N  N87  1  0.35073100  0.61261500  0.90057900  1
  N  N88  1  0.64926900  0.38738500  0.90057900  1
  N  N89  1  0.64926900  0.61261500  0.09942100  1
  N  N90  1  0.11261500  0.14926900  0.59942100  1
  N  N91  1  0.88738500  0.85073100  0.59942100  1
  N  N92  1  0.40057900  0.88738500  0.14926900  1
  N  N93  1  0.59942100  0.88738500  0.85073100  1
  N  N94  1  0.85073100  0.40057900  0.11261500  1
  N  N95  1  0.85073100  0.59942100  0.88738500  1
