# generated using pymatgen
data_Ho20In40Rh19
_symmetry_space_group_name_H-M   'P 1'
_cell_length_a   13.55206900
_cell_length_b   13.55206900
_cell_length_c   9.39701900
_cell_angle_alpha   90.00000000
_cell_angle_beta   90.00000000
_cell_angle_gamma   90.00000000
_symmetry_Int_Tables_number   1
_chemical_formula_structural   Ho20In40Rh19
_chemical_formula_sum   'Ho20 In40 Rh19'
_cell_volume   1725.84311109
_cell_formula_units_Z   1
loop_
 _symmetry_equiv_pos_site_id
 _symmetry_equiv_pos_as_xyz
  1  'x, y, z'
loop_
 _atom_site_type_symbol
 _atom_site_label
 _atom_site_symmetry_multiplicity
 _atom_site_fract_x
 _atom_site_fract_y
 _atom_site_fract_z
 _atom_site_occupancy
  Ho  Ho0  1  0.50000000  0.00000000  0.84932100  1
  Ho  Ho1  1  0.00000000  0.50000000  0.15067900  1
  Ho  Ho2  1  0.50000000  0.00000000  0.35748500  1
  Ho  Ho3  1  0.00000000  0.50000000  0.64251500  1
  Ho  Ho4  1  0.70355900  0.79831000  0.26339300  1
  Ho  Ho5  1  0.29644100  0.79831000  0.26339300  1
  Ho  Ho6  1  0.70355900  0.20169000  0.26339300  1
  Ho  Ho7  1  0.29644100  0.20169000  0.26339300  1
  Ho  Ho8  1  0.79831000  0.70355900  0.73660700  1
  Ho  Ho9  1  0.20169000  0.70355900  0.73660700  1
  Ho  Ho10  1  0.79831000  0.29644100  0.73660700  1
  Ho  Ho11  1  0.20169000  0.29644100  0.73660700  1
  Ho  Ho12  1  0.77468700  0.00000000  0.76953400  1
  Ho  Ho13  1  0.22531300  0.00000000  0.76953400  1
  Ho  Ho14  1  0.50000000  0.72308400  0.76678200  1
  Ho  Ho15  1  0.50000000  0.27691600  0.76678200  1
  Ho  Ho16  1  0.72308400  0.50000000  0.23321800  1
  Ho  Ho17  1  0.27691600  0.50000000  0.23321800  1
  Ho  Ho18  1  0.00000000  0.77468700  0.23046600  1
  Ho  Ho19  1  0.00000000  0.22531300  0.23046600  1
  In  In20  1  0.15031600  0.15031600  0.00000000  1
  In  In21  1  0.84968400  0.15031600  0.00000000  1
  In  In22  1  0.15031600  0.84968400  0.00000000  1
  In  In23  1  0.84968400  0.84968400  0.00000000  1
  In  In24  1  0.34985000  0.34985000  0.00000000  1
  In  In25  1  0.65015000  0.34985000  0.00000000  1
  In  In26  1  0.34985000  0.65015000  0.00000000  1
  In  In27  1  0.65015000  0.65015000  0.00000000  1
  In  In28  1  0.33071400  0.00000000  0.09844200  1
  In  In29  1  0.66928600  0.00000000  0.09844200  1
  In  In30  1  0.50000000  0.16936200  0.09831100  1
  In  In31  1  0.50000000  0.83063800  0.09831100  1
  In  In32  1  0.16936200  0.50000000  0.90168900  1
  In  In33  1  0.83063800  0.50000000  0.90168900  1
  In  In34  1  0.00000000  0.33071400  0.90155800  1
  In  In35  1  0.00000000  0.66928600  0.90155800  1
  In  In36  1  0.11319700  0.00000000  0.23924100  1
  In  In37  1  0.88680300  0.00000000  0.23924100  1
  In  In38  1  0.50000000  0.38568600  0.24001000  1
  In  In39  1  0.50000000  0.61431400  0.24001000  1
  In  In40  1  0.38568600  0.50000000  0.75999000  1
  In  In41  1  0.61431400  0.50000000  0.75999000  1
  In  In42  1  0.00000000  0.11319700  0.76075900  1
  In  In43  1  0.00000000  0.88680300  0.76075900  1
  In  In44  1  0.64020100  0.64020100  0.50000000  1
  In  In45  1  0.35979900  0.64020100  0.50000000  1
  In  In46  1  0.64020100  0.35979900  0.50000000  1
  In  In47  1  0.35979900  0.35979900  0.50000000  1
  In  In48  1  0.86745500  0.86745500  0.50000000  1
  In  In49  1  0.13254500  0.86745500  0.50000000  1
  In  In50  1  0.86745500  0.13254500  0.50000000  1
  In  In51  1  0.13254500  0.13254500  0.50000000  1
  In  In52  1  0.63043200  0.86966100  0.59461600  1
  In  In53  1  0.36956800  0.86966100  0.59461600  1
  In  In54  1  0.63043200  0.13033900  0.59461600  1
  In  In55  1  0.36956800  0.13033900  0.59461600  1
  In  In56  1  0.86966100  0.63043200  0.40538400  1
  In  In57  1  0.13033900  0.63043200  0.40538400  1
  In  In58  1  0.86966100  0.36956800  0.40538400  1
  In  In59  1  0.13033900  0.36956800  0.40538400  1
  Rh  Rh60  1  0.27751700  0.00000000  0.40653500  1
  Rh  Rh61  1  0.72248300  0.00000000  0.40653500  1
  Rh  Rh62  1  0.50000000  0.22053400  0.40609100  1
  Rh  Rh63  1  0.50000000  0.77946600  0.40609100  1
  Rh  Rh64  1  0.22053400  0.50000000  0.59390900  1
  Rh  Rh65  1  0.77946600  0.50000000  0.59390900  1
  Rh  Rh66  1  0.00000000  0.27751700  0.59346500  1
  Rh  Rh67  1  0.00000000  0.72248300  0.59346500  1
  Rh  Rh68  1  0.84505700  0.65464500  0.10535500  1
  Rh  Rh69  1  0.15494300  0.65464500  0.10535500  1
  Rh  Rh70  1  0.84505700  0.34535500  0.10535500  1
  Rh  Rh71  1  0.15494300  0.34535500  0.10535500  1
  Rh  Rh72  1  0.65464500  0.84505700  0.89464500  1
  Rh  Rh73  1  0.34535500  0.84505700  0.89464500  1
  Rh  Rh74  1  0.65464500  0.15494300  0.89464500  1
  Rh  Rh75  1  0.34535500  0.15494300  0.89464500  1
  Rh  Rh76  1  0.00000000  0.00000000  0.00000000  1
  Rh  Rh77  1  0.50000000  0.50000000  0.00000000  1
  Rh  Rh78  1  0.50000000  0.50000000  0.50000000  1
