# generated using pymatgen
data_ScZn2
_symmetry_space_group_name_H-M   'P 1'
_cell_length_a   5.28115801
_cell_length_b   5.28115801
_cell_length_c   8.49155000
_cell_angle_alpha   90.00000000
_cell_angle_beta   90.00000000
_cell_angle_gamma   120.00000012
_symmetry_Int_Tables_number   1
_chemical_formula_structural   ScZn2
_chemical_formula_sum   'Sc4 Zn8'
_cell_volume   205.10484782
_cell_formula_units_Z   4
loop_
 _symmetry_equiv_pos_site_id
 _symmetry_equiv_pos_as_xyz
  1  'x, y, z'
loop_
 _atom_site_type_symbol
 _atom_site_label
 _atom_site_symmetry_multiplicity
 _atom_site_fract_x
 _atom_site_fract_y
 _atom_site_fract_z
 _atom_site_occupancy
  Sc  Sc0  1  0.33333300  0.66666700  0.56152900  1
  Sc  Sc1  1  0.66666700  0.33333300  0.06152900  1
  Sc  Sc2  1  0.66666700  0.33333300  0.43847100  1
  Sc  Sc3  1  0.33333300  0.66666700  0.93847100  1
  Zn  Zn4  1  0.00000000  0.00000000  0.00000000  1
  Zn  Zn5  1  0.00000000  0.00000000  0.50000000  1
  Zn  Zn6  1  0.17105300  0.34210500  0.25000000  1
  Zn  Zn7  1  0.82894700  0.17105300  0.75000000  1
  Zn  Zn8  1  0.34210500  0.17105300  0.75000000  1
  Zn  Zn9  1  0.65789500  0.82894700  0.25000000  1
  Zn  Zn10  1  0.17105300  0.82894700  0.25000000  1
  Zn  Zn11  1  0.82894700  0.65789500  0.75000000  1
