# generated using pymatgen
data_Na4Si2PbSe6
_symmetry_space_group_name_H-M   'P 1'
_cell_length_a   7.13254872
_cell_length_b   7.13254872
_cell_length_c   8.03462430
_cell_angle_alpha   81.42090891
_cell_angle_beta   81.42090891
_cell_angle_gamma   119.88710771
_symmetry_Int_Tables_number   1
_chemical_formula_structural   Na4Si2PbSe6
_chemical_formula_sum   'Na4 Si2 Pb1 Se6'
_cell_volume   338.30398054
_cell_formula_units_Z   1
loop_
 _symmetry_equiv_pos_site_id
 _symmetry_equiv_pos_as_xyz
  1  'x, y, z'
loop_
 _atom_site_type_symbol
 _atom_site_label
 _atom_site_symmetry_multiplicity
 _atom_site_fract_x
 _atom_site_fract_y
 _atom_site_fract_z
 _atom_site_occupancy
  Na  Na0  1  0.49985300  0.50014700  0.00000000  1
  Na  Na1  1  0.82505200  0.17494800  0.00000000  1
  Na  Na2  1  0.17511900  0.82488100  0.00000000  1
  Na  Na3  1  0.66488000  0.33512000  0.50000000  1
  Si  Si4  1  0.04989000  0.04988400  0.34657300  1
  Si  Si5  1  0.95011600  0.95011000  0.65342700  1
  Pb  Pb6  1  0.33528900  0.66471100  0.50000000  1
  Se  Se7  1  0.77531700  0.77500500  0.25371200  1
  Se  Se8  1  0.22499500  0.22468300  0.74628800  1
  Se  Se9  1  0.08112800  0.38878700  0.25370500  1
  Se  Se10  1  0.38911500  0.08196700  0.25336800  1
  Se  Se11  1  0.91803300  0.61088500  0.74663200  1
  Se  Se12  1  0.61121300  0.91887200  0.74629500  1
