# generated using pymatgen
data_TaFeAs
_symmetry_space_group_name_H-M   'P 1'
_cell_length_a   3.76615000
_cell_length_b   6.30413300
_cell_length_c   7.11129400
_cell_angle_alpha   90.00000000
_cell_angle_beta   90.00000000
_cell_angle_gamma   90.00000000
_symmetry_Int_Tables_number   1
_chemical_formula_structural   TaFeAs
_chemical_formula_sum   'Ta4 Fe4 As4'
_cell_volume   168.83855019
_cell_formula_units_Z   4
loop_
 _symmetry_equiv_pos_site_id
 _symmetry_equiv_pos_as_xyz
  1  'x, y, z'
loop_
 _atom_site_type_symbol
 _atom_site_label
 _atom_site_symmetry_multiplicity
 _atom_site_fract_x
 _atom_site_fract_y
 _atom_site_fract_z
 _atom_site_occupancy
  Ta  Ta0  1  0.25000000  0.02185500  0.32024200  1
  Ta  Ta1  1  0.25000000  0.52185500  0.17975800  1
  Ta  Ta2  1  0.75000000  0.97814500  0.67975800  1
  Ta  Ta3  1  0.75000000  0.47814500  0.82024200  1
  Fe  Fe4  1  0.25000000  0.14136500  0.93790500  1
  Fe  Fe5  1  0.25000000  0.64136500  0.56209500  1
  Fe  Fe6  1  0.75000000  0.85863500  0.06209500  1
  Fe  Fe7  1  0.75000000  0.35863500  0.43790500  1
  As  As8  1  0.25000000  0.27235700  0.62015700  1
  As  As9  1  0.25000000  0.77235700  0.87984300  1
  As  As10  1  0.75000000  0.72764300  0.37984300  1
  As  As11  1  0.75000000  0.22764300  0.12015700  1
