# generated using pymatgen
data_Li6Y(BO3)3
_symmetry_space_group_name_H-M   'P 1'
_cell_length_a   16.54186000
_cell_length_b   6.72409100
_cell_length_c   7.26765564
_cell_angle_alpha   74.58799882
_cell_angle_beta   90.00000000
_cell_angle_gamma   90.00000000
_symmetry_Int_Tables_number   1
_chemical_formula_structural   Li6Y(BO3)3
_chemical_formula_sum   'Li24 Y4 B12 O36'
_cell_volume   779.30454723
_cell_formula_units_Z   4
loop_
 _symmetry_equiv_pos_site_id
 _symmetry_equiv_pos_as_xyz
  1  'x, y, z'
loop_
 _atom_site_type_symbol
 _atom_site_label
 _atom_site_symmetry_multiplicity
 _atom_site_fract_x
 _atom_site_fract_y
 _atom_site_fract_z
 _atom_site_occupancy
  Li  Li0  1  0.55278900  0.58473200  0.86242500  1
  Li  Li1  1  0.05278900  0.91526800  0.13757500  1
  Li  Li2  1  0.44721100  0.41526800  0.13757500  1
  Li  Li3  1  0.94721100  0.08473200  0.86242500  1
  Li  Li4  1  0.79527600  0.54562300  0.43837900  1
  Li  Li5  1  0.29527600  0.95437700  0.56162100  1
  Li  Li6  1  0.20472400  0.45437700  0.56162100  1
  Li  Li7  1  0.70472400  0.04562300  0.43837900  1
  Li  Li8  1  0.96472500  0.55571700  0.30664300  1
  Li  Li9  1  0.46472500  0.94428300  0.69335700  1
  Li  Li10  1  0.03527500  0.44428300  0.69335700  1
  Li  Li11  1  0.53527500  0.05571700  0.30664300  1
  Li  Li12  1  0.70576200  0.63450700  0.71508100  1
  Li  Li13  1  0.20576200  0.86549300  0.28491900  1
  Li  Li14  1  0.29423800  0.36549300  0.28491900  1
  Li  Li15  1  0.79423800  0.13450700  0.71508100  1
  Li  Li16  1  0.96989100  0.82977800  0.54670100  1
  Li  Li17  1  0.46989100  0.67022200  0.45329900  1
  Li  Li18  1  0.03010900  0.17022200  0.45329900  1
  Li  Li19  1  0.53010900  0.32977800  0.54670100  1
  Li  Li20  1  0.00405400  0.32399200  0.07138800  1
  Li  Li21  1  0.50405400  0.17600800  0.92861200  1
  Li  Li22  1  0.99594600  0.67600800  0.92861200  1
  Li  Li23  1  0.49594600  0.82399200  0.07138800  1
  Y  Y24  1  0.81019900  0.34721600  0.07974300  1
  Y  Y25  1  0.31019900  0.15278400  0.92025700  1
  Y  Y26  1  0.18980100  0.65278400  0.92025700  1
  Y  Y27  1  0.68980100  0.84721600  0.07974300  1
  B  B28  1  0.63560800  0.33827500  0.08354500  1
  B  B29  1  0.13560800  0.16172500  0.91645500  1
  B  B30  1  0.36439200  0.66172500  0.91645500  1
  B  B31  1  0.86439200  0.83827500  0.08354500  1
  B  B32  1  0.62077400  0.99932900  0.71403500  1
  B  B33  1  0.12077400  0.50067100  0.28596500  1
  B  B34  1  0.37922600  0.00067100  0.28596500  1
  B  B35  1  0.87922600  0.49932900  0.71403500  1
  B  B36  1  0.88481600  0.18938300  0.43927800  1
  B  B37  1  0.38481600  0.31061700  0.56072200  1
  B  B38  1  0.11518400  0.81061700  0.56072200  1
  B  B39  1  0.61518400  0.68938300  0.43927800  1
  O  O40  1  0.82612000  0.02773700  0.00748900  1
  O  O41  1  0.32612000  0.47226300  0.99251100  1
  O  O42  1  0.17388000  0.97226300  0.99251100  1
  O  O43  1  0.67388000  0.52773700  0.00748900  1
  O  O44  1  0.68539400  0.16626200  0.14577100  1
  O  O45  1  0.18539400  0.33373800  0.85422900  1
  O  O46  1  0.31460600  0.83373800  0.85422900  1
  O  O47  1  0.81460600  0.66626200  0.14577100  1
  O  O48  1  0.55335000  0.32377600  0.08759600  1
  O  O49  1  0.05335000  0.17622400  0.91240400  1
  O  O50  1  0.44665000  0.67622400  0.91240400  1
  O  O51  1  0.94665000  0.82377600  0.08759600  1
  O  O52  1  0.57404600  0.95825400  0.87977400  1
  O  O53  1  0.07404600  0.54174600  0.12022600  1
  O  O54  1  0.42595400  0.04174600  0.12022600  1
  O  O55  1  0.92595400  0.45825400  0.87977400  1
  O  O56  1  0.79782000  0.44236700  0.74007400  1
  O  O57  1  0.29782000  0.05763300  0.25992600  1
  O  O58  1  0.20218000  0.55763300  0.25992600  1
  O  O59  1  0.70218000  0.94236700  0.74007400  1
  O  O60  1  0.58842700  0.08630800  0.53742000  1
  O  O61  1  0.08842700  0.41369200  0.46258000  1
  O  O62  1  0.41157300  0.91369200  0.46258000  1
  O  O63  1  0.91157300  0.58630800  0.53742000  1
  O  O64  1  0.56867200  0.77124400  0.27642900  1
  O  O65  1  0.06867200  0.72875600  0.72357100  1
  O  O66  1  0.43132800  0.22875600  0.72357100  1
  O  O67  1  0.93132800  0.27124400  0.27642900  1
  O  O68  1  0.80209300  0.22841600  0.42138600  1
  O  O69  1  0.30209300  0.27158400  0.57861400  1
  O  O70  1  0.19790700  0.77158400  0.57861400  1
  O  O71  1  0.69790700  0.72841600  0.42138600  1
  O  O72  1  0.92142000  0.07713400  0.60507900  1
  O  O73  1  0.42142000  0.42286600  0.39492100  1
  O  O74  1  0.07858000  0.92286600  0.39492100  1
  O  O75  1  0.57858000  0.57713400  0.60507900  1
