# generated using pymatgen
data_GaPt
_symmetry_space_group_name_H-M   'P 1'
_cell_length_a   4.97294100
_cell_length_b   4.97294100
_cell_length_c   4.97294100
_cell_angle_alpha   90.00000000
_cell_angle_beta   90.00000000
_cell_angle_gamma   90.00000000
_symmetry_Int_Tables_number   1
_chemical_formula_structural   GaPt
_chemical_formula_sum   'Ga4 Pt4'
_cell_volume   122.98153803
_cell_formula_units_Z   4
loop_
 _symmetry_equiv_pos_site_id
 _symmetry_equiv_pos_as_xyz
  1  'x, y, z'
loop_
 _atom_site_type_symbol
 _atom_site_label
 _atom_site_symmetry_multiplicity
 _atom_site_fract_x
 _atom_site_fract_y
 _atom_site_fract_z
 _atom_site_occupancy
  Ga  Ga0  1  0.65843000  0.15843000  0.34157000  1
  Ga  Ga1  1  0.15843000  0.34157000  0.65843000  1
  Ga  Ga2  1  0.34157000  0.65843000  0.15843000  1
  Ga  Ga3  1  0.84157000  0.84157000  0.84157000  1
  Pt  Pt4  1  0.36027400  0.86027400  0.63972600  1
  Pt  Pt5  1  0.86027400  0.63972600  0.36027400  1
  Pt  Pt6  1  0.63972600  0.36027400  0.86027400  1
  Pt  Pt7  1  0.13972600  0.13972600  0.13972600  1
