# generated using pymatgen
data_KY(NbCl3)6
_symmetry_space_group_name_H-M   'P 1'
_cell_length_a   10.18507891
_cell_length_b   10.18507891
_cell_length_c   10.18507929
_cell_angle_alpha   55.13301684
_cell_angle_beta   55.13301684
_cell_angle_gamma   55.13301943
_symmetry_Int_Tables_number   1
_chemical_formula_structural   KY(NbCl3)6
_chemical_formula_sum   'K1 Y1 Nb6 Cl18'
_cell_volume   662.54393289
_cell_formula_units_Z   1
loop_
 _symmetry_equiv_pos_site_id
 _symmetry_equiv_pos_as_xyz
  1  'x, y, z'
loop_
 _atom_site_type_symbol
 _atom_site_label
 _atom_site_symmetry_multiplicity
 _atom_site_fract_x
 _atom_site_fract_y
 _atom_site_fract_z
 _atom_site_occupancy
  K  K0  1  0.22199000  0.22199000  0.22199000  1
  Y  Y1  1  0.49853300  0.49853300  0.49853300  1
  Nb  Nb2  1  0.79862000  0.14988400  0.91310300  1
  Nb  Nb3  1  0.91310300  0.79862000  0.14988400  1
  Nb  Nb4  1  0.14988400  0.91310300  0.79862000  1
  Nb  Nb5  1  0.20217000  0.85054300  0.08586800  1
  Nb  Nb6  1  0.08586800  0.20217000  0.85054300  1
  Nb  Nb7  1  0.85054300  0.08586800  0.20217000  1
  Cl  Cl8  1  0.86087300  0.41623500  0.72524400  1
  Cl  Cl9  1  0.72524400  0.86087300  0.41623500  1
  Cl  Cl10  1  0.41623500  0.72524400  0.86087300  1
  Cl  Cl11  1  0.13906700  0.58321000  0.27539900  1
  Cl  Cl12  1  0.27539900  0.13906700  0.58321000  1
  Cl  Cl13  1  0.58321000  0.27539900  0.13906700  1
  Cl  Cl14  1  0.52739800  0.34355100  0.80760300  1
  Cl  Cl15  1  0.80760300  0.52739800  0.34355100  1
  Cl  Cl16  1  0.34355100  0.80760300  0.52739800  1
  Cl  Cl17  1  0.46931600  0.65740400  0.19477000  1
  Cl  Cl18  1  0.19477000  0.46931600  0.65740400  1
  Cl  Cl19  1  0.65740400  0.19477000  0.46931600  1
  Cl  Cl20  1  0.65984700  0.93834500  0.07383900  1
  Cl  Cl21  1  0.07383900  0.65984700  0.93834500  1
  Cl  Cl22  1  0.93834500  0.07383900  0.65984700  1
  Cl  Cl23  1  0.34053500  0.06248100  0.92531100  1
  Cl  Cl24  1  0.92531100  0.34053500  0.06248100  1
  Cl  Cl25  1  0.06248100  0.92531100  0.34053500  1
