# generated using pymatgen
data_BaSi3Pd
_symmetry_space_group_name_H-M   'P 1'
_cell_length_a   6.05655965
_cell_length_b   6.05655965
_cell_length_c   6.05655965
_cell_angle_alpha   137.16598040
_cell_angle_beta   137.16598040
_cell_angle_gamma   62.18277015
_symmetry_Int_Tables_number   1
_chemical_formula_structural   BaSi3Pd
_chemical_formula_sum   'Ba1 Si3 Pd1'
_cell_volume   101.46979675
_cell_formula_units_Z   1
loop_
 _symmetry_equiv_pos_site_id
 _symmetry_equiv_pos_as_xyz
  1  'x, y, z'
loop_
 _atom_site_type_symbol
 _atom_site_label
 _atom_site_symmetry_multiplicity
 _atom_site_fract_x
 _atom_site_fract_y
 _atom_site_fract_z
 _atom_site_occupancy
  Ba  Ba0  1  0.61488200  0.61488200  0.00000000  1
  Si  Si1  1  0.00385100  0.00385100  0.00000000  1
  Si  Si2  1  0.36847100  0.86847100  0.50000000  1
  Si  Si3  1  0.86847100  0.36847100  0.50000000  1
  Pd  Pd4  1  0.26102500  0.26102500  0.00000000  1
