# generated using pymatgen
data_Dy9Al5S21
_symmetry_space_group_name_H-M   'P 1'
_cell_length_a   11.41075840
_cell_length_b   11.41075840
_cell_length_c   11.41075796
_cell_angle_alpha   94.58494593
_cell_angle_beta   94.58494593
_cell_angle_gamma   94.58494261
_symmetry_Int_Tables_number   1
_chemical_formula_structural   Dy9Al5S21
_chemical_formula_sum   'Dy18 Al10 S42'
_cell_volume   1470.66631982
_cell_formula_units_Z   2
loop_
 _symmetry_equiv_pos_site_id
 _symmetry_equiv_pos_as_xyz
  1  'x, y, z'
loop_
 _atom_site_type_symbol
 _atom_site_label
 _atom_site_symmetry_multiplicity
 _atom_site_fract_x
 _atom_site_fract_y
 _atom_site_fract_z
 _atom_site_occupancy
  Dy  Dy0  1  0.11534600  0.87806700  0.74088200  1
  Dy  Dy1  1  0.45572900  0.22223600  0.07430800  1
  Dy  Dy2  1  0.77060100  0.55043700  0.39940700  1
  Dy  Dy3  1  0.39940700  0.77060100  0.55043700  1
  Dy  Dy4  1  0.74088200  0.11534600  0.87806700  1
  Dy  Dy5  1  0.07430800  0.45572900  0.22223600  1
  Dy  Dy6  1  0.22223600  0.07430800  0.45572900  1
  Dy  Dy7  1  0.55043700  0.39940700  0.77060100  1
  Dy  Dy8  1  0.87806700  0.74088200  0.11534600  1
  Dy  Dy9  1  0.20826300  0.43768100  0.58240200  1
  Dy  Dy10  1  0.54765500  0.77950600  0.92944200  1
  Dy  Dy11  1  0.87353500  0.10402300  0.24514100  1
  Dy  Dy12  1  0.92944200  0.54765500  0.77950600  1
  Dy  Dy13  1  0.24514100  0.87353500  0.10402300  1
  Dy  Dy14  1  0.58240200  0.20826300  0.43768100  1
  Dy  Dy15  1  0.10402300  0.24514100  0.87353500  1
  Dy  Dy16  1  0.43768100  0.58240200  0.20826300  1
  Dy  Dy17  1  0.77950600  0.92944200  0.54765500  1
  Al  Al18  1  0.72136500  0.38832800  0.04957000  1
  Al  Al19  1  0.04957000  0.72136500  0.38832800  1
  Al  Al20  1  0.38832800  0.04957000  0.72136500  1
  Al  Al21  1  0.88415500  0.22603100  0.54921100  1
  Al  Al22  1  0.22603100  0.54921100  0.88415500  1
  Al  Al23  1  0.54921100  0.88415500  0.22603100  1
  Al  Al24  1  0.85457800  0.85457800  0.85457800  1
  Al  Al25  1  0.17130200  0.17130200  0.17130200  1
  Al  Al26  1  0.67096300  0.67096300  0.67096300  1
  Al  Al27  1  0.35472200  0.35472200  0.35472200  1
  S  S28  1  0.84226500  0.51145900  0.17459000  1
  S  S29  1  0.17459000  0.84226500  0.51145900  1
  S  S30  1  0.51145900  0.17459000  0.84226500  1
  S  S31  1  0.67513300  0.01044000  0.34263700  1
  S  S32  1  0.01044000  0.34263700  0.67513300  1
  S  S33  1  0.34263700  0.67513300  0.01044000  1
  S  S34  1  0.55397000  0.40595100  0.30901700  1
  S  S35  1  0.89146400  0.75636100  0.66279200  1
  S  S36  1  0.23721700  0.09615200  0.99656600  1
  S  S37  1  0.99656600  0.23721700  0.09615200  1
  S  S38  1  0.30901700  0.55397000  0.40595100  1
  S  S39  1  0.66279200  0.89146400  0.75636100  1
  S  S40  1  0.75636100  0.66279200  0.89146400  1
  S  S41  1  0.09615200  0.99656600  0.23721700  1
  S  S42  1  0.40595100  0.30901700  0.55397000  1
  S  S43  1  0.14863900  0.28424400  0.37617200  1
  S  S44  1  0.48389800  0.62115400  0.72554600  1
  S  S45  1  0.79103900  0.94207200  0.03614500  1
  S  S46  1  0.72554600  0.48389800  0.62115400  1
  S  S47  1  0.03614500  0.79103900  0.94207200  1
  S  S48  1  0.37617300  0.14863900  0.28424400  1
  S  S49  1  0.94207200  0.03614500  0.79103900  1
  S  S50  1  0.28424400  0.37617200  0.14863900  1
  S  S51  1  0.62115400  0.72554600  0.48389800  1
  S  S52  1  0.53918400  0.44619200  0.01149000  1
  S  S53  1  0.86881500  0.78224500  0.35604400  1
  S  S54  1  0.20313400  0.10405600  0.69357900  1
  S  S55  1  0.69357900  0.20313400  0.10405600  1
  S  S56  1  0.01149000  0.53918400  0.44619200  1
  S  S57  1  0.35604400  0.86881500  0.78224500  1
  S  S58  1  0.78224500  0.35604400  0.86881500  1
  S  S59  1  0.10405600  0.69357900  0.20313400  1
  S  S60  1  0.44619200  0.01149000  0.53918400  1
  S  S61  1  0.96415800  0.06561700  0.47491300  1
  S  S62  1  0.29907600  0.38528500  0.80977300  1
  S  S63  1  0.62956100  0.72012100  0.15701500  1
  S  S64  1  0.80977300  0.29907600  0.38528500  1
  S  S65  1  0.15701500  0.62956100  0.72012100  1
  S  S66  1  0.47491300  0.96415800  0.06561700  1
  S  S67  1  0.72012100  0.15701500  0.62956100  1
  S  S68  1  0.06561700  0.47491300  0.96415800  1
  S  S69  1  0.38528500  0.80977300  0.29907600  1
