# generated using pymatgen
data_Cu3B5Pt9
_symmetry_space_group_name_H-M   'P 1'
_cell_length_a   9.08876219
_cell_length_b   9.08876219
_cell_length_c   2.99690100
_cell_angle_alpha   90.00000000
_cell_angle_beta   90.00000000
_cell_angle_gamma   120.00000138
_symmetry_Int_Tables_number   1
_chemical_formula_structural   Cu3B5Pt9
_chemical_formula_sum   'Cu3 B5 Pt9'
_cell_volume   214.39393852
_cell_formula_units_Z   1
loop_
 _symmetry_equiv_pos_site_id
 _symmetry_equiv_pos_as_xyz
  1  'x, y, z'
loop_
 _atom_site_type_symbol
 _atom_site_label
 _atom_site_symmetry_multiplicity
 _atom_site_fract_x
 _atom_site_fract_y
 _atom_site_fract_z
 _atom_site_occupancy
  Cu  Cu0  1  0.45917700  0.00000000  0.00000000  1
  Cu  Cu1  1  0.00000000  0.45917700  0.00000000  1
  Cu  Cu2  1  0.54082300  0.54082300  0.00000000  1
  B  B3  1  0.81141400  0.00000000  0.50000000  1
  B  B4  1  0.00000000  0.81141400  0.50000000  1
  B  B5  1  0.18858600  0.18858600  0.50000000  1
  B  B6  1  0.66666700  0.33333300  0.00000000  1
  B  B7  1  0.33333300  0.66666700  0.00000000  1
  Pt  Pt8  1  0.80444300  0.53838400  0.50000000  1
  Pt  Pt9  1  0.46161600  0.26605900  0.50000000  1
  Pt  Pt10  1  0.73394100  0.19555700  0.50000000  1
  Pt  Pt11  1  0.26605900  0.46161600  0.50000000  1
  Pt  Pt12  1  0.19555700  0.73394100  0.50000000  1
  Pt  Pt13  1  0.53838400  0.80444300  0.50000000  1
  Pt  Pt14  1  0.17699800  0.00000000  0.00000000  1
  Pt  Pt15  1  0.00000000  0.17699800  0.00000000  1
  Pt  Pt16  1  0.82300200  0.82300200  0.00000000  1
