# generated using pymatgen
data_Zn2CrN3
_symmetry_space_group_name_H-M   'P 1'
_cell_length_a   5.54243700
_cell_length_b   5.54243700
_cell_length_c   5.24938600
_cell_angle_alpha   90.00000000
_cell_angle_beta   90.00000000
_cell_angle_gamma   119.60618049
_symmetry_Int_Tables_number   1
_chemical_formula_structural   Zn2CrN3
_chemical_formula_sum   'Zn4 Cr2 N6'
_cell_volume   140.20079499
_cell_formula_units_Z   2
loop_
 _symmetry_equiv_pos_site_id
 _symmetry_equiv_pos_as_xyz
  1  'x, y, z'
loop_
 _atom_site_type_symbol
 _atom_site_label
 _atom_site_symmetry_multiplicity
 _atom_site_fract_x
 _atom_site_fract_y
 _atom_site_fract_z
 _atom_site_occupancy
  Zn  Zn0  1  0.16835700  0.49841700  0.52699400  1
  Zn  Zn1  1  0.49841700  0.16835700  0.52699400  1
  Zn  Zn2  1  0.83164300  0.50158300  0.02699400  1
  Zn  Zn3  1  0.50158300  0.83164300  0.02699400  1
  Cr  Cr4  1  0.16324000  0.16324000  0.04038700  1
  Cr  Cr5  1  0.83676000  0.83676000  0.54038700  1
  N  N6  1  0.16576500  0.46970700  0.13717500  1
  N  N7  1  0.46970700  0.16576500  0.13717500  1
  N  N8  1  0.83423500  0.53029300  0.63717500  1
  N  N9  1  0.53029300  0.83423500  0.63717500  1
  N  N10  1  0.13923300  0.13923300  0.68689600  1
  N  N11  1  0.86076700  0.86076700  0.18689600  1
