# generated using pymatgen
data_TmAu4
_symmetry_space_group_name_H-M   'P 1'
_cell_length_a   5.22479174
_cell_length_b   5.22479174
_cell_length_c   5.22479174
_cell_angle_alpha   99.32207115
_cell_angle_beta   99.32207115
_cell_angle_gamma   132.53434852
_symmetry_Int_Tables_number   1
_chemical_formula_structural   TmAu4
_chemical_formula_sum   'Tm1 Au4'
_cell_volume   96.21112354
_cell_formula_units_Z   1
loop_
 _symmetry_equiv_pos_site_id
 _symmetry_equiv_pos_as_xyz
  1  'x, y, z'
loop_
 _atom_site_type_symbol
 _atom_site_label
 _atom_site_symmetry_multiplicity
 _atom_site_fract_x
 _atom_site_fract_y
 _atom_site_fract_z
 _atom_site_occupancy
  Tm  Tm0  1  0.00000000  0.00000000  0.00000000  1
  Au  Au1  1  0.40016600  0.20007200  0.60023900  1
  Au  Au2  1  0.59983400  0.79992800  0.39976100  1
  Au  Au3  1  0.79992800  0.40016600  0.20009400  1
  Au  Au4  1  0.20007200  0.59983400  0.79990600  1
