# generated using pymatgen
data_VP2PbO8
_symmetry_space_group_name_H-M   'P 1'
_cell_length_a   7.57088900
_cell_length_b   9.06855200
_cell_length_c   9.27412500
_cell_angle_alpha   90.00000000
_cell_angle_beta   90.00000000
_cell_angle_gamma   90.00000000
_symmetry_Int_Tables_number   1
_chemical_formula_structural   VP2PbO8
_chemical_formula_sum   'V4 P8 Pb4 O32'
_cell_volume   636.73360553
_cell_formula_units_Z   4
loop_
 _symmetry_equiv_pos_site_id
 _symmetry_equiv_pos_as_xyz
  1  'x, y, z'
loop_
 _atom_site_type_symbol
 _atom_site_label
 _atom_site_symmetry_multiplicity
 _atom_site_fract_x
 _atom_site_fract_y
 _atom_site_fract_z
 _atom_site_occupancy
  V  V0  1  0.27924700  0.74916300  0.49578400  1
  V  V1  1  0.72075300  0.24916300  0.00421600  1
  V  V2  1  0.77924700  0.75083700  0.50421600  1
  V  V3  1  0.22075300  0.25083700  0.99578400  1
  P  P4  1  0.19814600  0.96997300  0.77641200  1
  P  P5  1  0.80185400  0.46997300  0.72358800  1
  P  P6  1  0.69814600  0.53002700  0.22358800  1
  P  P7  1  0.30185400  0.03002700  0.27641200  1
  P  P8  1  0.30210300  0.52922100  0.22276700  1
  P  P9  1  0.69789700  0.02922100  0.27723300  1
  P  P10  1  0.80210300  0.97077900  0.77723300  1
  P  P11  1  0.19789700  0.47077900  0.72276700  1
  Pb  Pb12  1  0.49964500  0.18367300  0.59603000  1
  Pb  Pb13  1  0.50035500  0.68367300  0.90397000  1
  Pb  Pb14  1  0.99964500  0.31632700  0.40397000  1
  Pb  Pb15  1  0.00035500  0.81632700  0.09603000  1
  O  O16  1  0.00007300  0.01621500  0.73187300  1
  O  O17  1  0.99992700  0.51621500  0.76812700  1
  O  O18  1  0.50007300  0.48378500  0.26812700  1
  O  O19  1  0.49992700  0.98378500  0.23187300  1
  O  O20  1  0.49879200  0.74652200  0.46666700  1
  O  O21  1  0.50120800  0.24652200  0.03333300  1
  O  O22  1  0.99879200  0.75347800  0.53333300  1
  O  O23  1  0.00120800  0.25347800  0.96666700  1
  O  O24  1  0.29100800  0.92685000  0.63482800  1
  O  O25  1  0.70899200  0.42685000  0.86517200  1
  O  O26  1  0.79100800  0.57315000  0.36517200  1
  O  O27  1  0.20899200  0.07315000  0.13482800  1
  O  O28  1  0.21211900  0.57481800  0.36541600  1
  O  O29  1  0.78788100  0.07481800  0.13458400  1
  O  O30  1  0.71211900  0.92518200  0.63458400  1
  O  O31  1  0.28788100  0.42518200  0.86541600  1
  O  O32  1  0.19444700  0.84778700  0.88824500  1
  O  O33  1  0.80555300  0.34778700  0.61175500  1
  O  O34  1  0.69444700  0.65221300  0.11175500  1
  O  O35  1  0.30555300  0.15221300  0.38824500  1
  O  O36  1  0.30562500  0.65154100  0.11098600  1
  O  O37  1  0.69437500  0.15154100  0.38901400  1
  O  O38  1  0.80562500  0.84845900  0.88901400  1
  O  O39  1  0.19437500  0.34845900  0.61098600  1
  O  O40  1  0.28625900  0.61355900  0.67070400  1
  O  O41  1  0.71374100  0.11355900  0.82929600  1
  O  O42  1  0.78625900  0.88644100  0.32929600  1
  O  O43  1  0.21374100  0.38644100  0.17070400  1
  O  O44  1  0.21577200  0.88646000  0.33068500  1
  O  O45  1  0.78422800  0.38646000  0.16931500  1
  O  O46  1  0.71577200  0.61354000  0.66931500  1
  O  O47  1  0.28422800  0.11354000  0.83068500  1
