# generated using pymatgen
data_Cs6Na4Tl13
_symmetry_space_group_name_H-M   'P 1'
_cell_length_a   10.53485089
_cell_length_b   10.53485089
_cell_length_c   10.53485089
_cell_angle_alpha   109.47122063
_cell_angle_beta   109.47122063
_cell_angle_gamma   109.47122063
_symmetry_Int_Tables_number   1
_chemical_formula_structural   Cs6Na4Tl13
_chemical_formula_sum   'Cs6 Na4 Tl13'
_cell_volume   900.04306271
_cell_formula_units_Z   1
loop_
 _symmetry_equiv_pos_site_id
 _symmetry_equiv_pos_as_xyz
  1  'x, y, z'
loop_
 _atom_site_type_symbol
 _atom_site_label
 _atom_site_symmetry_multiplicity
 _atom_site_fract_x
 _atom_site_fract_y
 _atom_site_fract_z
 _atom_site_occupancy
  Cs  Cs0  1  0.82937300  0.32937300  0.50000000  1
  Cs  Cs1  1  0.17062700  0.67062700  0.50000000  1
  Cs  Cs2  1  0.32937300  0.50000000  0.82937300  1
  Cs  Cs3  1  0.67062700  0.50000000  0.17062700  1
  Cs  Cs4  1  0.50000000  0.82937300  0.32937300  1
  Cs  Cs5  1  0.50000000  0.17062700  0.67062700  1
  Na  Na6  1  0.50000000  0.50000000  0.50000000  1
  Na  Na7  1  0.50000000  0.00000000  0.00000000  1
  Na  Na8  1  0.00000000  0.50000000  0.00000000  1
  Na  Na9  1  0.00000000  0.00000000  0.50000000  1
  Tl  Tl10  1  0.00000000  0.00000000  0.00000000  1
  Tl  Tl11  1  0.86061300  0.76610200  0.62671500  1
  Tl  Tl12  1  0.13938700  0.23389800  0.37328500  1
  Tl  Tl13  1  0.13938700  0.76610200  0.90549000  1
  Tl  Tl14  1  0.86061300  0.23389800  0.09451000  1
  Tl  Tl15  1  0.76610200  0.62671500  0.86061300  1
  Tl  Tl16  1  0.23389800  0.37328500  0.13938700  1
  Tl  Tl17  1  0.76610200  0.90549000  0.13938700  1
  Tl  Tl18  1  0.23389800  0.09451000  0.86061300  1
  Tl  Tl19  1  0.62671500  0.86061300  0.76610200  1
  Tl  Tl20  1  0.37328500  0.13938700  0.23389800  1
  Tl  Tl21  1  0.09451000  0.86061300  0.23389800  1
  Tl  Tl22  1  0.90549000  0.13938700  0.76610200  1
