# generated using pymatgen
data_RbTi3Si2P6O25
_symmetry_space_group_name_H-M   'P 1'
_cell_length_a   8.34764780
_cell_length_b   8.34764780
_cell_length_c   17.40769500
_cell_angle_alpha   90.00000000
_cell_angle_beta   90.00000000
_cell_angle_gamma   119.99999842
_symmetry_Int_Tables_number   1
_chemical_formula_structural   RbTi3Si2P6O25
_chemical_formula_sum   'Rb2 Ti6 Si4 P12 O50'
_cell_volume   1050.50988169
_cell_formula_units_Z   2
loop_
 _symmetry_equiv_pos_site_id
 _symmetry_equiv_pos_as_xyz
  1  'x, y, z'
loop_
 _atom_site_type_symbol
 _atom_site_label
 _atom_site_symmetry_multiplicity
 _atom_site_fract_x
 _atom_site_fract_y
 _atom_site_fract_z
 _atom_site_occupancy
  Rb  Rb0  1  0.66666700  0.33333300  0.75000000  1
  Rb  Rb1  1  0.33333300  0.66666700  0.25000000  1
  Ti  Ti2  1  0.33333300  0.66666700  0.75000000  1
  Ti  Ti3  1  0.66666700  0.33333300  0.25000000  1
  Ti  Ti4  1  0.66666700  0.33333300  0.52346000  1
  Ti  Ti5  1  0.33333300  0.66666700  0.47654000  1
  Ti  Ti6  1  0.66666700  0.33333300  0.97654000  1
  Ti  Ti7  1  0.33333300  0.66666700  0.02346000  1
  Si  Si8  1  0.00000000  0.00000000  0.59186200  1
  Si  Si9  1  0.00000000  0.00000000  0.40813800  1
  Si  Si10  1  0.00000000  0.00000000  0.90813800  1
  Si  Si11  1  0.00000000  0.00000000  0.09186200  1
  P  P12  1  0.33246700  0.38288900  0.60943200  1
  P  P13  1  0.66753300  0.61711100  0.39056800  1
  P  P14  1  0.61711100  0.94957800  0.60943200  1
  P  P15  1  0.33246700  0.94957800  0.89056800  1
  P  P16  1  0.38288900  0.05042200  0.39056800  1
  P  P17  1  0.66753300  0.05042200  0.10943200  1
  P  P18  1  0.05042200  0.66753300  0.60943200  1
  P  P19  1  0.61711100  0.66753300  0.89056800  1
  P  P20  1  0.94957800  0.33246700  0.39056800  1
  P  P21  1  0.38288900  0.33246700  0.10943200  1
  P  P22  1  0.05042200  0.38288900  0.89056800  1
  P  P23  1  0.94957800  0.61711100  0.10943200  1
  O  O24  1  0.83321300  0.02901700  0.62476100  1
  O  O25  1  0.16678700  0.97098300  0.37523900  1
  O  O26  1  0.97098300  0.80419500  0.62476100  1
  O  O27  1  0.83321300  0.80419500  0.87523900  1
  O  O28  1  0.02901700  0.19580500  0.37523900  1
  O  O29  1  0.16678700  0.19580500  0.12476100  1
  O  O30  1  0.19580500  0.16678700  0.62476100  1
  O  O31  1  0.97098300  0.16678700  0.87523900  1
  O  O32  1  0.80419500  0.83321300  0.37523900  1
  O  O33  1  0.02901700  0.83321300  0.12476100  1
  O  O34  1  0.19580500  0.02901700  0.87523900  1
  O  O35  1  0.80419500  0.97098300  0.12476100  1
  O  O36  1  0.34001200  0.47533100  0.68576900  1
  O  O37  1  0.65998800  0.52466900  0.31423100  1
  O  O38  1  0.52466900  0.86468100  0.68576900  1
  O  O39  1  0.34001200  0.86468100  0.81423100  1
  O  O40  1  0.47533100  0.13531900  0.31423100  1
  O  O41  1  0.65998800  0.13531900  0.18576900  1
  O  O42  1  0.13531900  0.65998800  0.68576900  1
  O  O43  1  0.52466900  0.65998800  0.81423100  1
  O  O44  1  0.86468100  0.34001200  0.31423100  1
  O  O45  1  0.47533100  0.34001200  0.18576900  1
  O  O46  1  0.13531900  0.47533100  0.81423100  1
  O  O47  1  0.86468100  0.52466900  0.18576900  1
  O  O48  1  0.59622600  0.11800600  0.59163100  1
  O  O49  1  0.40377400  0.88199400  0.40836900  1
  O  O50  1  0.88199400  0.47822000  0.59163100  1
  O  O51  1  0.59622600  0.47822000  0.90836900  1
  O  O52  1  0.11800600  0.52178000  0.40836900  1
  O  O53  1  0.40377400  0.52178000  0.09163100  1
  O  O54  1  0.52178000  0.40377400  0.59163100  1
  O  O55  1  0.88199400  0.40377400  0.90836900  1
  O  O56  1  0.47822000  0.59622600  0.40836900  1
  O  O57  1  0.11800600  0.59622600  0.09163100  1
  O  O58  1  0.52178000  0.11800600  0.90836900  1
  O  O59  1  0.47822000  0.88199400  0.09163100  1
  O  O60  1  0.25535900  0.44439000  0.54315000  1
  O  O61  1  0.74464100  0.55561000  0.45685000  1
  O  O62  1  0.55561000  0.81096900  0.54315000  1
  O  O63  1  0.25535900  0.81096900  0.95685000  1
  O  O64  1  0.44439000  0.18903100  0.45685000  1
  O  O65  1  0.74464100  0.18903100  0.04315000  1
  O  O66  1  0.18903100  0.74464100  0.54315000  1
  O  O67  1  0.55561000  0.74464100  0.95685000  1
  O  O68  1  0.81096900  0.25535900  0.45685000  1
  O  O69  1  0.44439000  0.25535900  0.04315000  1
  O  O70  1  0.18903100  0.44439000  0.95685000  1
  O  O71  1  0.81096900  0.55561000  0.04315000  1
  O  O72  1  0.00000000  0.00000000  0.50000000  1
  O  O73  1  0.00000000  0.00000000  0.00000000  1
