# generated using pymatgen
data_TmSn2
_symmetry_space_group_name_H-M   'P 1'
_cell_length_a   8.39796135
_cell_length_b   8.39796135
_cell_length_c   4.34792500
_cell_angle_alpha   90.00000000
_cell_angle_beta   90.00000000
_cell_angle_gamma   149.65416038
_symmetry_Int_Tables_number   1
_chemical_formula_structural   TmSn2
_chemical_formula_sum   'Tm2 Sn4'
_cell_volume   154.92046613
_cell_formula_units_Z   2
loop_
 _symmetry_equiv_pos_site_id
 _symmetry_equiv_pos_as_xyz
  1  'x, y, z'
loop_
 _atom_site_type_symbol
 _atom_site_label
 _atom_site_symmetry_multiplicity
 _atom_site_fract_x
 _atom_site_fract_y
 _atom_site_fract_z
 _atom_site_occupancy
  Tm  Tm0  1  0.90129600  0.09870400  0.75000000  1
  Tm  Tm1  1  0.09870400  0.90129600  0.25000000  1
  Sn  Sn2  1  0.56406600  0.43593400  0.75000000  1
  Sn  Sn3  1  0.43593400  0.56406600  0.25000000  1
  Sn  Sn4  1  0.25051700  0.74948300  0.75000000  1
  Sn  Sn5  1  0.74948300  0.25051700  0.25000000  1
