# generated using pymatgen
data_Tb4MgNi
_symmetry_space_group_name_H-M   'P 1'
_cell_length_a   9.64667032
_cell_length_b   9.64667032
_cell_length_c   9.64667032
_cell_angle_alpha   60.00000000
_cell_angle_beta   60.00000000
_cell_angle_gamma   60.00000000
_symmetry_Int_Tables_number   1
_chemical_formula_structural   Tb4MgNi
_chemical_formula_sum   'Tb16 Mg4 Ni4'
_cell_volume   634.77134272
_cell_formula_units_Z   4
loop_
 _symmetry_equiv_pos_site_id
 _symmetry_equiv_pos_as_xyz
  1  'x, y, z'
loop_
 _atom_site_type_symbol
 _atom_site_label
 _atom_site_symmetry_multiplicity
 _atom_site_fract_x
 _atom_site_fract_y
 _atom_site_fract_z
 _atom_site_occupancy
  Tb  Tb0  1  0.18426600  0.81573400  0.81573400  1
  Tb  Tb1  1  0.81573400  0.18426600  0.18426600  1
  Tb  Tb2  1  0.81573400  0.18426600  0.81573400  1
  Tb  Tb3  1  0.18426600  0.81573400  0.18426600  1
  Tb  Tb4  1  0.81573400  0.81573400  0.18426600  1
  Tb  Tb5  1  0.18426600  0.18426600  0.81573400  1
  Tb  Tb6  1  0.06194100  0.43805900  0.43805900  1
  Tb  Tb7  1  0.43805900  0.06194100  0.06194100  1
  Tb  Tb8  1  0.43805900  0.06194100  0.43805900  1
  Tb  Tb9  1  0.06194100  0.43805900  0.06194100  1
  Tb  Tb10  1  0.43805900  0.43805900  0.06194100  1
  Tb  Tb11  1  0.06194100  0.06194100  0.43805900  1
  Tb  Tb12  1  0.59607000  0.59607000  0.59607000  1
  Tb  Tb13  1  0.59607000  0.59607000  0.21178900  1
  Tb  Tb14  1  0.59607000  0.21178900  0.59607000  1
  Tb  Tb15  1  0.21178900  0.59607000  0.59607000  1
  Mg  Mg16  1  0.83027900  0.83027900  0.83027900  1
  Mg  Mg17  1  0.83027900  0.83027900  0.50916300  1
  Mg  Mg18  1  0.83027900  0.50916300  0.83027900  1
  Mg  Mg19  1  0.50916300  0.83027900  0.83027900  1
  Ni  Ni20  1  0.39146200  0.39146200  0.39146200  1
  Ni  Ni21  1  0.39146200  0.39146200  0.82561500  1
  Ni  Ni22  1  0.39146200  0.82561500  0.39146200  1
  Ni  Ni23  1  0.82561500  0.39146200  0.39146200  1
