# generated using pymatgen
data_KCa2Cd2Sb3
_symmetry_space_group_name_H-M   'P 1'
_cell_length_a   4.84284800
_cell_length_b   12.48523000
_cell_length_c   16.09790900
_cell_angle_alpha   90.00000000
_cell_angle_beta   90.00000000
_cell_angle_gamma   90.00000000
_symmetry_Int_Tables_number   1
_chemical_formula_structural   KCa2Cd2Sb3
_chemical_formula_sum   'K4 Ca8 Cd8 Sb12'
_cell_volume   973.34511490
_cell_formula_units_Z   4
loop_
 _symmetry_equiv_pos_site_id
 _symmetry_equiv_pos_as_xyz
  1  'x, y, z'
loop_
 _atom_site_type_symbol
 _atom_site_label
 _atom_site_symmetry_multiplicity
 _atom_site_fract_x
 _atom_site_fract_y
 _atom_site_fract_z
 _atom_site_occupancy
  K  K0  1  0.75000000  0.08970600  0.03929700  1
  K  K1  1  0.75000000  0.58970600  0.46070300  1
  K  K2  1  0.25000000  0.91029400  0.96070300  1
  K  K3  1  0.25000000  0.41029400  0.53929700  1
  Ca  Ca4  1  0.75000000  0.39980300  0.92265000  1
  Ca  Ca5  1  0.75000000  0.89980300  0.57735000  1
  Ca  Ca6  1  0.25000000  0.60019700  0.07735000  1
  Ca  Ca7  1  0.25000000  0.10019700  0.42265000  1
  Ca  Ca8  1  0.75000000  0.14347800  0.77727500  1
  Ca  Ca9  1  0.75000000  0.64347800  0.72272500  1
  Ca  Ca10  1  0.25000000  0.85652200  0.22272500  1
  Ca  Ca11  1  0.25000000  0.35652200  0.27727500  1
  Cd  Cd12  1  0.75000000  0.20162400  0.57302900  1
  Cd  Cd13  1  0.75000000  0.70162400  0.92697100  1
  Cd  Cd14  1  0.25000000  0.79837600  0.42697100  1
  Cd  Cd15  1  0.25000000  0.29837600  0.07302900  1
  Cd  Cd16  1  0.75000000  0.12319800  0.27923400  1
  Cd  Cd17  1  0.75000000  0.62319800  0.22076600  1
  Cd  Cd18  1  0.25000000  0.87680200  0.72076600  1
  Cd  Cd19  1  0.25000000  0.37680200  0.77923400  1
  Sb  Sb20  1  0.75000000  0.41843600  0.12456200  1
  Sb  Sb21  1  0.75000000  0.91843600  0.37543800  1
  Sb  Sb22  1  0.25000000  0.58156400  0.87543800  1
  Sb  Sb23  1  0.25000000  0.08156400  0.62456200  1
  Sb  Sb24  1  0.75000000  0.38962800  0.68886100  1
  Sb  Sb25  1  0.75000000  0.88962800  0.81113900  1
  Sb  Sb26  1  0.25000000  0.61037200  0.31113900  1
  Sb  Sb27  1  0.25000000  0.11037200  0.18886100  1
  Sb  Sb28  1  0.75000000  0.79045300  0.09312500  1
  Sb  Sb29  1  0.75000000  0.29045300  0.40687500  1
  Sb  Sb30  1  0.25000000  0.20954700  0.90687500  1
  Sb  Sb31  1  0.25000000  0.70954700  0.59312500  1
