# generated using pymatgen
data_CsSiSbO5
_symmetry_space_group_name_H-M   'P 1'
_cell_length_a   7.29214693
_cell_length_b   7.29214693
_cell_length_c   19.94927900
_cell_angle_alpha   90.00000000
_cell_angle_beta   90.00000000
_cell_angle_gamma   90.01543421
_symmetry_Int_Tables_number   1
_chemical_formula_structural   CsSiSbO5
_chemical_formula_sum   'Cs8 Si8 Sb8 O40'
_cell_volume   1060.81098997
_cell_formula_units_Z   8
loop_
 _symmetry_equiv_pos_site_id
 _symmetry_equiv_pos_as_xyz
  1  'x, y, z'
loop_
 _atom_site_type_symbol
 _atom_site_label
 _atom_site_symmetry_multiplicity
 _atom_site_fract_x
 _atom_site_fract_y
 _atom_site_fract_z
 _atom_site_occupancy
  Cs  Cs0  1  0.99972200  0.49893200  0.61346300  1
  Cs  Cs1  1  0.49893200  0.99972200  0.11346300  1
  Cs  Cs2  1  0.99972200  0.49893200  0.88653700  1
  Cs  Cs3  1  0.49893200  0.99972200  0.38653700  1
  Cs  Cs4  1  0.50006800  0.50006800  0.00000000  1
  Cs  Cs5  1  0.50006800  0.50006800  0.50000000  1
  Cs  Cs6  1  0.97524100  0.02730000  0.25000000  1
  Cs  Cs7  1  0.02730000  0.97524100  0.75000000  1
  Si  Si8  1  0.72465500  0.50035600  0.16934900  1
  Si  Si9  1  0.27483500  0.50025100  0.16939700  1
  Si  Si10  1  0.50035600  0.72465500  0.66934900  1
  Si  Si11  1  0.50025100  0.27483500  0.66939700  1
  Si  Si12  1  0.72465500  0.50035600  0.33065100  1
  Si  Si13  1  0.27483500  0.50025100  0.33060300  1
  Si  Si14  1  0.50025100  0.27483500  0.83060300  1
  Si  Si15  1  0.50035600  0.72465500  0.83065100  1
  Sb  Sb16  1  0.00010600  0.24840200  0.06578900  1
  Sb  Sb17  1  0.00008100  0.75189900  0.06603600  1
  Sb  Sb18  1  0.75189900  0.00008100  0.56603600  1
  Sb  Sb19  1  0.24840200  0.00010600  0.56578900  1
  Sb  Sb20  1  0.00008100  0.75189900  0.43396400  1
  Sb  Sb21  1  0.00010600  0.24840200  0.43421100  1
  Sb  Sb22  1  0.75189900  0.00008100  0.93396400  1
  Sb  Sb23  1  0.24840200  0.00010600  0.93421100  1
  O  O24  1  0.80414500  0.31152700  0.13596600  1
  O  O25  1  0.19609900  0.68845200  0.13559200  1
  O  O26  1  0.68875700  0.80384900  0.63579900  1
  O  O27  1  0.31149400  0.19545900  0.63591000  1
  O  O28  1  0.80384900  0.68875700  0.36420100  1
  O  O29  1  0.19545900  0.31149400  0.36409000  1
  O  O30  1  0.68845200  0.19609900  0.86440800  1
  O  O31  1  0.31152700  0.80414500  0.86403400  1
  O  O32  1  0.19609900  0.68845200  0.36440800  1
  O  O33  1  0.80414500  0.31152700  0.36403400  1
  O  O34  1  0.31149400  0.19545900  0.86409000  1
  O  O35  1  0.68875700  0.80384900  0.86420100  1
  O  O36  1  0.19545900  0.31149400  0.13591000  1
  O  O37  1  0.80384900  0.68875700  0.13579900  1
  O  O38  1  0.31152700  0.80414500  0.63596600  1
  O  O39  1  0.68845200  0.19609900  0.63559200  1
  O  O40  1  0.99976800  0.50013900  0.03116900  1
  O  O41  1  0.50013900  0.99976800  0.53116900  1
  O  O42  1  0.99976800  0.50013900  0.46883100  1
  O  O43  1  0.50013900  0.99976800  0.96883100  1
  O  O44  1  0.76663800  0.49884200  0.25000000  1
  O  O45  1  0.23321800  0.49923100  0.25000000  1
  O  O46  1  0.49884200  0.76663800  0.75000000  1
  O  O47  1  0.49923100  0.23321800  0.75000000  1
  O  O48  1  0.49985600  0.49999300  0.15957300  1
  O  O49  1  0.49999300  0.49985600  0.65957300  1
  O  O50  1  0.49985600  0.49999300  0.34042700  1
  O  O51  1  0.49999300  0.49985600  0.84042700  1
  O  O52  1  0.80070000  0.19940400  0.99998000  1
  O  O53  1  0.19940400  0.80070000  0.00002000  1
  O  O54  1  0.80087900  0.80087900  0.50000000  1
  O  O55  1  0.19961200  0.19961200  0.50000000  1
  O  O56  1  0.19940400  0.80070000  0.49998000  1
  O  O57  1  0.80070000  0.19940400  0.50002000  1
  O  O58  1  0.19961200  0.19961200  0.00000000  1
  O  O59  1  0.80087900  0.80087900  0.00000000  1
  O  O60  1  0.00012900  0.00024800  0.10624900  1
  O  O61  1  0.00024800  0.00012900  0.60624900  1
  O  O62  1  0.00012900  0.00024800  0.39375100  1
  O  O63  1  0.00024800  0.00012900  0.89375100  1
