# generated using pymatgen
data_TbFeSi2
_symmetry_space_group_name_H-M   'P 1'
_cell_length_a   3.95061500
_cell_length_b   4.28490200
_cell_length_c   7.95105298
_cell_angle_alpha   76.90624843
_cell_angle_beta   90.00000000
_cell_angle_gamma   90.00000000
_symmetry_Int_Tables_number   1
_chemical_formula_structural   TbFeSi2
_chemical_formula_sum   'Tb2 Fe2 Si4'
_cell_volume   131.09602057
_cell_formula_units_Z   2
loop_
 _symmetry_equiv_pos_site_id
 _symmetry_equiv_pos_as_xyz
  1  'x, y, z'
loop_
 _atom_site_type_symbol
 _atom_site_label
 _atom_site_symmetry_multiplicity
 _atom_site_fract_x
 _atom_site_fract_y
 _atom_site_fract_z
 _atom_site_occupancy
  Tb  Tb0  1  0.25000000  0.59582600  0.79485600  1
  Tb  Tb1  1  0.75000000  0.40417400  0.20514400  1
  Fe  Fe2  1  0.25000000  0.88287500  0.39102400  1
  Fe  Fe3  1  0.75000000  0.11712500  0.60897600  1
  Si  Si4  1  0.25000000  0.95977700  0.09769500  1
  Si  Si5  1  0.75000000  0.04022300  0.90230500  1
  Si  Si6  1  0.25000000  0.32936900  0.49246900  1
  Si  Si7  1  0.75000000  0.67063100  0.50753100  1
