# generated using pymatgen
data_BaHgPb
_symmetry_space_group_name_H-M   'P 1'
_cell_length_a   6.74149774
_cell_length_b   6.74149774
_cell_length_c   8.59456253
_cell_angle_alpha   50.62009803
_cell_angle_beta   50.62009803
_cell_angle_gamma   47.82835287
_symmetry_Int_Tables_number   1
_chemical_formula_structural   BaHgPb
_chemical_formula_sum   'Ba2 Hg2 Pb2'
_cell_volume   208.41503045
_cell_formula_units_Z   2
loop_
 _symmetry_equiv_pos_site_id
 _symmetry_equiv_pos_as_xyz
  1  'x, y, z'
loop_
 _atom_site_type_symbol
 _atom_site_label
 _atom_site_symmetry_multiplicity
 _atom_site_fract_x
 _atom_site_fract_y
 _atom_site_fract_z
 _atom_site_occupancy
  Ba  Ba0  1  0.46479700  0.46479700  0.28645600  1
  Ba  Ba1  1  0.53520300  0.53520300  0.71354400  1
  Hg  Hg2  1  0.83927700  0.83927700  0.71158300  1
  Hg  Hg3  1  0.16072300  0.16072300  0.28841700  1
  Pb  Pb4  1  0.16455800  0.16455800  0.89309600  1
  Pb  Pb5  1  0.83544200  0.83544200  0.10690400  1
