# generated using pymatgen
data_KCuIO6
_symmetry_space_group_name_H-M   'P 1'
_cell_length_a   5.15450141
_cell_length_b   5.15450141
_cell_length_c   6.19822100
_cell_angle_alpha   90.00000000
_cell_angle_beta   90.00000000
_cell_angle_gamma   119.99999249
_symmetry_Int_Tables_number   1
_chemical_formula_structural   KCuIO6
_chemical_formula_sum   'K1 Cu1 I1 O6'
_cell_volume   142.61691834
_cell_formula_units_Z   1
loop_
 _symmetry_equiv_pos_site_id
 _symmetry_equiv_pos_as_xyz
  1  'x, y, z'
loop_
 _atom_site_type_symbol
 _atom_site_label
 _atom_site_symmetry_multiplicity
 _atom_site_fract_x
 _atom_site_fract_y
 _atom_site_fract_z
 _atom_site_occupancy
  K  K0  1  0.00000000  0.00000000  0.00000000  1
  Cu  Cu1  1  0.33333300  0.66666700  0.50000000  1
  I  I2  1  0.66666700  0.33333300  0.50000000  1
  O  O3  1  0.38543400  0.00964800  0.67558300  1
  O  O4  1  0.99035200  0.37578500  0.67558300  1
  O  O5  1  0.62421500  0.61456600  0.67558300  1
  O  O6  1  0.99035200  0.61456600  0.32441700  1
  O  O7  1  0.62421500  0.00964800  0.32441700  1
  O  O8  1  0.38543400  0.37578500  0.32441700  1
