# generated using pymatgen
data_K4Ba2SnAs4
_symmetry_space_group_name_H-M   'P 1'
_cell_length_a   10.64956965
_cell_length_b   10.64956965
_cell_length_c   8.05121075
_cell_angle_alpha   89.35379250
_cell_angle_beta   89.35379250
_cell_angle_gamma   119.46475861
_symmetry_Int_Tables_number   1
_chemical_formula_structural   K4Ba2SnAs4
_chemical_formula_sum   'K8 Ba4 Sn2 As8'
_cell_volume   794.81190677
_cell_formula_units_Z   2
loop_
 _symmetry_equiv_pos_site_id
 _symmetry_equiv_pos_as_xyz
  1  'x, y, z'
loop_
 _atom_site_type_symbol
 _atom_site_label
 _atom_site_symmetry_multiplicity
 _atom_site_fract_x
 _atom_site_fract_y
 _atom_site_fract_z
 _atom_site_occupancy
  K  K0  1  0.47544000  0.94975800  0.38100700  1
  K  K1  1  0.94975800  0.47544000  0.88100700  1
  K  K2  1  0.86204100  0.72042400  0.19420400  1
  K  K3  1  0.28236700  0.13496800  0.20847600  1
  K  K4  1  0.85311800  0.13815100  0.20172500  1
  K  K5  1  0.13496800  0.28236700  0.70847600  1
  K  K6  1  0.72042400  0.86204100  0.69420400  1
  K  K7  1  0.13815100  0.85311800  0.70172500  1
  Ba  Ba8  1  0.05297900  0.52909700  0.38002100  1
  Ba  Ba9  1  0.47679000  0.53125300  0.37989300  1
  Ba  Ba10  1  0.52909700  0.05297900  0.88002100  1
  Ba  Ba11  1  0.53125300  0.47679000  0.87989300  1
  Sn  Sn12  1  0.66416100  0.32916800  0.49819300  1
  Sn  Sn13  1  0.32916800  0.66416100  0.99819300  1
  As  As14  1  0.66102300  0.33708400  0.16226600  1
  As  As15  1  0.33708400  0.66102300  0.66226600  1
  As  As16  1  0.20103400  0.39024800  0.11510500  1
  As  As17  1  0.60747400  0.79936000  0.09357500  1
  As  As18  1  0.19702200  0.80684900  0.10320300  1
  As  As19  1  0.79936000  0.60747400  0.59357500  1
  As  As20  1  0.39024800  0.20103400  0.61510500  1
  As  As21  1  0.80684900  0.19702200  0.60320300  1
