# generated using pymatgen
data_TlFe(SO4)2
_symmetry_space_group_name_H-M   'P 1'
_cell_length_a   8.96378156
_cell_length_b   10.35086822
_cell_length_c   8.35320002
_cell_angle_alpha   89.99971256
_cell_angle_beta   89.99366397
_cell_angle_gamma   90.00039506
_symmetry_Int_Tables_number   1
_chemical_formula_structural   TlFe(SO4)2
_chemical_formula_sum   'Tl4 Fe4 S8 O32'
_cell_volume   775.03429894
_cell_formula_units_Z   4
loop_
 _symmetry_equiv_pos_site_id
 _symmetry_equiv_pos_as_xyz
  1  'x, y, z'
loop_
 _atom_site_type_symbol
 _atom_site_label
 _atom_site_symmetry_multiplicity
 _atom_site_fract_x
 _atom_site_fract_y
 _atom_site_fract_z
 _atom_site_occupancy
  Tl  Tl0  1  0.99987600  0.49969700  0.49990300  1
  Tl  Tl1  1  0.50003100  0.74970900  0.49995400  1
  Tl  Tl2  1  0.00005400  0.99947700  0.49987300  1
  Tl  Tl3  1  0.50004200  0.24966100  0.49989600  1
  Fe  Fe4  1  0.99999100  0.50016800  0.99997800  1
  Fe  Fe5  1  0.50000800  0.24977700  0.99992800  1
  Fe  Fe6  1  0.50011900  0.74973200  0.00017700  1
  Fe  Fe7  1  0.99997500  0.00032200  0.99984500  1
  S  S8  1  0.16654900  0.25008700  0.79356000  1
  S  S9  1  0.66659900  0.50001000  0.79354800  1
  S  S10  1  0.16658700  0.75000900  0.79366400  1
  S  S11  1  0.66651900  0.99999700  0.79360200  1
  S  S12  1  0.33337100  0.49997100  0.20652200  1
  S  S13  1  0.83353700  0.75003800  0.20639600  1
  S  S14  1  0.33340900  0.00003800  0.20639500  1
  S  S15  1  0.83344300  0.25007100  0.20637900  1
  O  O16  1  0.16688200  0.24994200  0.61845100  1
  O  O17  1  0.66677600  0.49997800  0.61842400  1
  O  O18  1  0.16694100  0.74978300  0.61853500  1
  O  O19  1  0.66664400  0.99987000  0.61847900  1
  O  O20  1  0.33320400  0.49984100  0.38164900  1
  O  O21  1  0.83322500  0.74983200  0.38151900  1
  O  O22  1  0.33322000  0.99997800  0.38153100  1
  O  O23  1  0.83302100  0.24983300  0.38149400  1
  O  O24  1  0.09481700  0.12952900  0.85344800  1
  O  O25  1  0.59474300  0.37965200  0.85353100  1
  O  O26  1  0.09479900  0.62949300  0.85359300  1
  O  O27  1  0.59475800  0.87966000  0.85373800  1
  O  O28  1  0.08152100  0.36398200  0.85322300  1
  O  O29  1  0.58192700  0.61414300  0.85337000  1
  O  O30  1  0.08155200  0.86396500  0.85319200  1
  O  O31  1  0.58182600  0.11415400  0.85332400  1
  O  O32  1  0.40512800  0.37959200  0.14645600  1
  O  O33  1  0.90516000  0.62948500  0.14642300  1
  O  O34  1  0.40520900  0.87966000  0.14639000  1
  O  O35  1  0.90513600  0.12952400  0.14640900  1
  O  O36  1  0.32271900  0.25661900  0.85392300  1
  O  O37  1  0.82286700  0.50658600  0.85365000  1
  O  O38  1  0.32274600  0.75650700  0.85406800  1
  O  O39  1  0.82281100  0.00670300  0.85364300  1
  O  O40  1  0.41819100  0.61409400  0.14683000  1
  O  O41  1  0.91849900  0.86396500  0.14675100  1
  O  O42  1  0.41818700  0.11415000  0.14667100  1
  O  O43  1  0.91853300  0.36399600  0.14687900  1
  O  O44  1  0.17710400  0.50669400  0.14642800  1
  O  O45  1  0.67729200  0.75657600  0.14614600  1
  O  O46  1  0.17716000  0.00674800  0.14624500  1
  O  O47  1  0.67729000  0.25670300  0.14597100  1
