# generated using pymatgen
data_SiIr
_symmetry_space_group_name_H-M   'P 1'
_cell_length_a   3.22002400
_cell_length_b   5.59638200
_cell_length_c   6.38815500
_cell_angle_alpha   90.00000000
_cell_angle_beta   90.00000000
_cell_angle_gamma   90.00000000
_symmetry_Int_Tables_number   1
_chemical_formula_structural   SiIr
_chemical_formula_sum   'Si4 Ir4'
_cell_volume   115.11764722
_cell_formula_units_Z   4
loop_
 _symmetry_equiv_pos_site_id
 _symmetry_equiv_pos_as_xyz
  1  'x, y, z'
loop_
 _atom_site_type_symbol
 _atom_site_label
 _atom_site_symmetry_multiplicity
 _atom_site_fract_x
 _atom_site_fract_y
 _atom_site_fract_z
 _atom_site_occupancy
  Si  Si0  1  0.25000000  0.68284500  0.06032300  1
  Si  Si1  1  0.75000000  0.31715500  0.93967700  1
  Si  Si2  1  0.25000000  0.18284500  0.43967700  1
  Si  Si3  1  0.75000000  0.81715500  0.56032300  1
  Ir  Ir4  1  0.25000000  0.50165300  0.70556500  1
  Ir  Ir5  1  0.75000000  0.49834700  0.29443500  1
  Ir  Ir6  1  0.25000000  0.00165300  0.79443500  1
  Ir  Ir7  1  0.75000000  0.99834700  0.20556500  1
