# generated using pymatgen
data_CdWO4
_symmetry_space_group_name_H-M   'P 1'
_cell_length_a   5.99149200
_cell_length_b   5.10353500
_cell_length_c   5.19925965
_cell_angle_alpha   87.90457808
_cell_angle_beta   90.00000000
_cell_angle_gamma   90.00000000
_symmetry_Int_Tables_number   1
_chemical_formula_structural   CdWO4
_chemical_formula_sum   'Cd2 W2 O8'
_cell_volume   158.87555691
_cell_formula_units_Z   2
loop_
 _symmetry_equiv_pos_site_id
 _symmetry_equiv_pos_as_xyz
  1  'x, y, z'
loop_
 _atom_site_type_symbol
 _atom_site_label
 _atom_site_symmetry_multiplicity
 _atom_site_fract_x
 _atom_site_fract_y
 _atom_site_fract_z
 _atom_site_occupancy
  Cd  Cd0  1  0.68815100  0.50000000  0.25000000  1
  Cd  Cd1  1  0.31184900  0.50000000  0.75000000  1
  W  W2  1  0.17091900  0.00000000  0.25000000  1
  W  W3  1  0.82908100  0.00000000  0.75000000  1
  O  O4  1  0.09701000  0.79971400  0.94675500  1
  O  O5  1  0.09701000  0.20028600  0.55324500  1
  O  O6  1  0.90299000  0.20028600  0.05324500  1
  O  O7  1  0.90299000  0.79971400  0.44675500  1
  O  O8  1  0.36717900  0.75601700  0.38517900  1
  O  O9  1  0.36717900  0.24398300  0.11482100  1
  O  O10  1  0.63282100  0.24398300  0.61482100  1
  O  O11  1  0.63282100  0.75601700  0.88517900  1
