# generated using pymatgen
data_Ba4Sr2Sm2Co4O15
_symmetry_space_group_name_H-M   'P 1'
_cell_length_a   6.88461900
_cell_length_b   11.74823871
_cell_length_c   11.75829194
_cell_angle_alpha   119.81247735
_cell_angle_beta   90.29583862
_cell_angle_gamma   89.98004345
_symmetry_Int_Tables_number   1
_chemical_formula_structural   Ba4Sr2Sm2Co4O15
_chemical_formula_sum   'Ba8 Sr4 Sm4 Co8 O30'
_cell_volume   825.15945654
_cell_formula_units_Z   2
loop_
 _symmetry_equiv_pos_site_id
 _symmetry_equiv_pos_as_xyz
  1  'x, y, z'
loop_
 _atom_site_type_symbol
 _atom_site_label
 _atom_site_symmetry_multiplicity
 _atom_site_fract_x
 _atom_site_fract_y
 _atom_site_fract_z
 _atom_site_occupancy
  Ba  Ba0  1  0.67131900  0.82173500  0.17509900  1
  Ba  Ba1  1  0.67232300  0.82565900  0.65213100  1
  Ba  Ba2  1  0.66535900  0.34858800  0.17451700  1
  Ba  Ba3  1  0.17401000  0.17419600  0.82595600  1
  Ba  Ba4  1  0.16574800  0.17329200  0.34353900  1
  Ba  Ba5  1  0.17134300  0.65443100  0.82713600  1
  Ba  Ba6  1  0.97784600  0.66545400  0.33441200  1
  Ba  Ba7  1  0.49207400  0.33586100  0.66577800  1
  Sr  Sr8  1  0.48556800  0.99948600  0.00031900  1
  Sr  Sr9  1  0.98419200  0.99973400  0.99964100  1
  Sr  Sr10  1  0.33313600  0.52508800  0.05120300  1
  Sr  Sr11  1  0.82939400  0.04811700  0.52348100  1
  Sm  Sm12  1  0.33582100  0.52364100  0.47514600  1
  Sm  Sm13  1  0.33478500  0.94883500  0.47507000  1
  Sm  Sm14  1  0.83485200  0.47551300  0.52225300  1
  Sm  Sm15  1  0.83233800  0.47560300  0.95138800  1
  Co  Co16  1  0.51039500  0.66509100  0.33384000  1
  Co  Co17  1  0.03552500  0.33042300  0.66377900  1
  Co  Co18  1  0.16391300  0.82176400  0.17596500  1
  Co  Co19  1  0.16743900  0.82385000  0.64839000  1
  Co  Co20  1  0.15785500  0.35276300  0.17374300  1
  Co  Co21  1  0.66295100  0.17382000  0.82302600  1
  Co  Co22  1  0.65548100  0.17202500  0.34972700  1
  Co  Co23  1  0.66604300  0.65058800  0.82457300  1
  O  O24  1  0.33868200  0.75324900  0.25735600  1
  O  O25  1  0.34169800  0.74653500  0.49859400  1
  O  O26  1  0.33564200  0.50027600  0.25881500  1
  O  O27  1  0.83592000  0.25392400  0.75760300  1
  O  O28  1  0.83509000  0.25718900  0.49484200  1
  O  O29  1  0.83841900  0.50220400  0.74666600  1
  O  O30  1  0.66306700  0.58451800  0.41602700  1
  O  O31  1  0.66850900  0.58727000  0.17494900  1
  O  O32  1  0.65469600  0.82659300  0.41420400  1
  O  O33  1  0.17069300  0.41936300  0.58147800  1
  O  O34  1  0.15717600  0.41801500  0.83220900  1
  O  O35  1  0.17135800  0.16990800  0.58376600  1
  O  O36  1  0.74326000  0.08565400  0.90568800  1
  O  O37  1  0.74779300  0.09506600  0.18360100  1
  O  O38  1  0.74558300  0.81989900  0.90365000  1
  O  O39  1  0.24533900  0.90371200  0.08741300  1
  O  O40  1  0.24488500  0.90348200  0.81849900  1
  O  O41  1  0.24645700  0.18485300  0.09567600  1
  O  O42  1  0.51650100  0.06160600  0.67080500  1
  O  O43  1  0.53086600  0.33631100  0.39691400  1
  O  O44  1  0.54629100  0.60312000  0.93399300  1
  O  O45  1  0.51542400  0.06651700  0.39364800  1
  O  O46  1  0.54382900  0.33186800  0.93817800  1
  O  O47  1  0.53783800  0.60412100  0.66297300  1
  O  O48  1  0.04738700  0.93705300  0.33271800  1
  O  O49  1  0.03741400  0.66388300  0.60195200  1
  O  O50  1  0.01689200  0.39422300  0.06644800  1
  O  O51  1  0.04805600  0.93457900  0.60286500  1
  O  O52  1  0.01785600  0.67086000  0.06272100  1
  O  O53  1  0.03167000  0.39859200  0.33564000  1
