# generated using pymatgen
data_HoCuPb
_symmetry_space_group_name_H-M   'P 1'
_cell_length_a   4.60710168
_cell_length_b   4.60710168
_cell_length_c   7.34617000
_cell_angle_alpha   90.00000000
_cell_angle_beta   90.00000000
_cell_angle_gamma   119.99999540
_symmetry_Int_Tables_number   1
_chemical_formula_structural   HoCuPb
_chemical_formula_sum   'Ho2 Cu2 Pb2'
_cell_volume   135.03527113
_cell_formula_units_Z   2
loop_
 _symmetry_equiv_pos_site_id
 _symmetry_equiv_pos_as_xyz
  1  'x, y, z'
loop_
 _atom_site_type_symbol
 _atom_site_label
 _atom_site_symmetry_multiplicity
 _atom_site_fract_x
 _atom_site_fract_y
 _atom_site_fract_z
 _atom_site_occupancy
  Ho  Ho0  1  0.00000000  0.00000000  0.98453500  1
  Ho  Ho1  1  0.00000000  0.00000000  0.48453500  1
  Cu  Cu2  1  0.66666700  0.33333300  0.31415100  1
  Cu  Cu3  1  0.33333300  0.66666700  0.81415100  1
  Pb  Pb4  1  0.33333300  0.66666700  0.21581400  1
  Pb  Pb5  1  0.66666700  0.33333300  0.71581400  1
