# generated using pymatgen
data_Dy4InIr
_symmetry_space_group_name_H-M   'P 1'
_cell_length_a   9.67003313
_cell_length_b   9.67003313
_cell_length_c   9.67003313
_cell_angle_alpha   60.00000000
_cell_angle_beta   60.00000000
_cell_angle_gamma   60.00000000
_symmetry_Int_Tables_number   1
_chemical_formula_structural   Dy4InIr
_chemical_formula_sum   'Dy16 In4 Ir4'
_cell_volume   639.39448803
_cell_formula_units_Z   4
loop_
 _symmetry_equiv_pos_site_id
 _symmetry_equiv_pos_as_xyz
  1  'x, y, z'
loop_
 _atom_site_type_symbol
 _atom_site_label
 _atom_site_symmetry_multiplicity
 _atom_site_fract_x
 _atom_site_fract_y
 _atom_site_fract_z
 _atom_site_occupancy
  Dy  Dy0  1  0.59913000  0.59913000  0.59913000  1
  Dy  Dy1  1  0.59913000  0.59913000  0.20261000  1
  Dy  Dy2  1  0.59913000  0.20261000  0.59913000  1
  Dy  Dy3  1  0.20261000  0.59913000  0.59913000  1
  Dy  Dy4  1  0.06048900  0.43951100  0.43951100  1
  Dy  Dy5  1  0.43951100  0.06048900  0.06048900  1
  Dy  Dy6  1  0.43951100  0.06048900  0.43951100  1
  Dy  Dy7  1  0.06048900  0.43951100  0.06048900  1
  Dy  Dy8  1  0.43951100  0.43951100  0.06048900  1
  Dy  Dy9  1  0.06048900  0.06048900  0.43951100  1
  Dy  Dy10  1  0.18843900  0.81156100  0.81156100  1
  Dy  Dy11  1  0.81156100  0.18843900  0.18843900  1
  Dy  Dy12  1  0.81156100  0.18843900  0.81156100  1
  Dy  Dy13  1  0.18843900  0.81156100  0.18843900  1
  Dy  Dy14  1  0.81156100  0.81156100  0.18843900  1
  Dy  Dy15  1  0.18843900  0.18843900  0.81156100  1
  In  In16  1  0.83277700  0.83277700  0.83277700  1
  In  In17  1  0.83277700  0.83277700  0.50166900  1
  In  In18  1  0.83277700  0.50166900  0.83277700  1
  In  In19  1  0.50166900  0.83277700  0.83277700  1
  Ir  Ir20  1  0.39151800  0.39151800  0.39151800  1
  Ir  Ir21  1  0.39151800  0.39151800  0.82544700  1
  Ir  Ir22  1  0.39151800  0.82544700  0.39151800  1
  Ir  Ir23  1  0.82544700  0.39151800  0.39151800  1
