# generated using pymatgen
data_PrAlGe2O7
_symmetry_space_group_name_H-M   'P 1'
_cell_length_a   6.60907300
_cell_length_b   7.33969600
_cell_length_c   12.93385481
_cell_angle_alpha   62.48875509
_cell_angle_beta   90.00000000
_cell_angle_gamma   90.00000000
_symmetry_Int_Tables_number   1
_chemical_formula_structural   PrAlGe2O7
_chemical_formula_sum   'Pr4 Al4 Ge8 O28'
_cell_volume   556.45640465
_cell_formula_units_Z   4
loop_
 _symmetry_equiv_pos_site_id
 _symmetry_equiv_pos_as_xyz
  1  'x, y, z'
loop_
 _atom_site_type_symbol
 _atom_site_label
 _atom_site_symmetry_multiplicity
 _atom_site_fract_x
 _atom_site_fract_y
 _atom_site_fract_z
 _atom_site_occupancy
  Pr  Pr0  1  0.35232200  0.73772600  0.52588500  1
  Pr  Pr1  1  0.64767800  0.26227400  0.47411500  1
  Pr  Pr2  1  0.85232200  0.26227400  0.97411500  1
  Pr  Pr3  1  0.14767800  0.73772600  0.02588500  1
  Al  Al4  1  0.39738500  0.71298600  0.26978900  1
  Al  Al5  1  0.60261500  0.28701400  0.73021100  1
  Al  Al6  1  0.89738500  0.28701400  0.23021100  1
  Al  Al7  1  0.10261500  0.71298600  0.76978900  1
  Ge  Ge8  1  0.65751400  0.70957600  0.04921000  1
  Ge  Ge9  1  0.34248600  0.29042400  0.95079000  1
  Ge  Ge10  1  0.15751400  0.29042400  0.45079000  1
  Ge  Ge11  1  0.84248600  0.70957600  0.54921000  1
  Ge  Ge12  1  0.91000400  0.80306000  0.28037100  1
  Ge  Ge13  1  0.08999600  0.19694000  0.71962900  1
  Ge  Ge14  1  0.41000400  0.19694000  0.21962900  1
  Ge  Ge15  1  0.58999600  0.80306000  0.78037100  1
  O  O16  1  0.37470900  0.92777600  0.30110500  1
  O  O17  1  0.62529100  0.07222400  0.69889500  1
  O  O18  1  0.87470900  0.07222400  0.19889500  1
  O  O19  1  0.12529100  0.92777600  0.80110500  1
  O  O20  1  0.82335900  0.90712700  0.02324000  1
  O  O21  1  0.17664100  0.09287300  0.97676000  1
  O  O22  1  0.32335900  0.09287300  0.47676000  1
  O  O23  1  0.67664100  0.90712700  0.52324000  1
  O  O24  1  0.61548900  0.27527900  0.27726700  1
  O  O25  1  0.38451100  0.72472100  0.72273300  1
  O  O26  1  0.11548900  0.72472100  0.22273300  1
  O  O27  1  0.88451100  0.27527900  0.77726700  1
  O  O28  1  0.99812800  0.74680400  0.42694700  1
  O  O29  1  0.00187200  0.25319600  0.57305300  1
  O  O30  1  0.49812800  0.25319600  0.07305300  1
  O  O31  1  0.50187200  0.74680400  0.92694700  1
  O  O32  1  0.44922500  0.70355900  0.13549600  1
  O  O33  1  0.55077500  0.29644100  0.86450400  1
  O  O34  1  0.94922500  0.29644100  0.36450400  1
  O  O35  1  0.05077500  0.70355900  0.63549600  1
  O  O36  1  0.83886500  0.50481000  0.08606200  1
  O  O37  1  0.16113500  0.49519000  0.91393800  1
  O  O38  1  0.33886500  0.49519000  0.41393800  1
  O  O39  1  0.66113500  0.50481000  0.58606200  1
  O  O40  1  0.68179200  0.66086100  0.31274500  1
  O  O41  1  0.31820800  0.33913900  0.68725500  1
  O  O42  1  0.18179200  0.33913900  0.18725500  1
  O  O43  1  0.81820800  0.66086100  0.81274500  1
