# generated using pymatgen
data_Ba3Mn2O8
_symmetry_space_group_name_H-M   'P 1'
_cell_length_a   5.80882684
_cell_length_b   10.06118425
_cell_length_c   7.98857292
_cell_angle_alpha   102.11694519
_cell_angle_beta   68.68033480
_cell_angle_gamma   89.99999728
_symmetry_Int_Tables_number   1
_chemical_formula_structural   Ba3Mn2O8
_chemical_formula_sum   'Ba6 Mn4 O16'
_cell_volume   423.74612127
_cell_formula_units_Z   2
loop_
 _symmetry_equiv_pos_site_id
 _symmetry_equiv_pos_as_xyz
  1  'x, y, z'
loop_
 _atom_site_type_symbol
 _atom_site_label
 _atom_site_symmetry_multiplicity
 _atom_site_fract_x
 _atom_site_fract_y
 _atom_site_fract_z
 _atom_site_occupancy
  Ba  Ba0  1  0.50000000  0.50000000  0.00000000  1
  Ba  Ba1  1  0.00000000  0.00000000  0.00000000  1
  Ba  Ba2  1  0.31127500  0.89624200  0.37745000  1
  Ba  Ba3  1  0.81127500  0.39624200  0.37745000  1
  Ba  Ba4  1  0.18872500  0.60375800  0.62255000  1
  Ba  Ba5  1  0.68872500  0.10375800  0.62255000  1
  Mn  Mn6  1  0.61081200  0.79639600  0.77837600  1
  Mn  Mn7  1  0.38918800  0.20360400  0.22162400  1
  Mn  Mn8  1  0.11081200  0.29639600  0.77837600  1
  Mn  Mn9  1  0.88918800  0.70360400  0.22162400  1
  O  O10  1  0.49356600  0.83547800  0.01286800  1
  O  O11  1  0.99356600  0.33547800  0.01286800  1
  O  O12  1  0.00643400  0.66452200  0.98713200  1
  O  O13  1  0.50643400  0.16452200  0.98713200  1
  O  O14  1  0.09026000  0.63658000  0.30301700  1
  O  O15  1  0.59026000  0.13658000  0.30301700  1
  O  O16  1  0.60672300  0.63658000  0.30301700  1
  O  O17  1  0.10672300  0.13658000  0.30301700  1
  O  O18  1  0.84849100  0.87834900  0.30301700  1
  O  O19  1  0.34849100  0.37834900  0.30301700  1
  O  O20  1  0.65150900  0.62165100  0.69698300  1
  O  O21  1  0.15150900  0.12165100  0.69698300  1
  O  O22  1  0.89327700  0.86342000  0.69698300  1
  O  O23  1  0.39327700  0.36342000  0.69698300  1
  O  O24  1  0.40974000  0.86342000  0.69698300  1
  O  O25  1  0.90974000  0.36342000  0.69698300  1
