# generated using pymatgen
data_Mg149Se
_symmetry_space_group_name_H-M   'P 1'
_cell_length_a   15.90994145
_cell_length_b   15.90994690
_cell_length_c   15.58524120
_cell_angle_alpha   90.00000266
_cell_angle_beta   89.99999835
_cell_angle_gamma   120.00022003
_symmetry_Int_Tables_number   1
_chemical_formula_structural   Mg149Se
_chemical_formula_sum   'Mg149 Se1'
_cell_volume   3416.49278789
_cell_formula_units_Z   1
loop_
 _symmetry_equiv_pos_site_id
 _symmetry_equiv_pos_as_xyz
  1  'x, y, z'
loop_
 _atom_site_type_symbol
 _atom_site_label
 _atom_site_symmetry_multiplicity
 _atom_site_fract_x
 _atom_site_fract_y
 _atom_site_fract_z
 _atom_site_occupancy
  Mg  Mg0  1  0.80060913  0.00163949  0.00000003  1
  Mg  Mg1  1  0.20102988  0.00163987  -0.00000000  1
  Mg  Mg2  1  0.20103039  0.19939096  -0.00000005  1
  Mg  Mg3  1  0.99835945  0.19939064  0.00000002  1
  Mg  Mg4  1  0.80013489  0.19986376  -0.00000004  1
  Mg  Mg5  1  0.39972858  0.19986467  0.00000005  1
  Mg  Mg6  1  0.60028947  0.20057844  0.00000008  1
  Mg  Mg7  1  0.19928306  0.39856578  0.00000026  1
  Mg  Mg8  1  0.79942197  0.39971157  0.00000000  1
  Mg  Mg9  1  0.60028990  0.39971110  -0.00000016  1
  Mg  Mg10  1  0.40033853  0.40066138  0.00000007  1
  Mg  Mg11  1  0.00032277  0.40066115  0.00000009  1
  Mg  Mg12  1  0.59933851  0.59966127  -0.00000008  1
  Mg  Mg13  1  0.00032315  0.59966158  0.00000008  1
  Mg  Mg14  1  0.39970899  0.60029003  0.00000000  1
  Mg  Mg15  1  0.20058130  0.60029108  -0.00000028  1
  Mg  Mg16  1  0.80013503  0.60027086  -0.00000002  1
  Mg  Mg17  1  0.80060899  0.79896875  -0.00000023  1
  Mg  Mg18  1  0.99836001  0.79897008  0.00000019  1
  Mg  Mg19  1  0.39970876  0.79941901  -0.00000012  1
  Mg  Mg20  1  0.19928280  0.80071755  0.00000002  1
  Mg  Mg21  1  0.60143431  0.80071708  -0.00000010  1
  Mg  Mg22  1  0.40033874  0.99967694  -0.00000008  1
  Mg  Mg23  1  0.59933866  0.99967719  0.00000010  1
  Mg  Mg24  1  0.06618055  0.33232199  0.16596123  1
  Mg  Mg25  1  0.26614242  0.33232330  0.16596112  1
  Mg  Mg26  1  0.66767676  0.73385755  0.16596115  1
  Mg  Mg27  1  0.06618083  0.73385783  0.16596115  1
  Mg  Mg28  1  0.66767672  0.93381897  0.16596113  1
  Mg  Mg29  1  0.26614252  0.93381923  0.16596101  1
  Mg  Mg30  1  0.26643648  0.53287379  0.16610867  1
  Mg  Mg31  1  0.26643645  0.73356270  0.16610887  1
  Mg  Mg32  1  0.46712594  0.73356351  0.16610858  1
  Mg  Mg33  1  0.66666697  0.33333301  0.16612898  1
  Mg  Mg34  1  0.66684173  0.13343434  0.16616816  1
  Mg  Mg35  1  0.46659284  0.13343442  0.16616778  1
  Mg  Mg36  1  0.86656541  0.33315819  0.16616789  1
  Mg  Mg37  1  0.46659258  0.33315852  0.16616795  1
  Mg  Mg38  1  0.86656571  0.53340723  0.16616804  1
  Mg  Mg39  1  0.66684165  0.53340731  0.16616802  1
  Mg  Mg40  1  0.46655413  0.53344605  0.16632982  1
  Mg  Mg41  1  0.06689174  0.53344588  0.16633017  1
  Mg  Mg42  1  0.46655439  0.93310841  0.16633022  1
  Mg  Mg43  1  0.06612750  0.13225596  0.16677992  1
  Mg  Mg44  1  0.86774379  0.93387240  0.16677990  1
  Mg  Mg45  1  0.06612772  0.93387225  0.16677964  1
  Mg  Mg46  1  0.26678125  0.13339110  0.16716687  1
  Mg  Mg47  1  0.86660898  0.13339113  0.16716697  1
  Mg  Mg48  1  0.86660917  0.73321902  0.16716696  1
  Mg  Mg49  1  -0.00000014  0.00000006  0.33161015  1
  Mg  Mg50  1  0.19983936  0.39967993  0.33249840  1
  Mg  Mg51  1  0.60031985  0.80015959  0.33249797  1
  Mg  Mg52  1  0.19983966  0.80015948  0.33249834  1
  Mg  Mg53  1  0.39977257  0.19988665  0.33283803  1
  Mg  Mg54  1  0.80011417  0.19988673  0.33283759  1
  Mg  Mg55  1  0.80011433  0.60022694  0.33283781  1
  Mg  Mg56  1  0.60017817  0.20035682  0.33283700  1
  Mg  Mg57  1  0.60017818  0.39982118  0.33283688  1
  Mg  Mg58  1  0.79964211  0.39982144  0.33283683  1
  Mg  Mg59  1  0.20030033  0.60014945  0.33283146  1
  Mg  Mg60  1  0.39985021  0.60015040  0.33283121  1
  Mg  Mg61  1  0.39985031  0.79969951  0.33283136  1
  Mg  Mg62  1  0.39989850  0.99989189  0.33316293  1
  Mg  Mg63  1  0.59999345  0.99989171  0.33316296  1
  Mg  Mg64  1  0.39989827  0.40000668  0.33316278  1
  Mg  Mg65  1  0.00010931  0.40000789  0.33316270  1
  Mg  Mg66  1  0.59999344  0.60010195  0.33316264  1
  Mg  Mg67  1  0.00010892  0.60010137  0.33316288  1
  Mg  Mg68  1  0.19982953  0.99989869  0.33379120  1
  Mg  Mg69  1  0.80006944  0.99989899  0.33379136  1
  Mg  Mg70  1  0.19982996  0.19993073  0.33379137  1
  Mg  Mg71  1  0.00010091  0.19993102  0.33379106  1
  Mg  Mg72  1  0.00010080  0.80017004  0.33379113  1
  Mg  Mg73  1  0.80006911  0.80017010  0.33379134  1
  Mg  Mg74  1  0.06643137  0.13286158  0.50000006  1
  Mg  Mg75  1  0.86663420  0.13336457  0.49999999  1
  Mg  Mg76  1  0.26673050  0.13336601  0.50000004  1
  Mg  Mg77  1  0.66655445  0.13317338  0.49999985  1
  Mg  Mg78  1  0.46661912  0.13317339  0.50000012  1
  Mg  Mg79  1  0.26643615  0.33323864  0.49999994  1
  Mg  Mg80  1  0.06680211  0.33323928  0.50000005  1
  Mg  Mg81  1  0.66666712  0.33333316  0.50000002  1
  Mg  Mg82  1  0.86682680  0.33344593  0.49999985  1
  Mg  Mg83  1  0.46661865  0.33344555  0.50000016  1
  Mg  Mg84  1  0.86682672  0.53338094  0.49999978  1
  Mg  Mg85  1  0.66655427  0.53338130  0.50000004  1
  Mg  Mg86  1  0.26652422  0.53304821  0.50000011  1
  Mg  Mg87  1  0.06671359  0.53335725  0.50000006  1
  Mg  Mg88  1  0.46664273  0.53335733  0.49999998  1
  Mg  Mg89  1  0.86663421  0.73326955  0.50000000  1
  Mg  Mg90  1  0.46695169  0.73347580  0.50000014  1
  Mg  Mg91  1  0.26652396  0.73347595  0.49999997  1
  Mg  Mg92  1  0.06680213  0.73356215  0.49999988  1
  Mg  Mg93  1  0.66676041  0.73356266  0.49999991  1
  Mg  Mg94  1  0.46664271  0.93328563  0.49999983  1
  Mg  Mg95  1  0.26643644  0.93319663  0.49999978  1
  Mg  Mg96  1  0.66676032  0.93319812  0.50000014  1
  Mg  Mg97  1  0.06643111  0.93356874  0.50000006  1
  Mg  Mg98  1  0.86713776  0.93356898  0.49999994  1
  Mg  Mg99  1  0.19982994  0.99989890  0.66620775  1
  Mg  Mg100  1  0.80006913  0.99989911  0.66620797  1
  Mg  Mg101  1  0.19982989  0.19993099  0.66620757  1
  Mg  Mg102  1  0.00010089  0.19993093  0.66620786  1
  Mg  Mg103  1  0.00010123  0.80017036  0.66620742  1
  Mg  Mg104  1  0.80006900  0.80017026  0.66620790  1
  Mg  Mg105  1  0.39989824  0.99989162  0.66683633  1
  Mg  Mg106  1  0.59999299  0.99989175  0.66683645  1
  Mg  Mg107  1  0.39989820  0.40000689  0.66683636  1
  Mg  Mg108  1  0.00010984  0.40000792  0.66683618  1
  Mg  Mg109  1  0.59999324  0.60010163  0.66683629  1
  Mg  Mg110  1  0.00010950  0.60010164  0.66683604  1
  Mg  Mg111  1  0.20030046  0.60015008  0.66716837  1
  Mg  Mg112  1  0.39985048  0.60015053  0.66716823  1
  Mg  Mg113  1  0.39984981  0.79969931  0.66716853  1
  Mg  Mg114  1  0.60017769  0.20035671  0.66716308  1
  Mg  Mg115  1  0.60017763  0.39982118  0.66716349  1
  Mg  Mg116  1  0.79964254  0.39982119  0.66716331  1
  Mg  Mg117  1  0.39977285  0.19988695  0.66716207  1
  Mg  Mg118  1  0.80011431  0.19988680  0.66716207  1
  Mg  Mg119  1  0.80011403  0.60022729  0.66716227  1
  Mg  Mg120  1  0.19984000  0.39968030  0.66750191  1
  Mg  Mg121  1  0.60032025  0.80015949  0.66750188  1
  Mg  Mg122  1  0.19983918  0.80015922  0.66750208  1
  Mg  Mg123  1  0.00000006  -0.00000003  0.66838858  1
  Mg  Mg124  1  0.26678091  0.13339109  0.83283293  1
  Mg  Mg125  1  0.86660893  0.13339084  0.83283285  1
  Mg  Mg126  1  0.86660910  0.73321868  0.83283289  1
  Mg  Mg127  1  0.06612764  0.13225613  0.83322028  1
  Mg  Mg128  1  0.86774369  0.93387236  0.83322026  1
  Mg  Mg129  1  0.06612770  0.93387264  0.83322034  1
  Mg  Mg130  1  0.46655419  0.53344587  0.83366890  1
  Mg  Mg131  1  0.06689143  0.53344568  0.83366899  1
  Mg  Mg132  1  0.46655430  0.93310843  0.83366892  1
  Mg  Mg133  1  0.66684155  0.13343420  0.83383207  1
  Mg  Mg134  1  0.46659287  0.13343428  0.83383219  1
  Mg  Mg135  1  0.86656596  0.33315857  0.83383208  1
  Mg  Mg136  1  0.46659283  0.33315858  0.83383212  1
  Mg  Mg137  1  0.86656582  0.53340758  0.83383215  1
  Mg  Mg138  1  0.66684134  0.53340700  0.83383208  1
  Mg  Mg139  1  0.66666672  0.33333315  0.83387204  1
  Mg  Mg140  1  0.26643656  0.53287386  0.83389161  1
  Mg  Mg141  1  0.26643613  0.73356275  0.83389107  1
  Mg  Mg142  1  0.46712594  0.73356347  0.83389100  1
  Mg  Mg143  1  0.06618076  0.33232213  0.83403905  1
  Mg  Mg144  1  0.26614244  0.33232301  0.83403883  1
  Mg  Mg145  1  0.66767662  0.73385748  0.83403857  1
  Mg  Mg146  1  0.06618122  0.73385782  0.83403899  1
  Mg  Mg147  1  0.66767663  0.93381917  0.83403886  1
  Mg  Mg148  1  0.26614237  0.93381909  0.83403887  1
  Se  Se149  1  -0.00000004  -0.00000012  -0.00000002  1
