# generated using pymatgen
data_Ce3Se3N
_symmetry_space_group_name_H-M   'P 1'
_cell_length_a   4.10209100
_cell_length_b   12.69021400
_cell_length_c   13.24458000
_cell_angle_alpha   90.00000000
_cell_angle_beta   90.00000000
_cell_angle_gamma   90.00000000
_symmetry_Int_Tables_number   1
_chemical_formula_structural   Ce3Se3N
_chemical_formula_sum   'Ce12 Se12 N4'
_cell_volume   689.46532169
_cell_formula_units_Z   4
loop_
 _symmetry_equiv_pos_site_id
 _symmetry_equiv_pos_as_xyz
  1  'x, y, z'
loop_
 _atom_site_type_symbol
 _atom_site_label
 _atom_site_symmetry_multiplicity
 _atom_site_fract_x
 _atom_site_fract_y
 _atom_site_fract_z
 _atom_site_occupancy
  Ce  Ce0  1  0.75000000  0.42017300  0.12815200  1
  Ce  Ce1  1  0.75000000  0.92017300  0.37184800  1
  Ce  Ce2  1  0.25000000  0.57982700  0.87184800  1
  Ce  Ce3  1  0.25000000  0.07982700  0.62815200  1
  Ce  Ce4  1  0.75000000  0.77882000  0.13390300  1
  Ce  Ce5  1  0.75000000  0.27882000  0.36609700  1
  Ce  Ce6  1  0.25000000  0.22118000  0.86609700  1
  Ce  Ce7  1  0.25000000  0.72118000  0.63390300  1
  Ce  Ce8  1  0.75000000  0.96637500  0.84480900  1
  Ce  Ce9  1  0.75000000  0.46637500  0.65519100  1
  Ce  Ce10  1  0.25000000  0.03362500  0.15519100  1
  Ce  Ce11  1  0.25000000  0.53362500  0.34480900  1
  Se  Se12  1  0.75000000  0.63350700  0.49569800  1
  Se  Se13  1  0.75000000  0.13350700  0.00430200  1
  Se  Se14  1  0.25000000  0.36649300  0.50430200  1
  Se  Se15  1  0.25000000  0.86649300  0.99569800  1
  Se  Se16  1  0.75000000  0.41283200  0.89218700  1
  Se  Se17  1  0.75000000  0.91283200  0.60781300  1
  Se  Se18  1  0.25000000  0.58716800  0.10781300  1
  Se  Se19  1  0.25000000  0.08716800  0.39218700  1
  Se  Se20  1  0.75000000  0.73054200  0.80278100  1
  Se  Se21  1  0.75000000  0.23054200  0.69721900  1
  Se  Se22  1  0.25000000  0.26945800  0.19721900  1
  Se  Se23  1  0.25000000  0.76945800  0.30278100  1
  N  N24  1  0.75000000  0.44938800  0.29648400  1
  N  N25  1  0.75000000  0.94938800  0.20351600  1
  N  N26  1  0.25000000  0.55061200  0.70351600  1
  N  N27  1  0.25000000  0.05061200  0.79648400  1
