# generated using pymatgen
data_Sb2AsAuXeF14
_symmetry_space_group_name_H-M   'P 1'
_cell_length_a   8.43520000
_cell_length_b   11.41567200
_cell_length_c   16.70158100
_cell_angle_alpha   90.00000000
_cell_angle_beta   90.00000000
_cell_angle_gamma   90.00000000
_symmetry_Int_Tables_number   1
_chemical_formula_structural   Sb2AsAuXeF14
_chemical_formula_sum   'Sb8 As4 Au4 Xe4 F56'
_cell_volume   1608.25329677
_cell_formula_units_Z   4
loop_
 _symmetry_equiv_pos_site_id
 _symmetry_equiv_pos_as_xyz
  1  'x, y, z'
loop_
 _atom_site_type_symbol
 _atom_site_label
 _atom_site_symmetry_multiplicity
 _atom_site_fract_x
 _atom_site_fract_y
 _atom_site_fract_z
 _atom_site_occupancy
  Sb  Sb0  1  0.24333600  0.29171500  0.38872000  1
  Sb  Sb1  1  0.75666400  0.79171500  0.61128000  1
  Sb  Sb2  1  0.74333600  0.79171500  0.11128000  1
  Sb  Sb3  1  0.25666400  0.29171500  0.88872000  1
  Sb  Sb4  1  0.85304200  0.08709700  0.35059700  1
  Sb  Sb5  1  0.14695800  0.58709700  0.64940300  1
  Sb  Sb6  1  0.35304200  0.58709700  0.14940300  1
  Sb  Sb7  1  0.64695800  0.08709700  0.85059700  1
  As  As8  1  0.85278800  0.59492200  0.35561000  1
  As  As9  1  0.14721200  0.09492200  0.64439000  1
  As  As10  1  0.35278800  0.09492200  0.14439000  1
  As  As11  1  0.64721200  0.59492200  0.85561000  1
  Au  Au12  1  0.08599900  0.70539900  0.37148100  1
  Au  Au13  1  0.91400100  0.20539900  0.62851900  1
  Au  Au14  1  0.58599900  0.20539900  0.12851900  1
  Au  Au15  1  0.41400100  0.70539900  0.87148100  1
  Xe  Xe16  1  0.34368500  0.83125300  0.40565700  1
  Xe  Xe17  1  0.65631500  0.33125300  0.59434300  1
  Xe  Xe18  1  0.84368500  0.33125300  0.09434300  1
  Xe  Xe19  1  0.15631500  0.83125300  0.90565700  1
  F  F20  1  0.11748100  0.41762200  0.34802300  1
  F  F21  1  0.88251900  0.91762200  0.65197700  1
  F  F22  1  0.61748100  0.91762200  0.15197700  1
  F  F23  1  0.38251900  0.41762200  0.84802300  1
  F  F24  1  0.12720400  0.29635700  0.48681200  1
  F  F25  1  0.87279600  0.79635700  0.51318800  1
  F  F26  1  0.62720400  0.79635700  0.01318800  1
  F  F27  1  0.37279600  0.29635700  0.98681200  1
  F  F28  1  0.40640300  0.39186000  0.42598100  1
  F  F29  1  0.59359700  0.89186000  0.57401900  1
  F  F30  1  0.90640300  0.89186000  0.07401900  1
  F  F31  1  0.09359700  0.39186000  0.92598100  1
  F  F32  1  0.06207400  0.18521900  0.34567300  1
  F  F33  1  0.93792600  0.68521900  0.65432700  1
  F  F34  1  0.56207400  0.68521900  0.15432700  1
  F  F35  1  0.43792600  0.18521900  0.84567300  1
  F  F36  1  0.99168800  0.95516200  0.34686900  1
  F  F37  1  0.00831200  0.45516200  0.65313100  1
  F  F38  1  0.49168800  0.45516200  0.15313100  1
  F  F39  1  0.50831200  0.95516200  0.84686900  1
  F  F40  1  0.66632100  0.99483900  0.35464500  1
  F  F41  1  0.33367900  0.49483900  0.64535500  1
  F  F42  1  0.16632100  0.49483900  0.14535500  1
  F  F43  1  0.83367900  0.99483900  0.85464500  1
  F  F44  1  0.34263500  0.15134700  0.42354000  1
  F  F45  1  0.65736500  0.65134700  0.57646000  1
  F  F46  1  0.84263500  0.65134700  0.07646000  1
  F  F47  1  0.15736500  0.15134700  0.92354000  1
  F  F48  1  0.33322300  0.27005200  0.28487200  1
  F  F49  1  0.66677700  0.77005200  0.71512800  1
  F  F50  1  0.83322300  0.77005200  0.21512800  1
  F  F51  1  0.16677700  0.27005200  0.78487200  1
  F  F52  1  0.85761200  0.09577200  0.23668600  1
  F  F53  1  0.14238800  0.59577200  0.76331400  1
  F  F54  1  0.35761200  0.59577200  0.26331400  1
  F  F55  1  0.64238800  0.09577200  0.73668600  1
  F  F56  1  0.74546600  0.23307700  0.35212700  1
  F  F57  1  0.25453400  0.73307700  0.64787300  1
  F  F58  1  0.24546600  0.73307700  0.14787300  1
  F  F59  1  0.75453400  0.23307700  0.85212700  1
  F  F60  1  0.87727700  0.09405300  0.46397600  1
  F  F61  1  0.12272300  0.59405300  0.53602400  1
  F  F62  1  0.37727700  0.59405300  0.03602400  1
  F  F63  1  0.62272300  0.09405300  0.96397600  1
  F  F64  1  0.81596300  0.51300000  0.27108500  1
  F  F65  1  0.18403700  0.01300000  0.72891500  1
  F  F66  1  0.31596300  0.01300000  0.22891500  1
  F  F67  1  0.68403700  0.51300000  0.77108500  1
  F  F68  1  0.67480300  0.66881100  0.36117000  1
  F  F69  1  0.32519700  0.16881100  0.63883000  1
  F  F70  1  0.17480300  0.16881100  0.13883000  1
  F  F71  1  0.82519700  0.66881100  0.86117000  1
  F  F72  1  0.81389000  0.49054500  0.42732500  1
  F  F73  1  0.18611000  0.99054500  0.57267500  1
  F  F74  1  0.31389000  0.99054500  0.07267500  1
  F  F75  1  0.68611000  0.49054500  0.92732500  1
