# generated using pymatgen
data_Cs2EuCl5
_symmetry_space_group_name_H-M   'P 1'
_cell_length_a   7.66459000
_cell_length_b   9.98481000
_cell_length_c   15.66478100
_cell_angle_alpha   90.00000000
_cell_angle_beta   90.00000000
_cell_angle_gamma   90.00000000
_symmetry_Int_Tables_number   1
_chemical_formula_structural   Cs2EuCl5
_chemical_formula_sum   'Cs8 Eu4 Cl20'
_cell_volume   1198.81746401
_cell_formula_units_Z   4
loop_
 _symmetry_equiv_pos_site_id
 _symmetry_equiv_pos_as_xyz
  1  'x, y, z'
loop_
 _atom_site_type_symbol
 _atom_site_label
 _atom_site_symmetry_multiplicity
 _atom_site_fract_x
 _atom_site_fract_y
 _atom_site_fract_z
 _atom_site_occupancy
  Cs  Cs0  1  0.75000000  0.84152700  0.58052800  1
  Cs  Cs1  1  0.25000000  0.15847300  0.41947200  1
  Cs  Cs2  1  0.25000000  0.65847300  0.08052800  1
  Cs  Cs3  1  0.75000000  0.34152700  0.91947200  1
  Cs  Cs4  1  0.75000000  0.52427700  0.28698300  1
  Cs  Cs5  1  0.25000000  0.47572300  0.71301700  1
  Cs  Cs6  1  0.25000000  0.97572300  0.78698300  1
  Cs  Cs7  1  0.75000000  0.02427700  0.21301700  1
  Eu  Eu8  1  0.75000000  0.82470200  0.93552500  1
  Eu  Eu9  1  0.25000000  0.17529800  0.06447500  1
  Eu  Eu10  1  0.25000000  0.67529800  0.43552500  1
  Eu  Eu11  1  0.75000000  0.32470200  0.56447500  1
  Cl  Cl12  1  0.75000000  0.97681200  0.79373700  1
  Cl  Cl13  1  0.25000000  0.02318800  0.20626300  1
  Cl  Cl14  1  0.25000000  0.52318800  0.29373700  1
  Cl  Cl15  1  0.75000000  0.47681200  0.70626300  1
  Cl  Cl16  1  0.49231400  0.66480300  0.88057800  1
  Cl  Cl17  1  0.50768600  0.33519700  0.11942200  1
  Cl  Cl18  1  0.50768600  0.83519700  0.38057800  1
  Cl  Cl19  1  0.99231400  0.33519700  0.11942200  1
  Cl  Cl20  1  0.49231400  0.16480300  0.61942200  1
  Cl  Cl21  1  0.00768600  0.66480300  0.88057800  1
  Cl  Cl22  1  0.00768600  0.16480300  0.61942200  1
  Cl  Cl23  1  0.99231400  0.83519700  0.38057800  1
  Cl  Cl24  1  0.75000000  0.71168900  0.09341600  1
  Cl  Cl25  1  0.25000000  0.28831100  0.90658400  1
  Cl  Cl26  1  0.25000000  0.78831100  0.59341600  1
  Cl  Cl27  1  0.75000000  0.21168900  0.40658400  1
  Cl  Cl28  1  0.00000000  0.00000000  0.00000000  1
  Cl  Cl29  1  0.00000000  0.50000000  0.50000000  1
  Cl  Cl30  1  0.50000000  0.00000000  0.00000000  1
  Cl  Cl31  1  0.50000000  0.50000000  0.50000000  1
