# generated using pymatgen
data_H12PbN3Cl5
_symmetry_space_group_name_H-M   'P 1'
_cell_length_a   8.39071000
_cell_length_b   8.72008700
_cell_length_c   15.99425000
_cell_angle_alpha   90.00000000
_cell_angle_beta   90.00000000
_cell_angle_gamma   90.00000000
_symmetry_Int_Tables_number   1
_chemical_formula_structural   H12PbN3Cl5
_chemical_formula_sum   'H48 Pb4 N12 Cl20'
_cell_volume   1170.26282467
_cell_formula_units_Z   4
loop_
 _symmetry_equiv_pos_site_id
 _symmetry_equiv_pos_as_xyz
  1  'x, y, z'
loop_
 _atom_site_type_symbol
 _atom_site_label
 _atom_site_symmetry_multiplicity
 _atom_site_fract_x
 _atom_site_fract_y
 _atom_site_fract_z
 _atom_site_occupancy
  H  H0  1  0.49592200  0.25225600  0.75000000  1
  H  H1  1  0.50407800  0.74774400  0.25000000  1
  H  H2  1  0.00407800  0.75225600  0.25000000  1
  H  H3  1  0.99592200  0.24774400  0.75000000  1
  H  H4  1  0.21480200  0.14729500  0.55095800  1
  H  H5  1  0.78519800  0.85270500  0.44904200  1
  H  H6  1  0.28519800  0.64729500  0.44904200  1
  H  H7  1  0.78519800  0.85270500  0.05095800  1
  H  H8  1  0.71480200  0.35270500  0.55095800  1
  H  H9  1  0.21480200  0.14729500  0.94904200  1
  H  H10  1  0.71480200  0.35270500  0.94904200  1
  H  H11  1  0.28519800  0.64729500  0.05095800  1
  H  H12  1  0.31939000  0.46690500  0.08400200  1
  H  H13  1  0.68061000  0.53309500  0.91599800  1
  H  H14  1  0.18061000  0.96690500  0.91599800  1
  H  H15  1  0.68061000  0.53309500  0.58400200  1
  H  H16  1  0.81939000  0.03309500  0.08400200  1
  H  H17  1  0.31939000  0.46690500  0.41599800  1
  H  H18  1  0.81939000  0.03309500  0.41599800  1
  H  H19  1  0.18061000  0.96690500  0.58400200  1
  H  H20  1  0.01679100  0.05613700  0.75000000  1
  H  H21  1  0.98320900  0.94386300  0.25000000  1
  H  H22  1  0.48320900  0.55613700  0.25000000  1
  H  H23  1  0.51679100  0.44386300  0.75000000  1
  H  H24  1  0.23269400  0.49516400  0.51126900  1
  H  H25  1  0.76730600  0.50483600  0.48873100  1
  H  H26  1  0.26730600  0.99516400  0.48873100  1
  H  H27  1  0.76730600  0.50483600  0.01126900  1
  H  H28  1  0.73269400  0.00483600  0.51126900  1
  H  H29  1  0.23269400  0.49516400  0.98873100  1
  H  H30  1  0.73269400  0.00483600  0.98873100  1
  H  H31  1  0.26730600  0.99516400  0.01126900  1
  H  H32  1  0.36970500  0.03573000  0.57703200  1
  H  H33  1  0.63029500  0.96427000  0.42296800  1
  H  H34  1  0.13029500  0.53573000  0.42296800  1
  H  H35  1  0.63029500  0.96427000  0.07703200  1
  H  H36  1  0.86970500  0.46427000  0.57703200  1
  H  H37  1  0.36970500  0.03573000  0.92296800  1
  H  H38  1  0.86970500  0.46427000  0.92296800  1
  H  H39  1  0.13029500  0.53573000  0.07703200  1
  H  H40  1  0.36330000  0.36175000  0.69735400  1
  H  H41  1  0.63670000  0.63825000  0.30264600  1
  H  H42  1  0.13670000  0.86175000  0.30264600  1
  H  H43  1  0.63670000  0.63825000  0.19735400  1
  H  H44  1  0.86330000  0.13825000  0.69735400  1
  H  H45  1  0.36330000  0.36175000  0.80264600  1
  H  H46  1  0.86330000  0.13825000  0.80264600  1
  H  H47  1  0.13670000  0.86175000  0.19735400  1
  Pb  Pb48  1  0.08239300  0.65682700  0.75000000  1
  Pb  Pb49  1  0.91760700  0.34317300  0.25000000  1
  Pb  Pb50  1  0.41760700  0.15682700  0.25000000  1
  Pb  Pb51  1  0.58239300  0.84317300  0.75000000  1
  N  N52  1  0.25792900  0.03622100  0.54975100  1
  N  N53  1  0.74207100  0.96377900  0.45024900  1
  N  N54  1  0.24207100  0.53622100  0.45024900  1
  N  N55  1  0.74207100  0.96377900  0.04975100  1
  N  N56  1  0.75792900  0.46377900  0.54975100  1
  N  N57  1  0.25792900  0.03622100  0.95024900  1
  N  N58  1  0.75792900  0.46377900  0.95024900  1
  N  N59  1  0.24207100  0.53622100  0.04975100  1
  N  N60  1  0.43515500  0.35492300  0.75000000  1
  N  N61  1  0.56484500  0.64507700  0.25000000  1
  N  N62  1  0.06484500  0.85492300  0.25000000  1
  N  N63  1  0.93515500  0.14507700  0.75000000  1
  Cl  Cl64  1  0.04154500  0.17139900  0.11983200  1
  Cl  Cl65  1  0.95845500  0.82860100  0.88016800  1
  Cl  Cl66  1  0.45845500  0.67139900  0.88016800  1
  Cl  Cl67  1  0.95845500  0.82860100  0.61983200  1
  Cl  Cl68  1  0.54154500  0.32860100  0.11983200  1
  Cl  Cl69  1  0.04154500  0.17139900  0.38016800  1
  Cl  Cl70  1  0.54154500  0.32860100  0.38016800  1
  Cl  Cl71  1  0.45845500  0.67139900  0.61983200  1
  Cl  Cl72  1  0.28167900  0.97589400  0.75000000  1
  Cl  Cl73  1  0.71832100  0.02410600  0.25000000  1
  Cl  Cl74  1  0.21832100  0.47589400  0.25000000  1
  Cl  Cl75  1  0.78167900  0.52410600  0.75000000  1
  Cl  Cl76  1  0.12928900  0.37530900  0.61978900  1
  Cl  Cl77  1  0.87071100  0.62469100  0.38021100  1
  Cl  Cl78  1  0.37071100  0.87530900  0.38021100  1
  Cl  Cl79  1  0.87071100  0.62469100  0.11978900  1
  Cl  Cl80  1  0.62928900  0.12469100  0.61978900  1
  Cl  Cl81  1  0.12928900  0.37530900  0.88021100  1
  Cl  Cl82  1  0.62928900  0.12469100  0.88021100  1
  Cl  Cl83  1  0.37071100  0.87530900  0.11978900  1
