# generated using pymatgen
data_FeTe2
_symmetry_space_group_name_H-M   'P 1'
_cell_length_a   3.89602800
_cell_length_b   5.26000900
_cell_length_c   6.25867800
_cell_angle_alpha   90.00000000
_cell_angle_beta   90.00000000
_cell_angle_gamma   90.00000000
_symmetry_Int_Tables_number   1
_chemical_formula_structural   FeTe2
_chemical_formula_sum   'Fe2 Te4'
_cell_volume   128.25997914
_cell_formula_units_Z   2
loop_
 _symmetry_equiv_pos_site_id
 _symmetry_equiv_pos_as_xyz
  1  'x, y, z'
loop_
 _atom_site_type_symbol
 _atom_site_label
 _atom_site_symmetry_multiplicity
 _atom_site_fract_x
 _atom_site_fract_y
 _atom_site_fract_z
 _atom_site_occupancy
  Fe  Fe0  1  0.00000000  0.00000000  0.00000000  1
  Fe  Fe1  1  0.50000000  0.50000000  0.50000000  1
  Te  Te2  1  0.00000000  0.22763600  0.36137400  1
  Te  Te3  1  0.00000000  0.77236400  0.63862600  1
  Te  Te4  1  0.50000000  0.27236400  0.86137400  1
  Te  Te5  1  0.50000000  0.72763600  0.13862600  1
