# generated using pymatgen
data_Zr2V3Ru
_symmetry_space_group_name_H-M   'P 1'
_cell_length_a   5.30341601
_cell_length_b   5.30341601
_cell_length_c   8.23753500
_cell_angle_alpha   90.00000000
_cell_angle_beta   90.00000000
_cell_angle_gamma   120.00000019
_symmetry_Int_Tables_number   1
_chemical_formula_structural   Zr2V3Ru
_chemical_formula_sum   'Zr4 V6 Ru2'
_cell_volume   200.65006059
_cell_formula_units_Z   2
loop_
 _symmetry_equiv_pos_site_id
 _symmetry_equiv_pos_as_xyz
  1  'x, y, z'
loop_
 _atom_site_type_symbol
 _atom_site_label
 _atom_site_symmetry_multiplicity
 _atom_site_fract_x
 _atom_site_fract_y
 _atom_site_fract_z
 _atom_site_occupancy
  Zr  Zr0  1  0.33333300  0.66666700  0.44042500  1
  Zr  Zr1  1  0.66666700  0.33333300  0.55957500  1
  Zr  Zr2  1  0.66666700  0.33333300  0.94042500  1
  Zr  Zr3  1  0.33333300  0.66666700  0.05957500  1
  V  V4  1  0.83056400  0.16943600  0.25000000  1
  V  V5  1  0.83056400  0.66112900  0.25000000  1
  V  V6  1  0.33887100  0.16943600  0.25000000  1
  V  V7  1  0.16943600  0.83056400  0.75000000  1
  V  V8  1  0.16943600  0.33887100  0.75000000  1
  V  V9  1  0.66112900  0.83056400  0.75000000  1
  Ru  Ru10  1  0.00000000  0.00000000  0.50000000  1
  Ru  Ru11  1  0.00000000  0.00000000  0.00000000  1
