# generated using pymatgen
data_MgZnCo
_symmetry_space_group_name_H-M   'P 1'
_cell_length_a   4.98341218
_cell_length_b   4.98341218
_cell_length_c   4.98341218
_cell_angle_alpha   119.94742274
_cell_angle_beta   119.52284789
_cell_angle_gamma   90.45976471
_symmetry_Int_Tables_number   1
_chemical_formula_structural   MgZnCo
_chemical_formula_sum   'Mg2 Zn2 Co2'
_cell_volume   87.85735119
_cell_formula_units_Z   2
loop_
 _symmetry_equiv_pos_site_id
 _symmetry_equiv_pos_as_xyz
  1  'x, y, z'
loop_
 _atom_site_type_symbol
 _atom_site_label
 _atom_site_symmetry_multiplicity
 _atom_site_fract_x
 _atom_site_fract_y
 _atom_site_fract_z
 _atom_site_occupancy
  Mg  Mg0  1  0.36777700  0.11777700  0.25000000  1
  Mg  Mg1  1  0.63222300  0.88222300  0.75000000  1
  Zn  Zn2  1  0.50000000  0.50000000  0.00000000  1
  Zn  Zn3  1  0.00000000  0.50000000  0.50000000  1
  Co  Co4  1  0.00000000  0.50000000  0.00000000  1
  Co  Co5  1  0.00000000  0.00000000  0.50000000  1
