# generated using pymatgen
data_NaCr(SiO3)2
_symmetry_space_group_name_H-M   'P 1'
_cell_length_a   6.58560830
_cell_length_b   6.58560830
_cell_length_c   5.35555220
_cell_angle_alpha   76.84472921
_cell_angle_beta   76.84472921
_cell_angle_gamma   84.56109944
_symmetry_Int_Tables_number   1
_chemical_formula_structural   NaCr(SiO3)2
_chemical_formula_sum   'Na2 Cr2 Si4 O12'
_cell_volume   220.01402663
_cell_formula_units_Z   2
loop_
 _symmetry_equiv_pos_site_id
 _symmetry_equiv_pos_as_xyz
  1  'x, y, z'
loop_
 _atom_site_type_symbol
 _atom_site_label
 _atom_site_symmetry_multiplicity
 _atom_site_fract_x
 _atom_site_fract_y
 _atom_site_fract_z
 _atom_site_occupancy
  Na  Na0  1  0.29698200  0.70301800  0.25000000  1
  Na  Na1  1  0.70301800  0.29698200  0.75000000  1
  Cr  Cr2  1  0.90638400  0.09361600  0.25000000  1
  Cr  Cr3  1  0.09361600  0.90638400  0.75000000  1
  Si  Si4  1  0.38332900  0.20186900  0.26486900  1
  Si  Si5  1  0.20186900  0.38332900  0.76486900  1
  Si  Si6  1  0.79813100  0.61667100  0.23513100  1
  Si  Si7  1  0.61667100  0.79813100  0.73513100  1
  O  O8  1  0.35866800  0.34609100  0.48633900  1
  O  O9  1  0.65390900  0.64133200  0.01366100  1
  O  O10  1  0.64133200  0.65390900  0.51366100  1
  O  O11  1  0.34609100  0.35866800  0.98633900  1
  O  O12  1  0.61716700  0.10315100  0.19813300  1
  O  O13  1  0.89684900  0.38283300  0.30186700  1
  O  O14  1  0.38283300  0.89684900  0.80186700  1
  O  O15  1  0.10315100  0.61716700  0.69813300  1
  O  O16  1  0.03505200  0.19359400  0.86159600  1
  O  O17  1  0.80640600  0.96494800  0.63840400  1
  O  O18  1  0.96494800  0.80640600  0.13840400  1
  O  O19  1  0.19359400  0.03505200  0.36159600  1
