# generated using pymatgen
data_Tl2Se3
_symmetry_space_group_name_H-M   'P 1'
_cell_length_a   7.10881488
_cell_length_b   7.10881488
_cell_length_c   7.71062815
_cell_angle_alpha   72.67350088
_cell_angle_beta   72.67350088
_cell_angle_gamma   53.40670181
_symmetry_Int_Tables_number   1
_chemical_formula_structural   Tl2Se3
_chemical_formula_sum   'Tl4 Se6'
_cell_volume   294.95524171
_cell_formula_units_Z   2
loop_
 _symmetry_equiv_pos_site_id
 _symmetry_equiv_pos_as_xyz
  1  'x, y, z'
loop_
 _atom_site_type_symbol
 _atom_site_label
 _atom_site_symmetry_multiplicity
 _atom_site_fract_x
 _atom_site_fract_y
 _atom_site_fract_z
 _atom_site_occupancy
  Tl  Tl0  1  0.77851800  0.43991900  0.53534900  1
  Tl  Tl1  1  0.56008100  0.22148200  0.96465100  1
  Tl  Tl2  1  0.22148200  0.56008100  0.46465100  1
  Tl  Tl3  1  0.43991900  0.77851800  0.03534900  1
  Se  Se4  1  0.15001500  0.84998500  0.75000000  1
  Se  Se5  1  0.84998500  0.15001500  0.25000000  1
  Se  Se6  1  0.97996300  0.65558100  0.05463000  1
  Se  Se7  1  0.34441900  0.02003700  0.44537000  1
  Se  Se8  1  0.02003700  0.34441900  0.94537000  1
  Se  Se9  1  0.65558100  0.97996300  0.55463000  1
