# generated using pymatgen
data_SbHSF10
_symmetry_space_group_name_H-M   'P 1'
_cell_length_a   5.73999500
_cell_length_b   10.64946600
_cell_length_c   12.97111479
_cell_angle_alpha   90.00000000
_cell_angle_beta   98.18512452
_cell_angle_gamma   90.00000000
_symmetry_Int_Tables_number   1
_chemical_formula_structural   SbHSF10
_chemical_formula_sum   'Sb4 H4 S4 F40'
_cell_volume   784.81971034
_cell_formula_units_Z   4
loop_
 _symmetry_equiv_pos_site_id
 _symmetry_equiv_pos_as_xyz
  1  'x, y, z'
loop_
 _atom_site_type_symbol
 _atom_site_label
 _atom_site_symmetry_multiplicity
 _atom_site_fract_x
 _atom_site_fract_y
 _atom_site_fract_z
 _atom_site_occupancy
  Sb  Sb0  1  0.12345100  0.74461800  0.96698000  1
  Sb  Sb1  1  0.87654900  0.24461800  0.53302000  1
  Sb  Sb2  1  0.87654900  0.25538200  0.03302000  1
  Sb  Sb3  1  0.12345100  0.75538200  0.46698000  1
  H  H4  1  0.25897100  0.10851000  0.88064900  1
  H  H5  1  0.74102900  0.60851000  0.61935100  1
  H  H6  1  0.74102900  0.89149000  0.11935100  1
  H  H7  1  0.25897100  0.39149000  0.38064900  1
  S  S8  1  0.45435100  0.47323000  0.79309900  1
  S  S9  1  0.54564900  0.97323000  0.70690100  1
  S  S10  1  0.54564900  0.52677000  0.20690100  1
  S  S11  1  0.45435100  0.02677000  0.29309900  1
  F  F12  1  0.22443200  0.67231100  0.10301400  1
  F  F13  1  0.77556800  0.17231100  0.39698600  1
  F  F14  1  0.77556800  0.32768900  0.89698600  1
  F  F15  1  0.22443200  0.82768900  0.60301400  1
  F  F16  1  0.03335000  0.81538000  0.83240800  1
  F  F17  1  0.96665000  0.31538000  0.66759200  1
  F  F18  1  0.96665000  0.18462000  0.16759200  1
  F  F19  1  0.03335000  0.68462000  0.33240800  1
  F  F20  1  0.34814400  0.87473200  0.99960200  1
  F  F21  1  0.65185600  0.37473200  0.50039800  1
  F  F22  1  0.65185600  0.12526800  0.00039800  1
  F  F23  1  0.34814400  0.62526800  0.49960200  1
  F  F24  1  0.89973800  0.61343400  0.93573600  1
  F  F25  1  0.10026200  0.11343400  0.56426400  1
  F  F26  1  0.10026200  0.38656600  0.06426400  1
  F  F27  1  0.89973800  0.88656600  0.43573600  1
  F  F28  1  0.36188500  0.64212300  0.91488900  1
  F  F29  1  0.63811500  0.14212300  0.58511100  1
  F  F30  1  0.63811500  0.35787700  0.08511100  1
  F  F31  1  0.36188500  0.85787700  0.41488900  1
  F  F32  1  0.88911000  0.84403900  0.02357400  1
  F  F33  1  0.11089000  0.34403900  0.47642600  1
  F  F34  1  0.11089000  0.15596100  0.97642600  1
  F  F35  1  0.88911000  0.65596100  0.52357400  1
  F  F36  1  0.48740500  0.36835100  0.71430800  1
  F  F37  1  0.51259500  0.86835100  0.78569200  1
  F  F38  1  0.51259500  0.63164900  0.28569200  1
  F  F39  1  0.48740500  0.13164900  0.21430800  1
  F  F40  1  0.29586200  0.39717500  0.85785500  1
  F  F41  1  0.70413800  0.89717500  0.64214500  1
  F  F42  1  0.70413800  0.60282500  0.14214500  1
  F  F43  1  0.29586200  0.10282500  0.35785500  1
  F  F44  1  0.25571600  0.54414600  0.72389700  1
  F  F45  1  0.74428400  0.04414600  0.77610300  1
  F  F46  1  0.74428400  0.45585400  0.27610300  1
  F  F47  1  0.25571600  0.95585400  0.22389700  1
  F  F48  1  0.29304100  0.09847000  0.81059900  1
  F  F49  1  0.70695900  0.59847000  0.68940100  1
  F  F50  1  0.70695900  0.90153000  0.18940100  1
  F  F51  1  0.29304100  0.40153000  0.31059900  1
