# generated using pymatgen
data_LiCaAs
_symmetry_space_group_name_H-M   'P 1'
_cell_length_a   4.33801700
_cell_length_b   7.25982000
_cell_length_c   7.92267200
_cell_angle_alpha   90.00000000
_cell_angle_beta   90.00000000
_cell_angle_gamma   90.00000000
_symmetry_Int_Tables_number   1
_chemical_formula_structural   LiCaAs
_chemical_formula_sum   'Li4 Ca4 As4'
_cell_volume   249.51047270
_cell_formula_units_Z   4
loop_
 _symmetry_equiv_pos_site_id
 _symmetry_equiv_pos_as_xyz
  1  'x, y, z'
loop_
 _atom_site_type_symbol
 _atom_site_label
 _atom_site_symmetry_multiplicity
 _atom_site_fract_x
 _atom_site_fract_y
 _atom_site_fract_z
 _atom_site_occupancy
  Li  Li0  1  0.25000000  0.14892100  0.93108300  1
  Li  Li1  1  0.25000000  0.64892100  0.56891700  1
  Li  Li2  1  0.75000000  0.85107900  0.06891700  1
  Li  Li3  1  0.75000000  0.35107900  0.43108300  1
  Ca  Ca4  1  0.25000000  0.01397700  0.30200000  1
  Ca  Ca5  1  0.25000000  0.51397700  0.19800000  1
  Ca  Ca6  1  0.75000000  0.98602300  0.69800000  1
  Ca  Ca7  1  0.75000000  0.48602300  0.80200000  1
  As  As8  1  0.25000000  0.26864700  0.60240700  1
  As  As9  1  0.25000000  0.76864700  0.89759300  1
  As  As10  1  0.75000000  0.73135300  0.39759300  1
  As  As11  1  0.75000000  0.23135300  0.10240700  1
