# generated using pymatgen
data_K2Ag2GeSe4
_symmetry_space_group_name_H-M   'P 1'
_cell_length_a   13.15158575
_cell_length_b   11.57656787
_cell_length_c   7.84138016
_cell_angle_alpha   82.86826085
_cell_angle_beta   60.85983377
_cell_angle_gamma   36.27190537
_symmetry_Int_Tables_number   1
_chemical_formula_structural   K2Ag2GeSe4
_chemical_formula_sum   'K4 Ag4 Ge2 Se8'
_cell_volume   527.13690538
_cell_formula_units_Z   2
loop_
 _symmetry_equiv_pos_site_id
 _symmetry_equiv_pos_as_xyz
  1  'x, y, z'
loop_
 _atom_site_type_symbol
 _atom_site_label
 _atom_site_symmetry_multiplicity
 _atom_site_fract_x
 _atom_site_fract_y
 _atom_site_fract_z
 _atom_site_occupancy
  K  K0  1  0.31405100  0.31405100  0.68594900  1
  K  K1  1  0.68594900  0.68594900  0.31405100  1
  K  K2  1  0.93594900  0.93594900  0.56405100  1
  K  K3  1  0.56405100  0.56405100  0.93594900  1
  Ag  Ag4  1  0.92543400  0.92543400  0.07456600  1
  Ag  Ag5  1  0.07456600  0.07456600  0.92543400  1
  Ag  Ag6  1  0.32456600  0.32456600  0.17543400  1
  Ag  Ag7  1  0.17543400  0.17543400  0.32456600  1
  Ge  Ge8  1  0.50000000  0.50000000  0.50000000  1
  Ge  Ge9  1  0.75000000  0.75000000  0.75000000  1
  Se  Se10  1  0.53002800  0.34682600  0.25913500  1
  Se  Se11  1  0.86401200  0.25913500  0.34682600  1
  Se  Se12  1  0.25913500  0.86401200  0.53002800  1
  Se  Se13  1  0.34682600  0.53002800  0.86401200  1
  Se  Se14  1  0.71997200  0.90317400  0.99086500  1
  Se  Se15  1  0.38598800  0.99086500  0.90317400  1
  Se  Se16  1  0.99086500  0.38598800  0.71997200  1
  Se  Se17  1  0.90317400  0.71997200  0.38598800  1
