# generated using pymatgen
data_ScAu4
_symmetry_space_group_name_H-M   'P 1'
_cell_length_a   5.13977006
_cell_length_b   5.13977006
_cell_length_c   5.13977006
_cell_angle_alpha   99.15388957
_cell_angle_beta   99.15388957
_cell_angle_gamma   132.98654392
_symmetry_Int_Tables_number   1
_chemical_formula_structural   ScAu4
_chemical_formula_sum   'Sc1 Au4'
_cell_volume   91.08130263
_cell_formula_units_Z   1
loop_
 _symmetry_equiv_pos_site_id
 _symmetry_equiv_pos_as_xyz
  1  'x, y, z'
loop_
 _atom_site_type_symbol
 _atom_site_label
 _atom_site_symmetry_multiplicity
 _atom_site_fract_x
 _atom_site_fract_y
 _atom_site_fract_z
 _atom_site_occupancy
  Sc  Sc0  1  0.00000000  0.00000000  0.00000000  1
  Au  Au1  1  0.60124600  0.79721900  0.39846400  1
  Au  Au2  1  0.39875400  0.20278100  0.60153600  1
  Au  Au3  1  0.20278100  0.60124600  0.80402700  1
  Au  Au4  1  0.79721900  0.39875400  0.19597300  1
