# generated using pymatgen
data_Tb3CrS6
_symmetry_space_group_name_H-M   'P 1'
_cell_length_a   3.79560600
_cell_length_b   13.32396600
_cell_length_c   16.03021000
_cell_angle_alpha   90.00000000
_cell_angle_beta   90.00000000
_cell_angle_gamma   90.00000000
_symmetry_Int_Tables_number   1
_chemical_formula_structural   Tb3CrS6
_chemical_formula_sum   'Tb12 Cr4 S24'
_cell_volume   810.68820068
_cell_formula_units_Z   4
loop_
 _symmetry_equiv_pos_site_id
 _symmetry_equiv_pos_as_xyz
  1  'x, y, z'
loop_
 _atom_site_type_symbol
 _atom_site_label
 _atom_site_symmetry_multiplicity
 _atom_site_fract_x
 _atom_site_fract_y
 _atom_site_fract_z
 _atom_site_occupancy
  Tb  Tb0  1  0.00000000  0.55033400  0.28086000  1
  Tb  Tb1  1  0.00000000  0.44966600  0.71914000  1
  Tb  Tb2  1  0.50000000  0.94966600  0.78086000  1
  Tb  Tb3  1  0.50000000  0.05033400  0.21914000  1
  Tb  Tb4  1  0.00000000  0.75417500  0.09716200  1
  Tb  Tb5  1  0.00000000  0.24582500  0.90283800  1
  Tb  Tb6  1  0.50000000  0.74582500  0.59716200  1
  Tb  Tb7  1  0.50000000  0.25417500  0.40283800  1
  Tb  Tb8  1  0.00000000  0.31979200  0.14837500  1
  Tb  Tb9  1  0.00000000  0.68020800  0.85162500  1
  Tb  Tb10  1  0.50000000  0.18020800  0.64837500  1
  Tb  Tb11  1  0.50000000  0.81979200  0.35162500  1
  Cr  Cr12  1  0.00000000  0.00000000  0.50000000  1
  Cr  Cr13  1  0.50000000  0.50000000  0.00000000  1
  Cr  Cr14  1  0.00000000  0.00000000  0.00000000  1
  Cr  Cr15  1  0.50000000  0.50000000  0.50000000  1
  S  S16  1  0.00000000  0.12098100  0.10671000  1
  S  S17  1  0.00000000  0.87901900  0.89329000  1
  S  S18  1  0.50000000  0.37901900  0.60671000  1
  S  S19  1  0.50000000  0.62098100  0.39329000  1
  S  S20  1  0.00000000  0.18713200  0.28944600  1
  S  S21  1  0.00000000  0.81286800  0.71055400  1
  S  S22  1  0.50000000  0.31286800  0.78944600  1
  S  S23  1  0.50000000  0.68713200  0.21055400  1
  S  S24  1  0.00000000  0.17939200  0.52136800  1
  S  S25  1  0.00000000  0.82060800  0.47863200  1
  S  S26  1  0.50000000  0.32060800  0.02136800  1
  S  S27  1  0.50000000  0.67939200  0.97863200  1
  S  S28  1  0.00000000  0.52387400  0.09668300  1
  S  S29  1  0.00000000  0.47612600  0.90331700  1
  S  S30  1  0.50000000  0.97612600  0.59668300  1
  S  S31  1  0.50000000  0.02387400  0.40331700  1
  S  S32  1  0.00000000  0.10333200  0.75442700  1
  S  S33  1  0.00000000  0.89666800  0.24557300  1
  S  S34  1  0.50000000  0.39666800  0.25442700  1
  S  S35  1  0.50000000  0.60333200  0.74557300  1
  S  S36  1  0.00000000  0.41738700  0.42561000  1
  S  S37  1  0.00000000  0.58261300  0.57439000  1
  S  S38  1  0.50000000  0.08261300  0.92561000  1
  S  S39  1  0.50000000  0.91738700  0.07439000  1
