# generated using pymatgen
data_SrMg3SiN4
_symmetry_space_group_name_H-M   'P 1'
_cell_length_a   10.67727184
_cell_length_b   10.67727184
_cell_length_c   10.67727184
_cell_angle_alpha   113.98798380
_cell_angle_beta   113.98798380
_cell_angle_gamma   100.77250491
_symmetry_Int_Tables_number   1
_chemical_formula_structural   SrMg3SiN4
_chemical_formula_sum   'Sr8 Mg24 Si8 N32'
_cell_volume   921.19801159
_cell_formula_units_Z   8
loop_
 _symmetry_equiv_pos_site_id
 _symmetry_equiv_pos_as_xyz
  1  'x, y, z'
loop_
 _atom_site_type_symbol
 _atom_site_label
 _atom_site_symmetry_multiplicity
 _atom_site_fract_x
 _atom_site_fract_y
 _atom_site_fract_z
 _atom_site_occupancy
  Sr  Sr0  1  0.56245500  0.04469900  0.99824800  1
  Sr  Sr1  1  0.04645100  0.56420700  0.00175200  1
  Sr  Sr2  1  0.31420700  0.81245500  0.01775600  1
  Sr  Sr3  1  0.79469900  0.29645100  0.98224400  1
  Sr  Sr4  1  0.18754500  0.20530100  0.50175200  1
  Sr  Sr5  1  0.70354900  0.68579300  0.49824800  1
  Sr  Sr6  1  0.43579300  0.43754500  0.48224400  1
  Sr  Sr7  1  0.95530100  0.95354900  0.51775600  1
  Mg  Mg8  1  0.83862100  0.15903500  0.37192600  1
  Mg  Mg9  1  0.78710900  0.46669500  0.62807400  1
  Mg  Mg10  1  0.21669500  0.08862100  0.17958600  1
  Mg  Mg11  1  0.90903500  0.03710900  0.82041400  1
  Mg  Mg12  1  0.91137900  0.09096500  0.12807400  1
  Mg  Mg13  1  0.96289100  0.78330500  0.87192600  1
  Mg  Mg14  1  0.53330500  0.16137900  0.32041400  1
  Mg  Mg15  1  0.84096500  0.21289100  0.67958600  1
  Mg  Mg16  1  0.58756800  0.95150500  0.64823100  1
  Mg  Mg17  1  0.30327400  0.93933800  0.35176900  1
  Mg  Mg18  1  0.68933800  0.83756800  0.13606400  1
  Mg  Mg19  1  0.70150500  0.55327400  0.86393600  1
  Mg  Mg20  1  0.16243200  0.29849500  0.85176900  1
  Mg  Mg21  1  0.44672600  0.31066200  0.14823100  1
  Mg  Mg22  1  0.06066200  0.41243200  0.36393600  1
  Mg  Mg23  1  0.04849500  0.69672600  0.63606400  1
  Mg  Mg24  1  0.29254000  0.97431000  0.63712100  1
  Mg  Mg25  1  0.33718900  0.65542000  0.36287900  1
  Mg  Mg26  1  0.40542000  0.54254000  0.81823100  1
  Mg  Mg27  1  0.72431000  0.58718900  0.18176900  1
  Mg  Mg28  1  0.45746000  0.27569000  0.86287900  1
  Mg  Mg29  1  0.41281100  0.59458000  0.13712100  1
  Mg  Mg30  1  0.34458000  0.70746000  0.68176900  1
  Mg  Mg31  1  0.02569000  0.66281100  0.31823100  1
  Si  Si32  1  0.75550000  0.39734900  0.28870500  1
  Si  Si33  1  0.10864500  0.46679600  0.71129500  1
  Si  Si34  1  0.21679600  0.00550000  0.85815100  1
  Si  Si35  1  0.14734900  0.35864500  0.14184900  1
  Si  Si36  1  0.99450000  0.85265100  0.21129500  1
  Si  Si37  1  0.64135500  0.78320400  0.78870500  1
  Si  Si38  1  0.53320400  0.24450000  0.64184900  1
  Si  Si39  1  0.60265100  0.89135500  0.35815100  1
  N  N40  1  0.61528700  0.35977300  0.09612600  1
  N  N41  1  0.26364600  0.51916100  0.90387400  1
  N  N42  1  0.26916100  0.86528700  0.75551500  1
  N  N43  1  0.10977300  0.51364600  0.24448500  1
  N  N44  1  0.13471300  0.89022700  0.40387400  1
  N  N45  1  0.48635400  0.73083900  0.59612600  1
  N  N46  1  0.48083900  0.38471300  0.74448500  1
  N  N47  1  0.64022700  0.73635400  0.25551500  1
  N  N48  1  0.75207200  0.97825100  0.88096000  1
  N  N49  1  0.09729200  0.87111200  0.11904000  1
  N  N50  1  0.62111200  0.00207200  0.27382000  1
  N  N51  1  0.72825100  0.34729200  0.72618000  1
  N  N52  1  0.99792800  0.27174900  0.61904000  1
  N  N53  1  0.65270800  0.37888800  0.38096000  1
  N  N54  1  0.12888800  0.24792800  0.22618000  1
  N  N55  1  0.02174900  0.90270800  0.77382000  1
  N  N56  1  0.83370000  0.26442300  0.24349000  1
  N  N57  1  0.02093300  0.59021000  0.75651000  1
  N  N58  1  0.34021000  0.08370000  0.06927700  1
  N  N59  1  0.01442300  0.27093300  0.93072300  1
  N  N60  1  0.91630000  0.98557700  0.25651000  1
  N  N61  1  0.72906700  0.65979000  0.74349000  1
  N  N62  1  0.40979000  0.16630000  0.43072300  1
  N  N63  1  0.73557700  0.97906700  0.56927700  1
  N  N64  1  0.50368300  0.11337700  0.70179900  1
  N  N65  1  0.41157900  0.80188400  0.29820100  1
  N  N66  1  0.55188400  0.75368300  0.89030600  1
  N  N67  1  0.86337700  0.66157900  0.10969400  1
  N  N68  1  0.24631700  0.13662200  0.79820100  1
  N  N69  1  0.33842100  0.44811600  0.20179900  1
  N  N70  1  0.19811600  0.49631700  0.60969400  1
  N  N71  1  0.88662200  0.58842100  0.39030600  1
