# generated using pymatgen
data_TaVO5
_symmetry_space_group_name_H-M   'P 1'
_cell_length_a   5.61633500
_cell_length_b   7.06262300
_cell_length_c   12.06380700
_cell_angle_alpha   90.00000000
_cell_angle_beta   90.00000000
_cell_angle_gamma   90.00000000
_symmetry_Int_Tables_number   1
_chemical_formula_structural   TaVO5
_chemical_formula_sum   'Ta4 V4 O20'
_cell_volume   478.52365304
_cell_formula_units_Z   4
loop_
 _symmetry_equiv_pos_site_id
 _symmetry_equiv_pos_as_xyz
  1  'x, y, z'
loop_
 _atom_site_type_symbol
 _atom_site_label
 _atom_site_symmetry_multiplicity
 _atom_site_fract_x
 _atom_site_fract_y
 _atom_site_fract_z
 _atom_site_occupancy
  Ta  Ta0  1  0.25000000  0.15656000  0.55855900  1
  Ta  Ta1  1  0.75000000  0.84344000  0.44144100  1
  Ta  Ta2  1  0.75000000  0.65656000  0.94144100  1
  Ta  Ta3  1  0.25000000  0.34344000  0.05855900  1
  V  V4  1  0.25000000  0.96987700  0.84563100  1
  V  V5  1  0.75000000  0.03012300  0.15436900  1
  V  V6  1  0.75000000  0.46987700  0.65436900  1
  V  V7  1  0.25000000  0.53012300  0.34563100  1
  O  O8  1  0.25000000  0.17762100  0.92419000  1
  O  O9  1  0.75000000  0.82237900  0.07581000  1
  O  O10  1  0.75000000  0.67762100  0.57581000  1
  O  O11  1  0.25000000  0.32237900  0.42419000  1
  O  O12  1  0.25000000  0.02825000  0.70378400  1
  O  O13  1  0.75000000  0.97175000  0.29621600  1
  O  O14  1  0.75000000  0.52825000  0.79621600  1
  O  O15  1  0.25000000  0.47175000  0.20378400  1
  O  O16  1  0.00000000  0.50000000  0.00000000  1
  O  O17  1  0.50000000  0.50000000  0.00000000  1
  O  O18  1  0.00000000  0.00000000  0.50000000  1
  O  O19  1  0.50000000  0.00000000  0.50000000  1
  O  O20  1  0.00107600  0.15968900  0.12367800  1
  O  O21  1  0.50107600  0.84031100  0.87632200  1
  O  O22  1  0.99892400  0.65968900  0.37632200  1
  O  O23  1  0.49892400  0.34031100  0.62367800  1
  O  O24  1  0.99892400  0.84031100  0.87632200  1
  O  O25  1  0.49892400  0.15968900  0.12367800  1
  O  O26  1  0.00107600  0.34031100  0.62367800  1
  O  O27  1  0.50107600  0.65968900  0.37632200  1
