# generated using pymatgen
data_Er2Co3Ge5
_symmetry_space_group_name_H-M   'P 1'
_cell_length_a   8.04383344
_cell_length_b   8.04383344
_cell_length_c   5.69081904
_cell_angle_alpha   70.53419349
_cell_angle_beta   70.53419349
_cell_angle_gamma   93.79427208
_symmetry_Int_Tables_number   1
_chemical_formula_structural   Er2Co3Ge5
_chemical_formula_sum   'Er4 Co6 Ge10'
_cell_volume   320.75268888
_cell_formula_units_Z   2
loop_
 _symmetry_equiv_pos_site_id
 _symmetry_equiv_pos_as_xyz
  1  'x, y, z'
loop_
 _atom_site_type_symbol
 _atom_site_label
 _atom_site_symmetry_multiplicity
 _atom_site_fract_x
 _atom_site_fract_y
 _atom_site_fract_z
 _atom_site_occupancy
  Er  Er0  1  0.40943900  0.12736800  0.73235900  1
  Er  Er1  1  0.12736800  0.40943900  0.23235900  1
  Er  Er2  1  0.59056100  0.87263200  0.26764100  1
  Er  Er3  1  0.87263200  0.59056100  0.76764100  1
  Co  Co4  1  0.00273800  0.99726200  0.75000000  1
  Co  Co5  1  0.99726200  0.00273800  0.25000000  1
  Co  Co6  1  0.73862600  0.45616700  0.38031000  1
  Co  Co7  1  0.45616700  0.73862600  0.88031000  1
  Co  Co8  1  0.26137400  0.54383300  0.61969000  1
  Co  Co9  1  0.54383300  0.26137400  0.11969000  1
  Ge  Ge10  1  0.26193300  0.08055600  0.32641800  1
  Ge  Ge11  1  0.91944400  0.73806700  0.17358200  1
  Ge  Ge12  1  0.73806700  0.91944400  0.67358200  1
  Ge  Ge13  1  0.08055600  0.26193300  0.82641800  1
  Ge  Ge14  1  0.21274900  0.78725100  0.75000000  1
  Ge  Ge15  1  0.78725100  0.21274900  0.25000000  1
  Ge  Ge16  1  0.50923800  0.49076200  0.75000000  1
  Ge  Ge17  1  0.49076200  0.50923800  0.25000000  1
  Ge  Ge18  1  0.77442700  0.22557300  0.75000000  1
  Ge  Ge19  1  0.22557300  0.77442700  0.25000000  1
