# generated using pymatgen
data_Mg3N2
_symmetry_space_group_name_H-M   'P 1'
_cell_length_a   8.68145780
_cell_length_b   8.68145780
_cell_length_c   8.68145780
_cell_angle_alpha   109.47122063
_cell_angle_beta   109.47122063
_cell_angle_gamma   109.47122063
_symmetry_Int_Tables_number   1
_chemical_formula_structural   Mg3N2
_chemical_formula_sum   'Mg24 N16'
_cell_volume   503.68159933
_cell_formula_units_Z   8
loop_
 _symmetry_equiv_pos_site_id
 _symmetry_equiv_pos_as_xyz
  1  'x, y, z'
loop_
 _atom_site_type_symbol
 _atom_site_label
 _atom_site_symmetry_multiplicity
 _atom_site_fract_x
 _atom_site_fract_y
 _atom_site_fract_z
 _atom_site_occupancy
  Mg  Mg0  1  0.46517700  0.73667900  0.00699500  1
  Mg  Mg1  1  0.45818100  0.49300500  0.22968300  1
  Mg  Mg2  1  0.22968300  0.45818100  0.49300500  1
  Mg  Mg3  1  0.27031700  0.76332100  0.22849800  1
  Mg  Mg4  1  0.73667900  0.00699500  0.46517700  1
  Mg  Mg5  1  0.27150200  0.03482300  0.04181900  1
  Mg  Mg6  1  0.00699500  0.46517700  0.73667900  1
  Mg  Mg7  1  0.22849800  0.27031700  0.76332100  1
  Mg  Mg8  1  0.04181900  0.27150200  0.03482300  1
  Mg  Mg9  1  0.03482300  0.04181900  0.27150200  1
  Mg  Mg10  1  0.76332100  0.22849800  0.27031700  1
  Mg  Mg11  1  0.49300500  0.22968300  0.45818100  1
  Mg  Mg12  1  0.77150200  0.72968300  0.23667900  1
  Mg  Mg13  1  0.99300500  0.53482300  0.26332100  1
  Mg  Mg14  1  0.72849800  0.96517700  0.95818100  1
  Mg  Mg15  1  0.26332100  0.99300500  0.53482300  1
  Mg  Mg16  1  0.72968300  0.23667900  0.77150200  1
  Mg  Mg17  1  0.77031700  0.54181900  0.50699500  1
  Mg  Mg18  1  0.54181900  0.50699500  0.77031700  1
  Mg  Mg19  1  0.53482300  0.26332100  0.99300500  1
  Mg  Mg20  1  0.95818100  0.72849800  0.96517700  1
  Mg  Mg21  1  0.96517700  0.95818100  0.72849800  1
  Mg  Mg22  1  0.23667900  0.77150200  0.72968300  1
  Mg  Mg23  1  0.50699500  0.77031700  0.54181900  1
  N  N24  1  0.50000000  0.50000000  0.00000000  1
  N  N25  1  0.00000000  0.00000000  0.00000000  1
  N  N26  1  0.00000000  0.50000000  0.50000000  1
  N  N27  1  0.50000000  0.00000000  0.50000000  1
  N  N28  1  0.71900400  0.75000000  0.46900400  1
  N  N29  1  0.25000000  0.03099600  0.78099600  1
  N  N30  1  0.46900400  0.71900400  0.75000000  1
  N  N31  1  0.75000000  0.46900400  0.71900400  1
  N  N32  1  0.03099600  0.78099600  0.25000000  1
  N  N33  1  0.78099600  0.25000000  0.03099600  1
  N  N34  1  0.28099600  0.25000000  0.53099600  1
  N  N35  1  0.75000000  0.96900400  0.21900400  1
  N  N36  1  0.53099600  0.28099600  0.25000000  1
  N  N37  1  0.25000000  0.53099600  0.28099600  1
  N  N38  1  0.96900400  0.21900400  0.75000000  1
  N  N39  1  0.21900400  0.75000000  0.96900400  1
