# generated using pymatgen
data_TiGaNi6
_symmetry_space_group_name_H-M   'P 1'
_cell_length_a   3.58826700
_cell_length_b   3.58826700
_cell_length_c   7.12844500
_cell_angle_alpha   90.00000000
_cell_angle_beta   90.00000000
_cell_angle_gamma   90.00000000
_symmetry_Int_Tables_number   1
_chemical_formula_structural   TiGaNi6
_chemical_formula_sum   'Ti1 Ga1 Ni6'
_cell_volume   91.78343460
_cell_formula_units_Z   1
loop_
 _symmetry_equiv_pos_site_id
 _symmetry_equiv_pos_as_xyz
  1  'x, y, z'
loop_
 _atom_site_type_symbol
 _atom_site_label
 _atom_site_symmetry_multiplicity
 _atom_site_fract_x
 _atom_site_fract_y
 _atom_site_fract_z
 _atom_site_occupancy
  Ti  Ti0  1  0.00000000  0.00000000  0.50000000  1
  Ga  Ga1  1  0.00000000  0.00000000  0.00000000  1
  Ni  Ni2  1  0.50000000  0.50000000  0.00000000  1
  Ni  Ni3  1  0.50000000  0.50000000  0.50000000  1
  Ni  Ni4  1  0.50000000  0.00000000  0.24927300  1
  Ni  Ni5  1  0.50000000  0.00000000  0.75072700  1
  Ni  Ni6  1  0.00000000  0.50000000  0.24927300  1
  Ni  Ni7  1  0.00000000  0.50000000  0.75072700  1
