# generated using pymatgen
data_Ag6SnSb
_symmetry_space_group_name_H-M   'P 1'
_cell_length_a   4.87038300
_cell_length_b   5.27840800
_cell_length_c   6.14467500
_cell_angle_alpha   90.00000000
_cell_angle_beta   90.00000000
_cell_angle_gamma   90.00000000
_symmetry_Int_Tables_number   1
_chemical_formula_structural   Ag6SnSb
_chemical_formula_sum   'Ag6 Sn1 Sb1'
_cell_volume   157.96649743
_cell_formula_units_Z   1
loop_
 _symmetry_equiv_pos_site_id
 _symmetry_equiv_pos_as_xyz
  1  'x, y, z'
loop_
 _atom_site_type_symbol
 _atom_site_label
 _atom_site_symmetry_multiplicity
 _atom_site_fract_x
 _atom_site_fract_y
 _atom_site_fract_z
 _atom_site_occupancy
  Ag  Ag0  1  0.50000000  0.15931000  0.75175000  1
  Ag  Ag1  1  0.50000000  0.15931000  0.24825000  1
  Ag  Ag2  1  0.00000000  0.84186200  0.75192200  1
  Ag  Ag3  1  0.00000000  0.84186200  0.24807800  1
  Ag  Ag4  1  0.00000000  0.32789800  0.50000000  1
  Ag  Ag5  1  0.50000000  0.66837700  0.00000000  1
  Sn  Sn6  1  0.00000000  0.33431300  0.00000000  1
  Sb  Sb7  1  0.50000000  0.66706900  0.50000000  1
