# generated using pymatgen
data_Cs3SbSe4
_symmetry_space_group_name_H-M   'P 1'
_cell_length_a   10.42683000
_cell_length_b   10.86888000
_cell_length_c   12.19263900
_cell_angle_alpha   90.00000000
_cell_angle_beta   90.00000000
_cell_angle_gamma   90.00000000
_symmetry_Int_Tables_number   1
_chemical_formula_structural   Cs3SbSe4
_chemical_formula_sum   'Cs12 Sb4 Se16'
_cell_volume   1381.76695427
_cell_formula_units_Z   4
loop_
 _symmetry_equiv_pos_site_id
 _symmetry_equiv_pos_as_xyz
  1  'x, y, z'
loop_
 _atom_site_type_symbol
 _atom_site_label
 _atom_site_symmetry_multiplicity
 _atom_site_fract_x
 _atom_site_fract_y
 _atom_site_fract_z
 _atom_site_occupancy
  Cs  Cs0  1  0.05729100  0.19735000  0.95623400  1
  Cs  Cs1  1  0.64371400  0.07928000  0.25000000  1
  Cs  Cs2  1  0.35628600  0.92072000  0.75000000  1
  Cs  Cs3  1  0.85628600  0.57928000  0.75000000  1
  Cs  Cs4  1  0.14371400  0.42072000  0.25000000  1
  Cs  Cs5  1  0.55729100  0.30265000  0.54376600  1
  Cs  Cs6  1  0.44270900  0.69735000  0.04376600  1
  Cs  Cs7  1  0.94270900  0.80265000  0.45623400  1
  Cs  Cs8  1  0.94270900  0.80265000  0.04376600  1
  Cs  Cs9  1  0.44270900  0.69735000  0.45623400  1
  Cs  Cs10  1  0.55729100  0.30265000  0.95623400  1
  Cs  Cs11  1  0.05729100  0.19735000  0.54376600  1
  Sb  Sb12  1  0.76983200  0.02168100  0.75000000  1
  Sb  Sb13  1  0.73016800  0.52168100  0.25000000  1
  Sb  Sb14  1  0.26983200  0.47831900  0.75000000  1
  Sb  Sb15  1  0.23016800  0.97831900  0.25000000  1
  Se  Se16  1  0.64755000  0.96837300  0.92159700  1
  Se  Se17  1  0.14755000  0.53162700  0.57840300  1
  Se  Se18  1  0.85245000  0.46837300  0.07840300  1
  Se  Se19  1  0.35245000  0.03162700  0.42159700  1
  Se  Se20  1  0.35245000  0.03162700  0.07840300  1
  Se  Se21  1  0.85245000  0.46837300  0.42159700  1
  Se  Se22  1  0.14755000  0.53162700  0.92159700  1
  Se  Se23  1  0.64755000  0.96837300  0.57840300  1
  Se  Se24  1  0.01522200  0.08580700  0.25000000  1
  Se  Se25  1  0.80870800  0.25023700  0.75000000  1
  Se  Se26  1  0.48477800  0.58580700  0.75000000  1
  Se  Se27  1  0.98477800  0.91419300  0.75000000  1
  Se  Se28  1  0.19129200  0.74976300  0.25000000  1
  Se  Se29  1  0.69129200  0.75023700  0.25000000  1
  Se  Se30  1  0.30870800  0.24976300  0.75000000  1
  Se  Se31  1  0.51522200  0.41419300  0.25000000  1
