# generated using pymatgen
data_Dy2(Ga3Ir)3
_symmetry_space_group_name_H-M   'P 1'
_cell_length_a   7.58499500
_cell_length_b   7.58499500
_cell_length_c   9.49628600
_cell_angle_alpha   90.00000000
_cell_angle_beta   90.00000000
_cell_angle_gamma   119.96600580
_symmetry_Int_Tables_number   1
_chemical_formula_structural   Dy2(Ga3Ir)3
_chemical_formula_sum   'Dy4 Ga18 Ir6'
_cell_volume   473.30781952
_cell_formula_units_Z   2
loop_
 _symmetry_equiv_pos_site_id
 _symmetry_equiv_pos_as_xyz
  1  'x, y, z'
loop_
 _atom_site_type_symbol
 _atom_site_label
 _atom_site_symmetry_multiplicity
 _atom_site_fract_x
 _atom_site_fract_y
 _atom_site_fract_z
 _atom_site_occupancy
  Dy  Dy0  1  0.99709700  0.66794800  0.25000000  1
  Dy  Dy1  1  0.00290300  0.33205200  0.75000000  1
  Dy  Dy2  1  0.66794800  0.99709700  0.25000000  1
  Dy  Dy3  1  0.33205200  0.00290300  0.75000000  1
  Ga  Ga4  1  0.12605300  0.12605300  0.25000000  1
  Ga  Ga5  1  0.87394700  0.87394700  0.75000000  1
  Ga  Ga6  1  0.99955000  0.33389400  0.07869900  1
  Ga  Ga7  1  0.00045000  0.66610600  0.92130100  1
  Ga  Ga8  1  0.00045000  0.66610600  0.57869900  1
  Ga  Ga9  1  0.33389400  0.99955000  0.42130100  1
  Ga  Ga10  1  0.99955000  0.33389400  0.42130100  1
  Ga  Ga11  1  0.66610600  0.00045000  0.57869900  1
  Ga  Ga12  1  0.66610600  0.00045000  0.92130100  1
  Ga  Ga13  1  0.33389400  0.99955000  0.07869900  1
  Ga  Ga14  1  0.33307800  0.33307800  0.56272700  1
  Ga  Ga15  1  0.66692200  0.66692200  0.43727300  1
  Ga  Ga16  1  0.66692200  0.66692200  0.06272700  1
  Ga  Ga17  1  0.33307800  0.33307800  0.93727300  1
  Ga  Ga18  1  0.33829500  0.54629600  0.25000000  1
  Ga  Ga19  1  0.66170500  0.45370400  0.75000000  1
  Ga  Ga20  1  0.54629600  0.33829500  0.25000000  1
  Ga  Ga21  1  0.45370400  0.66170500  0.75000000  1
  Ir  Ir22  1  0.67153800  0.32846200  0.00000000  1
  Ir  Ir23  1  0.32846200  0.67153800  0.00000000  1
  Ir  Ir24  1  0.32846200  0.67153800  0.50000000  1
  Ir  Ir25  1  0.67153800  0.32846200  0.50000000  1
  Ir  Ir26  1  0.00000000  0.00000000  0.00000000  1
  Ir  Ir27  1  0.00000000  0.00000000  0.50000000  1
