# generated using pymatgen
data_AgF3
_symmetry_space_group_name_H-M   'P 1'
_cell_length_a   5.19554032
_cell_length_b   5.19554032
_cell_length_c   15.42981000
_cell_angle_alpha   90.00000000
_cell_angle_beta   90.00000000
_cell_angle_gamma   120.00000412
_symmetry_Int_Tables_number   1
_chemical_formula_structural   AgF3
_chemical_formula_sum   'Ag6 F18'
_cell_volume   360.70538963
_cell_formula_units_Z   6
loop_
 _symmetry_equiv_pos_site_id
 _symmetry_equiv_pos_as_xyz
  1  'x, y, z'
loop_
 _atom_site_type_symbol
 _atom_site_label
 _atom_site_symmetry_multiplicity
 _atom_site_fract_x
 _atom_site_fract_y
 _atom_site_fract_z
 _atom_site_occupancy
  Ag  Ag0  1  0.70910000  0.41820000  0.75000000  1
  Ag  Ag1  1  0.29090000  0.70910000  0.91666700  1
  Ag  Ag2  1  0.41820000  0.70910000  0.58333300  1
  Ag  Ag3  1  0.58180000  0.29090000  0.08333300  1
  Ag  Ag4  1  0.70910000  0.29090000  0.41666700  1
  Ag  Ag5  1  0.29090000  0.58180000  0.25000000  1
  F  F6  1  0.89263200  0.55548800  0.16432100  1
  F  F7  1  0.44451200  0.33714500  0.49765400  1
  F  F8  1  0.66285500  0.10736800  0.83098700  1
  F  F9  1  0.33714500  0.89263200  0.33098700  1
  F  F10  1  0.10736800  0.66285500  0.50234600  1
  F  F11  1  0.10736800  0.44451200  0.66432100  1
  F  F12  1  0.25732600  0.00000000  0.00000000  1
  F  F13  1  0.25732600  0.25732600  0.16666700  1
  F  F14  1  0.00000000  0.74267400  0.83333300  1
  F  F15  1  0.00000000  0.25732600  0.33333300  1
  F  F16  1  0.74267400  0.74267400  0.66666700  1
  F  F17  1  0.74267400  0.00000000  0.50000000  1
  F  F18  1  0.89263200  0.33714500  0.00234600  1
  F  F19  1  0.55548800  0.89263200  0.16901300  1
  F  F20  1  0.33714500  0.44451200  0.83567900  1
  F  F21  1  0.66285500  0.55548800  0.33567900  1
  F  F22  1  0.44451200  0.10736800  0.66901300  1
  F  F23  1  0.55548800  0.66285500  0.99765400  1
