# generated using pymatgen
data_Ce2Mo2C3
_symmetry_space_group_name_H-M   'P 1'
_cell_length_a   6.30763361
_cell_length_b   6.30763361
_cell_length_c   5.78714582
_cell_angle_alpha   66.02479734
_cell_angle_beta   66.02479734
_cell_angle_gamma   30.85861383
_symmetry_Int_Tables_number   1
_chemical_formula_structural   Ce2Mo2C3
_chemical_formula_sum   'Ce2 Mo2 C3'
_cell_volume   107.09414820
_cell_formula_units_Z   1
loop_
 _symmetry_equiv_pos_site_id
 _symmetry_equiv_pos_as_xyz
  1  'x, y, z'
loop_
 _atom_site_type_symbol
 _atom_site_label
 _atom_site_symmetry_multiplicity
 _atom_site_fract_x
 _atom_site_fract_y
 _atom_site_fract_z
 _atom_site_occupancy
  Ce  Ce0  1  0.39584400  0.39584400  0.80662300  1
  Ce  Ce1  1  0.60415600  0.60415600  0.19337700  1
  Mo  Mo2  1  0.15893500  0.15893500  0.67538800  1
  Mo  Mo3  1  0.84106500  0.84106500  0.32461200  1
  C  C4  1  0.00000000  0.00000000  0.00000000  1
  C  C5  1  0.25150700  0.25150700  0.26141900  1
  C  C6  1  0.74849300  0.74849300  0.73858100  1
