# generated using pymatgen
data_Ca21(Zn2As9)2
_symmetry_space_group_name_H-M   'P 1'
_cell_length_a   11.37066929
_cell_length_b   11.37066929
_cell_length_c   16.27504659
_cell_angle_alpha   88.38906441
_cell_angle_beta   88.38906441
_cell_angle_gamma   87.22799229
_symmetry_Int_Tables_number   1
_chemical_formula_structural   Ca21(Zn2As9)2
_chemical_formula_sum   'Ca42 Zn8 As36'
_cell_volume   2100.18805579
_cell_formula_units_Z   2
loop_
 _symmetry_equiv_pos_site_id
 _symmetry_equiv_pos_as_xyz
  1  'x, y, z'
loop_
 _atom_site_type_symbol
 _atom_site_label
 _atom_site_symmetry_multiplicity
 _atom_site_fract_x
 _atom_site_fract_y
 _atom_site_fract_z
 _atom_site_occupancy
  Ca  Ca0  1  0.92759200  0.23557800  0.64970000  1
  Ca  Ca1  1  0.23557800  0.92759200  0.64970000  1
  Ca  Ca2  1  0.07240800  0.76442200  0.35030000  1
  Ca  Ca3  1  0.76442200  0.07240800  0.35030000  1
  Ca  Ca4  1  0.92182600  0.24795200  0.85538100  1
  Ca  Ca5  1  0.24795200  0.92182600  0.85538100  1
  Ca  Ca6  1  0.07817400  0.75204800  0.14461900  1
  Ca  Ca7  1  0.75204800  0.07817400  0.14461900  1
  Ca  Ca8  1  0.98975400  0.22997200  0.42303800  1
  Ca  Ca9  1  0.22997200  0.98975400  0.42303800  1
  Ca  Ca10  1  0.01024600  0.77002800  0.57696200  1
  Ca  Ca11  1  0.77002800  0.01024600  0.57696200  1
  Ca  Ca12  1  0.74516600  0.49189000  0.94423200  1
  Ca  Ca13  1  0.49189000  0.74516600  0.94423200  1
  Ca  Ca14  1  0.25483400  0.50811000  0.05576800  1
  Ca  Ca15  1  0.50811000  0.25483400  0.05576800  1
  Ca  Ca16  1  0.81912900  0.49696300  0.56342500  1
  Ca  Ca17  1  0.49696300  0.81912900  0.56342500  1
  Ca  Ca18  1  0.18087100  0.50303700  0.43657500  1
  Ca  Ca19  1  0.50303700  0.18087100  0.43657500  1
  Ca  Ca20  1  0.93259200  0.57483900  0.75653700  1
  Ca  Ca21  1  0.57483900  0.93259200  0.75653700  1
  Ca  Ca22  1  0.06740800  0.42516100  0.24346300  1
  Ca  Ca23  1  0.42516100  0.06740800  0.24346300  1
  Ca  Ca24  1  0.99775400  0.73470300  0.94072900  1
  Ca  Ca25  1  0.73470300  0.99775400  0.94072900  1
  Ca  Ca26  1  0.00224600  0.26529700  0.05927100  1
  Ca  Ca27  1  0.26529700  0.00224600  0.05927100  1
  Ca  Ca28  1  0.26399900  0.59602000  0.84228000  1
  Ca  Ca29  1  0.59602000  0.26399900  0.84228000  1
  Ca  Ca30  1  0.73600100  0.40398000  0.15772000  1
  Ca  Ca31  1  0.40398000  0.73600100  0.15772000  1
  Ca  Ca32  1  0.32041800  0.57174700  0.61841900  1
  Ca  Ca33  1  0.57174700  0.32041800  0.61841900  1
  Ca  Ca34  1  0.67958200  0.42825300  0.38158100  1
  Ca  Ca35  1  0.42825300  0.67958200  0.38158100  1
  Ca  Ca36  1  0.25048400  0.25048400  0.58085100  1
  Ca  Ca37  1  0.74951600  0.74951600  0.41914900  1
  Ca  Ca38  1  0.26251000  0.26251000  0.90637200  1
  Ca  Ca39  1  0.73749000  0.73749000  0.09362800  1
  Ca  Ca40  1  0.59718400  0.59718400  0.74321900  1
  Ca  Ca41  1  0.40281600  0.40281600  0.25678100  1
  Zn  Zn42  1  0.14951400  0.37951600  0.74847500  1
  Zn  Zn43  1  0.37951600  0.14951400  0.74847500  1
  Zn  Zn44  1  0.85048600  0.62048400  0.25152500  1
  Zn  Zn45  1  0.62048400  0.85048600  0.25152500  1
  Zn  Zn46  1  0.00056200  0.00056200  0.20506600  1
  Zn  Zn47  1  0.99943800  0.99943800  0.79493400  1
  Zn  Zn48  1  0.15896500  0.15896500  0.24407400  1
  Zn  Zn49  1  0.84103500  0.84103500  0.75592600  1
  As  As50  1  0.04491800  0.04491800  0.56016600  1
  As  As51  1  0.95508200  0.95508200  0.43983400  1
  As  As52  1  0.05431900  0.05431900  0.94386900  1
  As  As53  1  0.94568100  0.94568100  0.05613100  1
  As  As54  1  0.43061200  0.43061200  0.46777300  1
  As  As55  1  0.56938800  0.56938800  0.53222700  1
  As  As56  1  0.46626900  0.46626900  0.93012700  1
  As  As57  1  0.53373100  0.53373100  0.06987300  1
  As  As58  1  0.76204200  0.39847200  0.74323900  1
  As  As59  1  0.39847200  0.76204200  0.74323900  1
  As  As60  1  0.23795800  0.60152800  0.25676100  1
  As  As61  1  0.60152800  0.23795800  0.25676100  1
  As  As62  1  0.06398700  0.45159000  0.89652700  1
  As  As63  1  0.45159000  0.06398700  0.89652700  1
  As  As64  1  0.93601300  0.54841000  0.10347300  1
  As  As65  1  0.54841000  0.93601300  0.10347300  1
  As  As66  1  0.07375500  0.46037400  0.61054300  1
  As  As67  1  0.46037400  0.07375500  0.61054300  1
  As  As68  1  0.92624500  0.53962600  0.38945700  1
  As  As69  1  0.53962600  0.92624500  0.38945700  1
  As  As70  1  0.06671600  0.78943700  0.76045500  1
  As  As71  1  0.78943700  0.06671600  0.76045500  1
  As  As72  1  0.93328400  0.21056300  0.23954500  1
  As  As73  1  0.21056300  0.93328400  0.23954500  1
  As  As74  1  0.15008700  0.15008700  0.74800600  1
  As  As75  1  0.84991300  0.84991300  0.25199400  1
  As  As76  1  0.24599100  0.24599100  0.37478400  1
  As  As77  1  0.75400900  0.75400900  0.62521600  1
  As  As78  1  0.37923300  0.37923300  0.74158900  1
  As  As79  1  0.62076700  0.62076700  0.25841100  1
  As  As80  1  0.74077900  0.74077900  0.88444400  1
  As  As81  1  0.25922100  0.25922100  0.11555600  1
  As  As82  1  0.75442100  0.24557900  0.50000000  1
  As  As83  1  0.24557900  0.75442100  0.50000000  1
  As  As84  1  0.75396400  0.24603600  0.00000000  1
  As  As85  1  0.24603600  0.75396400  0.00000000  1
