# generated using pymatgen
data_ErGaPt
_symmetry_space_group_name_H-M   'P 1'
_cell_length_a   4.43911000
_cell_length_b   6.83777500
_cell_length_c   7.66371600
_cell_angle_alpha   90.00000000
_cell_angle_beta   90.00000000
_cell_angle_gamma   90.00000000
_symmetry_Int_Tables_number   1
_chemical_formula_structural   ErGaPt
_chemical_formula_sum   'Er4 Ga4 Pt4'
_cell_volume   232.62164112
_cell_formula_units_Z   4
loop_
 _symmetry_equiv_pos_site_id
 _symmetry_equiv_pos_as_xyz
  1  'x, y, z'
loop_
 _atom_site_type_symbol
 _atom_site_label
 _atom_site_symmetry_multiplicity
 _atom_site_fract_x
 _atom_site_fract_y
 _atom_site_fract_z
 _atom_site_occupancy
  Er  Er0  1  0.25000000  0.98482200  0.30265200  1
  Er  Er1  1  0.25000000  0.48482200  0.19734800  1
  Er  Er2  1  0.75000000  0.01517800  0.69734800  1
  Er  Er3  1  0.75000000  0.51517800  0.80265200  1
  Ga  Ga4  1  0.25000000  0.32443800  0.57221000  1
  Ga  Ga5  1  0.25000000  0.82443800  0.92779000  1
  Ga  Ga6  1  0.75000000  0.67556200  0.42779000  1
  Ga  Ga7  1  0.75000000  0.17556200  0.07221000  1
  Pt  Pt8  1  0.25000000  0.22109800  0.89897300  1
  Pt  Pt9  1  0.25000000  0.72109800  0.60102700  1
  Pt  Pt10  1  0.75000000  0.77890200  0.10102700  1
  Pt  Pt11  1  0.75000000  0.27890200  0.39897300  1
