# generated using pymatgen
data_Sn2W3Cl14
_symmetry_space_group_name_H-M   'P 1'
_cell_length_a   9.72937259
_cell_length_b   9.72937259
_cell_length_c   12.52539000
_cell_angle_alpha   90.00000000
_cell_angle_beta   90.00000000
_cell_angle_gamma   120.00000403
_symmetry_Int_Tables_number   1
_chemical_formula_structural   Sn2W3Cl14
_chemical_formula_sum   'Sn4 W6 Cl28'
_cell_volume   1026.81343395
_cell_formula_units_Z   2
loop_
 _symmetry_equiv_pos_site_id
 _symmetry_equiv_pos_as_xyz
  1  'x, y, z'
loop_
 _atom_site_type_symbol
 _atom_site_label
 _atom_site_symmetry_multiplicity
 _atom_site_fract_x
 _atom_site_fract_y
 _atom_site_fract_z
 _atom_site_occupancy
  Sn  Sn0  1  0.33333300  0.66666700  0.30335500  1
  Sn  Sn1  1  0.66666700  0.33333300  0.80335500  1
  Sn  Sn2  1  0.00000000  0.00000000  0.25486300  1
  Sn  Sn3  1  0.00000000  0.00000000  0.75486300  1
  W  W4  1  0.85339500  0.41047400  0.33833100  1
  W  W5  1  0.58952600  0.44292100  0.33833100  1
  W  W6  1  0.55707900  0.14660500  0.33833100  1
  W  W7  1  0.14660500  0.58952600  0.83833100  1
  W  W8  1  0.41047400  0.55707900  0.83833100  1
  W  W9  1  0.44292100  0.85339500  0.83833100  1
  Cl  Cl10  1  0.66666700  0.33333300  0.19190900  1
  Cl  Cl11  1  0.33333300  0.66666700  0.69190900  1
  Cl  Cl12  1  0.75861200  0.20240000  0.47147500  1
  Cl  Cl13  1  0.79760000  0.55621100  0.47147500  1
  Cl  Cl14  1  0.44378900  0.24138800  0.47147500  1
  Cl  Cl15  1  0.24138800  0.79760000  0.97147500  1
  Cl  Cl16  1  0.20240000  0.44378900  0.97147500  1
  Cl  Cl17  1  0.55621100  0.75861200  0.97147500  1
  Cl  Cl18  1  0.97619400  0.30007000  0.22679100  1
  Cl  Cl19  1  0.69993000  0.67612300  0.22679100  1
  Cl  Cl20  1  0.32387700  0.02380600  0.22679100  1
  Cl  Cl21  1  0.02380600  0.69993000  0.72679100  1
  Cl  Cl22  1  0.30007000  0.32387700  0.72679100  1
  Cl  Cl23  1  0.67612300  0.97619400  0.72679100  1
  Cl  Cl24  1  0.09922300  0.50471300  0.44857200  1
  Cl  Cl25  1  0.49528700  0.59451000  0.44857200  1
  Cl  Cl26  1  0.40549000  0.90077700  0.44857200  1
  Cl  Cl27  1  0.90077700  0.49528700  0.94857200  1
  Cl  Cl28  1  0.50471300  0.40549000  0.94857200  1
  Cl  Cl29  1  0.59451000  0.09922300  0.94857200  1
  Cl  Cl30  1  0.01477900  0.65044600  0.23919500  1
  Cl  Cl31  1  0.34955400  0.36433300  0.23919500  1
  Cl  Cl32  1  0.63566700  0.98522100  0.23919500  1
  Cl  Cl33  1  0.98522100  0.34955400  0.73919500  1
  Cl  Cl34  1  0.65044600  0.63566700  0.73919500  1
  Cl  Cl35  1  0.36433300  0.01477900  0.73919500  1
  Cl  Cl36  1  0.00000000  0.00000000  0.06202200  1
  Cl  Cl37  1  0.00000000  0.00000000  0.56202200  1
