# generated using pymatgen
data_Pr6Mn(SiS7)2
_symmetry_space_group_name_H-M   'P 1'
_cell_length_a   10.29381227
_cell_length_b   10.29381227
_cell_length_c   5.73609500
_cell_angle_alpha   90.00000000
_cell_angle_beta   90.00000000
_cell_angle_gamma   120.00000170
_symmetry_Int_Tables_number   1
_chemical_formula_structural   Pr6Mn(SiS7)2
_chemical_formula_sum   'Pr6 Mn1 Si2 S14'
_cell_volume   526.38008105
_cell_formula_units_Z   1
loop_
 _symmetry_equiv_pos_site_id
 _symmetry_equiv_pos_as_xyz
  1  'x, y, z'
loop_
 _atom_site_type_symbol
 _atom_site_label
 _atom_site_symmetry_multiplicity
 _atom_site_fract_x
 _atom_site_fract_y
 _atom_site_fract_z
 _atom_site_occupancy
  Pr  Pr0  1  0.64296100  0.87740400  0.24969400  1
  Pr  Pr1  1  0.12259600  0.76555800  0.24969400  1
  Pr  Pr2  1  0.23444200  0.35703900  0.24969400  1
  Pr  Pr3  1  0.35641700  0.12250500  0.75244600  1
  Pr  Pr4  1  0.87749500  0.23391200  0.75244600  1
  Pr  Pr5  1  0.76608800  0.64358300  0.75244600  1
  Mn  Mn6  1  0.00000000  0.00000000  0.48877400  1
  Si  Si7  1  0.33333300  0.66666700  0.83426500  1
  Si  Si8  1  0.66666700  0.33333300  0.33703200  1
  S  S9  1  0.33333300  0.66666700  0.46786000  1
  S  S10  1  0.66666700  0.33333300  0.97010100  1
  S  S11  1  0.75585300  0.91621700  0.72854100  1
  S  S12  1  0.08378300  0.83963600  0.72854100  1
  S  S13  1  0.16036400  0.24414700  0.72854100  1
  S  S14  1  0.24382800  0.08167400  0.25010200  1
  S  S15  1  0.91832600  0.16215500  0.25010200  1
  S  S16  1  0.83784500  0.75617200  0.25010200  1
  S  S17  1  0.47739000  0.59161500  0.97817000  1
  S  S18  1  0.40838500  0.88577500  0.97817000  1
  S  S19  1  0.11422500  0.52261000  0.97817000  1
  S  S20  1  0.52323400  0.40905400  0.48029100  1
  S  S21  1  0.59094600  0.11418000  0.48029100  1
  S  S22  1  0.88582000  0.47676600  0.48029100  1
