# generated using pymatgen
data_Sr3(AlGe)2
_symmetry_space_group_name_H-M   'P 1'
_cell_length_a   10.21834338
_cell_length_b   10.21834338
_cell_length_c   10.21834338
_cell_angle_alpha   155.98354827
_cell_angle_beta   152.44691308
_cell_angle_gamma   36.86882294
_symmetry_Int_Tables_number   1
_chemical_formula_structural   Sr3(AlGe)2
_chemical_formula_sum   'Sr3 Al2 Ge2'
_cell_volume   200.59542687
_cell_formula_units_Z   1
loop_
 _symmetry_equiv_pos_site_id
 _symmetry_equiv_pos_as_xyz
  1  'x, y, z'
loop_
 _atom_site_type_symbol
 _atom_site_label
 _atom_site_symmetry_multiplicity
 _atom_site_fract_x
 _atom_site_fract_y
 _atom_site_fract_z
 _atom_site_occupancy
  Sr  Sr0  1  0.81548600  0.31548600  0.50000000  1
  Sr  Sr1  1  0.00000000  0.00000000  0.00000000  1
  Sr  Sr2  1  0.18451400  0.68451400  0.50000000  1
  Al  Al3  1  0.43356500  0.43356500  0.00000000  1
  Al  Al4  1  0.56643500  0.56643500  0.00000000  1
  Ge  Ge5  1  0.35881100  0.85881100  0.50000000  1
  Ge  Ge6  1  0.64118900  0.14118900  0.50000000  1
