# generated using pymatgen
data_LiCd
_symmetry_space_group_name_H-M   'P 1'
_cell_length_a   4.77069389
_cell_length_b   4.77069389
_cell_length_c   4.77069389
_cell_angle_alpha   60.00000000
_cell_angle_beta   60.00000000
_cell_angle_gamma   60.00000000
_symmetry_Int_Tables_number   1
_chemical_formula_structural   LiCd
_chemical_formula_sum   'Li2 Cd2'
_cell_volume   76.77673779
_cell_formula_units_Z   2
loop_
 _symmetry_equiv_pos_site_id
 _symmetry_equiv_pos_as_xyz
  1  'x, y, z'
loop_
 _atom_site_type_symbol
 _atom_site_label
 _atom_site_symmetry_multiplicity
 _atom_site_fract_x
 _atom_site_fract_y
 _atom_site_fract_z
 _atom_site_occupancy
  Li  Li0  1  0.25000000  0.25000000  0.25000000  1
  Li  Li1  1  0.00000000  0.00000000  0.00000000  1
  Cd  Cd2  1  0.75000000  0.75000000  0.75000000  1
  Cd  Cd3  1  0.50000000  0.50000000  0.50000000  1
