# generated using pymatgen
data_CaAl6H12(SO7)4
_symmetry_space_group_name_H-M   'P 1'
_cell_length_a   12.02255415
_cell_length_b   12.02255415
_cell_length_c   12.02255428
_cell_angle_alpha   34.13638659
_cell_angle_beta   34.13638659
_cell_angle_gamma   34.13638531
_symmetry_Int_Tables_number   1
_chemical_formula_structural   CaAl6H12(SO7)4
_chemical_formula_sum   'Ca1 Al6 H12 S4 O28'
_cell_volume   487.89992382
_cell_formula_units_Z   1
loop_
 _symmetry_equiv_pos_site_id
 _symmetry_equiv_pos_as_xyz
  1  'x, y, z'
loop_
 _atom_site_type_symbol
 _atom_site_label
 _atom_site_symmetry_multiplicity
 _atom_site_fract_x
 _atom_site_fract_y
 _atom_site_fract_z
 _atom_site_occupancy
  Ca  Ca0  1  0.50000000  0.50000000  0.50000000  1
  Al  Al1  1  0.24925700  0.75363400  0.24925700  1
  Al  Al2  1  0.24925700  0.24925700  0.75363400  1
  Al  Al3  1  0.75363400  0.24925700  0.24925700  1
  Al  Al4  1  0.75074300  0.24636600  0.75074300  1
  Al  Al5  1  0.75074300  0.75074300  0.24636600  1
  Al  Al6  1  0.24636600  0.75074300  0.75074300  1
  H  H7  1  0.86596700  0.42427000  0.86596700  1
  H  H8  1  0.86596700  0.86596700  0.42427000  1
  H  H9  1  0.42427000  0.86596700  0.86596700  1
  H  H10  1  0.13403300  0.57573000  0.13403300  1
  H  H11  1  0.13403300  0.13403300  0.57573000  1
  H  H12  1  0.57573000  0.13403300  0.13403300  1
  H  H13  1  0.35803700  0.95275400  0.35803700  1
  H  H14  1  0.35803700  0.35803700  0.95275400  1
  H  H15  1  0.95275400  0.35803700  0.35803700  1
  H  H16  1  0.64196300  0.04724600  0.64196300  1
  H  H17  1  0.64196300  0.64196300  0.04724600  1
  H  H18  1  0.04724600  0.64196300  0.64196300  1
  S  S19  1  0.15514500  0.15514500  0.15514500  1
  S  S20  1  0.84485500  0.84485500  0.84485500  1
  S  S21  1  0.65032000  0.65032000  0.65032000  1
  S  S22  1  0.34968000  0.34968000  0.34968000  1
  O  O23  1  0.19835600  0.19835600  0.19835600  1
  O  O24  1  0.80164400  0.80164400  0.80164400  1
  O  O25  1  0.69342100  0.69342100  0.69342100  1
  O  O26  1  0.30657900  0.30657900  0.30657900  1
  O  O27  1  0.75064500  0.40507200  0.75064500  1
  O  O28  1  0.75064500  0.75064500  0.40507200  1
  O  O29  1  0.40507200  0.75064500  0.75064500  1
  O  O30  1  0.24935500  0.59492800  0.24935500  1
  O  O31  1  0.24935500  0.24935500  0.59492800  1
  O  O32  1  0.59492800  0.24935500  0.24935500  1
  O  O33  1  0.25532300  0.90998500  0.25532300  1
  O  O34  1  0.25532300  0.25532300  0.90998500  1
  O  O35  1  0.90998500  0.25532300  0.25532300  1
  O  O36  1  0.74467700  0.09001500  0.74467700  1
  O  O37  1  0.74467700  0.74467700  0.09001500  1
  O  O38  1  0.09001500  0.74467700  0.74467700  1
  O  O39  1  0.94314400  0.33197100  0.94314400  1
  O  O40  1  0.94314400  0.94314400  0.33197100  1
  O  O41  1  0.33197100  0.94314400  0.94314400  1
  O  O42  1  0.05685600  0.66802900  0.05685600  1
  O  O43  1  0.05685600  0.05685600  0.66802900  1
  O  O44  1  0.66802900  0.05685600  0.05685600  1
  O  O45  1  0.44343400  0.80700100  0.44343400  1
  O  O46  1  0.44343400  0.44343400  0.80700100  1
  O  O47  1  0.80700100  0.44343400  0.44343400  1
  O  O48  1  0.55656600  0.19299900  0.55656600  1
  O  O49  1  0.55656600  0.55656600  0.19299900  1
  O  O50  1  0.19299900  0.55656600  0.55656600  1
