# generated using pymatgen
data_YAlPt
_symmetry_space_group_name_H-M   'P 1'
_cell_length_a   4.45449200
_cell_length_b   6.94401000
_cell_length_c   7.73087400
_cell_angle_alpha   90.00000000
_cell_angle_beta   90.00000000
_cell_angle_gamma   90.00000000
_symmetry_Int_Tables_number   1
_chemical_formula_structural   YAlPt
_chemical_formula_sum   'Y4 Al4 Pt4'
_cell_volume   239.13168056
_cell_formula_units_Z   4
loop_
 _symmetry_equiv_pos_site_id
 _symmetry_equiv_pos_as_xyz
  1  'x, y, z'
loop_
 _atom_site_type_symbol
 _atom_site_label
 _atom_site_symmetry_multiplicity
 _atom_site_fract_x
 _atom_site_fract_y
 _atom_site_fract_z
 _atom_site_occupancy
  Y  Y0  1  0.25000000  0.02846800  0.68242100  1
  Y  Y1  1  0.25000000  0.52846800  0.81757900  1
  Y  Y2  1  0.75000000  0.97153200  0.31757900  1
  Y  Y3  1  0.75000000  0.47153200  0.18242100  1
  Al  Al4  1  0.25000000  0.14905300  0.06539200  1
  Al  Al5  1  0.25000000  0.64905300  0.43460800  1
  Al  Al6  1  0.75000000  0.85094700  0.93460800  1
  Al  Al7  1  0.75000000  0.35094700  0.56539200  1
  Pt  Pt8  1  0.25000000  0.27757600  0.38557700  1
  Pt  Pt9  1  0.25000000  0.77757600  0.11442300  1
  Pt  Pt10  1  0.75000000  0.72242400  0.61442300  1
  Pt  Pt11  1  0.75000000  0.22242400  0.88557700  1
