# generated using pymatgen
data_Hf14Cu51
_symmetry_space_group_name_H-M   'P 1'
_cell_length_a   11.11805829
_cell_length_b   11.11805829
_cell_length_c   8.27958300
_cell_angle_alpha   90.00000000
_cell_angle_beta   90.00000000
_cell_angle_gamma   120.00000171
_symmetry_Int_Tables_number   1
_chemical_formula_structural   Hf14Cu51
_chemical_formula_sum   'Hf14 Cu51'
_cell_volume   886.33312680
_cell_formula_units_Z   1
loop_
 _symmetry_equiv_pos_site_id
 _symmetry_equiv_pos_as_xyz
  1  'x, y, z'
loop_
 _atom_site_type_symbol
 _atom_site_label
 _atom_site_symmetry_multiplicity
 _atom_site_fract_x
 _atom_site_fract_y
 _atom_site_fract_z
 _atom_site_occupancy
  Hf  Hf0  1  0.00000000  0.00000000  0.31304400  1
  Hf  Hf1  1  0.00000000  0.00000000  0.68695600  1
  Hf  Hf2  1  0.38510600  0.27091300  0.00000000  1
  Hf  Hf3  1  0.72908700  0.11419300  0.00000000  1
  Hf  Hf4  1  0.88580700  0.61489400  0.00000000  1
  Hf  Hf5  1  0.60757300  0.72314600  0.00000000  1
  Hf  Hf6  1  0.27685400  0.88442600  0.00000000  1
  Hf  Hf7  1  0.11557400  0.39242700  0.00000000  1
  Hf  Hf8  1  0.14200800  0.67214300  0.50000000  1
  Hf  Hf9  1  0.32785700  0.46986500  0.50000000  1
  Hf  Hf10  1  0.53013500  0.85799200  0.50000000  1
  Hf  Hf11  1  0.85617900  0.32905400  0.50000000  1
  Hf  Hf12  1  0.67094600  0.52712500  0.50000000  1
  Hf  Hf13  1  0.47287500  0.14382100  0.50000000  1
  Cu  Cu14  1  0.23889400  0.18107500  0.50000000  1
  Cu  Cu15  1  0.81892500  0.05781900  0.50000000  1
  Cu  Cu16  1  0.94218100  0.76110600  0.50000000  1
  Cu  Cu17  1  0.75997100  0.81957200  0.50000000  1
  Cu  Cu18  1  0.18042800  0.94039900  0.50000000  1
  Cu  Cu19  1  0.05960100  0.24002900  0.50000000  1
  Cu  Cu20  1  0.27107600  0.07614900  0.24625200  1
  Cu  Cu21  1  0.92385100  0.19492700  0.24625200  1
  Cu  Cu22  1  0.80507300  0.72892400  0.24625200  1
  Cu  Cu23  1  0.73914300  0.92719100  0.23157600  1
  Cu  Cu24  1  0.07280900  0.81195200  0.23157600  1
  Cu  Cu25  1  0.18804800  0.26085700  0.23157600  1
  Cu  Cu26  1  0.73914300  0.92719100  0.76842400  1
  Cu  Cu27  1  0.07280900  0.81195200  0.76842400  1
  Cu  Cu28  1  0.18804800  0.26085700  0.76842400  1
  Cu  Cu29  1  0.27107600  0.07614900  0.75374800  1
  Cu  Cu30  1  0.92385100  0.19492700  0.75374800  1
  Cu  Cu31  1  0.80507300  0.72892400  0.75374800  1
  Cu  Cu32  1  0.33333300  0.66666700  0.00000000  1
  Cu  Cu33  1  0.66666700  0.33333300  0.00000000  1
  Cu  Cu34  1  0.43709300  0.33348400  0.32960900  1
  Cu  Cu35  1  0.66651600  0.10360900  0.32960900  1
  Cu  Cu36  1  0.89639100  0.56290700  0.32960900  1
  Cu  Cu37  1  0.56082400  0.66519200  0.33006400  1
  Cu  Cu38  1  0.33480800  0.89563200  0.33006400  1
  Cu  Cu39  1  0.10436800  0.43917600  0.33006400  1
  Cu  Cu40  1  0.56082400  0.66519200  0.66993600  1
  Cu  Cu41  1  0.33480800  0.89563200  0.66993600  1
  Cu  Cu42  1  0.10436800  0.43917600  0.66993600  1
  Cu  Cu43  1  0.43709300  0.33348400  0.67039100  1
  Cu  Cu44  1  0.66651600  0.10360900  0.67039100  1
  Cu  Cu45  1  0.89639100  0.56290700  0.67039100  1
  Cu  Cu46  1  0.33333300  0.66666700  0.29477200  1
  Cu  Cu47  1  0.66666700  0.33333300  0.29462300  1
  Cu  Cu48  1  0.66666700  0.33333300  0.70537700  1
  Cu  Cu49  1  0.33333300  0.66666700  0.70522800  1
  Cu  Cu50  1  0.11500000  0.62182200  0.15205800  1
  Cu  Cu51  1  0.37817800  0.49317800  0.15205800  1
  Cu  Cu52  1  0.50682200  0.88500000  0.15205800  1
  Cu  Cu53  1  0.88423300  0.38069800  0.15205900  1
  Cu  Cu54  1  0.61930200  0.50353500  0.15205900  1
  Cu  Cu55  1  0.49646500  0.11576700  0.15205900  1
  Cu  Cu56  1  0.88423300  0.38069800  0.84794100  1
  Cu  Cu57  1  0.61930200  0.50353500  0.84794100  1
  Cu  Cu58  1  0.49646500  0.11576700  0.84794100  1
  Cu  Cu59  1  0.11500000  0.62182200  0.84794200  1
  Cu  Cu60  1  0.37817800  0.49317800  0.84794200  1
  Cu  Cu61  1  0.50682200  0.88500000  0.84794200  1
  Cu  Cu62  1  0.13338600  0.01862300  0.00000000  1
  Cu  Cu63  1  0.98137700  0.11476300  0.00000000  1
  Cu  Cu64  1  0.88523700  0.86661400  0.00000000  1
