# generated using pymatgen
data_TbB4W
_symmetry_space_group_name_H-M   'P 1'
_cell_length_a   6.05096000
_cell_length_b   11.69417600
_cell_length_c   3.63528600
_cell_angle_alpha   90.00000000
_cell_angle_beta   90.00000000
_cell_angle_gamma   90.00000000
_symmetry_Int_Tables_number   1
_chemical_formula_structural   TbB4W
_chemical_formula_sum   'Tb4 B16 W4'
_cell_volume   257.23644069
_cell_formula_units_Z   4
loop_
 _symmetry_equiv_pos_site_id
 _symmetry_equiv_pos_as_xyz
  1  'x, y, z'
loop_
 _atom_site_type_symbol
 _atom_site_label
 _atom_site_symmetry_multiplicity
 _atom_site_fract_x
 _atom_site_fract_y
 _atom_site_fract_z
 _atom_site_occupancy
  Tb  Tb0  1  0.62670600  0.35016500  0.00000000  1
  Tb  Tb1  1  0.37329400  0.64983500  0.00000000  1
  Tb  Tb2  1  0.12670600  0.14983500  0.00000000  1
  Tb  Tb3  1  0.87329400  0.85016500  0.00000000  1
  B  B4  1  0.78613200  0.18634500  0.50000000  1
  B  B5  1  0.21386800  0.81365500  0.50000000  1
  B  B6  1  0.28613200  0.31365500  0.50000000  1
  B  B7  1  0.71386800  0.68634500  0.50000000  1
  B  B8  1  0.86615700  0.03218900  0.50000000  1
  B  B9  1  0.13384300  0.96781100  0.50000000  1
  B  B10  1  0.36615700  0.46781100  0.50000000  1
  B  B11  1  0.63384300  0.53218900  0.50000000  1
  B  B12  1  0.88620300  0.45290900  0.50000000  1
  B  B13  1  0.11379700  0.54709100  0.50000000  1
  B  B14  1  0.38620300  0.04709100  0.50000000  1
  B  B15  1  0.61379700  0.95290900  0.50000000  1
  B  B16  1  0.97581800  0.30710400  0.50000000  1
  B  B17  1  0.02418200  0.69289600  0.50000000  1
  B  B18  1  0.47581800  0.19289600  0.50000000  1
  B  B19  1  0.52418200  0.80710400  0.50000000  1
  W  W20  1  0.63045200  0.08420600  0.00000000  1
  W  W21  1  0.36954800  0.91579400  0.00000000  1
  W  W22  1  0.13045200  0.41579400  0.00000000  1
  W  W23  1  0.86954800  0.58420600  0.00000000  1
