# generated using pymatgen
data_V4P3
_symmetry_space_group_name_H-M   'P 1'
_cell_length_a   6.83694707
_cell_length_b   6.83694707
_cell_length_c   17.23238700
_cell_angle_alpha   90.00000000
_cell_angle_beta   90.00000000
_cell_angle_gamma   152.65235299
_symmetry_Int_Tables_number   1
_chemical_formula_structural   V4P3
_chemical_formula_sum   'V16 P12'
_cell_volume   370.04101965
_cell_formula_units_Z   4
loop_
 _symmetry_equiv_pos_site_id
 _symmetry_equiv_pos_as_xyz
  1  'x, y, z'
loop_
 _atom_site_type_symbol
 _atom_site_label
 _atom_site_symmetry_multiplicity
 _atom_site_fract_x
 _atom_site_fract_y
 _atom_site_fract_z
 _atom_site_occupancy
  V  V0  1  0.73798100  0.26201900  0.66231900  1
  V  V1  1  0.26201900  0.73798100  0.33768100  1
  V  V2  1  0.73798100  0.26201900  0.83768100  1
  V  V3  1  0.26201900  0.73798100  0.16231900  1
  V  V4  1  0.53443700  0.46556300  0.61917900  1
  V  V5  1  0.46556300  0.53443700  0.38082100  1
  V  V6  1  0.53443700  0.46556300  0.88082100  1
  V  V7  1  0.46556300  0.53443700  0.11917900  1
  V  V8  1  0.66714000  0.33286000  0.47160800  1
  V  V9  1  0.33286000  0.66714000  0.52839200  1
  V  V10  1  0.66714000  0.33286000  0.02839200  1
  V  V11  1  0.33286000  0.66714000  0.97160800  1
  V  V12  1  0.00000000  0.00000000  0.50000000  1
  V  V13  1  0.00000000  0.00000000  0.00000000  1
  V  V14  1  0.05587000  0.94413000  0.25000000  1
  V  V15  1  0.94413000  0.05587000  0.75000000  1
  P  P16  1  0.90308200  0.09691800  0.61755900  1
  P  P17  1  0.09691800  0.90308200  0.38244100  1
  P  P18  1  0.90308200  0.09691800  0.88244100  1
  P  P19  1  0.09691800  0.90308200  0.11755900  1
  P  P20  1  0.84166400  0.15833600  0.42317500  1
  P  P21  1  0.15833600  0.84166400  0.57682500  1
  P  P22  1  0.84166400  0.15833600  0.07682500  1
  P  P23  1  0.15833600  0.84166400  0.92317500  1
  P  P24  1  0.69267500  0.30732500  0.25000000  1
  P  P25  1  0.30732500  0.69267500  0.75000000  1
  P  P26  1  0.41458000  0.58542000  0.25000000  1
  P  P27  1  0.58542000  0.41458000  0.75000000  1
