# generated using pymatgen
data_KHf6CCl15
_symmetry_space_group_name_H-M   'P 1'
_cell_length_a   9.73991100
_cell_length_b   13.94139000
_cell_length_c   18.57733800
_cell_angle_alpha   90.00000000
_cell_angle_beta   90.00000000
_cell_angle_gamma   90.00000000
_symmetry_Int_Tables_number   1
_chemical_formula_structural   KHf6CCl15
_chemical_formula_sum   'K4 Hf24 C4 Cl60'
_cell_volume   2522.57767404
_cell_formula_units_Z   4
loop_
 _symmetry_equiv_pos_site_id
 _symmetry_equiv_pos_as_xyz
  1  'x, y, z'
loop_
 _atom_site_type_symbol
 _atom_site_label
 _atom_site_symmetry_multiplicity
 _atom_site_fract_x
 _atom_site_fract_y
 _atom_site_fract_z
 _atom_site_occupancy
  K  K0  1  0.83068800  0.24742000  0.75000000  1
  K  K1  1  0.16931200  0.75258000  0.25000000  1
  K  K2  1  0.83068800  0.75258000  0.75000000  1
  K  K3  1  0.16931200  0.24742000  0.25000000  1
  Hf  Hf4  1  0.11542100  0.50000000  0.75000000  1
  Hf  Hf5  1  0.88457900  0.50000000  0.25000000  1
  Hf  Hf6  1  0.08044200  0.00000000  0.11249800  1
  Hf  Hf7  1  0.91955800  0.00000000  0.88750200  1
  Hf  Hf8  1  0.08044200  0.00000000  0.38750200  1
  Hf  Hf9  1  0.91955800  0.00000000  0.61249800  1
  Hf  Hf10  1  0.34227700  0.38496800  0.66344200  1
  Hf  Hf11  1  0.65772300  0.61503200  0.33655800  1
  Hf  Hf12  1  0.34227700  0.61503200  0.83655800  1
  Hf  Hf13  1  0.65772300  0.38496800  0.33655800  1
  Hf  Hf14  1  0.65772300  0.38496800  0.16344200  1
  Hf  Hf15  1  0.34227700  0.61503200  0.66344200  1
  Hf  Hf16  1  0.65772300  0.61503200  0.16344200  1
  Hf  Hf17  1  0.34227700  0.38496800  0.83655800  1
  Hf  Hf18  1  0.57143500  0.50000000  0.75000000  1
  Hf  Hf19  1  0.42856500  0.50000000  0.25000000  1
  Hf  Hf20  1  0.15534200  0.11472200  0.52945900  1
  Hf  Hf21  1  0.84465800  0.88527800  0.47054100  1
  Hf  Hf22  1  0.15534200  0.88527800  0.97054100  1
  Hf  Hf23  1  0.84465800  0.11472200  0.47054100  1
  Hf  Hf24  1  0.84465800  0.11472200  0.02945900  1
  Hf  Hf25  1  0.15534200  0.88527800  0.52945900  1
  Hf  Hf26  1  0.84465800  0.88527800  0.02945900  1
  Hf  Hf27  1  0.15534200  0.11472200  0.97054100  1
  C  C28  1  0.00000000  0.00000000  0.50000000  1
  C  C29  1  0.00000000  0.00000000  0.00000000  1
  C  C30  1  0.34384000  0.50000000  0.75000000  1
  C  C31  1  0.65616000  0.50000000  0.25000000  1
  Cl  Cl32  1  0.81663900  0.00000000  0.75000000  1
  Cl  Cl33  1  0.18336100  0.00000000  0.25000000  1
  Cl  Cl34  1  0.84254500  0.50000000  0.75000000  1
  Cl  Cl35  1  0.15745500  0.50000000  0.25000000  1
  Cl  Cl36  1  0.34199600  0.50000000  0.55945800  1
  Cl  Cl37  1  0.65800400  0.50000000  0.44054200  1
  Cl  Cl38  1  0.34199600  0.50000000  0.94054200  1
  Cl  Cl39  1  0.65800400  0.50000000  0.05945800  1
  Cl  Cl40  1  0.00000000  0.25273800  0.50000000  1
  Cl  Cl41  1  0.00000000  0.74726200  0.50000000  1
  Cl  Cl42  1  0.00000000  0.74726200  0.00000000  1
  Cl  Cl43  1  0.00000000  0.25273800  0.00000000  1
  Cl  Cl44  1  0.35001500  0.24656100  0.75000000  1
  Cl  Cl45  1  0.64998500  0.75343900  0.25000000  1
  Cl  Cl46  1  0.35001500  0.75343900  0.75000000  1
  Cl  Cl47  1  0.64998500  0.24656100  0.25000000  1
  Cl  Cl48  1  0.33869300  0.24935000  0.56298000  1
  Cl  Cl49  1  0.66130700  0.75065000  0.43702000  1
  Cl  Cl50  1  0.33869300  0.75065000  0.93702000  1
  Cl  Cl51  1  0.66130700  0.24935000  0.43702000  1
  Cl  Cl52  1  0.66130700  0.24935000  0.06298000  1
  Cl  Cl53  1  0.33869300  0.75065000  0.56298000  1
  Cl  Cl54  1  0.66130700  0.75065000  0.06298000  1
  Cl  Cl55  1  0.33869300  0.24935000  0.93702000  1
  Cl  Cl56  1  0.08142400  0.12476000  0.65878200  1
  Cl  Cl57  1  0.91857600  0.87524000  0.34121800  1
  Cl  Cl58  1  0.08142400  0.87524000  0.84121800  1
  Cl  Cl59  1  0.91857600  0.12476000  0.34121800  1
  Cl  Cl60  1  0.91857600  0.12476000  0.15878200  1
  Cl  Cl61  1  0.08142400  0.87524000  0.65878200  1
  Cl  Cl62  1  0.91857600  0.87524000  0.15878200  1
  Cl  Cl63  1  0.08142400  0.12476000  0.84121800  1
  Cl  Cl64  1  0.08453200  0.37471300  0.65507600  1
  Cl  Cl65  1  0.91546800  0.62528700  0.34492400  1
  Cl  Cl66  1  0.08453200  0.62528700  0.84492400  1
  Cl  Cl67  1  0.91546800  0.37471300  0.34492400  1
  Cl  Cl68  1  0.91546800  0.37471300  0.15507600  1
  Cl  Cl69  1  0.08453200  0.62528700  0.65507600  1
  Cl  Cl70  1  0.91546800  0.62528700  0.15507600  1
  Cl  Cl71  1  0.08453200  0.37471300  0.84492400  1
  Cl  Cl72  1  0.34160300  0.00000000  0.56567900  1
  Cl  Cl73  1  0.65839700  0.00000000  0.43432100  1
  Cl  Cl74  1  0.34160300  0.00000000  0.93432100  1
  Cl  Cl75  1  0.65839700  0.00000000  0.06567900  1
  Cl  Cl76  1  0.60102900  0.37379700  0.65365800  1
  Cl  Cl77  1  0.39897100  0.62620300  0.34634200  1
  Cl  Cl78  1  0.60102900  0.62620300  0.84634200  1
  Cl  Cl79  1  0.39897100  0.37379700  0.34634200  1
  Cl  Cl80  1  0.39897100  0.37379700  0.15365800  1
  Cl  Cl81  1  0.60102900  0.62620300  0.65365800  1
  Cl  Cl82  1  0.39897100  0.62620300  0.15365800  1
  Cl  Cl83  1  0.60102900  0.37379700  0.84634200  1
  Cl  Cl84  1  0.26124300  0.12708200  0.09484000  1
  Cl  Cl85  1  0.73875700  0.87291800  0.90516000  1
  Cl  Cl86  1  0.26124300  0.87291800  0.40516000  1
  Cl  Cl87  1  0.73875700  0.12708200  0.90516000  1
  Cl  Cl88  1  0.73875700  0.12708200  0.59484000  1
  Cl  Cl89  1  0.26124300  0.87291800  0.09484000  1
  Cl  Cl90  1  0.73875700  0.87291800  0.59484000  1
  Cl  Cl91  1  0.26124300  0.12708200  0.40516000  1
