# generated using pymatgen
data_BePd3
_symmetry_space_group_name_H-M   'P 1'
_cell_length_a   5.07933909
_cell_length_b   5.07933909
_cell_length_c   7.69467900
_cell_angle_alpha   90.00000000
_cell_angle_beta   90.00000000
_cell_angle_gamma   147.14068522
_symmetry_Int_Tables_number   1
_chemical_formula_structural   BePd3
_chemical_formula_sum   'Be2 Pd6'
_cell_volume   107.71276806
_cell_formula_units_Z   2
loop_
 _symmetry_equiv_pos_site_id
 _symmetry_equiv_pos_as_xyz
  1  'x, y, z'
loop_
 _atom_site_type_symbol
 _atom_site_label
 _atom_site_symmetry_multiplicity
 _atom_site_fract_x
 _atom_site_fract_y
 _atom_site_fract_z
 _atom_site_occupancy
  Be  Be0  1  0.25294700  0.74705300  0.75000000  1
  Be  Be1  1  0.74705300  0.25294700  0.25000000  1
  Pd  Pd2  1  0.56726800  0.43273200  0.75000000  1
  Pd  Pd3  1  0.43273200  0.56726800  0.25000000  1
  Pd  Pd4  1  0.86362200  0.13637800  0.93889200  1
  Pd  Pd5  1  0.13637800  0.86362200  0.06110800  1
  Pd  Pd6  1  0.13637800  0.86362200  0.43889200  1
  Pd  Pd7  1  0.86362200  0.13637800  0.56110800  1
