# generated using pymatgen
data_Re2Os(Se2Cl)2
_symmetry_space_group_name_H-M   'P 1'
_cell_length_a   9.07579700
_cell_length_b   9.08727432
_cell_length_c   12.17743475
_cell_angle_alpha   94.79377513
_cell_angle_beta   88.14298527
_cell_angle_gamma   116.62222357
_symmetry_Int_Tables_number   1
_chemical_formula_structural   Re2Os(Se2Cl)2
_chemical_formula_sum   'Re8 Os4 Se16 Cl8'
_cell_volume   894.69180503
_cell_formula_units_Z   4
loop_
 _symmetry_equiv_pos_site_id
 _symmetry_equiv_pos_as_xyz
  1  'x, y, z'
loop_
 _atom_site_type_symbol
 _atom_site_label
 _atom_site_symmetry_multiplicity
 _atom_site_fract_x
 _atom_site_fract_y
 _atom_site_fract_z
 _atom_site_occupancy
  Re  Re0  1  0.34881300  0.36768700  0.39104500  1
  Re  Re1  1  0.65118700  0.63231300  0.60895500  1
  Re  Re2  1  0.41771500  0.32670300  0.59086800  1
  Re  Re3  1  0.58228500  0.67329700  0.40913200  1
  Re  Re4  1  0.12333800  0.03886000  0.86992900  1
  Re  Re5  1  0.87666200  0.96114000  0.13007100  1
  Re  Re6  1  0.17286600  0.98918700  0.07206500  1
  Re  Re7  1  0.82713400  0.01081300  0.92793500  1
  Os  Os8  1  0.65535000  0.42853700  0.44086300  1
  Os  Os9  1  0.34465000  0.57146300  0.55913700  1
  Os  Os10  1  0.09350600  0.23093500  0.03742700  1
  Os  Os11  1  0.90649400  0.76906500  0.96257300  1
  Se  Se12  1  0.36828600  0.24538400  0.97926600  1
  Se  Se13  1  0.63171400  0.75461600  0.02073400  1
  Se  Se14  1  0.57833700  0.46967300  0.25212700  1
  Se  Se15  1  0.42166300  0.53032700  0.74787300  1
  Se  Se16  1  0.04074600  0.26551800  0.84267600  1
  Se  Se17  1  0.95925400  0.73448200  0.15732400  1
  Se  Se18  1  0.80950100  0.19389000  0.09036900  1
  Se  Se19  1  0.19049900  0.80611000  0.90963100  1
  Se  Se20  1  0.87083600  0.72496600  0.46169000  1
  Se  Se21  1  0.12916400  0.27503400  0.53831000  1
  Se  Se22  1  0.71313300  0.39128000  0.63434400  1
  Se  Se23  1  0.28686700  0.60872000  0.36565600  1
  Se  Se24  1  0.14017900  0.17634500  0.23044500  1
  Se  Se25  1  0.85982100  0.82365500  0.76955500  1
  Se  Se26  1  0.42559200  0.13887300  0.42714100  1
  Se  Se27  1  0.57440800  0.86112700  0.57285900  1
  Cl  Cl28  1  0.39101500  0.97130900  0.16221000  1
  Cl  Cl29  1  0.60898500  0.02869100  0.83779000  1
  Cl  Cl30  1  0.30035800  0.08113400  0.70187500  1
  Cl  Cl31  1  0.69964200  0.91886600  0.29812500  1
  Cl  Cl32  1  0.20836700  0.51959700  0.08362700  1
  Cl  Cl33  1  0.79163300  0.48040300  0.91637300  1
  Cl  Cl34  1  0.85430700  0.34629400  0.36814500  1
  Cl  Cl35  1  0.14569300  0.65370600  0.63185500  1
