# generated using pymatgen
data_Ca3HfSi2O9
_symmetry_space_group_name_H-M   'P 1'
_cell_length_a   10.25947500
_cell_length_b   7.42314400
_cell_length_c   10.50999253
_cell_angle_alpha   88.67068859
_cell_angle_beta   90.00000000
_cell_angle_gamma   90.00000000
_symmetry_Int_Tables_number   1
_chemical_formula_structural   Ca3HfSi2O9
_chemical_formula_sum   'Ca12 Hf4 Si8 O36'
_cell_volume   800.19997580
_cell_formula_units_Z   4
loop_
 _symmetry_equiv_pos_site_id
 _symmetry_equiv_pos_as_xyz
  1  'x, y, z'
loop_
 _atom_site_type_symbol
 _atom_site_label
 _atom_site_symmetry_multiplicity
 _atom_site_fract_x
 _atom_site_fract_y
 _atom_site_fract_z
 _atom_site_occupancy
  Ca  Ca0  1  0.92210200  0.36398800  0.11158800  1
  Ca  Ca1  1  0.42210200  0.63601200  0.38841200  1
  Ca  Ca2  1  0.07789800  0.63601200  0.88841200  1
  Ca  Ca3  1  0.57789800  0.36398800  0.61158800  1
  Ca  Ca4  1  0.32875300  0.88120500  0.08722600  1
  Ca  Ca5  1  0.82875300  0.11879500  0.41277400  1
  Ca  Ca6  1  0.67124700  0.11879500  0.91277400  1
  Ca  Ca7  1  0.17124700  0.88120500  0.58722600  1
  Ca  Ca8  1  0.30379800  0.37220600  0.09856000  1
  Ca  Ca9  1  0.80379800  0.62779400  0.40144000  1
  Ca  Ca10  1  0.69620200  0.62779400  0.90144000  1
  Ca  Ca11  1  0.19620200  0.37220600  0.59856000  1
  Hf  Hf12  1  0.56078300  0.87838800  0.61585000  1
  Hf  Hf13  1  0.06078300  0.12161200  0.88415000  1
  Hf  Hf14  1  0.43921700  0.12161200  0.38415000  1
  Hf  Hf15  1  0.93921700  0.87838800  0.11585000  1
  Si  Si16  1  0.13708600  0.59858700  0.30807100  1
  Si  Si17  1  0.63708600  0.40141300  0.19192900  1
  Si  Si18  1  0.86291400  0.40141300  0.69192900  1
  Si  Si19  1  0.36291400  0.59858700  0.80807100  1
  Si  Si20  1  0.12416700  0.16731900  0.31819200  1
  Si  Si21  1  0.62416700  0.83268100  0.18180800  1
  Si  Si22  1  0.87583300  0.83268100  0.68180800  1
  Si  Si23  1  0.37583300  0.16731900  0.81819200  1
  O  O24  1  0.39198900  0.33904100  0.48314100  1
  O  O25  1  0.89198900  0.66095900  0.01685900  1
  O  O26  1  0.60801100  0.66095900  0.51685900  1
  O  O27  1  0.10801100  0.33904100  0.98314100  1
  O  O28  1  0.11104300  0.90769900  0.01074600  1
  O  O29  1  0.61104300  0.09230100  0.48925400  1
  O  O30  1  0.88895700  0.09230100  0.98925400  1
  O  O31  1  0.38895700  0.90769900  0.51074600  1
  O  O32  1  0.16903000  0.62045900  0.45798300  1
  O  O33  1  0.66903000  0.37954100  0.04201700  1
  O  O34  1  0.83097000  0.37954100  0.54201700  1
  O  O35  1  0.33097000  0.62045900  0.95798300  1
  O  O36  1  0.00308900  0.69745900  0.26101000  1
  O  O37  1  0.50308900  0.30254100  0.23899000  1
  O  O38  1  0.88550900  0.85677000  0.52912300  1
  O  O39  1  0.99691100  0.30254100  0.73899000  1
  O  O40  1  0.23205400  0.64288600  0.72409500  1
  O  O41  1  0.73205400  0.35711400  0.77590500  1
  O  O42  1  0.76794600  0.35711400  0.27590500  1
  O  O43  1  0.26794600  0.64288600  0.22409500  1
  O  O44  1  0.76661200  0.89393100  0.23797000  1
  O  O45  1  0.26661200  0.10606900  0.26203000  1
  O  O46  1  0.23338800  0.10606900  0.76203000  1
  O  O47  1  0.73338800  0.89393100  0.73797000  1
  O  O48  1  0.39370300  0.38349100  0.77243200  1
  O  O49  1  0.89370300  0.61650900  0.72756800  1
  O  O50  1  0.60629700  0.61650900  0.22756800  1
  O  O51  1  0.10629700  0.38349100  0.27243200  1
  O  O52  1  0.00228200  0.91632600  0.75421000  1
  O  O53  1  0.50228200  0.08367400  0.74579000  1
  O  O54  1  0.99771800  0.08367400  0.24579000  1
  O  O55  1  0.49771800  0.91632600  0.25421000  1
  O  O56  1  0.61449100  0.85677000  0.02912300  1
  O  O57  1  0.11449100  0.14323000  0.47087700  1
  O  O58  1  0.38550900  0.14323000  0.97087700  1
  O  O59  1  0.49691100  0.69745900  0.76101000  1
