# generated using pymatgen
data_Sr2H3NO6
_symmetry_space_group_name_H-M   'P 1'
_cell_length_a   3.59152100
_cell_length_b   6.70391415
_cell_length_c   6.70433000
_cell_angle_alpha   119.99794812
_cell_angle_beta   90.00000000
_cell_angle_gamma   90.00000000
_symmetry_Int_Tables_number   1
_chemical_formula_structural   Sr2H3NO6
_chemical_formula_sum   'Sr2 H3 N1 O6'
_cell_volume   139.79828634
_cell_formula_units_Z   1
loop_
 _symmetry_equiv_pos_site_id
 _symmetry_equiv_pos_as_xyz
  1  'x, y, z'
loop_
 _atom_site_type_symbol
 _atom_site_label
 _atom_site_symmetry_multiplicity
 _atom_site_fract_x
 _atom_site_fract_y
 _atom_site_fract_z
 _atom_site_occupancy
  Sr  Sr0  1  0.50000000  0.33332200  0.66667500  1
  Sr  Sr1  1  0.50000000  0.66664800  0.33332500  1
  H  H2  1  0.00000000  0.32093500  0.00000000  1
  H  H3  1  0.00000000  0.67903800  0.67904500  1
  H  H4  1  0.00000000  0.99999300  0.32095500  1
  N  N5  1  0.50000000  0.99994700  0.00000000  1
  O  O6  1  0.50000000  0.81073100  0.00000000  1
  O  O7  1  0.50000000  0.18931900  0.18931500  1
  O  O8  1  0.50000000  0.00000300  0.81068500  1
  O  O9  1  0.00000000  0.46653300  0.00000000  1
  O  O10  1  0.00000000  0.53345200  0.53347400  1
  O  O11  1  0.00000000  0.99997800  0.46652600  1
