# generated using pymatgen
data_B5H5CI
_symmetry_space_group_name_H-M   'P 1'
_cell_length_a   7.53075000
_cell_length_b   26.35874500
_cell_length_c   7.98200891
_cell_angle_alpha   90.00000000
_cell_angle_beta   95.52087964
_cell_angle_gamma   90.00000000
_symmetry_Int_Tables_number   1
_chemical_formula_structural   B5H5CI
_chemical_formula_sum   'B40 H40 C8 I8'
_cell_volume   1577.08781671
_cell_formula_units_Z   8
loop_
 _symmetry_equiv_pos_site_id
 _symmetry_equiv_pos_as_xyz
  1  'x, y, z'
loop_
 _atom_site_type_symbol
 _atom_site_label
 _atom_site_symmetry_multiplicity
 _atom_site_fract_x
 _atom_site_fract_y
 _atom_site_fract_z
 _atom_site_occupancy
  B  B0  1  0.83862200  0.91737400  0.69450900  1
  B  B1  1  0.16137800  0.41737400  0.80549100  1
  B  B2  1  0.16137800  0.08262600  0.30549100  1
  B  B3  1  0.83862200  0.58262600  0.19450900  1
  B  B4  1  0.76449800  0.89655600  0.48693100  1
  B  B5  1  0.23550200  0.39655600  0.01306900  1
  B  B6  1  0.23550200  0.10344400  0.51306900  1
  B  B7  1  0.76449800  0.60344400  0.98693100  1
  B  B8  1  0.64441600  0.83865800  0.50185900  1
  B  B9  1  0.35558400  0.33865800  0.99814100  1
  B  B10  1  0.35558400  0.16134200  0.49814100  1
  B  B11  1  0.64441600  0.66134200  0.00185900  1
  B  B12  1  0.64394700  0.82286100  0.71892900  1
  B  B13  1  0.35605300  0.32286100  0.78107100  1
  B  B14  1  0.35605300  0.17713900  0.28107100  1
  B  B15  1  0.64394700  0.67713900  0.21892900  1
  B  B16  1  0.98868800  0.87074300  0.78637100  1
  B  B17  1  0.01131200  0.37074300  0.71362900  1
  B  B18  1  0.01131200  0.12925700  0.21362900  1
  B  B19  1  0.98868800  0.62925700  0.28637100  1
  B  B20  1  0.98920300  0.88643600  0.56981200  1
  B  B21  1  0.01079700  0.38643600  0.93018800  1
  B  B22  1  0.01079700  0.11356400  0.43018800  1
  B  B23  1  0.98920300  0.61356400  0.06981200  1
  B  B24  1  0.86925500  0.83760600  0.45047300  1
  B  B25  1  0.13074500  0.33760600  0.04952700  1
  B  B26  1  0.13074500  0.16239400  0.54952700  1
  B  B27  1  0.86925500  0.66239400  0.95047300  1
  B  B28  1  0.79352800  0.79255600  0.59610000  1
  B  B29  1  0.20647200  0.29255600  0.90390000  1
  B  B30  1  0.20647200  0.20744400  0.40390000  1
  B  B31  1  0.79352800  0.70744400  0.09610000  1
  B  B32  1  0.86946900  0.81325700  0.80102300  1
  B  B33  1  0.13053100  0.31325700  0.69897700  1
  B  B34  1  0.13053100  0.18674300  0.19897700  1
  B  B35  1  0.86946900  0.68674300  0.30102300  1
  B  B36  1  0.00785700  0.82157100  0.63575100  1
  B  B37  1  0.99214300  0.32157100  0.86424900  1
  B  B38  1  0.99214300  0.17842900  0.36424900  1
  B  B39  1  0.00785700  0.67842900  0.13575100  1
  H  H40  1  0.52106000  0.90621800  0.66948700  1
  H  H41  1  0.47894000  0.40621800  0.83051300  1
  H  H42  1  0.47894000  0.09378200  0.33051300  1
  H  H43  1  0.52106000  0.59378200  0.16948700  1
  H  H44  1  0.72335400  0.88258400  0.94032700  1
  H  H45  1  0.27664600  0.38258500  0.55967300  1
  H  H46  1  0.27664600  0.11741600  0.05967300  1
  H  H47  1  0.72335400  0.61741600  0.44032700  1
  H  H48  1  0.83213400  0.95986900  0.74266900  1
  H  H49  1  0.16786600  0.45986900  0.75733100  1
  H  H50  1  0.16786600  0.04013100  0.25733100  1
  H  H51  1  0.83213400  0.54013100  0.24266900  1
  H  H52  1  0.51308400  0.83096600  0.41064200  1
  H  H53  1  0.48691600  0.33096600  0.08935800  1
  H  H54  1  0.48691600  0.16903400  0.58935800  1
  H  H55  1  0.51308400  0.66903400  0.91064200  1
  H  H56  1  0.51821800  0.80699800  0.78090200  1
  H  H57  1  0.48178200  0.30699800  0.71909800  1
  H  H58  1  0.48178200  0.19300200  0.21909800  1
  H  H59  1  0.51821800  0.69300200  0.28090200  1
  H  H60  1  0.10742500  0.91012900  0.51890900  1
  H  H61  1  0.89257500  0.41012900  0.98109100  1
  H  H62  1  0.89257500  0.08987100  0.48109100  1
  H  H63  1  0.10742500  0.58987100  0.01890900  1
  H  H64  1  0.90549300  0.82653500  0.31296600  1
  H  H65  1  0.09450700  0.32653500  0.18703400  1
  H  H66  1  0.09450700  0.17346500  0.68703400  1
  H  H67  1  0.90549300  0.67346500  0.81296600  1
  H  H68  1  0.76984600  0.74871300  0.57004100  1
  H  H69  1  0.23015400  0.24871300  0.92995900  1
  H  H70  1  0.23015400  0.25128700  0.42995900  1
  H  H71  1  0.76984600  0.75128700  0.07004100  1
  H  H72  1  0.89945800  0.78799300  0.92214200  1
  H  H73  1  0.10054200  0.28799300  0.57785800  1
  H  H74  1  0.10054200  0.21200700  0.07785800  1
  H  H75  1  0.89945800  0.71200700  0.42214200  1
  H  H76  1  0.14204300  0.79778200  0.63260600  1
  H  H77  1  0.85795700  0.29778200  0.86739400  1
  H  H78  1  0.85795700  0.20221800  0.36739400  1
  H  H79  1  0.14204300  0.70221800  0.13260600  1
  C  C80  1  0.64148800  0.88475600  0.65093500  1
  C  C81  1  0.35851200  0.38475600  0.84906500  1
  C  C82  1  0.35851200  0.11524400  0.34906500  1
  C  C83  1  0.64148800  0.61524400  0.15093500  1
  C  C84  1  0.76864900  0.87005500  0.82060200  1
  C  C85  1  0.23135100  0.37005500  0.67939800  1
  C  C86  1  0.23135100  0.12994500  0.17939800  1
  C  C87  1  0.76864900  0.62994500  0.32060200  1
  I  I88  1  0.68286600  0.95422900  0.30006700  1
  I  I89  1  0.31713400  0.45422900  0.19993300  1
  I  I90  1  0.31713400  0.04577100  0.69993300  1
  I  I91  1  0.68286600  0.54577100  0.80006700  1
  I  I92  1  0.18612800  0.89445200  0.98785000  1
  I  I93  1  0.81387200  0.39445200  0.51215000  1
  I  I94  1  0.81387200  0.10554800  0.01215000  1
  I  I95  1  0.18612800  0.60554800  0.48785000  1
