# generated using pymatgen
data_K2CoH4(I2O7)2
_symmetry_space_group_name_H-M   'P 1'
_cell_length_a   8.04477743
_cell_length_b   11.63084364
_cell_length_c   8.11503534
_cell_angle_alpha   88.46648246
_cell_angle_beta   87.81076686
_cell_angle_gamma   89.10789753
_symmetry_Int_Tables_number   1
_chemical_formula_structural   K2CoH4(I2O7)2
_chemical_formula_sum   'K4 Co2 H8 I8 O28'
_cell_volume   758.39756871
_cell_formula_units_Z   2
loop_
 _symmetry_equiv_pos_site_id
 _symmetry_equiv_pos_as_xyz
  1  'x, y, z'
loop_
 _atom_site_type_symbol
 _atom_site_label
 _atom_site_symmetry_multiplicity
 _atom_site_fract_x
 _atom_site_fract_y
 _atom_site_fract_z
 _atom_site_occupancy
  K  K0  1  0.32679800  0.67254700  0.32688000  1
  K  K1  1  0.82719700  0.17279800  0.82736600  1
  K  K2  1  0.06540500  0.93450000  0.06547800  1
  K  K3  1  0.56544400  0.43449600  0.56544000  1
  Co  Co4  1  0.53869100  0.95987900  0.53939300  1
  Co  Co5  1  0.04146600  0.45980900  0.03727000  1
  H  H6  1  0.61469100  0.76100100  0.71120900  1
  H  H7  1  0.11393500  0.26117300  0.21019400  1
  H  H8  1  0.78746600  0.83713000  0.69066400  1
  H  H9  1  0.28659800  0.33795400  0.19086800  1
  H  H10  1  0.87198200  0.66244800  0.96406400  1
  H  H11  1  0.36957800  0.16253800  0.46316000  1
  H  H12  1  0.88438000  0.58280500  0.79172800  1
  H  H13  1  0.38381100  0.08343900  0.29055600  1
  I  I14  1  0.06348500  0.42548900  0.59254100  1
  I  I15  1  0.56444300  0.92560900  0.09203700  1
  I  I16  1  0.33905800  0.17148200  0.81045300  1
  I  I17  1  0.83815900  0.67207000  0.31038700  1
  I  I18  1  0.61386800  0.42545900  0.05696500  1
  I  I19  1  0.11291500  0.92629200  0.55645200  1
  I  I20  1  0.79547900  0.16472200  0.35267100  1
  I  I21  1  0.29607000  0.66532300  0.85215500  1
  O  O22  1  0.91189600  0.59005100  0.91020300  1
  O  O23  1  0.40907800  0.09000000  0.40967000  1
  O  O24  1  0.66673500  0.83356500  0.66715800  1
  O  O25  1  0.16605300  0.33376200  0.16638600  1
  O  O26  1  0.07393200  0.83217000  0.38448600  1
  O  O27  1  0.57337600  0.33213000  0.88445800  1
  O  O28  1  0.32351800  0.77109700  0.01238700  1
  O  O29  1  0.82303000  0.27075200  0.51262300  1
  O  O30  1  0.23596100  0.52684600  0.59750200  1
  O  O31  1  0.73637000  0.02731200  0.09668600  1
  O  O32  1  0.65273200  0.58366200  0.29284800  1
  O  O33  1  0.15358800  0.08316400  0.79261000  1
  O  O34  1  0.88546000  0.52695300  0.60324800  1
  O  O35  1  0.38591900  0.02684500  0.10256600  1
  O  O36  1  0.83167500  0.75553500  0.11418900  1
  O  O37  1  0.33157900  0.25573600  0.61512200  1
  O  O38  1  0.04879400  0.36870500  0.80726700  1
  O  O39  1  0.55204700  0.86974900  0.30684200  1
  O  O40  1  0.51024000  0.07122800  0.75254800  1
  O  O41  1  0.00783500  0.57088800  0.25354100  1
  O  O42  1  0.99262400  0.85671400  0.72550000  1
  O  O43  1  0.49113700  0.35691400  0.22528300  1
  O  O44  1  0.51018700  0.64127000  0.77620400  1
  O  O45  1  0.00965900  0.14136300  0.27634200  1
  O  O46  1  0.82158100  0.36593500  0.10674400  1
  O  O47  1  0.32179200  0.86805700  0.60567700  1
  O  O48  1  0.77537800  0.03584200  0.49119600  1
  O  O49  1  0.27508700  0.53660900  0.99096100  1
