# generated using pymatgen
data_CsK2LaV2O8
_symmetry_space_group_name_H-M   'P 1'
_cell_length_a   6.09640800
_cell_length_b   7.96506200
_cell_length_c   10.20274463
_cell_angle_alpha   88.86476364
_cell_angle_beta   90.00000000
_cell_angle_gamma   90.00000000
_symmetry_Int_Tables_number   1
_chemical_formula_structural   CsK2LaV2O8
_chemical_formula_sum   'Cs2 K4 La2 V4 O16'
_cell_volume   495.33036075
_cell_formula_units_Z   2
loop_
 _symmetry_equiv_pos_site_id
 _symmetry_equiv_pos_as_xyz
  1  'x, y, z'
loop_
 _atom_site_type_symbol
 _atom_site_label
 _atom_site_symmetry_multiplicity
 _atom_site_fract_x
 _atom_site_fract_y
 _atom_site_fract_z
 _atom_site_occupancy
  Cs  Cs0  1  0.25000000  0.87470500  0.40921500  1
  Cs  Cs1  1  0.75000000  0.12529500  0.59078500  1
  K  K2  1  0.25000000  0.00356000  0.80973100  1
  K  K3  1  0.75000000  0.99644000  0.19026900  1
  K  K4  1  0.25000000  0.30428600  0.08089500  1
  K  K5  1  0.75000000  0.69571400  0.91910500  1
  La  La6  1  0.25000000  0.50572900  0.71151600  1
  La  La7  1  0.75000000  0.49427100  0.28848400  1
  V  V8  1  0.25000000  0.73483200  0.08384000  1
  V  V9  1  0.75000000  0.26516800  0.91616000  1
  V  V10  1  0.25000000  0.31357500  0.42213800  1
  V  V11  1  0.75000000  0.68642500  0.57786200  1
  O  O12  1  0.25000000  0.95020200  0.09022800  1
  O  O13  1  0.75000000  0.04979800  0.90977200  1
  O  O14  1  0.25000000  0.52446900  0.45423700  1
  O  O15  1  0.75000000  0.47553100  0.54576300  1
  O  O16  1  0.25000000  0.67282000  0.92058300  1
  O  O17  1  0.75000000  0.32718000  0.07941700  1
  O  O18  1  0.48800800  0.65740300  0.16226900  1
  O  O19  1  0.51199200  0.34259700  0.83773100  1
  O  O20  1  0.98800800  0.34259700  0.83773100  1
  O  O21  1  0.01199200  0.65740300  0.16226900  1
  O  O22  1  0.48620300  0.26088500  0.33357100  1
  O  O23  1  0.51379700  0.73911500  0.66642900  1
  O  O24  1  0.98620300  0.73911500  0.66642900  1
  O  O25  1  0.01379700  0.26088500  0.33357100  1
  O  O26  1  0.25000000  0.22281200  0.57955000  1
  O  O27  1  0.75000000  0.77718800  0.42045000  1
