# generated using pymatgen
data_Ho5(Ge5Os2)2
_symmetry_space_group_name_H-M   'P 1'
_cell_length_a   13.16453400
_cell_length_b   13.16453400
_cell_length_c   4.26701900
_cell_angle_alpha   90.00000000
_cell_angle_beta   90.00000000
_cell_angle_gamma   90.00000000
_symmetry_Int_Tables_number   1
_chemical_formula_structural   Ho5(Ge5Os2)2
_chemical_formula_sum   'Ho10 Ge20 Os8'
_cell_volume   739.49553764
_cell_formula_units_Z   2
loop_
 _symmetry_equiv_pos_site_id
 _symmetry_equiv_pos_as_xyz
  1  'x, y, z'
loop_
 _atom_site_type_symbol
 _atom_site_label
 _atom_site_symmetry_multiplicity
 _atom_site_fract_x
 _atom_site_fract_y
 _atom_site_fract_z
 _atom_site_occupancy
  Ho  Ho0  1  0.50000000  0.50000000  0.00000000  1
  Ho  Ho1  1  0.00000000  0.00000000  0.00000000  1
  Ho  Ho2  1  0.67185000  0.17185000  0.50000000  1
  Ho  Ho3  1  0.32815000  0.82815000  0.50000000  1
  Ho  Ho4  1  0.17185000  0.32815000  0.50000000  1
  Ho  Ho5  1  0.82815000  0.67185000  0.50000000  1
  Ho  Ho6  1  0.88334800  0.38334800  0.50000000  1
  Ho  Ho7  1  0.11665200  0.61665200  0.50000000  1
  Ho  Ho8  1  0.38334800  0.11665200  0.50000000  1
  Ho  Ho9  1  0.61665200  0.88334800  0.50000000  1
  Ge  Ge10  1  0.56755700  0.06755700  0.00000000  1
  Ge  Ge11  1  0.43244300  0.93244300  0.00000000  1
  Ge  Ge12  1  0.06755700  0.43244300  0.00000000  1
  Ge  Ge13  1  0.93244300  0.56755700  0.00000000  1
  Ge  Ge14  1  0.66377700  0.69779500  0.00000000  1
  Ge  Ge15  1  0.33622300  0.30220500  0.00000000  1
  Ge  Ge16  1  0.16377700  0.80220500  0.00000000  1
  Ge  Ge17  1  0.83622300  0.19779500  0.00000000  1
  Ge  Ge18  1  0.30220500  0.66377700  0.00000000  1
  Ge  Ge19  1  0.69779500  0.33622300  0.00000000  1
  Ge  Ge20  1  0.19779500  0.16377700  0.00000000  1
  Ge  Ge21  1  0.80220500  0.83622300  0.00000000  1
  Ge  Ge22  1  0.65784300  0.50816900  0.50000000  1
  Ge  Ge23  1  0.34215700  0.49183100  0.50000000  1
  Ge  Ge24  1  0.15784300  0.99183100  0.50000000  1
  Ge  Ge25  1  0.84215700  0.00816900  0.50000000  1
  Ge  Ge26  1  0.49183100  0.65784300  0.50000000  1
  Ge  Ge27  1  0.50816900  0.34215700  0.50000000  1
  Ge  Ge28  1  0.00816900  0.15784300  0.50000000  1
  Ge  Ge29  1  0.99183100  0.84215700  0.50000000  1
  Os  Os30  1  0.74772200  0.51843500  0.00000000  1
  Os  Os31  1  0.25227800  0.48156500  0.00000000  1
  Os  Os32  1  0.24772200  0.98156500  0.00000000  1
  Os  Os33  1  0.75227800  0.01843500  0.00000000  1
  Os  Os34  1  0.48156500  0.74772200  0.00000000  1
  Os  Os35  1  0.51843500  0.25227800  0.00000000  1
  Os  Os36  1  0.01843500  0.24772200  0.00000000  1
  Os  Os37  1  0.98156500  0.75227800  0.00000000  1
