# generated using pymatgen
data_TlAs5PbS9
_symmetry_space_group_name_H-M   'P 1'
_cell_length_a   8.30963841
_cell_length_b   11.13348657
_cell_length_c   36.08888796
_cell_angle_alpha   90.00000000
_cell_angle_beta   90.00000000
_cell_angle_gamma   90.00000000
_symmetry_Int_Tables_number   1
_chemical_formula_structural   TlAs5PbS9
_chemical_formula_sum   'Tl8 As40 Pb8 S72'
_cell_volume   3338.77240665
_cell_formula_units_Z   8
loop_
 _symmetry_equiv_pos_site_id
 _symmetry_equiv_pos_as_xyz
  1  'x, y, z'
loop_
 _atom_site_type_symbol
 _atom_site_label
 _atom_site_symmetry_multiplicity
 _atom_site_fract_x
 _atom_site_fract_y
 _atom_site_fract_z
 _atom_site_occupancy
  Tl  Tl0  1  0.36495382  0.15854187  0.12274089  1
  Tl  Tl1  1  0.63504618  0.84145813  0.87725911  1
  Tl  Tl2  1  0.13504618  0.84145813  0.62274089  1
  Tl  Tl3  1  0.63504618  0.65854187  0.37725911  1
  Tl  Tl4  1  0.86495382  0.15854187  0.37725911  1
  Tl  Tl5  1  0.36495382  0.34145813  0.62274089  1
  Tl  Tl6  1  0.86495382  0.34145813  0.87725911  1
  Tl  Tl7  1  0.13504618  0.65854187  0.12274089  1
  As  As8  1  0.04318824  0.11824849  0.02915892  1
  As  As9  1  0.95681176  0.88175151  0.97084108  1
  As  As10  1  0.45681176  0.88175151  0.52915892  1
  As  As11  1  0.95681176  0.61824849  0.47084108  1
  As  As12  1  0.54318824  0.11824849  0.47084108  1
  As  As13  1  0.04318824  0.38175151  0.52915892  1
  As  As14  1  0.54318824  0.38175151  0.97084108  1
  As  As15  1  0.45681176  0.61824849  0.02915892  1
  As  As16  1  0.37433432  0.40175655  0.31505504  1
  As  As17  1  0.62566568  0.59824345  0.68494496  1
  As  As18  1  0.12566568  0.59824345  0.81505504  1
  As  As19  1  0.62566568  0.90175655  0.18494496  1
  As  As20  1  0.87433432  0.40175655  0.18494496  1
  As  As21  1  0.37433432  0.09824345  0.81505504  1
  As  As22  1  0.87433432  0.09824345  0.68494496  1
  As  As23  1  0.12566568  0.90175655  0.31505504  1
  As  As24  1  0.28371198  0.36402405  0.45165996  1
  As  As25  1  0.71628802  0.63597595  0.54834004  1
  As  As26  1  0.21628802  0.63597595  0.95165996  1
  As  As27  1  0.71628802  0.86402405  0.04834004  1
  As  As28  1  0.78371198  0.36402405  0.04834004  1
  As  As29  1  0.28371198  0.13597595  0.95165996  1
  As  As30  1  0.78371198  0.13597595  0.54834004  1
  As  As31  1  0.21628802  0.86402405  0.45165996  1
  As  As32  1  0.36444763  0.05962185  0.38465309  1
  As  As33  1  0.63555237  0.94037815  0.61534691  1
  As  As34  1  0.13555237  0.94037815  0.88465309  1
  As  As35  1  0.63555237  0.55962185  0.11534691  1
  As  As36  1  0.86444763  0.05962185  0.11534691  1
  As  As37  1  0.36444763  0.44037815  0.88465309  1
  As  As38  1  0.86444763  0.44037815  0.61534691  1
  As  As39  1  0.13555237  0.55962185  0.38465309  1
  As  As40  1  0.29396579  0.39159319  0.19488628  1
  As  As41  1  0.70603421  0.60840681  0.80511372  1
  As  As42  1  0.20603421  0.60840681  0.69488628  1
  As  As43  1  0.70603421  0.89159319  0.30511372  1
  As  As44  1  0.79396579  0.39159319  0.30511372  1
  As  As45  1  0.29396579  0.10840681  0.69488628  1
  As  As46  1  0.79396579  0.10840681  0.80511372  1
  As  As47  1  0.20603421  0.89159319  0.19488628  1
  Pb  Pb48  1  0.39461415  0.13580197  0.25304241  1
  Pb  Pb49  1  0.60538585  0.86419803  0.74695759  1
  Pb  Pb50  1  0.10538585  0.86419803  0.75304241  1
  Pb  Pb51  1  0.60538585  0.63580197  0.24695759  1
  Pb  Pb52  1  0.89461415  0.13580197  0.24695759  1
  Pb  Pb53  1  0.39461415  0.36419803  0.75304241  1
  Pb  Pb54  1  0.89461415  0.36419803  0.74695759  1
  Pb  Pb55  1  0.10538585  0.63580197  0.25304241  1
  S  S56  1  0.17751124  0.37156772  0.36278202  1
  S  S57  1  0.82248876  0.62843228  0.63721798  1
  S  S58  1  0.32248876  0.62843228  0.86278202  1
  S  S59  1  0.82248876  0.87156772  0.13721798  1
  S  S60  1  0.67751124  0.37156772  0.13721798  1
  S  S61  1  0.17751124  0.12843228  0.86278202  1
  S  S62  1  0.67751124  0.12843228  0.63721798  1
  S  S63  1  0.32248876  0.87156772  0.36278202  1
  S  S64  1  0.13938121  0.08782250  0.19122793  1
  S  S65  1  0.86061879  0.91217750  0.80877207  1
  S  S66  1  0.36061879  0.91217750  0.69122793  1
  S  S67  1  0.86061879  0.58782250  0.30877207  1
  S  S68  1  0.63938121  0.08782250  0.30877207  1
  S  S69  1  0.13938121  0.41217750  0.69122793  1
  S  S70  1  0.63938121  0.41217750  0.80877207  1
  S  S71  1  0.36061879  0.58782250  0.19122793  1
  S  S72  1  0.04457345  0.30511621  0.05657271  1
  S  S73  1  0.95542655  0.69488379  0.94342729  1
  S  S74  1  0.45542655  0.69488379  0.55657271  1
  S  S75  1  0.95542655  0.80511621  0.44342729  1
  S  S76  1  0.54457345  0.30511621  0.44342729  1
  S  S77  1  0.04457345  0.19488379  0.55657271  1
  S  S78  1  0.54457345  0.19488379  0.94342729  1
  S  S79  1  0.45542655  0.80511621  0.05657271  1
  S  S80  1  0.10322349  0.38539052  0.14720616  1
  S  S81  1  0.89677651  0.61460948  0.85279384  1
  S  S82  1  0.39677651  0.61460948  0.64720616  1
  S  S83  1  0.89677651  0.88539052  0.35279384  1
  S  S84  1  0.60322349  0.38539052  0.35279384  1
  S  S85  1  0.10322349  0.11460948  0.64720616  1
  S  S86  1  0.60322349  0.11460948  0.85279384  1
  S  S87  1  0.39677651  0.88539052  0.14720616  1
  S  S88  1  0.41662988  0.49537123  0.07982056  1
  S  S89  1  0.58337012  0.50462877  0.92017944  1
  S  S90  1  0.08337012  0.50462877  0.57982056  1
  S  S91  1  0.58337012  0.99537123  0.42017944  1
  S  S92  1  0.91662988  0.49537123  0.42017944  1
  S  S93  1  0.41662988  0.00462877  0.57982056  1
  S  S94  1  0.91662988  0.00462877  0.92017944  1
  S  S95  1  0.08337012  0.99537123  0.07982056  1
  S  S96  1  0.31089144  0.11304021  0.01498311  1
  S  S97  1  0.68910856  0.88695979  0.98501689  1
  S  S98  1  0.18910856  0.88695979  0.51498311  1
  S  S99  1  0.68910856  0.61304021  0.48501689  1
  S  S100  1  0.81089144  0.11304021  0.48501689  1
  S  S101  1  0.31089144  0.38695979  0.51498311  1
  S  S102  1  0.81089144  0.38695979  0.98501689  1
  S  S103  1  0.18910856  0.61304021  0.01498311  1
  S  S104  1  0.13507671  0.10213509  0.31035703  1
  S  S105  1  0.86492329  0.89786491  0.68964297  1
  S  S106  1  0.36492329  0.89786491  0.81035703  1
  S  S107  1  0.86492329  0.60213509  0.18964297  1
  S  S108  1  0.63507671  0.10213509  0.18964297  1
  S  S109  1  0.13507671  0.39786491  0.81035703  1
  S  S110  1  0.63507671  0.39786491  0.68964297  1
  S  S111  1  0.36492329  0.60213509  0.31035703  1
  S  S112  1  0.12825451  0.38503415  0.24547902  1
  S  S113  1  0.87174549  0.61496585  0.75452098  1
  S  S114  1  0.37174549  0.61496585  0.74547902  1
  S  S115  1  0.87174549  0.88503415  0.25452098  1
  S  S116  1  0.62825451  0.38503415  0.25452098  1
  S  S117  1  0.12825451  0.11496585  0.74547902  1
  S  S118  1  0.62825451  0.11496585  0.75452098  1
  S  S119  1  0.37174549  0.88503415  0.24547902  1
  S  S120  1  0.17560737  0.06106179  0.43286048  1
  S  S121  1  0.82439263  0.93893821  0.56713952  1
  S  S122  1  0.32439263  0.93893821  0.93286048  1
  S  S123  1  0.82439263  0.56106179  0.06713952  1
  S  S124  1  0.67560737  0.06106179  0.06713952  1
  S  S125  1  0.17560737  0.43893821  0.93286048  1
  S  S126  1  0.67560737  0.43893821  0.56713952  1
  S  S127  1  0.32439263  0.56106179  0.43286048  1
