# generated using pymatgen
data_TmAl7Au3
_symmetry_space_group_name_H-M   'P 1'
_cell_length_a   8.44318676
_cell_length_b   8.44318676
_cell_length_c   8.44318643
_cell_angle_alpha   57.16657319
_cell_angle_beta   57.16657319
_cell_angle_gamma   57.16657022
_symmetry_Int_Tables_number   1
_chemical_formula_structural   TmAl7Au3
_chemical_formula_sum   'Tm2 Al14 Au6'
_cell_volume   397.81997219
_cell_formula_units_Z   2
loop_
 _symmetry_equiv_pos_site_id
 _symmetry_equiv_pos_as_xyz
  1  'x, y, z'
loop_
 _atom_site_type_symbol
 _atom_site_label
 _atom_site_symmetry_multiplicity
 _atom_site_fract_x
 _atom_site_fract_y
 _atom_site_fract_z
 _atom_site_occupancy
  Tm  Tm0  1  0.00000000  0.00000000  0.00000000  1
  Tm  Tm1  1  0.50000000  0.50000000  0.50000000  1
  Al  Al2  1  0.93022400  0.14722900  0.33311000  1
  Al  Al3  1  0.33311000  0.93022400  0.14722900  1
  Al  Al4  1  0.14722900  0.33311000  0.93022400  1
  Al  Al5  1  0.56977600  0.16689000  0.35277100  1
  Al  Al6  1  0.35277100  0.56977600  0.16689000  1
  Al  Al7  1  0.16689000  0.35277100  0.56977600  1
  Al  Al8  1  0.06977600  0.85277100  0.66689000  1
  Al  Al9  1  0.66689000  0.06977600  0.85277100  1
  Al  Al10  1  0.75000000  0.75000000  0.75000000  1
  Al  Al11  1  0.25000000  0.25000000  0.25000000  1
  Al  Al12  1  0.83311000  0.64722900  0.43022400  1
  Al  Al13  1  0.64722900  0.43022400  0.83311000  1
  Al  Al14  1  0.43022400  0.83311000  0.64722900  1
  Al  Al15  1  0.85277100  0.66689000  0.06977600  1
  Au  Au16  1  0.25000000  0.57490100  0.92509900  1
  Au  Au17  1  0.92509900  0.25000000  0.57490100  1
  Au  Au18  1  0.57490100  0.92509900  0.25000000  1
  Au  Au19  1  0.75000000  0.42509900  0.07490100  1
  Au  Au20  1  0.07490100  0.75000000  0.42509900  1
  Au  Au21  1  0.42509900  0.07490100  0.75000000  1
