# generated using pymatgen
data_Sr2TiMnO6
_symmetry_space_group_name_H-M   'P 1'
_cell_length_a   5.50737700
_cell_length_b   9.53969408
_cell_length_c   5.50848026
_cell_angle_alpha   73.23978264
_cell_angle_beta   119.99338091
_cell_angle_gamma   106.77750395
_symmetry_Int_Tables_number   1
_chemical_formula_structural   Sr2TiMnO6
_chemical_formula_sum   'Sr4 Ti2 Mn2 O12'
_cell_volume   236.33243217
_cell_formula_units_Z   2
loop_
 _symmetry_equiv_pos_site_id
 _symmetry_equiv_pos_as_xyz
  1  'x, y, z'
loop_
 _atom_site_type_symbol
 _atom_site_label
 _atom_site_symmetry_multiplicity
 _atom_site_fract_x
 _atom_site_fract_y
 _atom_site_fract_z
 _atom_site_occupancy
  Sr  Sr0  1  0.37500000  0.12500000  0.62500000  1
  Sr  Sr1  1  0.87500000  0.62500000  0.12500000  1
  Sr  Sr2  1  0.12500000  0.37500000  0.87500000  1
  Sr  Sr3  1  0.62500000  0.87500000  0.37500000  1
  Ti  Ti4  1  0.75000000  0.25000000  0.25000000  1
  Ti  Ti5  1  0.25000000  0.75000000  0.75000000  1
  Mn  Mn6  1  0.50000000  0.50000000  0.50000000  1
  Mn  Mn7  1  0.00000000  0.00000000  0.00000000  1
  O  O8  1  0.62371000  0.37629000  0.87113100  1
  O  O9  1  0.12371000  0.87629000  0.37113100  1
  O  O10  1  0.87629000  0.12371000  0.62886900  1
  O  O11  1  0.37629000  0.62371000  0.12886900  1
  O  O12  1  0.13236000  0.37272700  0.37272700  1
  O  O13  1  0.63236000  0.87272700  0.87272700  1
  O  O14  1  0.36764000  0.12727300  0.12727300  1
  O  O15  1  0.86764000  0.62727300  0.62727300  1
  O  O16  1  0.63436200  0.37981600  0.37981600  1
  O  O17  1  0.13436200  0.87981600  0.87981600  1
  O  O18  1  0.86563800  0.12018400  0.12018400  1
  O  O19  1  0.36563800  0.62018400  0.62018400  1
