# generated using pymatgen
data_YbCo5P3
_symmetry_space_group_name_H-M   'P 1'
_cell_length_a   3.60320500
_cell_length_b   10.23192500
_cell_length_c   11.69131300
_cell_angle_alpha   90.00000000
_cell_angle_beta   90.00000000
_cell_angle_gamma   90.00000000
_symmetry_Int_Tables_number   1
_chemical_formula_structural   YbCo5P3
_chemical_formula_sum   'Yb4 Co20 P12'
_cell_volume   431.03209293
_cell_formula_units_Z   4
loop_
 _symmetry_equiv_pos_site_id
 _symmetry_equiv_pos_as_xyz
  1  'x, y, z'
loop_
 _atom_site_type_symbol
 _atom_site_label
 _atom_site_symmetry_multiplicity
 _atom_site_fract_x
 _atom_site_fract_y
 _atom_site_fract_z
 _atom_site_occupancy
  Yb  Yb0  1  0.25000000  0.58306300  0.70375400  1
  Yb  Yb1  1  0.25000000  0.91693700  0.20375400  1
  Yb  Yb2  1  0.75000000  0.41693700  0.29624600  1
  Yb  Yb3  1  0.75000000  0.08306300  0.79624600  1
  Co  Co4  1  0.25000000  0.71682600  0.99047700  1
  Co  Co5  1  0.25000000  0.78317400  0.49047700  1
  Co  Co6  1  0.75000000  0.28317400  0.00952300  1
  Co  Co7  1  0.75000000  0.21682600  0.50952300  1
  Co  Co8  1  0.25000000  0.40723400  0.48817800  1
  Co  Co9  1  0.25000000  0.09276600  0.98817800  1
  Co  Co10  1  0.75000000  0.59276600  0.51182200  1
  Co  Co11  1  0.75000000  0.90723400  0.01182200  1
  Co  Co12  1  0.25000000  0.22032000  0.17584800  1
  Co  Co13  1  0.25000000  0.27968000  0.67584800  1
  Co  Co14  1  0.75000000  0.77968000  0.82415200  1
  Co  Co15  1  0.75000000  0.72032000  0.32415200  1
  Co  Co16  1  0.25000000  0.88252700  0.69850600  1
  Co  Co17  1  0.25000000  0.61747300  0.19850600  1
  Co  Co18  1  0.75000000  0.11747300  0.30149400  1
  Co  Co19  1  0.75000000  0.38252700  0.80149400  1
  Co  Co20  1  0.25000000  0.46720600  0.93173800  1
  Co  Co21  1  0.25000000  0.03279400  0.43173800  1
  Co  Co22  1  0.75000000  0.53279400  0.06826200  1
  Co  Co23  1  0.75000000  0.96720600  0.56826200  1
  P  P24  1  0.25000000  0.41793100  0.11180600  1
  P  P25  1  0.25000000  0.08206900  0.61180600  1
  P  P26  1  0.75000000  0.58206900  0.88819400  1
  P  P27  1  0.75000000  0.91793100  0.38819400  1
  P  P28  1  0.25000000  0.26999400  0.86980100  1
  P  P29  1  0.25000000  0.23000600  0.36980100  1
  P  P30  1  0.75000000  0.73000600  0.13019900  1
  P  P31  1  0.75000000  0.76999400  0.63019900  1
  P  P32  1  0.25000000  0.60090400  0.39071100  1
  P  P33  1  0.25000000  0.89909600  0.89071100  1
  P  P34  1  0.75000000  0.39909600  0.60928900  1
  P  P35  1  0.75000000  0.10090400  0.10928900  1
