# generated using pymatgen
data_NaLaS2
_symmetry_space_group_name_H-M   'P 1'
_cell_length_a   7.05529419
_cell_length_b   7.05529419
_cell_length_c   7.05529461
_cell_angle_alpha   34.94024751
_cell_angle_beta   34.94024751
_cell_angle_gamma   34.94024823
_symmetry_Int_Tables_number   1
_chemical_formula_structural   NaLaS2
_chemical_formula_sum   'Na1 La1 S2'
_cell_volume   102.84472935
_cell_formula_units_Z   1
loop_
 _symmetry_equiv_pos_site_id
 _symmetry_equiv_pos_as_xyz
  1  'x, y, z'
loop_
 _atom_site_type_symbol
 _atom_site_label
 _atom_site_symmetry_multiplicity
 _atom_site_fract_x
 _atom_site_fract_y
 _atom_site_fract_z
 _atom_site_occupancy
  Na  Na0  1  0.50000000  0.50000000  0.50000000  1
  La  La1  1  0.00000000  0.00000000  0.00000000  1
  S  S2  1  0.25512100  0.25512100  0.25512100  1
  S  S3  1  0.74487900  0.74487900  0.74487900  1
