# generated using pymatgen
data_SrP2
_symmetry_space_group_name_H-M   'P 1'
_cell_length_a   11.91229600
_cell_length_b   6.17399800
_cell_length_c   7.51034274
_cell_angle_alpha   53.40035315
_cell_angle_beta   90.00000000
_cell_angle_gamma   90.00000000
_symmetry_Int_Tables_number   1
_chemical_formula_structural   SrP2
_chemical_formula_sum   'Sr6 P12'
_cell_volume   443.44577681
_cell_formula_units_Z   6
loop_
 _symmetry_equiv_pos_site_id
 _symmetry_equiv_pos_as_xyz
  1  'x, y, z'
loop_
 _atom_site_type_symbol
 _atom_site_label
 _atom_site_symmetry_multiplicity
 _atom_site_fract_x
 _atom_site_fract_y
 _atom_site_fract_z
 _atom_site_occupancy
  Sr  Sr0  1  0.83347900  0.21215400  0.68491300  1
  Sr  Sr1  1  0.33347900  0.78784600  0.81508700  1
  Sr  Sr2  1  0.16652100  0.78784600  0.31508700  1
  Sr  Sr3  1  0.66652100  0.21215400  0.18491300  1
  Sr  Sr4  1  0.50000000  0.50000000  0.50000000  1
  Sr  Sr5  1  0.00000000  0.50000000  0.00000000  1
  P  P6  1  0.59974000  0.93244900  0.71198000  1
  P  P7  1  0.09974000  0.06755100  0.78802000  1
  P  P8  1  0.40026000  0.06755100  0.28802000  1
  P  P9  1  0.90026000  0.93244900  0.21198000  1
  P  P10  1  0.87087700  0.79864800  0.56063000  1
  P  P11  1  0.37087700  0.20135200  0.93937000  1
  P  P12  1  0.12912300  0.20135200  0.43937000  1
  P  P13  1  0.62912300  0.79864800  0.06063000  1
  P  P14  1  0.69525900  0.66216600  0.66624800  1
  P  P15  1  0.19525900  0.33783400  0.83375200  1
  P  P16  1  0.30474100  0.33783400  0.33375200  1
  P  P17  1  0.80474100  0.66216600  0.16624800  1
