# generated using pymatgen
data_SmGe2Pd
_symmetry_space_group_name_H-M   'P 1'
_cell_length_a   4.40429400
_cell_length_b   8.90362200
_cell_length_c   9.63752773
_cell_angle_alpha   117.51136737
_cell_angle_beta   103.20859893
_cell_angle_gamma   90.00000000
_symmetry_Int_Tables_number   1
_chemical_formula_structural   SmGe2Pd
_chemical_formula_sum   'Sm4 Ge8 Pd4'
_cell_volume   323.87644858
_cell_formula_units_Z   4
loop_
 _symmetry_equiv_pos_site_id
 _symmetry_equiv_pos_as_xyz
  1  'x, y, z'
loop_
 _atom_site_type_symbol
 _atom_site_label
 _atom_site_symmetry_multiplicity
 _atom_site_fract_x
 _atom_site_fract_y
 _atom_site_fract_z
 _atom_site_occupancy
  Sm  Sm0  1  0.20303100  0.20303100  0.40606100  1
  Sm  Sm1  1  0.79696900  0.79696900  0.59393900  1
  Sm  Sm2  1  0.00000000  0.75898300  0.00000000  1
  Sm  Sm3  1  0.00000000  0.24101700  0.00000000  1
  Ge  Ge4  1  0.57399900  0.07399900  0.14799800  1
  Ge  Ge5  1  0.42600100  0.92600100  0.85200200  1
  Ge  Ge6  1  0.19683000  0.84680700  0.39366000  1
  Ge  Ge7  1  0.80317000  0.15319300  0.60634000  1
  Ge  Ge8  1  0.19683000  0.54685300  0.39366000  1
  Ge  Ge9  1  0.80317000  0.45314700  0.60634000  1
  Ge  Ge10  1  0.42538200  0.42538200  0.85076500  1
  Ge  Ge11  1  0.57461800  0.57461800  0.14923500  1
  Pd  Pd12  1  0.35149300  0.10219100  0.70298600  1
  Pd  Pd13  1  0.64850700  0.89780900  0.29701400  1
  Pd  Pd14  1  0.35149300  0.60079500  0.70298600  1
  Pd  Pd15  1  0.64850700  0.39920500  0.29701400  1
