# generated using pymatgen
data_Na15Mo7N19
_symmetry_space_group_name_H-M   'P 1'
_cell_length_a   6.24288700
_cell_length_b   11.75185270
_cell_length_c   18.82284367
_cell_angle_alpha   91.60141741
_cell_angle_beta   93.62928890
_cell_angle_gamma   102.59946426
_symmetry_Int_Tables_number   1
_chemical_formula_structural   Na15Mo7N19
_chemical_formula_sum   'Na30 Mo14 N38'
_cell_volume   1343.75291769
_cell_formula_units_Z   2
loop_
 _symmetry_equiv_pos_site_id
 _symmetry_equiv_pos_as_xyz
  1  'x, y, z'
loop_
 _atom_site_type_symbol
 _atom_site_label
 _atom_site_symmetry_multiplicity
 _atom_site_fract_x
 _atom_site_fract_y
 _atom_site_fract_z
 _atom_site_occupancy
  Na  Na0  1  0.54209700  0.62285800  0.44923700  1
  Na  Na1  1  0.45790300  0.37714200  0.55076300  1
  Na  Na2  1  0.54884700  0.14893200  0.63754800  1
  Na  Na3  1  0.45115300  0.85106800  0.36245200  1
  Na  Na4  1  0.73969100  0.99837400  0.19425200  1
  Na  Na5  1  0.26030900  0.00162600  0.80574800  1
  Na  Na6  1  0.91376200  0.01912200  0.36647100  1
  Na  Na7  1  0.08623800  0.98087800  0.63352900  1
  Na  Na8  1  0.86456300  0.76667800  0.29604400  1
  Na  Na9  1  0.13543700  0.23332200  0.70395600  1
  Na  Na10  1  0.82269700  0.16123900  0.83420100  1
  Na  Na11  1  0.17730300  0.83876100  0.16579900  1
  Na  Na12  1  0.89561800  0.91039300  0.91531000  1
  Na  Na13  1  0.10438200  0.08960700  0.08469000  1
  Na  Na14  1  0.69460100  0.11032400  0.99509600  1
  Na  Na15  1  0.30539900  0.88967600  0.00490400  1
  Na  Na16  1  0.67121800  0.92145900  0.52029200  1
  Na  Na17  1  0.32878200  0.07854100  0.47970800  1
  Na  Na18  1  0.65899900  0.47548300  0.29653800  1
  Na  Na19  1  0.34100100  0.52451700  0.70346200  1
  Na  Na20  1  0.96027700  0.35637200  0.00564100  1
  Na  Na21  1  0.03972300  0.64362800  0.99435900  1
  Na  Na22  1  0.89365100  0.69015100  0.80299600  1
  Na  Na23  1  0.10634900  0.30984900  0.19700400  1
  Na  Na24  1  0.69451800  0.23002400  0.39401100  1
  Na  Na25  1  0.30548200  0.76997600  0.60598900  1
  Na  Na26  1  0.56878200  0.37007600  0.83712600  1
  Na  Na27  1  0.43121800  0.62992400  0.16287400  1
  Na  Na28  1  0.00000000  0.50000000  0.50000000  1
  Na  Na29  1  0.50000000  0.50000000  0.00000000  1
  Mo  Mo30  1  0.58745100  0.24838800  0.13150000  1
  Mo  Mo31  1  0.41254900  0.75161200  0.86850000  1
  Mo  Mo32  1  0.79314000  0.41136200  0.69329600  1
  Mo  Mo33  1  0.20686000  0.58863800  0.30670400  1
  Mo  Mo34  1  0.73903900  0.66735500  0.61416500  1
  Mo  Mo35  1  0.26096100  0.33264500  0.38583500  1
  Mo  Mo36  1  0.03922500  0.76712700  0.45881300  1
  Mo  Mo37  1  0.96077500  0.23287300  0.54118700  1
  Mo  Mo38  1  0.90297100  0.54178700  0.14341600  1
  Mo  Mo39  1  0.09702900  0.45821300  0.85658400  1
  Mo  Mo40  1  0.67243000  0.91992900  0.72308300  1
  Mo  Mo41  1  0.32757000  0.08007100  0.27691700  1
  Mo  Mo42  1  0.70066700  0.78257800  0.05593000  1
  Mo  Mo43  1  0.29933300  0.21742200  0.94407000  1
  N  N44  1  0.81018200  0.17713800  0.12233100  1
  N  N45  1  0.18981800  0.82286200  0.87766900  1
  N  N46  1  0.87639700  0.33912700  0.61202200  1
  N  N47  1  0.12360300  0.66087300  0.38797800  1
  N  N48  1  0.57547300  0.03639500  0.30757500  1
  N  N49  1  0.42452700  0.96360500  0.69242500  1
  N  N50  1  0.62499900  0.83466800  0.81106000  1
  N  N51  1  0.37500100  0.16533200  0.18894000  1
  N  N52  1  0.70290000  0.40510800  0.17060800  1
  N  N53  1  0.29710000  0.59489200  0.82939200  1
  N  N54  1  0.53641700  0.40499200  0.41752500  1
  N  N55  1  0.46358300  0.59500800  0.58247500  1
  N  N56  1  0.71936900  0.12476400  0.50934700  1
  N  N57  1  0.28063100  0.87523600  0.49065300  1
  N  N58  1  0.92593300  0.67561200  0.53823300  1
  N  N59  1  0.07406700  0.32438800  0.46176700  1
  N  N60  1  0.96647900  0.88234200  0.05423200  1
  N  N61  1  0.03352100  0.11765800  0.94576800  1
  N  N62  1  0.82402000  0.83271000  0.42049700  1
  N  N63  1  0.17598000  0.16729000  0.57950300  1
  N  N64  1  0.74650700  0.82082600  0.64617700  1
  N  N65  1  0.25349300  0.17917400  0.35382300  1
  N  N66  1  0.88627000  0.49423300  0.90733100  1
  N  N67  1  0.11373000  0.50576700  0.09266900  1
  N  N68  1  0.55435400  0.75554500  0.96118900  1
  N  N69  1  0.44564600  0.24445500  0.03881100  1
  N  N70  1  0.74346900  0.63044200  0.08688600  1
  N  N71  1  0.25653100  0.36955800  0.91311400  1
  N  N72  1  0.89943100  0.04547100  0.73756100  1
  N  N73  1  0.10056900  0.95452900  0.26243900  1
  N  N74  1  0.03763200  0.63197800  0.22650500  1
  N  N75  1  0.96236800  0.36802200  0.77349500  1
  N  N76  1  0.83649000  0.57712700  0.68916100  1
  N  N77  1  0.16351000  0.42287300  0.31083900  1
  N  N78  1  0.50987100  0.35160800  0.70461000  1
  N  N79  1  0.49012900  0.64839200  0.29539000  1
  N  N80  1  0.52206700  0.83818900  0.11377800  1
  N  N81  1  0.47793300  0.16181100  0.88622200  1
