# generated using pymatgen
data_Lu3Co2Si3
_symmetry_space_group_name_H-M   'P 1'
_cell_length_a   5.48318785
_cell_length_b   5.48318785
_cell_length_c   13.33903800
_cell_angle_alpha   90.00000000
_cell_angle_beta   90.00000000
_cell_angle_gamma   136.61275146
_symmetry_Int_Tables_number   1
_chemical_formula_structural   Lu3Co2Si3
_chemical_formula_sum   'Lu6 Co4 Si6'
_cell_volume   275.48666529
_cell_formula_units_Z   2
loop_
 _symmetry_equiv_pos_site_id
 _symmetry_equiv_pos_as_xyz
  1  'x, y, z'
loop_
 _atom_site_type_symbol
 _atom_site_label
 _atom_site_symmetry_multiplicity
 _atom_site_fract_x
 _atom_site_fract_y
 _atom_site_fract_z
 _atom_site_occupancy
  Lu  Lu0  1  0.63868400  0.36131600  0.25000000  1
  Lu  Lu1  1  0.36131600  0.63868400  0.75000000  1
  Lu  Lu2  1  0.91996200  0.08003800  0.11251300  1
  Lu  Lu3  1  0.08003800  0.91996200  0.88748700  1
  Lu  Lu4  1  0.08003800  0.91996200  0.61251300  1
  Lu  Lu5  1  0.91996200  0.08003800  0.38748700  1
  Co  Co6  1  0.78688700  0.21311300  0.58266900  1
  Co  Co7  1  0.21311300  0.78688700  0.41733100  1
  Co  Co8  1  0.21311300  0.78688700  0.08266900  1
  Co  Co9  1  0.78688700  0.21311300  0.91733100  1
  Si  Si10  1  0.33292900  0.66707100  0.25000000  1
  Si  Si11  1  0.66707100  0.33292900  0.75000000  1
  Si  Si12  1  0.61715800  0.38284200  0.03926900  1
  Si  Si13  1  0.38284200  0.61715800  0.96073100  1
  Si  Si14  1  0.38284200  0.61715800  0.53926900  1
  Si  Si15  1  0.61715800  0.38284200  0.46073100  1
