# generated using pymatgen
data_KGaGeO4
_symmetry_space_group_name_H-M   'P 1'
_cell_length_a   8.78912392
_cell_length_b   18.90340914
_cell_length_c   18.90340915
_cell_angle_alpha   120.00000005
_cell_angle_beta   90.00000000
_cell_angle_gamma   90.00000000
_symmetry_Int_Tables_number   1
_chemical_formula_structural   KGaGeO4
_chemical_formula_sum   'K24 Ga24 Ge24 O96'
_cell_volume   2719.92223751
_cell_formula_units_Z   24
loop_
 _symmetry_equiv_pos_site_id
 _symmetry_equiv_pos_as_xyz
  1  'x, y, z'
loop_
 _atom_site_type_symbol
 _atom_site_label
 _atom_site_symmetry_multiplicity
 _atom_site_fract_x
 _atom_site_fract_y
 _atom_site_fract_z
 _atom_site_occupancy
  K  K0  1  0.98351009  0.99599142  0.52557896  1
  K  K1  1  0.98351009  0.52958753  0.00400858  1
  K  K2  1  0.48351009  0.00400858  0.47442104  1
  K  K3  1  0.98351009  0.47442104  0.47041247  1
  K  K4  1  0.48351009  0.47041247  0.99599142  1
  K  K5  1  0.48351009  0.52557896  0.52958753  1
  K  K6  1  0.98335291  0.66666700  0.33333300  1
  K  K7  1  0.48335291  0.33333300  0.66666700  1
  K  K8  1  0.98052967  0.80252622  0.13365686  1
  K  K9  1  0.98052967  0.33113064  0.19747378  1
  K  K10  1  0.48052967  0.19747378  0.86634314  1
  K  K11  1  0.98052967  0.86634314  0.66886936  1
  K  K12  1  0.48052967  0.66886936  0.80252622  1
  K  K13  1  0.48052967  0.13365686  0.33113064  1
  K  K14  1  0.47631942  0.66666700  0.33333300  1
  K  K15  1  0.97631942  0.33333300  0.66666700  1
  K  K16  1  0.97999541  0.66947948  0.85569300  1
  K  K17  1  0.97999541  0.18621352  0.33052052  1
  K  K18  1  0.47999541  0.33052052  0.14430700  1
  K  K19  1  0.97999541  0.14430700  0.81378648  1
  K  K20  1  0.47999541  0.81378648  0.66947948  1
  K  K21  1  0.47999541  0.85569300  0.18621352  1
  K  K22  1  0.99330433  -0.00000000  0.00000000  1
  K  K23  1  0.49330433  -0.00000000  0.00000000  1
  Ga  Ga24  1  0.68567344  0.50226780  0.82453036  1
  Ga  Ga25  1  0.68567344  0.32226255  0.49773220  1
  Ga  Ga26  1  0.18567344  0.49773220  0.17546964  1
  Ga  Ga27  1  0.68567344  0.17546964  0.67773745  1
  Ga  Ga28  1  0.18567344  0.67773745  0.50226780  1
  Ga  Ga29  1  0.18567344  0.82453036  0.32226255  1
  Ga  Ga30  1  0.68521510  0.65278767  0.16508714  1
  Ga  Ga31  1  0.68521510  0.51229947  0.34721233  1
  Ga  Ga32  1  0.18521510  0.34721233  0.83491286  1
  Ga  Ga33  1  0.68521510  0.83491286  0.48770053  1
  Ga  Ga34  1  0.18521510  0.48770053  0.65278767  1
  Ga  Ga35  1  0.18521510  0.16508714  0.51229947  1
  Ga  Ga36  1  0.78887727  0.66903640  0.66976036  1
  Ga  Ga37  1  0.78887727  0.00072396  0.33096360  1
  Ga  Ga38  1  0.28887727  0.33096360  0.33023964  1
  Ga  Ga39  1  0.78887727  0.33023964  0.99927604  1
  Ga  Ga40  1  0.28887727  0.99927604  0.66903640  1
  Ga  Ga41  1  0.28887727  0.66976036  0.00072396  1
  Ga  Ga42  1  0.66286566  0.83110984  0.99327881  1
  Ga  Ga43  1  0.66286566  0.16216897  0.16889016  1
  Ga  Ga44  1  0.16286566  0.16889016  0.00672119  1
  Ga  Ga45  1  0.66286566  0.00672119  0.83783103  1
  Ga  Ga46  1  0.16286566  0.83783103  0.83110984  1
  Ga  Ga47  1  0.16286566  0.99327881  0.16216897  1
  Ge  Ge48  1  0.80226212  0.82492611  0.31948626  1
  Ge  Ge49  1  0.80226212  0.49456015  0.17507389  1
  Ge  Ge50  1  0.30226212  0.17507389  0.68051374  1
  Ge  Ge51  1  0.80226212  0.68051374  0.50543985  1
  Ge  Ge52  1  0.30226212  0.50543985  0.82492611  1
  Ge  Ge53  1  0.30226212  0.31948626  0.49456015  1
  Ge  Ge54  1  0.77968946  0.99272396  0.15859486  1
  Ge  Ge55  1  0.77968946  0.16587089  0.00727604  1
  Ge  Ge56  1  0.27968946  0.00727604  0.84140514  1
  Ge  Ge57  1  0.77968946  0.84140514  0.83412911  1
  Ge  Ge58  1  0.27968946  0.83412911  0.99272396  1
  Ge  Ge59  1  0.27968946  0.15859486  0.16587089  1
  Ge  Ge60  1  0.68775248  0.66742576  0.00361765  1
  Ge  Ge61  1  0.68775248  0.33619189  0.33257424  1
  Ge  Ge62  1  0.18775248  0.33257424  0.99638235  1
  Ge  Ge63  1  0.68775248  0.99638235  0.66380811  1
  Ge  Ge64  1  0.18775248  0.66380811  0.66742576  1
  Ge  Ge65  1  0.18775248  0.00361765  0.33619189  1
  Ge  Ge66  1  0.80124544  0.49311794  0.65636627  1
  Ge  Ge67  1  0.80124544  0.16324833  0.50688206  1
  Ge  Ge68  1  0.30124544  0.50688206  0.34363373  1
  Ge  Ge69  1  0.80124544  0.34363373  0.83675167  1
  Ge  Ge70  1  0.30124544  0.83675167  0.49311794  1
  Ge  Ge71  1  0.30124544  0.65636627  0.16324833  1
  O  O72  1  0.76676889  0.73842743  0.97837184  1
  O  O73  1  0.76676889  0.23994441  0.26157257  1
  O  O74  1  0.26676889  0.26157257  0.02162816  1
  O  O75  1  0.76676889  0.02162816  0.76005559  1
  O  O76  1  0.26676889  0.76005559  0.73842743  1
  O  O77  1  0.26676889  0.97837184  0.23994441  1
  O  O78  1  0.74948739  0.56729889  0.93240599  1
  O  O79  1  0.74948739  0.36510711  0.43270111  1
  O  O80  1  0.24948739  0.43270111  0.06759401  1
  O  O81  1  0.74948739  0.06759401  0.63489289  1
  O  O82  1  0.24948739  0.63489289  0.56729889  1
  O  O83  1  0.24948739  0.93240599  0.36510711  1
  O  O84  1  0.76329061  0.69269764  0.10046645  1
  O  O85  1  0.76329061  0.40776881  0.30730236  1
  O  O86  1  0.26329061  0.30730236  0.89953355  1
  O  O87  1  0.76329061  0.89953355  0.59223119  1
  O  O88  1  0.26329061  0.59223119  0.69269764  1
  O  O89  1  0.26329061  0.10046645  0.40776881  1
  O  O90  1  0.70905844  0.56594684  0.63750631  1
  O  O91  1  0.70905844  0.07155947  0.43405316  1
  O  O92  1  0.20905844  0.43405316  0.36249369  1
  O  O93  1  0.70905844  0.36249369  0.92844053  1
  O  O94  1  0.20905844  0.92844053  0.56594684  1
  O  O95  1  0.20905844  0.63750631  0.07155947  1
  O  O96  1  0.70178374  0.73125469  0.27468221  1
  O  O97  1  0.70178374  0.54342753  0.26874531  1
  O  O98  1  0.20178374  0.26874531  0.72531779  1
  O  O99  1  0.70178374  0.72531779  0.45657247  1
  O  O100  1  0.20178374  0.45657247  0.73125469  1
  O  O101  1  0.20178374  0.27468221  0.54342753  1
  O  O102  1  0.96579782  0.95064190  0.14129921  1
  O  O103  1  0.96579782  0.19065731  0.04935810  1
  O  O104  1  0.46579782  0.04935810  0.85870079  1
  O  O105  1  0.96579782  0.85870079  0.80934269  1
  O  O106  1  0.46579782  0.80934269  0.95064190  1
  O  O107  1  0.46579782  0.14129921  0.19065731  1
  O  O108  1  0.72048657  0.73796401  0.77583650  1
  O  O109  1  0.72048657  0.03787250  0.26203599  1
  O  O110  1  0.22048657  0.26203599  0.22416350  1
  O  O111  1  0.72048657  0.22416350  0.96212750  1
  O  O112  1  0.22048657  0.96212750  0.73796401  1
  O  O113  1  0.22048657  0.77583650  0.03787250  1
  O  O114  1  0.77201553  0.87406388  0.93949624  1
  O  O115  1  0.77201553  0.06543236  0.12593612  1
  O  O116  1  0.27201553  0.12593612  0.06050376  1
  O  O117  1  0.77201553  0.06050376  0.93456764  1
  O  O118  1  0.27201553  0.93456764  0.87406388  1
  O  O119  1  0.27201553  0.93949624  0.06543236  1
  O  O120  1  0.80512815  0.86562034  0.42618167  1
  O  O121  1  0.80512815  0.56056133  0.13437966  1
  O  O122  1  0.30512815  0.13437966  0.57381833  1
  O  O123  1  0.80512815  0.57381833  0.43943867  1
  O  O124  1  0.30512815  0.43943867  0.86562034  1
  O  O125  1  0.30512815  0.42618167  0.56056133  1
  O  O126  1  0.98671489  0.46956889  0.61347004  1
  O  O127  1  0.98671489  0.14390115  0.53043111  1
  O  O128  1  0.48671489  0.53043111  0.38652996  1
  O  O129  1  0.98671489  0.38652996  0.85609885  1
  O  O130  1  0.48671489  0.85609885  0.46956889  1
  O  O131  1  0.48671489  0.61347004  0.14390115  1
  O  O132  1  0.99299143  0.66456734  0.68032972  1
  O  O133  1  0.99299143  0.01576238  0.33543266  1
  O  O134  1  0.49299143  0.33543266  0.31967028  1
  O  O135  1  0.99299143  0.31967028  0.98423762  1
  O  O136  1  0.49299143  0.98423762  0.66456734  1
  O  O137  1  0.49299143  0.68032972  0.01576238  1
  O  O138  1  0.65101070  0.91107169  0.10217354  1
  O  O139  1  0.65101070  0.19110185  0.08892831  1
  O  O140  1  0.15101070  0.08892831  0.89782646  1
  O  O141  1  0.65101070  0.89782646  0.80889815  1
  O  O142  1  0.15101070  0.80889815  0.91107169  1
  O  O143  1  0.15101070  0.10217354  0.19110185  1
  O  O144  1  0.81194712  0.52933733  0.76259434  1
  O  O145  1  0.81194712  0.23325702  0.47066267  1
  O  O146  1  0.31194712  0.47066267  0.23740566  1
  O  O147  1  0.81194712  0.23740566  0.76674298  1
  O  O148  1  0.31194712  0.76674298  0.52933733  1
  O  O149  1  0.31194712  0.76259434  0.23325702  1
  O  O150  1  0.69701200  0.40035025  0.60783447  1
  O  O151  1  0.69701200  0.20748422  0.59964975  1
  O  O152  1  0.19701200  0.59964975  0.39216553  1
  O  O153  1  0.69701200  0.39216553  0.79251578  1
  O  O154  1  0.19701200  0.79251578  0.40035025  1
  O  O155  1  0.19701200  0.60783447  0.20748422  1
  O  O156  1  0.98994408  0.80389473  0.27962931  1
  O  O157  1  0.98994408  0.47573458  0.19610527  1
  O  O158  1  0.48994408  0.19610527  0.72037069  1
  O  O159  1  0.98994408  0.72037069  0.52426542  1
  O  O160  1  0.48994408  0.52426542  0.80389473  1
  O  O161  1  0.48994408  0.27962931  0.47573458  1
  O  O162  1  0.71718759  0.89574298  0.29508295  1
  O  O163  1  0.71718759  0.39933997  0.10425702  1
  O  O164  1  0.21718759  0.10425702  0.70491705  1
  O  O165  1  0.71718759  0.70491705  0.60066003  1
  O  O166  1  0.21718759  0.60066003  0.89574298  1
  O  O167  1  0.21718759  0.29508295  0.39933997  1
