# generated using pymatgen
data_NdCuO3
_symmetry_space_group_name_H-M   'P 1'
_cell_length_a   5.39519000
_cell_length_b   6.50183900
_cell_length_c   7.18464600
_cell_angle_alpha   90.00000000
_cell_angle_beta   90.00000000
_cell_angle_gamma   90.00000000
_symmetry_Int_Tables_number   1
_chemical_formula_structural   NdCuO3
_chemical_formula_sum   'Nd4 Cu4 O12'
_cell_volume   252.02773094
_cell_formula_units_Z   4
loop_
 _symmetry_equiv_pos_site_id
 _symmetry_equiv_pos_as_xyz
  1  'x, y, z'
loop_
 _atom_site_type_symbol
 _atom_site_label
 _atom_site_symmetry_multiplicity
 _atom_site_fract_x
 _atom_site_fract_y
 _atom_site_fract_z
 _atom_site_occupancy
  Nd  Nd0  1  0.97386700  0.89569300  0.75000000  1
  Nd  Nd1  1  0.02613300  0.10430700  0.25000000  1
  Nd  Nd2  1  0.47386700  0.60430700  0.25000000  1
  Nd  Nd3  1  0.52613300  0.39569300  0.75000000  1
  Cu  Cu4  1  0.50000000  0.00000000  0.50000000  1
  Cu  Cu5  1  0.00000000  0.50000000  0.50000000  1
  Cu  Cu6  1  0.50000000  0.00000000  0.00000000  1
  Cu  Cu7  1  0.00000000  0.50000000  0.00000000  1
  O  O8  1  0.10916500  0.53723100  0.75000000  1
  O  O9  1  0.21540400  0.84428500  0.04548500  1
  O  O10  1  0.21540400  0.84428500  0.45451500  1
  O  O11  1  0.28459600  0.34428500  0.04548500  1
  O  O12  1  0.28459600  0.34428500  0.45451500  1
  O  O13  1  0.39083500  0.03723100  0.75000000  1
  O  O14  1  0.60916500  0.96276900  0.25000000  1
  O  O15  1  0.71540400  0.65571500  0.54548500  1
  O  O16  1  0.71540400  0.65571500  0.95451500  1
  O  O17  1  0.78459600  0.15571500  0.54548500  1
  O  O18  1  0.78459600  0.15571500  0.95451500  1
  O  O19  1  0.89083500  0.46276900  0.25000000  1
