# generated using pymatgen
data_Cs2ZnBi2S5
_symmetry_space_group_name_H-M   'P 1'
_cell_length_a   4.15067500
_cell_length_b   16.04347000
_cell_length_c   18.49327300
_cell_angle_alpha   90.00000000
_cell_angle_beta   90.00000000
_cell_angle_gamma   90.00000000
_symmetry_Int_Tables_number   1
_chemical_formula_structural   Cs2ZnBi2S5
_chemical_formula_sum   'Cs8 Zn4 Bi8 S20'
_cell_volume   1231.48979288
_cell_formula_units_Z   4
loop_
 _symmetry_equiv_pos_site_id
 _symmetry_equiv_pos_as_xyz
  1  'x, y, z'
loop_
 _atom_site_type_symbol
 _atom_site_label
 _atom_site_symmetry_multiplicity
 _atom_site_fract_x
 _atom_site_fract_y
 _atom_site_fract_z
 _atom_site_occupancy
  Cs  Cs0  1  0.25000000  0.00640700  0.37826100  1
  Cs  Cs1  1  0.25000000  0.50640700  0.12173900  1
  Cs  Cs2  1  0.75000000  0.99359300  0.62173900  1
  Cs  Cs3  1  0.75000000  0.49359300  0.87826100  1
  Cs  Cs4  1  0.25000000  0.46077900  0.61895100  1
  Cs  Cs5  1  0.25000000  0.96077900  0.88104900  1
  Cs  Cs6  1  0.75000000  0.53922100  0.38104900  1
  Cs  Cs7  1  0.75000000  0.03922100  0.11895100  1
  Zn  Zn8  1  0.25000000  0.20570000  0.64434500  1
  Zn  Zn9  1  0.25000000  0.70570000  0.85565500  1
  Zn  Zn10  1  0.75000000  0.79430000  0.35565500  1
  Zn  Zn11  1  0.75000000  0.29430000  0.14434500  1
  Bi  Bi12  1  0.25000000  0.25028800  0.98274600  1
  Bi  Bi13  1  0.25000000  0.75028800  0.51725400  1
  Bi  Bi14  1  0.75000000  0.74971200  0.01725400  1
  Bi  Bi15  1  0.75000000  0.24971200  0.48274600  1
  Bi  Bi16  1  0.25000000  0.29153500  0.30093900  1
  Bi  Bi17  1  0.25000000  0.79153500  0.19906100  1
  Bi  Bi18  1  0.75000000  0.70846500  0.69906100  1
  Bi  Bi19  1  0.75000000  0.20846500  0.80093900  1
  S  S20  1  0.25000000  0.10872500  0.74291200  1
  S  S21  1  0.25000000  0.60872500  0.75708800  1
  S  S22  1  0.75000000  0.89127500  0.25708800  1
  S  S23  1  0.75000000  0.39127500  0.24291200  1
  S  S24  1  0.25000000  0.14298800  0.52868200  1
  S  S25  1  0.25000000  0.64298800  0.97131800  1
  S  S26  1  0.75000000  0.85701200  0.47131800  1
  S  S27  1  0.75000000  0.35701200  0.02868200  1
  S  S28  1  0.25000000  0.21520000  0.15655100  1
  S  S29  1  0.25000000  0.71520000  0.34344900  1
  S  S30  1  0.75000000  0.78480000  0.84344900  1
  S  S31  1  0.75000000  0.28480000  0.65655100  1
  S  S32  1  0.25000000  0.31797200  0.85224100  1
  S  S33  1  0.25000000  0.81797200  0.64775900  1
  S  S34  1  0.75000000  0.68202800  0.14775900  1
  S  S35  1  0.75000000  0.18202800  0.35224100  1
  S  S36  1  0.25000000  0.36578500  0.43695500  1
  S  S37  1  0.25000000  0.86578500  0.06304500  1
  S  S38  1  0.75000000  0.63421500  0.56304500  1
  S  S39  1  0.75000000  0.13421500  0.93695500  1
