# generated using pymatgen
data_Na2LuC2O6F
_symmetry_space_group_name_H-M   'P 1'
_cell_length_a   9.25377133
_cell_length_b   9.25377133
_cell_length_c   11.29741355
_cell_angle_alpha   86.42360588
_cell_angle_beta   86.42360588
_cell_angle_gamma   38.41972525
_symmetry_Int_Tables_number   1
_chemical_formula_structural   Na2LuC2O6F
_chemical_formula_sum   'Na8 Lu4 C8 O24 F4'
_cell_volume   599.86075797
_cell_formula_units_Z   4
loop_
 _symmetry_equiv_pos_site_id
 _symmetry_equiv_pos_as_xyz
  1  'x, y, z'
loop_
 _atom_site_type_symbol
 _atom_site_label
 _atom_site_symmetry_multiplicity
 _atom_site_fract_x
 _atom_site_fract_y
 _atom_site_fract_z
 _atom_site_occupancy
  Na  Na0  1  0.48347600  0.29429000  0.88202500  1
  Na  Na1  1  0.70571000  0.51652400  0.61797500  1
  Na  Na2  1  0.51652400  0.70571000  0.11797500  1
  Na  Na3  1  0.29429000  0.48347600  0.38202500  1
  Na  Na4  1  0.83303100  0.64842300  0.85854300  1
  Na  Na5  1  0.35157700  0.16696900  0.64145700  1
  Na  Na6  1  0.16696900  0.35157700  0.14145700  1
  Na  Na7  1  0.64842300  0.83303100  0.35854300  1
  Lu  Lu8  1  0.09370500  0.78493100  0.62975000  1
  Lu  Lu9  1  0.21506900  0.90629500  0.87025000  1
  Lu  Lu10  1  0.90629500  0.21506900  0.37025000  1
  Lu  Lu11  1  0.78493100  0.09370500  0.12975000  1
  C  C12  1  0.64046500  0.23498000  0.61587500  1
  C  C13  1  0.76502000  0.35953500  0.88412500  1
  C  C14  1  0.35953500  0.76502000  0.38412500  1
  C  C15  1  0.23498000  0.64046500  0.11587500  1
  C  C16  1  0.87435100  0.71273700  0.58059900  1
  C  C17  1  0.28726300  0.12564900  0.91940100  1
  C  C18  1  0.12564900  0.28726300  0.41940100  1
  C  C19  1  0.71273700  0.87435100  0.08059900  1
  O  O20  1  0.42817600  0.42054200  0.58601200  1
  O  O21  1  0.57945800  0.57182400  0.91398800  1
  O  O22  1  0.57182400  0.57945800  0.41398800  1
  O  O23  1  0.42054200  0.42817600  0.08601200  1
  O  O24  1  0.69823300  0.09533900  0.69963300  1
  O  O25  1  0.90466100  0.30176700  0.80036700  1
  O  O26  1  0.30176700  0.90466100  0.30036700  1
  O  O27  1  0.09533900  0.69823300  0.19963300  1
  O  O28  1  0.18839200  0.82518600  0.43722200  1
  O  O29  1  0.17481400  0.81160800  0.06277800  1
  O  O30  1  0.81160800  0.17481400  0.56277800  1
  O  O31  1  0.82518600  0.18839200  0.93722200  1
  O  O32  1  0.99735800  0.61513400  0.67746200  1
  O  O33  1  0.38486600  0.00264200  0.82253800  1
  O  O34  1  0.00264200  0.38486600  0.32253800  1
  O  O35  1  0.61513400  0.99735800  0.17746200  1
  O  O36  1  0.92752100  0.77380400  0.49858000  1
  O  O37  1  0.22619600  0.07247900  0.00142000  1
  O  O38  1  0.07247900  0.22619600  0.50142000  1
  O  O39  1  0.77380400  0.92752100  0.99858000  1
  O  O40  1  0.70809900  0.75474200  0.56736400  1
  O  O41  1  0.24525800  0.29190100  0.93263600  1
  O  O42  1  0.29190100  0.24525800  0.43263600  1
  O  O43  1  0.75474200  0.70809900  0.06736400  1
  F  F44  1  0.17932900  0.70525300  0.81894000  1
  F  F45  1  0.29474700  0.82067100  0.68106000  1
  F  F46  1  0.82067100  0.29474700  0.18106000  1
  F  F47  1  0.70525300  0.17932900  0.31894000  1
