# generated using pymatgen
data_Er7CoI12
_symmetry_space_group_name_H-M   'P 1'
_cell_length_a   9.66407109
_cell_length_b   9.66407109
_cell_length_c   9.66407051
_cell_angle_alpha   106.83289317
_cell_angle_beta   106.83289317
_cell_angle_gamma   106.83289744
_symmetry_Int_Tables_number   1
_chemical_formula_structural   Er7CoI12
_chemical_formula_sum   'Er7 Co1 I12'
_cell_volume   755.06817946
_cell_formula_units_Z   1
loop_
 _symmetry_equiv_pos_site_id
 _symmetry_equiv_pos_as_xyz
  1  'x, y, z'
loop_
 _atom_site_type_symbol
 _atom_site_label
 _atom_site_symmetry_multiplicity
 _atom_site_fract_x
 _atom_site_fract_y
 _atom_site_fract_z
 _atom_site_occupancy
  Er  Er0  1  0.50000000  0.50000000  0.50000000  1
  Er  Er1  1  0.28508100  0.09038200  0.02148500  1
  Er  Er2  1  0.02148500  0.28508100  0.09038200  1
  Er  Er3  1  0.09038200  0.02148500  0.28508100  1
  Er  Er4  1  0.71491900  0.90961800  0.97851500  1
  Er  Er5  1  0.97851500  0.71491900  0.90961800  1
  Er  Er6  1  0.90961800  0.97851500  0.71491900  1
  Co  Co7  1  0.00000000  0.00000000  0.00000000  1
  I  I8  1  0.46339900  0.16125700  0.38688200  1
  I  I9  1  0.38688200  0.46339900  0.16125700  1
  I  I10  1  0.16125700  0.38688200  0.46339900  1
  I  I11  1  0.53660100  0.83874300  0.61311800  1
  I  I12  1  0.61311800  0.53660100  0.83874300  1
  I  I13  1  0.83874300  0.61311800  0.53660100  1
  I  I14  1  0.32332000  0.77581100  0.92930700  1
  I  I15  1  0.92930700  0.32332000  0.77581100  1
  I  I16  1  0.77581100  0.92930700  0.32332000  1
  I  I17  1  0.67668000  0.22418900  0.07069300  1
  I  I18  1  0.07069300  0.67668000  0.22418900  1
  I  I19  1  0.22418900  0.07069300  0.67668000  1
