# generated using pymatgen
data_Tl5Sb10As3S22
_symmetry_space_group_name_H-M   'P 1'
_cell_length_a   7.65609811
_cell_length_b   8.86158672
_cell_length_c   17.99660658
_cell_angle_alpha   103.46539513
_cell_angle_beta   91.46618934
_cell_angle_gamma   109.77051555
_symmetry_Int_Tables_number   1
_chemical_formula_structural   Tl5Sb10As3S22
_chemical_formula_sum   'Tl5 Sb10 As3 S22'
_cell_volume   1110.13886312
_cell_formula_units_Z   1
loop_
 _symmetry_equiv_pos_site_id
 _symmetry_equiv_pos_as_xyz
  1  'x, y, z'
loop_
 _atom_site_type_symbol
 _atom_site_label
 _atom_site_symmetry_multiplicity
 _atom_site_fract_x
 _atom_site_fract_y
 _atom_site_fract_z
 _atom_site_occupancy
  Tl  Tl0  1  0.68354300  0.75103400  0.62299400  1
  Tl  Tl1  1  0.31610100  0.25118400  0.37792900  1
  Tl  Tl2  1  0.22926600  0.64717000  0.18520000  1
  Tl  Tl3  1  0.76872500  0.35805100  0.81469200  1
  Tl  Tl4  1  0.79791100  0.93201800  0.97529300  1
  Sb  Sb5  1  0.28642400  0.77868900  0.81086600  1
  Sb  Sb6  1  0.71047000  0.22288300  0.19143200  1
  Sb  Sb7  1  0.16670700  0.79754600  0.59600400  1
  Sb  Sb8  1  0.83887100  0.20583700  0.40524200  1
  Sb  Sb9  1  0.41401300  0.79489400  0.41179700  1
  Sb  Sb10  1  0.57824200  0.20380400  0.58925600  1
  Sb  Sb11  1  0.76162200  0.82453100  0.20835300  1
  Sb  Sb12  1  0.24124800  0.18138900  0.79778800  1
  Sb  Sb13  1  0.31424100  0.07075400  0.01809700  1
  Sb  Sb14  1  0.86406300  0.67142500  0.39284600  1
  As  As15  1  0.13917300  0.33274700  0.61870100  1
  As  As16  1  0.26350100  0.54822300  0.96722200  1
  As  As17  1  0.75051500  0.44524300  0.02896200  1
  S  S18  1  0.91308600  0.71944500  0.09177000  1
  S  S19  1  0.07139400  0.27331000  0.90834200  1
  S  S20  1  0.44402100  0.96345200  0.68892600  1
  S  S21  1  0.56545000  0.04032200  0.30949800  1
  S  S22  1  0.48472500  0.38079500  0.08955900  1
  S  S23  1  0.49848200  0.58353400  0.89679200  1
  S  S24  1  0.01429400  0.85820000  0.30839900  1
  S  S25  1  0.99588900  0.14929100  0.68963600  1
  S  S26  1  0.09184400  0.68451600  0.91561200  1
  S  S27  1  0.91552200  0.32366700  0.08794500  1
  S  S28  1  0.05203300  0.55015500  0.67983900  1
  S  S29  1  0.96365500  0.44463200  0.32224600  1
  S  S30  1  0.54507500  0.57736600  0.32754200  1
  S  S31  1  0.44327700  0.41965900  0.67054000  1
  S  S32  1  0.71878800  0.96510900  0.48781800  1
  S  S33  1  0.27505900  0.03190500  0.51206100  1
  S  S34  1  0.48249100  0.94755400  0.09314400  1
  S  S35  1  0.49762500  0.07817600  0.90763000  1
  S  S36  1  0.69417100  0.38417700  0.49091000  1
  S  S37  1  0.30622700  0.61653200  0.50799500  1
  S  S38  1  0.03042000  0.89409700  0.79532300  1
  S  S39  1  0.96193700  0.10048500  0.19690100  1
