# generated using pymatgen
data_Ti2Rh
_symmetry_space_group_name_H-M   'P 1'
_cell_length_a   5.38775841
_cell_length_b   5.38775841
_cell_length_c   5.38775841
_cell_angle_alpha   146.87052351
_cell_angle_beta   146.87052351
_cell_angle_gamma   47.55553160
_symmetry_Int_Tables_number   1
_chemical_formula_structural   Ti2Rh
_chemical_formula_sum   'Ti2 Rh1'
_cell_volume   46.53187253
_cell_formula_units_Z   1
loop_
 _symmetry_equiv_pos_site_id
 _symmetry_equiv_pos_as_xyz
  1  'x, y, z'
loop_
 _atom_site_type_symbol
 _atom_site_label
 _atom_site_symmetry_multiplicity
 _atom_site_fract_x
 _atom_site_fract_y
 _atom_site_fract_z
 _atom_site_occupancy
  Ti  Ti0  1  0.66176900  0.66176900  0.00000000  1
  Ti  Ti1  1  0.33823100  0.33823100  0.00000000  1
  Rh  Rh2  1  0.00000000  0.00000000  0.00000000  1
