# generated using pymatgen
data_U8CoSe17
_symmetry_space_group_name_H-M   'P 1'
_cell_length_a   8.16104463
_cell_length_b   8.16104463
_cell_length_c   10.78221049
_cell_angle_alpha   79.98185660
_cell_angle_beta   79.98185660
_cell_angle_gamma   64.34322483
_symmetry_Int_Tables_number   1
_chemical_formula_structural   U8CoSe17
_chemical_formula_sum   'U8 Co1 Se17'
_cell_volume   633.50182807
_cell_formula_units_Z   1
loop_
 _symmetry_equiv_pos_site_id
 _symmetry_equiv_pos_as_xyz
  1  'x, y, z'
loop_
 _atom_site_type_symbol
 _atom_site_label
 _atom_site_symmetry_multiplicity
 _atom_site_fract_x
 _atom_site_fract_y
 _atom_site_fract_z
 _atom_site_occupancy
  U  U0  1  0.18026900  0.69682600  0.70268800  1
  U  U1  1  0.69682600  0.18026900  0.70268800  1
  U  U2  1  0.81973100  0.30317400  0.29731200  1
  U  U3  1  0.30317400  0.81973100  0.29731200  1
  U  U4  1  0.20015200  0.20015200  0.54519700  1
  U  U5  1  0.79984800  0.79984800  0.45480300  1
  U  U6  1  0.67981400  0.67981400  0.98696900  1
  U  U7  1  0.32018600  0.32018600  0.01303100  1
  Co  Co8  1  0.00000000  0.00000000  0.00000000  1
  Se  Se9  1  0.81772900  0.43577600  0.53622300  1
  Se  Se10  1  0.43577600  0.81772900  0.53622300  1
  Se  Se11  1  0.18227100  0.56422400  0.46377700  1
  Se  Se12  1  0.56422400  0.18227100  0.46377700  1
  Se  Se13  1  0.05358000  0.68095600  0.97449300  1
  Se  Se14  1  0.68095600  0.05358000  0.97449300  1
  Se  Se15  1  0.94642000  0.31904400  0.02550700  1
  Se  Se16  1  0.31904400  0.94642000  0.02550700  1
  Se  Se17  1  0.05403000  0.05403000  0.77819900  1
  Se  Se18  1  0.94597000  0.94597000  0.22180100  1
  Se  Se19  1  0.21531000  0.21531000  0.27724000  1
  Se  Se20  1  0.78469000  0.78469000  0.72276000  1
  Se  Se21  1  0.29841500  0.29841500  0.75614300  1
  Se  Se22  1  0.70158500  0.70158500  0.24385700  1
  Se  Se23  1  0.52129100  0.52129100  0.83035500  1
  Se  Se24  1  0.47870900  0.47870900  0.16964500  1
  Se  Se25  1  0.00000000  0.00000000  0.50000000  1
