# generated using pymatgen
data_CaTiCr(PO4)3
_symmetry_space_group_name_H-M   'P 1'
_cell_length_a   8.85139971
_cell_length_b   8.85140065
_cell_length_c   8.85139965
_cell_angle_alpha   58.39114266
_cell_angle_beta   58.39114198
_cell_angle_gamma   58.39115109
_symmetry_Int_Tables_number   1
_chemical_formula_structural   CaTiCr(PO4)3
_chemical_formula_sum   'Ca2 Ti2 Cr2 P6 O24'
_cell_volume   472.30822371
_cell_formula_units_Z   2
loop_
 _symmetry_equiv_pos_site_id
 _symmetry_equiv_pos_as_xyz
  1  'x, y, z'
loop_
 _atom_site_type_symbol
 _atom_site_label
 _atom_site_symmetry_multiplicity
 _atom_site_fract_x
 _atom_site_fract_y
 _atom_site_fract_z
 _atom_site_occupancy
  Ca  Ca0  1  0.99832500  0.99832500  0.99832500  1
  Ca  Ca1  1  0.49832500  0.49832500  0.49832500  1
  Ti  Ti2  1  0.14739800  0.14739800  0.14739800  1
  Ti  Ti3  1  0.64739800  0.64739800  0.64739800  1
  Cr  Cr4  1  0.35423600  0.35423600  0.35423600  1
  Cr  Cr5  1  0.85423600  0.85423600  0.85423600  1
  P  P6  1  0.04021500  0.46145800  0.75061200  1
  P  P7  1  0.46145800  0.75061200  0.04021500  1
  P  P8  1  0.75061200  0.04021500  0.46145800  1
  P  P9  1  0.25061200  0.96145800  0.54021500  1
  P  P10  1  0.54021500  0.25061200  0.96145800  1
  P  P11  1  0.96145800  0.54021500  0.25061200  1
  O  O12  1  0.12162500  0.50874100  0.29453100  1
  O  O13  1  0.29453100  0.12162500  0.50874100  1
  O  O14  1  0.05678700  0.27222800  0.92193500  1
  O  O15  1  0.50874100  0.29453100  0.12162500  1
  O  O16  1  0.00874100  0.62162500  0.79453100  1
  O  O17  1  0.22658200  0.43617800  0.58194900  1
  O  O18  1  0.27222800  0.92193500  0.05678700  1
  O  O19  1  0.43617800  0.58194900  0.22658200  1
  O  O20  1  0.20580900  0.99957600  0.37181200  1
  O  O21  1  0.58194900  0.22658200  0.43617800  1
  O  O22  1  0.08194900  0.93617800  0.72658200  1
  O  O23  1  0.37181200  0.20580900  0.99957600  1
  O  O24  1  0.62162500  0.79453100  0.00874100  1
  O  O25  1  0.92193500  0.05678700  0.27222800  1
  O  O26  1  0.42193500  0.77222800  0.55678700  1
  O  O27  1  0.79453100  0.00874100  0.62162500  1
  O  O28  1  0.55678700  0.42193500  0.77222800  1
  O  O29  1  0.72658200  0.08194900  0.93617800  1
  O  O30  1  0.77222800  0.55678700  0.42193500  1
  O  O31  1  0.99957600  0.37181200  0.20580900  1
  O  O32  1  0.49957600  0.70580900  0.87181200  1
  O  O33  1  0.93617800  0.72658200  0.08194900  1
  O  O34  1  0.70580900  0.87181200  0.49957600  1
  O  O35  1  0.87181200  0.49957600  0.70580900  1
