# generated using pymatgen
data_Ni21(B3Sb)2
_symmetry_space_group_name_H-M   'P 1'
_cell_length_a   7.48085740
_cell_length_b   7.48085740
_cell_length_c   7.48085740
_cell_angle_alpha   60.00000000
_cell_angle_beta   60.00000000
_cell_angle_gamma   60.00000000
_symmetry_Int_Tables_number   1
_chemical_formula_structural   Ni21(B3Sb)2
_chemical_formula_sum   'Ni21 B6 Sb2'
_cell_volume   296.03232217
_cell_formula_units_Z   1
loop_
 _symmetry_equiv_pos_site_id
 _symmetry_equiv_pos_as_xyz
  1  'x, y, z'
loop_
 _atom_site_type_symbol
 _atom_site_label
 _atom_site_symmetry_multiplicity
 _atom_site_fract_x
 _atom_site_fract_y
 _atom_site_fract_z
 _atom_site_occupancy
  Ni  Ni0  1  0.00000000  0.00000000  0.66391000  1
  Ni  Ni1  1  0.61559100  0.61559100  0.15322800  1
  Ni  Ni2  1  0.38440900  0.84677200  0.38440900  1
  Ni  Ni3  1  0.66391000  0.33609000  0.00000000  1
  Ni  Ni4  1  0.00000000  0.33609000  0.66391000  1
  Ni  Ni5  1  0.66391000  0.00000000  0.00000000  1
  Ni  Ni6  1  0.00000000  0.00000000  0.33609000  1
  Ni  Ni7  1  0.00000000  0.33609000  0.00000000  1
  Ni  Ni8  1  0.33609000  0.00000000  0.66391000  1
  Ni  Ni9  1  0.66391000  0.00000000  0.33609000  1
  Ni  Ni10  1  0.33609000  0.00000000  0.00000000  1
  Ni  Ni11  1  0.00000000  0.66391000  0.00000000  1
  Ni  Ni12  1  0.38440900  0.38440900  0.84677200  1
  Ni  Ni13  1  0.00000000  0.66391000  0.33609000  1
  Ni  Ni14  1  0.33609000  0.66391000  0.00000000  1
  Ni  Ni15  1  0.00000000  0.00000000  0.00000000  1
  Ni  Ni16  1  0.61559100  0.15322800  0.61559100  1
  Ni  Ni17  1  0.15322800  0.61559100  0.61559100  1
  Ni  Ni18  1  0.38440900  0.38440900  0.38440900  1
  Ni  Ni19  1  0.84677200  0.38440900  0.38440900  1
  Ni  Ni20  1  0.61559100  0.61559100  0.61559100  1
  B  B21  1  0.72845900  0.72845900  0.27154100  1
  B  B22  1  0.72845900  0.27154100  0.72845900  1
  B  B23  1  0.27154100  0.72845900  0.27154100  1
  B  B24  1  0.72845900  0.27154100  0.27154100  1
  B  B25  1  0.27154100  0.72845900  0.72845900  1
  B  B26  1  0.27154100  0.27154100  0.72845900  1
  Sb  Sb27  1  0.25000000  0.25000000  0.25000000  1
  Sb  Sb28  1  0.75000000  0.75000000  0.75000000  1
