# generated using pymatgen
data_MgMnN2
_symmetry_space_group_name_H-M   'P 1'
_cell_length_a   2.95586000
_cell_length_b   5.20721223
_cell_length_c   14.75886786
_cell_angle_alpha   19.13113526
_cell_angle_beta   90.00000000
_cell_angle_gamma   73.51145447
_symmetry_Int_Tables_number   1
_chemical_formula_structural   MgMnN2
_chemical_formula_sum   'Mg1 Mn1 N2'
_cell_volume   37.22461904
_cell_formula_units_Z   1
loop_
 _symmetry_equiv_pos_site_id
 _symmetry_equiv_pos_as_xyz
  1  'x, y, z'
loop_
 _atom_site_type_symbol
 _atom_site_label
 _atom_site_symmetry_multiplicity
 _atom_site_fract_x
 _atom_site_fract_y
 _atom_site_fract_z
 _atom_site_occupancy
  Mg  Mg0  1  0.00000000  0.00000000  0.00000000  1
  Mn  Mn1  1  0.00000000  0.00000000  0.50000000  1
  N  N2  1  0.00000000  0.00000000  0.75913300  1
  N  N3  1  0.00000000  0.00000000  0.24086700  1
