# generated using pymatgen
data_SiAg6HgSe6
_symmetry_space_group_name_H-M   'P 1'
_cell_length_a   8.03276400
_cell_length_b   7.75196000
_cell_length_c   11.34810400
_cell_angle_alpha   90.00000000
_cell_angle_beta   90.00000000
_cell_angle_gamma   90.00000000
_symmetry_Int_Tables_number   1
_chemical_formula_structural   SiAg6HgSe6
_chemical_formula_sum   'Si2 Ag12 Hg2 Se12'
_cell_volume   706.64263693
_cell_formula_units_Z   2
loop_
 _symmetry_equiv_pos_site_id
 _symmetry_equiv_pos_as_xyz
  1  'x, y, z'
loop_
 _atom_site_type_symbol
 _atom_site_label
 _atom_site_symmetry_multiplicity
 _atom_site_fract_x
 _atom_site_fract_y
 _atom_site_fract_z
 _atom_site_occupancy
  Si  Si0  1  0.50000000  0.74691000  0.02928200  1
  Si  Si1  1  0.00000000  0.25309000  0.52928200  1
  Ag  Ag2  1  0.50000000  0.39259400  0.53905000  1
  Ag  Ag3  1  0.00000000  0.60740600  0.03905000  1
  Ag  Ag4  1  0.73462900  0.49070800  0.77030800  1
  Ag  Ag5  1  0.26537100  0.49070800  0.77030800  1
  Ag  Ag6  1  0.76537100  0.50929200  0.27030800  1
  Ag  Ag7  1  0.23462900  0.50929200  0.27030800  1
  Ag  Ag8  1  0.70889100  0.91334200  0.34754800  1
  Ag  Ag9  1  0.29110900  0.91334200  0.34754800  1
  Ag  Ag10  1  0.79110900  0.08665800  0.84754800  1
  Ag  Ag11  1  0.20889100  0.08665800  0.84754800  1
  Ag  Ag12  1  0.50000000  0.22327700  0.99902400  1
  Ag  Ag13  1  0.00000000  0.77672300  0.49902400  1
  Hg  Hg14  1  0.50000000  0.96871600  0.64007200  1
  Hg  Hg15  1  0.00000000  0.03128400  0.14007200  1
  Se  Se16  1  0.50000000  0.49608800  0.13672900  1
  Se  Se17  1  0.00000000  0.50391200  0.63672900  1
  Se  Se18  1  0.76180100  0.24596700  0.41477500  1
  Se  Se19  1  0.23819900  0.24596700  0.41477500  1
  Se  Se20  1  0.73819900  0.75403300  0.91477500  1
  Se  Se21  1  0.26180100  0.75403300  0.91477500  1
  Se  Se22  1  0.50000000  0.24603900  0.76654300  1
  Se  Se23  1  0.00000000  0.75396100  0.26654300  1
  Se  Se24  1  0.50000000  0.97646900  0.15612700  1
  Se  Se25  1  0.00000000  0.02353100  0.65612700  1
  Se  Se26  1  0.50000000  0.73367700  0.48791100  1
  Se  Se27  1  0.00000000  0.26632300  0.98791100  1
