# generated using pymatgen
data_Tm2Te3
_symmetry_space_group_name_H-M   'P 1'
_cell_length_a   14.38596499
_cell_length_b   13.73155876
_cell_length_c   7.46242485
_cell_angle_alpha   79.51709108
_cell_angle_beta   69.81431443
_cell_angle_gamma   30.66859449
_symmetry_Int_Tables_number   1
_chemical_formula_structural   Tm2Te3
_chemical_formula_sum   'Tm8 Te12'
_cell_volume   685.12173447
_cell_formula_units_Z   4
loop_
 _symmetry_equiv_pos_site_id
 _symmetry_equiv_pos_as_xyz
  1  'x, y, z'
loop_
 _atom_site_type_symbol
 _atom_site_label
 _atom_site_symmetry_multiplicity
 _atom_site_fract_x
 _atom_site_fract_y
 _atom_site_fract_z
 _atom_site_occupancy
  Tm  Tm0  1  0.33262000  0.33262000  0.16738000  1
  Tm  Tm1  1  0.16738000  0.16738000  0.33262000  1
  Tm  Tm2  1  0.91738000  0.91738000  0.08262000  1
  Tm  Tm3  1  0.08262000  0.08262000  0.91738000  1
  Tm  Tm4  1  0.99994200  0.99994200  0.50005800  1
  Tm  Tm5  1  0.50005800  0.50005800  0.99994200  1
  Tm  Tm6  1  0.25005800  0.25005800  0.74994200  1
  Tm  Tm7  1  0.74994200  0.74994200  0.25005800  1
  Te  Te8  1  0.99771500  0.50228500  0.50228500  1
  Te  Te9  1  0.50228500  0.99771500  0.99771500  1
  Te  Te10  1  0.25228500  0.74771500  0.74771500  1
  Te  Te11  1  0.74771500  0.25228500  0.25228500  1
  Te  Te12  1  0.66603800  0.16826800  0.83330800  1
  Te  Te13  1  0.83330800  0.33238600  0.66603800  1
  Te  Te14  1  0.33238600  0.83330800  0.16826800  1
  Te  Te15  1  0.16826800  0.66603800  0.33238600  1
  Te  Te16  1  0.58396200  0.08173200  0.41669200  1
  Te  Te17  1  0.41669200  0.91761400  0.58396200  1
  Te  Te18  1  0.91761400  0.41669200  0.08173200  1
  Te  Te19  1  0.08173200  0.58396200  0.91761400  1
