# generated using pymatgen
data_Eu2Sn
_symmetry_space_group_name_H-M   'P 1'
_cell_length_a   5.41622000
_cell_length_b   7.42528300
_cell_length_c   10.11408900
_cell_angle_alpha   90.00000000
_cell_angle_beta   90.00000000
_cell_angle_gamma   90.00000000
_symmetry_Int_Tables_number   1
_chemical_formula_structural   Eu2Sn
_chemical_formula_sum   'Eu8 Sn4'
_cell_volume   406.75797637
_cell_formula_units_Z   4
loop_
 _symmetry_equiv_pos_site_id
 _symmetry_equiv_pos_as_xyz
  1  'x, y, z'
loop_
 _atom_site_type_symbol
 _atom_site_label
 _atom_site_symmetry_multiplicity
 _atom_site_fract_x
 _atom_site_fract_y
 _atom_site_fract_z
 _atom_site_occupancy
  Eu  Eu0  1  0.25000000  0.68532100  0.57174200  1
  Eu  Eu1  1  0.75000000  0.31467900  0.42825800  1
  Eu  Eu2  1  0.75000000  0.81467900  0.07174200  1
  Eu  Eu3  1  0.25000000  0.18532100  0.92825800  1
  Eu  Eu4  1  0.25000000  0.52883100  0.20402300  1
  Eu  Eu5  1  0.75000000  0.47116900  0.79597700  1
  Eu  Eu6  1  0.75000000  0.97116900  0.70402300  1
  Eu  Eu7  1  0.25000000  0.02883100  0.29597700  1
  Sn  Sn8  1  0.25000000  0.72659400  0.89609000  1
  Sn  Sn9  1  0.75000000  0.27340600  0.10391000  1
  Sn  Sn10  1  0.75000000  0.77340600  0.39609000  1
  Sn  Sn11  1  0.25000000  0.22659400  0.60391000  1
