# generated using pymatgen
data_Tl2Hg3Se4
_symmetry_space_group_name_H-M   'P 1'
_cell_length_a   7.20076817
_cell_length_b   7.20076817
_cell_length_c   13.86994266
_cell_angle_alpha   67.01419697
_cell_angle_beta   67.01419697
_cell_angle_gamma   58.56046733
_symmetry_Int_Tables_number   1
_chemical_formula_structural   Tl2Hg3Se4
_chemical_formula_sum   'Tl4 Hg6 Se8'
_cell_volume   548.66199933
_cell_formula_units_Z   2
loop_
 _symmetry_equiv_pos_site_id
 _symmetry_equiv_pos_as_xyz
  1  'x, y, z'
loop_
 _atom_site_type_symbol
 _atom_site_label
 _atom_site_symmetry_multiplicity
 _atom_site_fract_x
 _atom_site_fract_y
 _atom_site_fract_z
 _atom_site_occupancy
  Tl  Tl0  1  0.08828400  0.25387800  0.94818700  1
  Tl  Tl1  1  0.74612200  0.91171600  0.55181300  1
  Tl  Tl2  1  0.91171600  0.74612200  0.05181300  1
  Tl  Tl3  1  0.25387800  0.08828400  0.44818700  1
  Hg  Hg4  1  0.13298900  0.86701100  0.25000000  1
  Hg  Hg5  1  0.86701100  0.13298900  0.75000000  1
  Hg  Hg6  1  0.55683600  0.32210900  0.15254600  1
  Hg  Hg7  1  0.67789100  0.44316400  0.34745400  1
  Hg  Hg8  1  0.44316400  0.67789100  0.84745400  1
  Hg  Hg9  1  0.32210900  0.55683600  0.65254600  1
  Se  Se10  1  0.71748400  0.92150300  0.25990900  1
  Se  Se11  1  0.07849700  0.28251600  0.24009100  1
  Se  Se12  1  0.28251600  0.07849700  0.74009100  1
  Se  Se13  1  0.92150300  0.71748400  0.75990900  1
  Se  Se14  1  0.26391900  0.54706400  0.43004200  1
  Se  Se15  1  0.45293600  0.73608100  0.06995800  1
  Se  Se16  1  0.73608100  0.45293600  0.56995800  1
  Se  Se17  1  0.54706400  0.26391900  0.93004200  1
