# generated using pymatgen
data_GaH3Br3N
_symmetry_space_group_name_H-M   'P 1'
_cell_length_a   12.31359000
_cell_length_b   12.92117500
_cell_length_c   20.85294400
_cell_angle_alpha   90.00000000
_cell_angle_beta   90.00000000
_cell_angle_gamma   90.00000000
_symmetry_Int_Tables_number   1
_chemical_formula_structural   GaH3Br3N
_chemical_formula_sum   'Ga16 H48 Br48 N16'
_cell_volume   3317.82957716
_cell_formula_units_Z   16
loop_
 _symmetry_equiv_pos_site_id
 _symmetry_equiv_pos_as_xyz
  1  'x, y, z'
loop_
 _atom_site_type_symbol
 _atom_site_label
 _atom_site_symmetry_multiplicity
 _atom_site_fract_x
 _atom_site_fract_y
 _atom_site_fract_z
 _atom_site_occupancy
  Ga  Ga0  1  0.70287100  0.46216700  0.21782700  1
  Ga  Ga1  1  0.20287100  0.03783300  0.78217300  1
  Ga  Ga2  1  0.29712900  0.96216700  0.28217300  1
  Ga  Ga3  1  0.79712900  0.53783300  0.71782700  1
  Ga  Ga4  1  0.29712900  0.53783300  0.78217300  1
  Ga  Ga5  1  0.79712900  0.96216700  0.21782700  1
  Ga  Ga6  1  0.70287100  0.03783300  0.71782700  1
  Ga  Ga7  1  0.20287100  0.46216700  0.28217300  1
  Ga  Ga8  1  0.27548400  0.74584800  0.02764000  1
  Ga  Ga9  1  0.77548400  0.75415200  0.97236000  1
  Ga  Ga10  1  0.72451600  0.24584800  0.47236000  1
  Ga  Ga11  1  0.22451600  0.25415200  0.52764000  1
  Ga  Ga12  1  0.72451600  0.25415200  0.97236000  1
  Ga  Ga13  1  0.22451600  0.24584800  0.02764000  1
  Ga  Ga14  1  0.27548400  0.75415200  0.52764000  1
  Ga  Ga15  1  0.77548400  0.74584800  0.47236000  1
  H  H16  1  0.84203400  0.49052100  0.31093900  1
  H  H17  1  0.34203400  0.00947900  0.68906100  1
  H  H18  1  0.15796600  0.99052100  0.18906100  1
  H  H19  1  0.65796600  0.50947900  0.81093900  1
  H  H20  1  0.15796600  0.50947900  0.68906100  1
  H  H21  1  0.65796600  0.99052100  0.31093900  1
  H  H22  1  0.84203400  0.00947900  0.81093900  1
  H  H23  1  0.34203400  0.49052100  0.18906100  1
  H  H24  1  0.74028200  0.57296400  0.32040800  1
  H  H25  1  0.24028200  0.92703600  0.67959200  1
  H  H26  1  0.25971800  0.07296400  0.17959200  1
  H  H27  1  0.75971800  0.42703600  0.82040800  1
  H  H28  1  0.25971800  0.42703600  0.67959200  1
  H  H29  1  0.75971800  0.07296400  0.32040800  1
  H  H30  1  0.74028200  0.92703600  0.82040800  1
  H  H31  1  0.24028200  0.57296400  0.17959200  1
  H  H32  1  0.72563300  0.45096800  0.34232300  1
  H  H33  1  0.22563300  0.04903200  0.65767700  1
  H  H34  1  0.27436700  0.95096800  0.15767700  1
  H  H35  1  0.77436700  0.54903200  0.84232300  1
  H  H36  1  0.27436700  0.54903200  0.65767700  1
  H  H37  1  0.77436700  0.95096800  0.34232300  1
  H  H38  1  0.72563300  0.04903200  0.84232300  1
  H  H39  1  0.22563300  0.45096800  0.15767700  1
  H  H40  1  0.15114800  0.71324000  0.92822400  1
  H  H41  1  0.65114800  0.78676000  0.07177600  1
  H  H42  1  0.84885200  0.21324000  0.57177600  1
  H  H43  1  0.34885200  0.28676000  0.42822400  1
  H  H44  1  0.84885200  0.28676000  0.07177600  1
  H  H45  1  0.34885200  0.21324000  0.92822400  1
  H  H46  1  0.15114800  0.78676000  0.42822400  1
  H  H47  1  0.65114800  0.71324000  0.57177600  1
  H  H48  1  0.13876700  0.83595400  0.94950500  1
  H  H49  1  0.63876700  0.66404600  0.05049500  1
  H  H50  1  0.86123300  0.33595400  0.55049500  1
  H  H51  1  0.36123300  0.16404600  0.44950500  1
  H  H52  1  0.86123300  0.16404600  0.05049500  1
  H  H53  1  0.36123300  0.33595400  0.94950500  1
  H  H54  1  0.13876700  0.66404600  0.44950500  1
  H  H55  1  0.63876700  0.83595400  0.55049500  1
  H  H56  1  0.24527400  0.79810700  0.90784400  1
  H  H57  1  0.74527400  0.70189300  0.09215600  1
  H  H58  1  0.75472600  0.29810700  0.59215600  1
  H  H59  1  0.25472600  0.20189300  0.40784400  1
  H  H60  1  0.75472600  0.20189300  0.09215600  1
  H  H61  1  0.25472600  0.29810700  0.90784400  1
  H  H62  1  0.24527400  0.70189300  0.40784400  1
  H  H63  1  0.74527400  0.79810700  0.59215600  1
  Br  Br64  1  0.56426400  0.58198100  0.19736900  1
  Br  Br65  1  0.06426400  0.91801900  0.80263100  1
  Br  Br66  1  0.43573600  0.08198100  0.30263100  1
  Br  Br67  1  0.93573600  0.41801900  0.69736900  1
  Br  Br68  1  0.43573600  0.41801900  0.80263100  1
  Br  Br69  1  0.93573600  0.08198100  0.19736900  1
  Br  Br70  1  0.56426400  0.91801900  0.69736900  1
  Br  Br71  1  0.06426400  0.58198100  0.30263100  1
  Br  Br72  1  0.64363500  0.29110700  0.22067400  1
  Br  Br73  1  0.14363500  0.20889300  0.77932600  1
  Br  Br74  1  0.35636500  0.79110700  0.27932600  1
  Br  Br75  1  0.85636500  0.70889300  0.72067400  1
  Br  Br76  1  0.35636500  0.70889300  0.77932600  1
  Br  Br77  1  0.85636500  0.79110700  0.22067400  1
  Br  Br78  1  0.64363500  0.20889300  0.72067400  1
  Br  Br79  1  0.14363500  0.29110700  0.27932600  1
  Br  Br80  1  0.84956800  0.48649800  0.14844800  1
  Br  Br81  1  0.34956800  0.01350200  0.85155200  1
  Br  Br82  1  0.15043200  0.98649800  0.35155200  1
  Br  Br83  1  0.65043200  0.51350200  0.64844800  1
  Br  Br84  1  0.15043200  0.51350200  0.85155200  1
  Br  Br85  1  0.65043200  0.98649800  0.14844800  1
  Br  Br86  1  0.84956800  0.01350200  0.64844800  1
  Br  Br87  1  0.34956800  0.48649800  0.35155200  1
  Br  Br88  1  0.14008900  0.73851000  0.10591700  1
  Br  Br89  1  0.64008900  0.76149000  0.89408300  1
  Br  Br90  1  0.85991100  0.23851000  0.39408300  1
  Br  Br91  1  0.35991100  0.26149000  0.60591700  1
  Br  Br92  1  0.85991100  0.26149000  0.89408300  1
  Br  Br93  1  0.35991100  0.23851000  0.10591700  1
  Br  Br94  1  0.14008900  0.76149000  0.60591700  1
  Br  Br95  1  0.64008900  0.73851000  0.39408300  1
  Br  Br96  1  0.39586100  0.88296400  0.04479700  1
  Br  Br97  1  0.89586100  0.61703600  0.95520300  1
  Br  Br98  1  0.60413900  0.38296400  0.45520300  1
  Br  Br99  1  0.10413900  0.11703600  0.54479700  1
  Br  Br100  1  0.60413900  0.11703600  0.95520300  1
  Br  Br101  1  0.10413900  0.38296400  0.04479700  1
  Br  Br102  1  0.39586100  0.61703600  0.54479700  1
  Br  Br103  1  0.89586100  0.88296400  0.45520300  1
  Br  Br104  1  0.36944300  0.59082300  0.01338300  1
  Br  Br105  1  0.86944300  0.90917700  0.98661700  1
  Br  Br106  1  0.63055700  0.09082300  0.48661700  1
  Br  Br107  1  0.13055700  0.40917700  0.51338300  1
  Br  Br108  1  0.63055700  0.40917700  0.98661700  1
  Br  Br109  1  0.13055700  0.09082300  0.01338300  1
  Br  Br110  1  0.36944300  0.90917700  0.51338300  1
  Br  Br111  1  0.86944300  0.59082300  0.48661700  1
  N  N112  1  0.75899500  0.49806700  0.30784700  1
  N  N113  1  0.25899500  0.00193300  0.69215300  1
  N  N114  1  0.24100500  0.99806700  0.19215300  1
  N  N115  1  0.74100500  0.50193300  0.80784700  1
  N  N116  1  0.24100500  0.50193300  0.69215300  1
  N  N117  1  0.74100500  0.99806700  0.30784700  1
  N  N118  1  0.75899500  0.00193300  0.80784700  1
  N  N119  1  0.25899500  0.49806700  0.19215300  1
  N  N120  1  0.19372600  0.77671200  0.94412700  1
  N  N121  1  0.69372600  0.72328800  0.05587300  1
  N  N122  1  0.80627400  0.27671200  0.55587300  1
  N  N123  1  0.30627400  0.22328800  0.44412700  1
  N  N124  1  0.80627400  0.22328800  0.05587300  1
  N  N125  1  0.30627400  0.27671200  0.94412700  1
  N  N126  1  0.19372600  0.72328800  0.44412700  1
  N  N127  1  0.69372600  0.77671200  0.55587300  1
