# generated using pymatgen
data_DyMgTl
_symmetry_space_group_name_H-M   'P 1'
_cell_length_a   7.57118204
_cell_length_b   7.57118204
_cell_length_c   4.67342000
_cell_angle_alpha   90.00000000
_cell_angle_beta   90.00000000
_cell_angle_gamma   120.00000039
_symmetry_Int_Tables_number   1
_chemical_formula_structural   DyMgTl
_chemical_formula_sum   'Dy3 Mg3 Tl3'
_cell_volume   232.00258299
_cell_formula_units_Z   3
loop_
 _symmetry_equiv_pos_site_id
 _symmetry_equiv_pos_as_xyz
  1  'x, y, z'
loop_
 _atom_site_type_symbol
 _atom_site_label
 _atom_site_symmetry_multiplicity
 _atom_site_fract_x
 _atom_site_fract_y
 _atom_site_fract_z
 _atom_site_occupancy
  Dy  Dy0  1  0.57081500  0.00000000  0.00000000  1
  Dy  Dy1  1  0.00000000  0.57081500  0.00000000  1
  Dy  Dy2  1  0.42918500  0.42918500  0.00000000  1
  Mg  Mg3  1  0.24225000  0.00000000  0.50000000  1
  Mg  Mg4  1  0.00000000  0.24225000  0.50000000  1
  Mg  Mg5  1  0.75775000  0.75775000  0.50000000  1
  Tl  Tl6  1  0.33333300  0.66666700  0.50000000  1
  Tl  Tl7  1  0.66666700  0.33333300  0.50000000  1
  Tl  Tl8  1  0.00000000  0.00000000  0.00000000  1
