# generated using pymatgen
data_Ce2(Ga3Rh)3
_symmetry_space_group_name_H-M   'P 1'
_cell_length_a   7.65659822
_cell_length_b   7.65659822
_cell_length_c   9.49292800
_cell_angle_alpha   90.00000000
_cell_angle_beta   90.00000000
_cell_angle_gamma   119.75510735
_symmetry_Int_Tables_number   1
_chemical_formula_structural   Ce2(Ga3Rh)3
_chemical_formula_sum   'Ce4 Ga18 Rh6'
_cell_volume   483.13551405
_cell_formula_units_Z   2
loop_
 _symmetry_equiv_pos_site_id
 _symmetry_equiv_pos_as_xyz
  1  'x, y, z'
loop_
 _atom_site_type_symbol
 _atom_site_label
 _atom_site_symmetry_multiplicity
 _atom_site_fract_x
 _atom_site_fract_y
 _atom_site_fract_z
 _atom_site_occupancy
  Ce  Ce0  1  0.99765600  0.66845200  0.25000000  1
  Ce  Ce1  1  0.00234400  0.33154800  0.75000000  1
  Ce  Ce2  1  0.66845200  0.99765600  0.25000000  1
  Ce  Ce3  1  0.33154800  0.00234400  0.75000000  1
  Ga  Ga4  1  0.12730500  0.12730500  0.25000000  1
  Ga  Ga5  1  0.87269500  0.87269500  0.75000000  1
  Ga  Ga6  1  0.00163000  0.33418100  0.07777700  1
  Ga  Ga7  1  0.99837000  0.66581900  0.92222300  1
  Ga  Ga8  1  0.99837000  0.66581900  0.57777700  1
  Ga  Ga9  1  0.33418100  0.00163000  0.42222300  1
  Ga  Ga10  1  0.00163000  0.33418100  0.42222300  1
  Ga  Ga11  1  0.66581900  0.99837000  0.57777700  1
  Ga  Ga12  1  0.66581900  0.99837000  0.92222300  1
  Ga  Ga13  1  0.33418100  0.00163000  0.07777700  1
  Ga  Ga14  1  0.33407700  0.33407700  0.56240200  1
  Ga  Ga15  1  0.66592300  0.66592300  0.43759800  1
  Ga  Ga16  1  0.66592300  0.66592300  0.06240200  1
  Ga  Ga17  1  0.33407700  0.33407700  0.93759800  1
  Ga  Ga18  1  0.33809100  0.54442600  0.25000000  1
  Ga  Ga19  1  0.66190900  0.45557400  0.75000000  1
  Ga  Ga20  1  0.54442600  0.33809100  0.25000000  1
  Ga  Ga21  1  0.45557400  0.66190900  0.75000000  1
  Rh  Rh22  1  0.67105400  0.32894600  0.00000000  1
  Rh  Rh23  1  0.32894600  0.67105400  0.00000000  1
  Rh  Rh24  1  0.32894600  0.67105400  0.50000000  1
  Rh  Rh25  1  0.67105400  0.32894600  0.50000000  1
  Rh  Rh26  1  0.00000000  0.00000000  0.00000000  1
  Rh  Rh27  1  0.00000000  0.00000000  0.50000000  1
