# generated using pymatgen
data_TbCBr
_symmetry_space_group_name_H-M   'P 1'
_cell_length_a   4.01977265
_cell_length_b   4.01977265
_cell_length_c   10.56500706
_cell_angle_alpha   81.50709056
_cell_angle_beta   81.50709056
_cell_angle_gamma   56.63034514
_symmetry_Int_Tables_number   1
_chemical_formula_structural   TbCBr
_chemical_formula_sum   'Tb2 C2 Br2'
_cell_volume   140.55064692
_cell_formula_units_Z   2
loop_
 _symmetry_equiv_pos_site_id
 _symmetry_equiv_pos_as_xyz
  1  'x, y, z'
loop_
 _atom_site_type_symbol
 _atom_site_label
 _atom_site_symmetry_multiplicity
 _atom_site_fract_x
 _atom_site_fract_y
 _atom_site_fract_z
 _atom_site_occupancy
  Tb  Tb0  1  0.59329900  0.59329900  0.13989400  1
  Tb  Tb1  1  0.40670100  0.40670100  0.86010600  1
  C  C2  1  0.91238900  0.91238900  0.03502100  1
  C  C3  1  0.08761100  0.08761100  0.96497900  1
  Br  Br4  1  0.79494300  0.79494300  0.67892100  1
  Br  Br5  1  0.20505700  0.20505700  0.32107900  1
