# generated using pymatgen
data_Nb4Pb3O13
_symmetry_space_group_name_H-M   'P 1'
_cell_length_a   7.57428900
_cell_length_b   7.59411700
_cell_length_c   10.73317900
_cell_angle_alpha   90.00000000
_cell_angle_beta   90.00000000
_cell_angle_gamma   90.00000000
_symmetry_Int_Tables_number   1
_chemical_formula_structural   Nb4Pb3O13
_chemical_formula_sum   'Nb8 Pb6 O26'
_cell_volume   617.37285168
_cell_formula_units_Z   2
loop_
 _symmetry_equiv_pos_site_id
 _symmetry_equiv_pos_as_xyz
  1  'x, y, z'
loop_
 _atom_site_type_symbol
 _atom_site_label
 _atom_site_symmetry_multiplicity
 _atom_site_fract_x
 _atom_site_fract_y
 _atom_site_fract_z
 _atom_site_occupancy
  Nb  Nb0  1  0.75149800  0.75000000  0.25395000  1
  Nb  Nb1  1  0.00000000  0.00000000  0.00000000  1
  Nb  Nb2  1  0.24850200  0.25000000  0.74605000  1
  Nb  Nb3  1  0.50000000  0.00000000  0.50000000  1
  Nb  Nb4  1  0.50000000  0.50000000  0.50000000  1
  Nb  Nb5  1  0.75149800  0.25000000  0.74605000  1
  Nb  Nb6  1  0.00000000  0.50000000  0.00000000  1
  Nb  Nb7  1  0.24850200  0.75000000  0.25395000  1
  Pb  Pb8  1  0.75172600  0.75000000  0.73945500  1
  Pb  Pb9  1  0.24827400  0.75000000  0.73945500  1
  Pb  Pb10  1  0.24827400  0.25000000  0.26054500  1
  Pb  Pb11  1  0.50000000  0.00000000  0.00000000  1
  Pb  Pb12  1  0.50000000  0.50000000  0.00000000  1
  Pb  Pb13  1  0.75172600  0.25000000  0.26054500  1
  O  O14  1  0.31618300  0.93974200  0.37247100  1
  O  O15  1  0.50000000  0.75000000  0.18032900  1
  O  O16  1  0.50000000  0.25000000  0.15224500  1
  O  O17  1  0.50000000  0.75000000  0.56496000  1
  O  O18  1  0.68381700  0.93974200  0.37247100  1
  O  O19  1  0.80909300  0.44265400  0.87502100  1
  O  O20  1  0.80909300  0.94265400  0.12497900  1
  O  O21  1  0.80909300  0.05734600  0.87502100  1
  O  O22  1  0.00000000  0.25000000  0.69726500  1
  O  O23  1  0.00000000  0.75000000  0.93638100  1
  O  O24  1  0.00000000  0.75000000  0.30273500  1
  O  O25  1  0.00000000  0.25000000  0.06361900  1
  O  O26  1  0.19090700  0.94265400  0.12497900  1
  O  O27  1  0.19090700  0.44265400  0.87502100  1
  O  O28  1  0.19090700  0.05734600  0.87502100  1
  O  O29  1  0.31618300  0.43974200  0.62752900  1
  O  O30  1  0.31618300  0.56025800  0.37247100  1
  O  O31  1  0.31618300  0.06025800  0.62752900  1
  O  O32  1  0.50000000  0.25000000  0.43504000  1
  O  O33  1  0.50000000  0.25000000  0.81967100  1
  O  O34  1  0.50000000  0.75000000  0.84775500  1
  O  O35  1  0.68381700  0.06025800  0.62752900  1
  O  O36  1  0.68381700  0.43974200  0.62752900  1
  O  O37  1  0.68381700  0.56025800  0.37247100  1
  O  O38  1  0.80909300  0.55734600  0.12497900  1
  O  O39  1  0.19090700  0.55734600  0.12497900  1
