# generated using pymatgen
data_LiMnRhO4
_symmetry_space_group_name_H-M   'P 1'
_cell_length_a   5.97515358
_cell_length_b   5.97515358
_cell_length_c   5.97515358
_cell_angle_alpha   120.99458813
_cell_angle_beta   118.41859204
_cell_angle_gamma   90.52330497
_symmetry_Int_Tables_number   1
_chemical_formula_structural   LiMnRhO4
_chemical_formula_sum   'Li2 Mn2 Rh2 O8'
_cell_volume   151.41294369
_cell_formula_units_Z   2
loop_
 _symmetry_equiv_pos_site_id
 _symmetry_equiv_pos_as_xyz
  1  'x, y, z'
loop_
 _atom_site_type_symbol
 _atom_site_label
 _atom_site_symmetry_multiplicity
 _atom_site_fract_x
 _atom_site_fract_y
 _atom_site_fract_z
 _atom_site_occupancy
  Li  Li0  1  0.12526700  0.87526700  0.25000000  1
  Li  Li1  1  0.87473300  0.12473300  0.75000000  1
  Mn  Mn2  1  0.50000000  0.50000000  0.50000000  1
  Mn  Mn3  1  0.50000000  0.00000000  0.00000000  1
  Rh  Rh4  1  0.50000000  0.50000000  0.00000000  1
  Rh  Rh5  1  0.00000000  0.50000000  0.50000000  1
  O  O6  1  0.72170300  0.25569600  0.46600700  1
  O  O7  1  0.28969000  0.25569600  0.03399300  1
  O  O8  1  0.73104100  0.24986400  0.01882400  1
  O  O9  1  0.73104100  0.71221700  0.48117600  1
  O  O10  1  0.27829700  0.74430400  0.53399300  1
  O  O11  1  0.71031000  0.74430400  0.96600700  1
  O  O12  1  0.26895900  0.75013600  0.98117600  1
  O  O13  1  0.26895900  0.28778300  0.51882400  1
