# generated using pymatgen
data_KSm2CuS4
_symmetry_space_group_name_H-M   'P 1'
_cell_length_a   7.17603819
_cell_length_b   7.17603819
_cell_length_c   13.92419200
_cell_angle_alpha   90.00000000
_cell_angle_beta   90.00000000
_cell_angle_gamma   147.38143263
_symmetry_Int_Tables_number   1
_chemical_formula_structural   KSm2CuS4
_chemical_formula_sum   'K2 Sm4 Cu2 S8'
_cell_volume   386.51247147
_cell_formula_units_Z   2
loop_
 _symmetry_equiv_pos_site_id
 _symmetry_equiv_pos_as_xyz
  1  'x, y, z'
loop_
 _atom_site_type_symbol
 _atom_site_label
 _atom_site_symmetry_multiplicity
 _atom_site_fract_x
 _atom_site_fract_y
 _atom_site_fract_z
 _atom_site_occupancy
  K  K0  1  0.10834700  0.89165300  0.25000000  1
  K  K1  1  0.89165300  0.10834700  0.75000000  1
  Sm  Sm2  1  0.63447300  0.36552700  0.93718800  1
  Sm  Sm3  1  0.36552700  0.63447300  0.43718800  1
  Sm  Sm4  1  0.63447300  0.36552700  0.56281200  1
  Sm  Sm5  1  0.36552700  0.63447300  0.06281200  1
  Cu  Cu6  1  0.16216700  0.83783300  0.75000000  1
  Cu  Cu7  1  0.83783300  0.16216700  0.25000000  1
  S  S8  1  0.00000000  0.00000000  0.50000000  1
  S  S9  1  0.00000000  0.00000000  0.00000000  1
  S  S10  1  0.73721000  0.26279000  0.11367300  1
  S  S11  1  0.26279000  0.73721000  0.88632700  1
  S  S12  1  0.56947800  0.43052200  0.75000000  1
  S  S13  1  0.73721000  0.26279000  0.38632700  1
  S  S14  1  0.43052200  0.56947800  0.25000000  1
  S  S15  1  0.26279000  0.73721000  0.61367300  1
