# generated using pymatgen
data_NdIn2Rh
_symmetry_space_group_name_H-M   'P 1'
_cell_length_a   5.62542903
_cell_length_b   5.62542903
_cell_length_c   8.04805900
_cell_angle_alpha   90.00000000
_cell_angle_beta   90.00000000
_cell_angle_gamma   133.40767724
_symmetry_Int_Tables_number   1
_chemical_formula_structural   NdIn2Rh
_chemical_formula_sum   'Nd2 In4 Rh2'
_cell_volume   185.02383072
_cell_formula_units_Z   2
loop_
 _symmetry_equiv_pos_site_id
 _symmetry_equiv_pos_as_xyz
  1  'x, y, z'
loop_
 _atom_site_type_symbol
 _atom_site_label
 _atom_site_symmetry_multiplicity
 _atom_site_fract_x
 _atom_site_fract_y
 _atom_site_fract_z
 _atom_site_occupancy
  Nd  Nd0  1  0.56829400  0.43170600  0.25000000  1
  Nd  Nd1  1  0.43170600  0.56829400  0.75000000  1
  In  In2  1  0.85486500  0.14513500  0.05169600  1
  In  In3  1  0.14513500  0.85486500  0.94830400  1
  In  In4  1  0.14513500  0.85486500  0.55169600  1
  In  In5  1  0.85486500  0.14513500  0.44830400  1
  Rh  Rh6  1  0.28221500  0.71778500  0.25000000  1
  Rh  Rh7  1  0.71778500  0.28221500  0.75000000  1
