# generated using pymatgen
data_Sr2GdSbO6
_symmetry_space_group_name_H-M   'P 1'
_cell_length_a   8.40902629
_cell_length_b   8.40902629
_cell_length_c   8.40902629
_cell_angle_alpha   90.00000000
_cell_angle_beta   90.00000000
_cell_angle_gamma   90.00000000
_symmetry_Int_Tables_number   1
_chemical_formula_structural   Sr2GdSbO6
_chemical_formula_sum   'Sr8 Gd4 Sb4 O24'
_cell_volume   594.61673895
_cell_formula_units_Z   4
loop_
 _symmetry_equiv_pos_site_id
 _symmetry_equiv_pos_as_xyz
  1  'x, y, z'
loop_
 _atom_site_type_symbol
 _atom_site_label
 _atom_site_symmetry_multiplicity
 _atom_site_fract_x
 _atom_site_fract_y
 _atom_site_fract_z
 _atom_site_occupancy
  Sr  Sr0  1  0.50000000  0.50000000  0.50000000  1
  Sr  Sr1  1  0.00000000  -0.00000000  0.00000000  1
  Sr  Sr2  1  0.00000000  0.00000000  0.50000000  1
  Sr  Sr3  1  0.00000000  0.50000000  0.00000000  1
  Sr  Sr4  1  0.50000000  0.00000000  0.00000000  1
  Sr  Sr5  1  0.50000000  0.50000000  0.00000000  1
  Sr  Sr6  1  0.50000000  -0.00000000  0.50000000  1
  Sr  Sr7  1  0.00000000  0.50000000  0.50000000  1
  Gd  Gd8  1  0.75000000  0.75000000  0.75000000  1
  Gd  Gd9  1  0.75000000  0.25000000  0.25000000  1
  Gd  Gd10  1  0.25000000  0.75000000  0.25000000  1
  Gd  Gd11  1  0.25000000  0.25000000  0.75000000  1
  Sb  Sb12  1  0.25000000  0.25000000  0.25000000  1
  Sb  Sb13  1  0.25000000  0.75000000  0.75000000  1
  Sb  Sb14  1  0.75000000  0.25000000  0.75000000  1
  Sb  Sb15  1  0.75000000  0.75000000  0.25000000  1
  O  O16  1  0.21919747  0.28741377  0.48445705  1
  O  O17  1  0.21919747  0.71258623  0.51554295  1
  O  O18  1  0.78080253  0.28741377  0.51554295  1
  O  O19  1  0.78080253  0.71258623  0.48445705  1
  O  O20  1  0.28741377  0.48445705  0.21919747  1
  O  O21  1  0.71258623  0.51554295  0.21919747  1
  O  O22  1  0.28741377  0.51554295  0.78080253  1
  O  O23  1  0.71258623  0.48445705  0.78080253  1
  O  O24  1  0.48445705  0.21919747  0.28741377  1
  O  O25  1  0.51554295  0.21919747  0.71258623  1
  O  O26  1  0.51554295  0.78080253  0.28741377  1
  O  O27  1  0.48445705  0.78080253  0.71258623  1
  O  O28  1  0.28080253  0.21258623  0.01554295  1
  O  O29  1  0.28080253  0.78741377  0.98445705  1
  O  O30  1  0.71919747  0.21258623  0.98445705  1
  O  O31  1  0.71919747  0.78741377  0.01554295  1
  O  O32  1  0.21258623  0.01554295  0.28080253  1
  O  O33  1  0.78741377  0.98445705  0.28080253  1
  O  O34  1  0.21258623  0.98445705  0.71919747  1
  O  O35  1  0.78741377  0.01554295  0.71919747  1
  O  O36  1  0.01554295  0.28080253  0.21258623  1
  O  O37  1  0.98445705  0.28080253  0.78741377  1
  O  O38  1  0.98445705  0.71919747  0.21258623  1
  O  O39  1  0.01554295  0.71919747  0.78741377  1
