# generated using pymatgen
data_Er6Ni20As13
_symmetry_space_group_name_H-M   'P 1'
_cell_length_a   13.07221005
_cell_length_b   13.07221005
_cell_length_c   3.84061400
_cell_angle_alpha   90.00000000
_cell_angle_beta   90.00000000
_cell_angle_gamma   120.00000025
_symmetry_Int_Tables_number   1
_chemical_formula_structural   Er6Ni20As13
_chemical_formula_sum   'Er6 Ni20 As13'
_cell_volume   568.36761798
_cell_formula_units_Z   1
loop_
 _symmetry_equiv_pos_site_id
 _symmetry_equiv_pos_as_xyz
  1  'x, y, z'
loop_
 _atom_site_type_symbol
 _atom_site_label
 _atom_site_symmetry_multiplicity
 _atom_site_fract_x
 _atom_site_fract_y
 _atom_site_fract_z
 _atom_site_occupancy
  Er  Er0  1  0.52795700  0.80892500  0.00000000  1
  Er  Er1  1  0.28096800  0.47204300  0.00000000  1
  Er  Er2  1  0.19107500  0.71903200  0.00000000  1
  Er  Er3  1  0.81010300  0.28148200  0.50000000  1
  Er  Er4  1  0.47137900  0.18989700  0.50000000  1
  Er  Er5  1  0.71851800  0.52862100  0.50000000  1
  Ni  Ni6  1  0.80091900  0.90761000  0.00000000  1
  Ni  Ni7  1  0.10669000  0.19908100  0.00000000  1
  Ni  Ni8  1  0.09239000  0.89331000  0.00000000  1
  Ni  Ni9  1  0.33333300  0.66666700  0.50000000  1
  Ni  Ni10  1  0.92617800  0.08451600  0.50000000  1
  Ni  Ni11  1  0.15833800  0.07382200  0.50000000  1
  Ni  Ni12  1  0.91548400  0.84166200  0.50000000  1
  Ni  Ni13  1  0.66666700  0.33333300  0.00000000  1
  Ni  Ni14  1  0.56293800  0.58228700  0.00000000  1
  Ni  Ni15  1  0.01934900  0.43706200  0.00000000  1
  Ni  Ni16  1  0.41771300  0.98065100  0.00000000  1
  Ni  Ni17  1  0.68136200  0.75071600  0.50000000  1
  Ni  Ni18  1  0.06935500  0.31863800  0.50000000  1
  Ni  Ni19  1  0.24928400  0.93064500  0.50000000  1
  Ni  Ni20  1  0.97994800  0.56511400  0.50000000  1
  Ni  Ni21  1  0.58516600  0.02005200  0.50000000  1
  Ni  Ni22  1  0.43488600  0.41483400  0.50000000  1
  Ni  Ni23  1  0.75509300  0.07572400  0.00000000  1
  Ni  Ni24  1  0.32063100  0.24490700  0.00000000  1
  Ni  Ni25  1  0.92427600  0.67936900  0.00000000  1
  As  As26  1  0.47441900  0.61245800  0.50000000  1
  As  As27  1  0.13803900  0.52558100  0.50000000  1
  As  As28  1  0.38754200  0.86196100  0.50000000  1
  As  As29  1  0.71799100  0.95019100  0.50000000  1
  As  As30  1  0.23220100  0.28200900  0.50000000  1
  As  As31  1  0.04980900  0.76779900  0.50000000  1
  As  As32  1  0.86083800  0.47597400  0.00000000  1
  As  As33  1  0.61513600  0.13916200  0.00000000  1
  As  As34  1  0.52402600  0.38486400  0.00000000  1
  As  As35  1  0.94741500  0.23210500  0.00000000  1
  As  As36  1  0.28469000  0.05258500  0.00000000  1
  As  As37  1  0.76789500  0.71531000  0.00000000  1
  As  As38  1  0.00000000  0.00000000  0.00000000  1
