# generated using pymatgen
data_SmAl7Au3
_symmetry_space_group_name_H-M   'P 1'
_cell_length_a   8.49005671
_cell_length_b   8.49005671
_cell_length_c   8.49005678
_cell_angle_alpha   57.27220344
_cell_angle_beta   57.27220344
_cell_angle_gamma   57.27220326
_symmetry_Int_Tables_number   1
_chemical_formula_structural   SmAl7Au3
_chemical_formula_sum   'Sm2 Al14 Au6'
_cell_volume   405.54956317
_cell_formula_units_Z   2
loop_
 _symmetry_equiv_pos_site_id
 _symmetry_equiv_pos_as_xyz
  1  'x, y, z'
loop_
 _atom_site_type_symbol
 _atom_site_label
 _atom_site_symmetry_multiplicity
 _atom_site_fract_x
 _atom_site_fract_y
 _atom_site_fract_z
 _atom_site_occupancy
  Sm  Sm0  1  0.00000000  0.00000000  0.00000000  1
  Sm  Sm1  1  0.50000000  0.50000000  0.50000000  1
  Al  Al2  1  0.93059000  0.14726100  0.33214800  1
  Al  Al3  1  0.33214800  0.93059000  0.14726100  1
  Al  Al4  1  0.14726100  0.33214800  0.93059000  1
  Al  Al5  1  0.56941000  0.16785200  0.35273900  1
  Al  Al6  1  0.35273900  0.56941000  0.16785200  1
  Al  Al7  1  0.16785200  0.35273900  0.56941000  1
  Al  Al8  1  0.06941000  0.85273900  0.66785200  1
  Al  Al9  1  0.66785200  0.06941000  0.85273900  1
  Al  Al10  1  0.75000000  0.75000000  0.75000000  1
  Al  Al11  1  0.25000000  0.25000000  0.25000000  1
  Al  Al12  1  0.83214800  0.64726100  0.43059000  1
  Al  Al13  1  0.64726100  0.43059000  0.83214800  1
  Al  Al14  1  0.43059000  0.83214800  0.64726100  1
  Al  Al15  1  0.85273900  0.66785200  0.06941000  1
  Au  Au16  1  0.25000000  0.57200100  0.92799900  1
  Au  Au17  1  0.92799900  0.25000000  0.57200100  1
  Au  Au18  1  0.57200100  0.92799900  0.25000000  1
  Au  Au19  1  0.75000000  0.42799900  0.07200100  1
  Au  Au20  1  0.07200100  0.75000000  0.42799900  1
  Au  Au21  1  0.42799900  0.07200100  0.75000000  1
