# generated using pymatgen
data_ErCdAu
_symmetry_space_group_name_H-M   'P 1'
_cell_length_a   7.89538836
_cell_length_b   7.89538836
_cell_length_c   3.77304800
_cell_angle_alpha   90.00000000
_cell_angle_beta   90.00000000
_cell_angle_gamma   120.00000304
_symmetry_Int_Tables_number   1
_chemical_formula_structural   ErCdAu
_chemical_formula_sum   'Er3 Cd3 Au3'
_cell_volume   203.69011015
_cell_formula_units_Z   3
loop_
 _symmetry_equiv_pos_site_id
 _symmetry_equiv_pos_as_xyz
  1  'x, y, z'
loop_
 _atom_site_type_symbol
 _atom_site_label
 _atom_site_symmetry_multiplicity
 _atom_site_fract_x
 _atom_site_fract_y
 _atom_site_fract_z
 _atom_site_occupancy
  Er  Er0  1  0.59666700  0.00000000  0.00000000  1
  Er  Er1  1  0.00000000  0.59666700  0.00000000  1
  Er  Er2  1  0.40333300  0.40333300  0.00000000  1
  Cd  Cd3  1  0.26699100  0.00000000  0.50000000  1
  Cd  Cd4  1  0.00000000  0.26699100  0.50000000  1
  Cd  Cd5  1  0.73300900  0.73300900  0.50000000  1
  Au  Au6  1  0.33333300  0.66666700  0.50000000  1
  Au  Au7  1  0.66666700  0.33333300  0.50000000  1
  Au  Au8  1  0.00000000  0.00000000  0.00000000  1
