# generated using pymatgen
data_U6Al43Cr4
_symmetry_space_group_name_H-M   'P 1'
_cell_length_a   10.91088201
_cell_length_b   10.91088201
_cell_length_c   17.29772900
_cell_angle_alpha   90.00000000
_cell_angle_beta   90.00000000
_cell_angle_gamma   120.00000005
_symmetry_Int_Tables_number   1
_chemical_formula_structural   U6Al43Cr4
_chemical_formula_sum   'U12 Al86 Cr8'
_cell_volume   1783.36171448
_cell_formula_units_Z   2
loop_
 _symmetry_equiv_pos_site_id
 _symmetry_equiv_pos_as_xyz
  1  'x, y, z'
loop_
 _atom_site_type_symbol
 _atom_site_label
 _atom_site_symmetry_multiplicity
 _atom_site_fract_x
 _atom_site_fract_y
 _atom_site_fract_z
 _atom_site_occupancy
  U  U0  1  0.47716500  0.47716500  0.91383100  1
  U  U1  1  0.52283500  0.00000000  0.91383100  1
  U  U2  1  0.00000000  0.52283500  0.91383100  1
  U  U3  1  0.52283500  0.52283500  0.08616900  1
  U  U4  1  0.47716500  0.00000000  0.08616900  1
  U  U5  1  0.00000000  0.47716500  0.08616900  1
  U  U6  1  0.52283500  0.52283500  0.41383100  1
  U  U7  1  0.47716500  0.00000000  0.41383100  1
  U  U8  1  0.00000000  0.47716500  0.41383100  1
  U  U9  1  0.47716500  0.47716500  0.58616900  1
  U  U10  1  0.52283500  0.00000000  0.58616900  1
  U  U11  1  0.00000000  0.52283500  0.58616900  1
  Al  Al12  1  0.83870700  0.23128200  0.83513300  1
  Al  Al13  1  0.76871800  0.60742500  0.83513300  1
  Al  Al14  1  0.39257500  0.16129300  0.83513300  1
  Al  Al15  1  0.23128200  0.83870700  0.83513300  1
  Al  Al16  1  0.60742500  0.76871800  0.83513300  1
  Al  Al17  1  0.16129300  0.39257500  0.83513300  1
  Al  Al18  1  0.16129300  0.76871800  0.16486700  1
  Al  Al19  1  0.23128200  0.39257500  0.16486700  1
  Al  Al20  1  0.60742500  0.83870700  0.16486700  1
  Al  Al21  1  0.76871800  0.16129300  0.16486700  1
  Al  Al22  1  0.39257500  0.23128200  0.16486700  1
  Al  Al23  1  0.83870700  0.60742500  0.16486700  1
  Al  Al24  1  0.16129300  0.76871800  0.33513300  1
  Al  Al25  1  0.23128200  0.39257500  0.33513300  1
  Al  Al26  1  0.60742500  0.83870700  0.33513300  1
  Al  Al27  1  0.76871800  0.16129300  0.33513300  1
  Al  Al28  1  0.39257500  0.23128200  0.33513300  1
  Al  Al29  1  0.83870700  0.60742500  0.33513300  1
  Al  Al30  1  0.83870700  0.23128200  0.66486700  1
  Al  Al31  1  0.76871800  0.60742500  0.66486700  1
  Al  Al32  1  0.39257500  0.16129300  0.66486700  1
  Al  Al33  1  0.23128200  0.83870700  0.66486700  1
  Al  Al34  1  0.60742500  0.76871800  0.66486700  1
  Al  Al35  1  0.16129300  0.39257500  0.66486700  1
  Al  Al36  1  0.84209400  0.84209400  0.38478100  1
  Al  Al37  1  0.15790600  0.00000000  0.38478100  1
  Al  Al38  1  0.00000000  0.15790600  0.38478100  1
  Al  Al39  1  0.15790600  0.15790600  0.61521900  1
  Al  Al40  1  0.84209400  0.00000000  0.61521900  1
  Al  Al41  1  0.00000000  0.84209400  0.61521900  1
  Al  Al42  1  0.15790600  0.15790600  0.88478100  1
  Al  Al43  1  0.84209400  0.00000000  0.88478100  1
  Al  Al44  1  0.00000000  0.84209400  0.88478100  1
  Al  Al45  1  0.84209400  0.84209400  0.11521900  1
  Al  Al46  1  0.15790600  0.00000000  0.11521900  1
  Al  Al47  1  0.00000000  0.15790600  0.11521900  1
  Al  Al48  1  0.74898500  0.74898500  0.97038600  1
  Al  Al49  1  0.25101500  0.00000000  0.97038600  1
  Al  Al50  1  0.00000000  0.25101500  0.97038600  1
  Al  Al51  1  0.25101500  0.25101500  0.02961400  1
  Al  Al52  1  0.74898500  0.00000000  0.02961400  1
  Al  Al53  1  0.00000000  0.74898500  0.02961400  1
  Al  Al54  1  0.25101500  0.25101500  0.47038600  1
  Al  Al55  1  0.74898500  0.00000000  0.47038600  1
  Al  Al56  1  0.00000000  0.74898500  0.47038600  1
  Al  Al57  1  0.74898500  0.74898500  0.52961400  1
  Al  Al58  1  0.25101500  0.00000000  0.52961400  1
  Al  Al59  1  0.00000000  0.25101500  0.52961400  1
  Al  Al60  1  0.86053700  0.45422300  0.75000000  1
  Al  Al61  1  0.54577700  0.40631400  0.75000000  1
  Al  Al62  1  0.59368600  0.13946300  0.75000000  1
  Al  Al63  1  0.45422300  0.86053700  0.75000000  1
  Al  Al64  1  0.40631400  0.54577700  0.75000000  1
  Al  Al65  1  0.13946300  0.59368600  0.75000000  1
  Al  Al66  1  0.13946300  0.54577700  0.25000000  1
  Al  Al67  1  0.45422300  0.59368600  0.25000000  1
  Al  Al68  1  0.40631400  0.86053700  0.25000000  1
  Al  Al69  1  0.54577700  0.13946300  0.25000000  1
  Al  Al70  1  0.59368600  0.45422300  0.25000000  1
  Al  Al71  1  0.86053700  0.40631400  0.25000000  1
  Al  Al72  1  0.75356600  0.24643400  0.00000000  1
  Al  Al73  1  0.75356600  0.50713300  0.00000000  1
  Al  Al74  1  0.49286700  0.24643400  0.00000000  1
  Al  Al75  1  0.24643400  0.75356600  0.00000000  1
  Al  Al76  1  0.50713300  0.75356600  0.00000000  1
  Al  Al77  1  0.24643400  0.49286700  0.00000000  1
  Al  Al78  1  0.24643400  0.75356600  0.50000000  1
  Al  Al79  1  0.24643400  0.49286700  0.50000000  1
  Al  Al80  1  0.50713300  0.75356600  0.50000000  1
  Al  Al81  1  0.75356600  0.24643400  0.50000000  1
  Al  Al82  1  0.49286700  0.24643400  0.50000000  1
  Al  Al83  1  0.75356600  0.50713300  0.50000000  1
  Al  Al84  1  0.66666700  0.33333300  0.87137400  1
  Al  Al85  1  0.33333300  0.66666700  0.87137400  1
  Al  Al86  1  0.33333300  0.66666700  0.12862600  1
  Al  Al87  1  0.66666700  0.33333300  0.12862600  1
  Al  Al88  1  0.33333300  0.66666700  0.37137400  1
  Al  Al89  1  0.66666700  0.33333300  0.37137400  1
  Al  Al90  1  0.66666700  0.33333300  0.62862600  1
  Al  Al91  1  0.33333300  0.66666700  0.62862600  1
  Al  Al92  1  0.85315400  0.85315400  0.75000000  1
  Al  Al93  1  0.14684600  0.00000000  0.75000000  1
  Al  Al94  1  0.00000000  0.14684600  0.75000000  1
  Al  Al95  1  0.14684600  0.14684600  0.25000000  1
  Al  Al96  1  0.85315400  0.00000000  0.25000000  1
  Al  Al97  1  0.00000000  0.85315400  0.25000000  1
  Cr  Cr98  1  0.26596500  0.26596500  0.75000000  1
  Cr  Cr99  1  0.73403500  0.00000000  0.75000000  1
  Cr  Cr100  1  0.00000000  0.73403500  0.75000000  1
  Cr  Cr101  1  0.73403500  0.73403500  0.25000000  1
  Cr  Cr102  1  0.26596500  0.00000000  0.25000000  1
  Cr  Cr103  1  0.00000000  0.26596500  0.25000000  1
  Cr  Cr104  1  0.00000000  0.00000000  0.00000000  1
  Cr  Cr105  1  0.00000000  0.00000000  0.50000000  1
