# generated using pymatgen
data_RbNaMg3Zn2(Si2O5)6
_symmetry_space_group_name_H-M   'P 1'
_cell_length_a   10.27393155
_cell_length_b   10.27393155
_cell_length_c   14.56471510
_cell_angle_alpha   89.99425935
_cell_angle_beta   89.99425935
_cell_angle_gamma   59.99535361
_symmetry_Int_Tables_number   1
_chemical_formula_structural   RbNaMg3Zn2(Si2O5)6
_chemical_formula_sum   'Rb2 Na2 Mg6 Zn4 Si24 O60'
_cell_volume   1331.32970607
_cell_formula_units_Z   2
loop_
 _symmetry_equiv_pos_site_id
 _symmetry_equiv_pos_as_xyz
  1  'x, y, z'
loop_
 _atom_site_type_symbol
 _atom_site_label
 _atom_site_symmetry_multiplicity
 _atom_site_fract_x
 _atom_site_fract_y
 _atom_site_fract_z
 _atom_site_occupancy
  Rb  Rb0  1  0.00009400  0.99990600  0.50000000  1
  Rb  Rb1  1  0.00002300  0.99997700  0.00000000  1
  Na  Na2  1  0.33339700  0.33326500  0.25000400  1
  Na  Na3  1  0.66673500  0.66660300  0.74999600  1
  Mg  Mg4  1  0.33334500  0.33374900  0.50390800  1
  Mg  Mg5  1  0.33332600  0.33332800  0.99633400  1
  Mg  Mg6  1  0.66667200  0.66667400  0.00366600  1
  Mg  Mg7  1  0.66625100  0.66665500  0.49609200  1
  Mg  Mg8  1  0.50034300  0.00002300  0.50002700  1
  Mg  Mg9  1  0.99997700  0.49965700  0.49997300  1
  Zn  Zn10  1  0.50024500  0.49975500  0.50000000  1
  Zn  Zn11  1  0.49966900  0.00000200  0.00001200  1
  Zn  Zn12  1  0.99999800  0.50033100  0.99998800  1
  Zn  Zn13  1  0.50031000  0.49969000  0.00000000  1
  Si  Si14  1  0.35447900  0.88567700  0.35808300  1
  Si  Si15  1  0.88554500  0.75983600  0.35811300  1
  Si  Si16  1  0.76009900  0.35362100  0.35794200  1
  Si  Si17  1  0.35376800  0.88641300  0.14209600  1
  Si  Si18  1  0.88644700  0.75981000  0.14209100  1
  Si  Si19  1  0.75979900  0.35375800  0.14205800  1
  Si  Si20  1  0.24019000  0.11355400  0.85790900  1
  Si  Si21  1  0.64624200  0.24020100  0.85794200  1
  Si  Si22  1  0.11358700  0.64623200  0.85790400  1
  Si  Si23  1  0.24016400  0.11445500  0.64188700  1
  Si  Si24  1  0.64637900  0.23990100  0.64205800  1
  Si  Si25  1  0.11432300  0.64552100  0.64191700  1
  Si  Si26  1  0.64828500  0.11284100  0.14127400  1
  Si  Si27  1  0.11284500  0.23884900  0.14128200  1
  Si  Si28  1  0.23890200  0.64827000  0.14129100  1
  Si  Si29  1  0.64770500  0.11346300  0.35873900  1
  Si  Si30  1  0.11367100  0.23869700  0.35875000  1
  Si  Si31  1  0.23852300  0.64840800  0.35870200  1
  Si  Si32  1  0.76130300  0.88632900  0.64125000  1
  Si  Si33  1  0.35159200  0.76147700  0.64129800  1
  Si  Si34  1  0.88653700  0.35229500  0.64126100  1
  Si  Si35  1  0.76115100  0.88715500  0.85871800  1
  Si  Si36  1  0.35173000  0.76109800  0.85870900  1
  Si  Si37  1  0.88715900  0.35171500  0.85872600  1
  O  O38  1  0.49390400  0.84568600  0.42410600  1
  O  O39  1  0.84554200  0.66041000  0.42416400  1
  O  O40  1  0.66115400  0.49474200  0.42359900  1
  O  O41  1  0.49497200  0.84405000  0.07634300  1
  O  O42  1  0.84409400  0.66096700  0.07636600  1
  O  O43  1  0.66091700  0.49500100  0.07639100  1
  O  O44  1  0.33903300  0.15590600  0.92363400  1
  O  O45  1  0.50499900  0.33908300  0.92360900  1
  O  O46  1  0.15595000  0.50502800  0.92365700  1
  O  O47  1  0.33959000  0.15445800  0.57583600  1
  O  O48  1  0.50525800  0.33884600  0.57640100  1
  O  O49  1  0.15431400  0.50609600  0.57589400  1
  O  O50  1  0.50216900  0.15749400  0.07923800  1
  O  O51  1  0.15748700  0.34033900  0.07925200  1
  O  O52  1  0.34040200  0.50212200  0.07930200  1
  O  O53  1  0.50318300  0.15574100  0.42113500  1
  O  O54  1  0.15569900  0.34115800  0.42110500  1
  O  O55  1  0.34022800  0.50226500  0.42067200  1
  O  O56  1  0.65884200  0.84430100  0.57889500  1
  O  O57  1  0.49773500  0.65977200  0.57932800  1
  O  O58  1  0.84425900  0.49681700  0.57886500  1
  O  O59  1  0.65966100  0.84251300  0.92074800  1
  O  O60  1  0.49787800  0.65959800  0.92069800  1
  O  O61  1  0.84250600  0.49783100  0.92076200  1
  O  O62  1  0.40076700  0.87062200  0.24987500  1
  O  O63  1  0.87063200  0.72873600  0.24989300  1
  O  O64  1  0.72861000  0.40062300  0.24992800  1
  O  O65  1  0.27126400  0.12936800  0.75010700  1
  O  O66  1  0.59937700  0.27139000  0.75007200  1
  O  O67  1  0.12937800  0.59923300  0.75012500  1
  O  O68  1  0.59399800  0.13624500  0.24989000  1
  O  O69  1  0.13618000  0.26968300  0.24988400  1
  O  O70  1  0.26978600  0.59416800  0.24995000  1
  O  O71  1  0.73031700  0.86382000  0.75011600  1
  O  O72  1  0.40583200  0.73021400  0.75005000  1
  O  O73  1  0.86375500  0.40600200  0.75011000  1
  O  O74  1  0.27606300  0.78276100  0.37900200  1
  O  O75  1  0.78187600  0.94103900  0.37932200  1
  O  O76  1  0.94109500  0.27715400  0.37938800  1
  O  O77  1  0.27642200  0.78269500  0.12084300  1
  O  O78  1  0.78273700  0.94088800  0.12079000  1
  O  O79  1  0.94088700  0.27641600  0.12086100  1
  O  O80  1  0.05911200  0.21726300  0.87921000  1
  O  O81  1  0.72358400  0.05911300  0.87913900  1
  O  O82  1  0.21730500  0.72357800  0.87915700  1
  O  O83  1  0.05896100  0.21812400  0.62067800  1
  O  O84  1  0.72284600  0.05890500  0.62061200  1
  O  O85  1  0.21723900  0.72393700  0.62099800  1
  O  O86  1  0.72442200  0.21690100  0.12056000  1
  O  O87  1  0.21688100  0.05865700  0.12048700  1
  O  O88  1  0.05870400  0.72439900  0.12053300  1
  O  O89  1  0.72464000  0.21684800  0.37933700  1
  O  O90  1  0.21770900  0.05857200  0.37956200  1
  O  O91  1  0.05844500  0.72371900  0.37960300  1
  O  O92  1  0.94142800  0.78229100  0.62043800  1
  O  O93  1  0.27628100  0.94155500  0.62039700  1
  O  O94  1  0.78315200  0.27536000  0.62066300  1
  O  O95  1  0.94134300  0.78311900  0.87951300  1
  O  O96  1  0.27560100  0.94129600  0.87946700  1
  O  O97  1  0.78309900  0.27557800  0.87944000  1
