# generated using pymatgen
data_LiRuF6
_symmetry_space_group_name_H-M   'P 1'
_cell_length_a   5.46606294
_cell_length_b   5.46606294
_cell_length_c   5.46606302
_cell_angle_alpha   55.86518778
_cell_angle_beta   55.86518778
_cell_angle_gamma   55.86517694
_symmetry_Int_Tables_number   1
_chemical_formula_structural   LiRuF6
_chemical_formula_sum   'Li1 Ru1 F6'
_cell_volume   104.41180679
_cell_formula_units_Z   1
loop_
 _symmetry_equiv_pos_site_id
 _symmetry_equiv_pos_as_xyz
  1  'x, y, z'
loop_
 _atom_site_type_symbol
 _atom_site_label
 _atom_site_symmetry_multiplicity
 _atom_site_fract_x
 _atom_site_fract_y
 _atom_site_fract_z
 _atom_site_occupancy
  Li  Li0  1  0.50000000  0.50000000  0.50000000  1
  Ru  Ru1  1  0.00000000  0.00000000  0.00000000  1
  F  F2  1  0.36734800  0.10840600  0.76332100  1
  F  F3  1  0.76332100  0.36734800  0.10840600  1
  F  F4  1  0.10840600  0.76332100  0.36734800  1
  F  F5  1  0.63265200  0.89159400  0.23667900  1
  F  F6  1  0.23667900  0.63265200  0.89159400  1
  F  F7  1  0.89159400  0.23667900  0.63265200  1
