# generated using pymatgen
data_Hf2Zn
_symmetry_space_group_name_H-M   'P 1'
_cell_length_a   6.08381717
_cell_length_b   6.08381717
_cell_length_c   6.08381717
_cell_angle_alpha   148.96871332
_cell_angle_beta   148.96871332
_cell_angle_gamma   44.45736058
_symmetry_Int_Tables_number   1
_chemical_formula_structural   Hf2Zn
_chemical_formula_sum   'Hf2 Zn1'
_cell_volume   59.66261541
_cell_formula_units_Z   1
loop_
 _symmetry_equiv_pos_site_id
 _symmetry_equiv_pos_as_xyz
  1  'x, y, z'
loop_
 _atom_site_type_symbol
 _atom_site_label
 _atom_site_symmetry_multiplicity
 _atom_site_fract_x
 _atom_site_fract_y
 _atom_site_fract_z
 _atom_site_occupancy
  Hf  Hf0  1  0.65903000  0.65903000  0.00000000  1
  Hf  Hf1  1  0.34097000  0.34097000  0.00000000  1
  Zn  Zn2  1  0.00000000  0.00000000  0.00000000  1
