# generated using pymatgen
data_SmPO4
_symmetry_space_group_name_H-M   'P 1'
_cell_length_a   5.90243592
_cell_length_b   5.90243592
_cell_length_c   5.90243592
_cell_angle_alpha   105.78487098
_cell_angle_beta   105.78487098
_cell_angle_gamma   117.12592588
_symmetry_Int_Tables_number   1
_chemical_formula_structural   SmPO4
_chemical_formula_sum   'Sm2 P2 O8'
_cell_volume   156.15106398
_cell_formula_units_Z   2
loop_
 _symmetry_equiv_pos_site_id
 _symmetry_equiv_pos_as_xyz
  1  'x, y, z'
loop_
 _atom_site_type_symbol
 _atom_site_label
 _atom_site_symmetry_multiplicity
 _atom_site_fract_x
 _atom_site_fract_y
 _atom_site_fract_z
 _atom_site_occupancy
  Sm  Sm0  1  0.25000000  0.75000000  0.50000000  1
  Sm  Sm1  1  0.00000000  0.00000000  0.00000000  1
  P  P2  1  0.50000000  0.50000000  0.00000000  1
  P  P3  1  0.75000000  0.25000000  0.50000000  1
  O  O4  1  0.48596600  0.65695500  0.82901100  1
  O  O5  1  0.90695500  0.23596600  0.32901100  1
  O  O6  1  0.90695500  0.57794400  0.67098900  1
  O  O7  1  0.82794400  0.65695500  0.17098900  1
  O  O8  1  0.76403400  0.09304500  0.67098900  1
  O  O9  1  0.34304500  0.51403400  0.17098900  1
  O  O10  1  0.34304500  0.17205600  0.82901100  1
  O  O11  1  0.42205600  0.09304500  0.32901100  1
