# generated using pymatgen
data_Al4Fe2Si5O18
_symmetry_space_group_name_H-M   'P 1'
_cell_length_a   10.03890181
_cell_length_b   10.03890181
_cell_length_c   9.40853800
_cell_angle_alpha   90.00000000
_cell_angle_beta   90.00000000
_cell_angle_gamma   120.72560159
_symmetry_Int_Tables_number   1
_chemical_formula_structural   Al4Fe2Si5O18
_chemical_formula_sum   'Al8 Fe4 Si10 O36'
_cell_volume   815.08540835
_cell_formula_units_Z   2
loop_
 _symmetry_equiv_pos_site_id
 _symmetry_equiv_pos_as_xyz
  1  'x, y, z'
loop_
 _atom_site_type_symbol
 _atom_site_label
 _atom_site_symmetry_multiplicity
 _atom_site_fract_x
 _atom_site_fract_y
 _atom_site_fract_z
 _atom_site_occupancy
  Al  Al0  1  0.25720600  0.35602300  0.50000000  1
  Al  Al1  1  0.74279400  0.64397700  0.50000000  1
  Al  Al2  1  0.35602300  0.25720600  0.00000000  1
  Al  Al3  1  0.64397700  0.74279400  0.00000000  1
  Al  Al4  1  0.50000000  0.00000000  0.24959100  1
  Al  Al5  1  0.00000000  0.50000000  0.25040900  1
  Al  Al6  1  0.50000000  0.00000000  0.75040900  1
  Al  Al7  1  0.00000000  0.50000000  0.74959100  1
  Fe  Fe8  1  0.33715600  0.66284400  0.25000000  1
  Fe  Fe9  1  0.66284400  0.33715600  0.25000000  1
  Fe  Fe10  1  0.66284400  0.33715600  0.75000000  1
  Fe  Fe11  1  0.33715600  0.66284400  0.75000000  1
  Si  Si12  1  0.63188800  0.90124500  0.50000000  1
  Si  Si13  1  0.36811200  0.09875500  0.50000000  1
  Si  Si14  1  0.90124500  0.63188800  0.00000000  1
  Si  Si15  1  0.09875500  0.36811200  0.00000000  1
  Si  Si16  1  0.73010300  0.11024100  0.00000000  1
  Si  Si17  1  0.26989700  0.88975900  0.00000000  1
  Si  Si18  1  0.11024100  0.73010300  0.50000000  1
  Si  Si19  1  0.88975900  0.26989700  0.50000000  1
  Si  Si20  1  0.50000000  0.50000000  0.25000000  1
  Si  Si21  1  0.50000000  0.50000000  0.75000000  1
  O  O22  1  0.65063400  0.13935500  0.14169900  1
  O  O23  1  0.34936600  0.86064500  0.14169900  1
  O  O24  1  0.13935500  0.65063400  0.35830100  1
  O  O25  1  0.86064500  0.34936600  0.35830100  1
  O  O26  1  0.34936600  0.86064500  0.85830100  1
  O  O27  1  0.65063400  0.13935500  0.85830100  1
  O  O28  1  0.86064500  0.34936600  0.64169900  1
  O  O29  1  0.13935500  0.65063400  0.64169900  1
  O  O30  1  0.52202800  0.86877400  0.35776400  1
  O  O31  1  0.47797200  0.13122600  0.35776400  1
  O  O32  1  0.86877400  0.52202800  0.14223600  1
  O  O33  1  0.13122600  0.47797200  0.14223600  1
  O  O34  1  0.47797200  0.13122600  0.64223600  1
  O  O35  1  0.52202800  0.86877400  0.64223600  1
  O  O36  1  0.13122600  0.47797200  0.85776400  1
  O  O37  1  0.86877400  0.52202800  0.85776400  1
  O  O38  1  0.35344900  0.47466600  0.34838100  1
  O  O39  1  0.64655100  0.52533400  0.34838100  1
  O  O40  1  0.47466600  0.35344900  0.15161900  1
  O  O41  1  0.52533400  0.64655100  0.15161900  1
  O  O42  1  0.64655100  0.52533400  0.65161900  1
  O  O43  1  0.35344900  0.47466600  0.65161900  1
  O  O44  1  0.52533400  0.64655100  0.84838100  1
  O  O45  1  0.47466600  0.35344900  0.84838100  1
  O  O46  1  0.70817700  0.79569300  0.50000000  1
  O  O47  1  0.29182300  0.20430700  0.50000000  1
  O  O48  1  0.79569300  0.70817700  0.00000000  1
  O  O49  1  0.20430700  0.29182300  0.00000000  1
  O  O50  1  0.76188700  0.08592500  0.50000000  1
  O  O51  1  0.23811300  0.91407500  0.50000000  1
  O  O52  1  0.08592500  0.76188700  0.00000000  1
  O  O53  1  0.91407500  0.23811300  0.00000000  1
  O  O54  1  0.69169800  0.93425900  0.00000000  1
  O  O55  1  0.30830200  0.06574100  0.00000000  1
  O  O56  1  0.93425900  0.69169800  0.50000000  1
  O  O57  1  0.06574100  0.30830200  0.50000000  1
