# generated using pymatgen
data_SrGaF5
_symmetry_space_group_name_H-M   'P 1'
_cell_length_a   11.01636542
_cell_length_b   11.01636542
_cell_length_c   11.01636542
_cell_angle_alpha   96.57105612
_cell_angle_beta   96.57105612
_cell_angle_gamma   140.45541339
_symmetry_Int_Tables_number   1
_chemical_formula_structural   SrGaF5
_chemical_formula_sum   'Sr8 Ga8 F40'
_cell_volume   801.02362286
_cell_formula_units_Z   8
loop_
 _symmetry_equiv_pos_site_id
 _symmetry_equiv_pos_as_xyz
  1  'x, y, z'
loop_
 _atom_site_type_symbol
 _atom_site_label
 _atom_site_symmetry_multiplicity
 _atom_site_fract_x
 _atom_site_fract_y
 _atom_site_fract_z
 _atom_site_occupancy
  Sr  Sr0  1  0.93082600  0.20439200  0.17580400  1
  Sr  Sr1  1  0.02858900  0.75502200  0.82419600  1
  Sr  Sr2  1  0.20439200  0.02858900  0.27356700  1
  Sr  Sr3  1  0.75502200  0.93082600  0.72643300  1
  Sr  Sr4  1  0.72510300  0.41008100  0.18106800  1
  Sr  Sr5  1  0.22901200  0.54403500  0.81893200  1
  Sr  Sr6  1  0.41008100  0.22901200  0.68497700  1
  Sr  Sr7  1  0.54403500  0.72510300  0.31502300  1
  Ga  Ga8  1  0.71726800  0.71726800  0.00000000  1
  Ga  Ga9  1  0.64698900  0.16448100  0.85204100  1
  Ga  Ga10  1  0.31244000  0.79494800  0.14795900  1
  Ga  Ga11  1  0.16448100  0.31244000  0.51749200  1
  Ga  Ga12  1  0.79494800  0.64698900  0.48250800  1
  Ga  Ga13  1  0.21916900  0.21916900  0.00000000  1
  Ga  Ga14  1  0.97205700  0.47205700  0.50000000  1
  Ga  Ga15  1  0.47205700  0.97205700  0.50000000  1
  F  F16  1  0.51508600  0.90424500  0.81247600  1
  F  F17  1  0.09176900  0.70261000  0.18752400  1
  F  F18  1  0.90424500  0.09176900  0.38916000  1
  F  F19  1  0.70261000  0.51508600  0.61084000  1
  F  F20  1  0.72203400  0.22203400  0.50000000  1
  F  F21  1  0.22203400  0.72203400  0.50000000  1
  F  F22  1  0.46752800  0.46752800  0.00000000  1
  F  F23  1  0.41134500  0.06939200  0.86317600  1
  F  F24  1  0.20621600  0.54817000  0.13682400  1
  F  F25  1  0.06939200  0.20621600  0.65804600  1
  F  F26  1  0.54817000  0.41134500  0.34195400  1
  F  F27  1  0.75626300  0.24420400  0.03266200  1
  F  F28  1  0.21154200  0.72360100  0.96733800  1
  F  F29  1  0.24420400  0.21154200  0.48794100  1
  F  F30  1  0.72360100  0.75626300  0.51205900  1
  F  F31  1  0.55560500  0.90515900  0.14178600  1
  F  F32  1  0.76337300  0.41381900  0.85821400  1
  F  F33  1  0.90515900  0.76337300  0.34955400  1
  F  F34  1  0.41381900  0.55560500  0.65044600  1
  F  F35  1  0.96817200  0.96817200  0.00000000  1
  F  F36  1  0.90835500  0.36283000  0.32098400  1
  F  F37  1  0.04184700  0.58737100  0.67901600  1
  F  F38  1  0.36283000  0.04184700  0.45447600  1
  F  F39  1  0.58737100  0.90835500  0.54552400  1
  F  F40  1  0.32876300  0.16153900  0.07593200  1
  F  F41  1  0.08560700  0.25283200  0.92406800  1
  F  F42  1  0.16153900  0.08560700  0.83277600  1
  F  F43  1  0.25283200  0.32876300  0.16722400  1
  F  F44  1  0.51879100  0.08953300  0.66883000  1
  F  F45  1  0.42070400  0.84996100  0.33117000  1
  F  F46  1  0.08953300  0.42070400  0.57074200  1
  F  F47  1  0.84996100  0.51879100  0.42925800  1
  F  F48  1  0.60371600  0.76832600  0.91845300  1
  F  F49  1  0.84987300  0.68526300  0.08154700  1
  F  F50  1  0.76832600  0.84987300  0.16461000  1
  F  F51  1  0.68526300  0.60371600  0.83539000  1
  F  F52  1  0.44290100  0.05542000  0.19569500  1
  F  F53  1  0.85972500  0.24720700  0.80430500  1
  F  F54  1  0.05542000  0.85972500  0.61251900  1
  F  F55  1  0.24720700  0.44290100  0.38748100  1
