# generated using pymatgen
data_TbRu2
_symmetry_space_group_name_H-M   'P 1'
_cell_length_a   5.27691660
_cell_length_b   5.27691660
_cell_length_c   9.00255800
_cell_angle_alpha   90.00000000
_cell_angle_beta   90.00000000
_cell_angle_gamma   120.00000750
_symmetry_Int_Tables_number   1
_chemical_formula_structural   TbRu2
_chemical_formula_sum   'Tb4 Ru8'
_cell_volume   217.09858222
_cell_formula_units_Z   4
loop_
 _symmetry_equiv_pos_site_id
 _symmetry_equiv_pos_as_xyz
  1  'x, y, z'
loop_
 _atom_site_type_symbol
 _atom_site_label
 _atom_site_symmetry_multiplicity
 _atom_site_fract_x
 _atom_site_fract_y
 _atom_site_fract_z
 _atom_site_occupancy
  Tb  Tb0  1  0.33333300  0.66666700  0.43374400  1
  Tb  Tb1  1  0.66666700  0.33333300  0.56625600  1
  Tb  Tb2  1  0.66666700  0.33333300  0.93374400  1
  Tb  Tb3  1  0.33333300  0.66666700  0.06625600  1
  Ru  Ru4  1  0.00000000  0.00000000  0.50000000  1
  Ru  Ru5  1  0.00000000  0.00000000  0.00000000  1
  Ru  Ru6  1  0.82884100  0.17115900  0.25000000  1
  Ru  Ru7  1  0.82884100  0.65768200  0.25000000  1
  Ru  Ru8  1  0.34231800  0.17115900  0.25000000  1
  Ru  Ru9  1  0.17115900  0.82884100  0.75000000  1
  Ru  Ru10  1  0.17115900  0.34231800  0.75000000  1
  Ru  Ru11  1  0.65768200  0.82884100  0.75000000  1
