# generated using pymatgen
data_Lu3Ga2
_symmetry_space_group_name_H-M   'P 1'
_cell_length_a   10.83895858
_cell_length_b   10.83895858
_cell_length_c   10.83895858
_cell_angle_alpha   116.90016223
_cell_angle_beta   116.90016223
_cell_angle_gamma   95.45854495
_symmetry_Int_Tables_number   1
_chemical_formula_structural   Lu3Ga2
_chemical_formula_sum   'Lu24 Ga16'
_cell_volume   938.00627515
_cell_formula_units_Z   8
loop_
 _symmetry_equiv_pos_site_id
 _symmetry_equiv_pos_as_xyz
  1  'x, y, z'
loop_
 _atom_site_type_symbol
 _atom_site_label
 _atom_site_symmetry_multiplicity
 _atom_site_fract_x
 _atom_site_fract_y
 _atom_site_fract_z
 _atom_site_occupancy
  Lu  Lu0  1  0.14635800  0.64635800  0.50000000  1
  Lu  Lu1  1  0.64635800  0.14635800  0.50000000  1
  Lu  Lu2  1  0.85364200  0.35364200  0.50000000  1
  Lu  Lu3  1  0.35364200  0.85364200  0.50000000  1
  Lu  Lu4  1  0.66886200  0.16886200  0.83772300  1
  Lu  Lu5  1  0.33113800  0.83113800  0.16227700  1
  Lu  Lu6  1  0.16886200  0.33113800  0.50000000  1
  Lu  Lu7  1  0.83113800  0.66886200  0.50000000  1
  Lu  Lu8  1  0.06770700  0.93107100  0.27157300  1
  Lu  Lu9  1  0.65949800  0.79613300  0.72842700  1
  Lu  Lu10  1  0.56770700  0.29613300  0.13663500  1
  Lu  Lu11  1  0.15949800  0.43107100  0.86336500  1
  Lu  Lu12  1  0.79613300  0.06770700  0.13663500  1
  Lu  Lu13  1  0.93107100  0.65949800  0.86336500  1
  Lu  Lu14  1  0.43107100  0.56770700  0.27157300  1
  Lu  Lu15  1  0.29613300  0.15949800  0.72842700  1
  Lu  Lu16  1  0.93229300  0.06892900  0.72842700  1
  Lu  Lu17  1  0.34050200  0.20386700  0.27157300  1
  Lu  Lu18  1  0.43229300  0.70386700  0.86336500  1
  Lu  Lu19  1  0.84050200  0.56892900  0.13663500  1
  Lu  Lu20  1  0.20386700  0.93229300  0.86336500  1
  Lu  Lu21  1  0.06892900  0.34050200  0.13663500  1
  Lu  Lu22  1  0.56892900  0.43229300  0.72842700  1
  Lu  Lu23  1  0.70386700  0.84050200  0.27157300  1
  Ga  Ga24  1  0.75000000  0.75000000  0.00000000  1
  Ga  Ga25  1  0.25000000  0.25000000  0.00000000  1
  Ga  Ga26  1  0.00000000  0.00000000  0.00000000  1
  Ga  Ga27  1  0.50000000  0.50000000  0.00000000  1
  Ga  Ga28  1  0.11733500  0.61733500  0.73467000  1
  Ga  Ga29  1  0.88266500  0.38266500  0.26533000  1
  Ga  Ga30  1  0.61733500  0.88266500  0.50000000  1
  Ga  Ga31  1  0.38266500  0.11733500  0.50000000  1
  Ga  Ga32  1  0.87758900  0.37758900  0.85480000  1
  Ga  Ga33  1  0.52278900  0.02278900  0.14520000  1
  Ga  Ga34  1  0.37758900  0.52278900  0.50000000  1
  Ga  Ga35  1  0.02278900  0.87758900  0.50000000  1
  Ga  Ga36  1  0.12241100  0.62241100  0.14520000  1
  Ga  Ga37  1  0.47721100  0.97721100  0.85480000  1
  Ga  Ga38  1  0.62241100  0.47721100  0.50000000  1
  Ga  Ga39  1  0.97721100  0.12241100  0.50000000  1
