# generated using pymatgen
data_Cs2MnH12(SO7)2
_symmetry_space_group_name_H-M   'P 1'
_cell_length_a   13.13424800
_cell_length_b   6.47893600
_cell_length_c   9.49761845
_cell_angle_alpha   73.10842016
_cell_angle_beta   90.00000000
_cell_angle_gamma   90.00000000
_symmetry_Int_Tables_number   1
_chemical_formula_structural   Cs2MnH12(SO7)2
_chemical_formula_sum   'Cs4 Mn2 H24 S4 O28'
_cell_volume   773.33975978
_cell_formula_units_Z   2
loop_
 _symmetry_equiv_pos_site_id
 _symmetry_equiv_pos_as_xyz
  1  'x, y, z'
loop_
 _atom_site_type_symbol
 _atom_site_label
 _atom_site_symmetry_multiplicity
 _atom_site_fract_x
 _atom_site_fract_y
 _atom_site_fract_z
 _atom_site_occupancy
  Cs  Cs0  1  0.14263700  0.64649600  0.62976900  1
  Cs  Cs1  1  0.64263700  0.35350400  0.87023100  1
  Cs  Cs2  1  0.85736300  0.35350400  0.37023100  1
  Cs  Cs3  1  0.35736300  0.64649600  0.12976900  1
  Mn  Mn4  1  0.50000000  0.00000000  0.50000000  1
  Mn  Mn5  1  0.00000000  0.00000000  0.00000000  1
  H  H6  1  0.39671500  0.68647500  0.71586800  1
  H  H7  1  0.89671500  0.31352500  0.78413200  1
  H  H8  1  0.60328500  0.31352500  0.28413200  1
  H  H9  1  0.10328500  0.68647500  0.21586800  1
  H  H10  1  0.36718400  0.91690700  0.74109400  1
  H  H11  1  0.86718400  0.08309300  0.75890600  1
  H  H12  1  0.63281600  0.08309300  0.25890600  1
  H  H13  1  0.13281600  0.91690700  0.24109400  1
  H  H14  1  0.40036600  0.07462300  0.22485900  1
  H  H15  1  0.90036600  0.92537700  0.27514100  1
  H  H16  1  0.59963400  0.92537700  0.77514100  1
  H  H17  1  0.09963400  0.07462300  0.72485900  1
  H  H18  1  0.31491200  0.01613800  0.34822100  1
  H  H19  1  0.81491200  0.98386200  0.15177900  1
  H  H20  1  0.68508800  0.98386200  0.65177900  1
  H  H21  1  0.18508800  0.01613800  0.84822100  1
  H  H22  1  0.56297400  0.65407100  0.41097900  1
  H  H23  1  0.06297400  0.34592900  0.08902100  1
  H  H24  1  0.43702600  0.34592900  0.58902100  1
  H  H25  1  0.93702600  0.65407100  0.91097900  1
  H  H26  1  0.64475300  0.67954900  0.52610000  1
  H  H27  1  0.14475300  0.32045100  0.97390000  1
  H  H28  1  0.35524700  0.32045100  0.47390000  1
  H  H29  1  0.85524700  0.67954900  0.02610000  1
  S  S30  1  0.35382400  0.26102400  0.89715200  1
  S  S31  1  0.85382400  0.73897600  0.60284800  1
  S  S32  1  0.64617600  0.73897600  0.10284800  1
  S  S33  1  0.14617600  0.26102400  0.39715200  1
  O  O34  1  0.26434100  0.39161000  0.91790400  1
  O  O35  1  0.76434100  0.60839000  0.58209600  1
  O  O36  1  0.73565900  0.60839000  0.08209600  1
  O  O37  1  0.23565900  0.39161000  0.41790400  1
  O  O38  1  0.41779700  0.20127300  0.03225700  1
  O  O39  1  0.91779700  0.79872700  0.46774300  1
  O  O40  1  0.58220300  0.79872700  0.96774300  1
  O  O41  1  0.08220300  0.20127300  0.53225700  1
  O  O42  1  0.41591600  0.39492000  0.77079000  1
  O  O43  1  0.91591600  0.60508000  0.72921000  1
  O  O44  1  0.58408400  0.60508000  0.22921000  1
  O  O45  1  0.08408400  0.39492000  0.27079000  1
  O  O46  1  0.31672900  0.06091500  0.86269200  1
  O  O47  1  0.81672900  0.93908500  0.63730800  1
  O  O48  1  0.68327100  0.93908500  0.13730800  1
  O  O49  1  0.18327100  0.06091500  0.36269200  1
  O  O50  1  0.38485900  0.84250600  0.66674200  1
  O  O51  1  0.88485900  0.15749400  0.83325800  1
  O  O52  1  0.61514100  0.15749400  0.33325800  1
  O  O53  1  0.11514100  0.84250600  0.16674200  1
  O  O54  1  0.38714500  0.98734400  0.32794600  1
  O  O55  1  0.88714500  0.01265600  0.17205400  1
  O  O56  1  0.61285500  0.01265600  0.67205400  1
  O  O57  1  0.11285500  0.98734400  0.82794600  1
  O  O58  1  0.57016300  0.69253700  0.50376900  1
  O  O59  1  0.07016300  0.30746300  0.99623100  1
  O  O60  1  0.42983700  0.30746300  0.49623100  1
  O  O61  1  0.92983700  0.69253700  0.00376900  1
