# generated using pymatgen
data_SrGa3Pd
_symmetry_space_group_name_H-M   'P 1'
_cell_length_a   6.19769922
_cell_length_b   6.19769922
_cell_length_c   6.04893900
_cell_angle_alpha   90.00000000
_cell_angle_beta   90.00000000
_cell_angle_gamma   116.99620392
_symmetry_Int_Tables_number   1
_chemical_formula_structural   SrGa3Pd
_chemical_formula_sum   'Sr2 Ga6 Pd2'
_cell_volume   207.03117150
_cell_formula_units_Z   2
loop_
 _symmetry_equiv_pos_site_id
 _symmetry_equiv_pos_as_xyz
  1  'x, y, z'
loop_
 _atom_site_type_symbol
 _atom_site_label
 _atom_site_symmetry_multiplicity
 _atom_site_fract_x
 _atom_site_fract_y
 _atom_site_fract_z
 _atom_site_occupancy
  Sr  Sr0  1  0.23491800  0.76508200  0.75000000  1
  Sr  Sr1  1  0.76508200  0.23491800  0.25000000  1
  Ga  Ga2  1  0.66256700  0.33743300  0.75000000  1
  Ga  Ga3  1  0.33743300  0.66256700  0.25000000  1
  Ga  Ga4  1  0.71913600  0.71913600  0.00000000  1
  Ga  Ga5  1  0.71913600  0.71913600  0.50000000  1
  Ga  Ga6  1  0.28086400  0.28086400  0.00000000  1
  Ga  Ga7  1  0.28086400  0.28086400  0.50000000  1
  Pd  Pd8  1  0.90243000  0.09757000  0.75000000  1
  Pd  Pd9  1  0.09757000  0.90243000  0.25000000  1
