# generated using pymatgen
data_Re24Mo5
_symmetry_space_group_name_H-M   'P 1'
_cell_length_a   8.35996146
_cell_length_b   8.35996146
_cell_length_c   8.35996146
_cell_angle_alpha   109.47122063
_cell_angle_beta   109.47122063
_cell_angle_gamma   109.47122063
_symmetry_Int_Tables_number   1
_chemical_formula_structural   Re24Mo5
_chemical_formula_sum   'Re24 Mo5'
_cell_volume   449.77046715
_cell_formula_units_Z   1
loop_
 _symmetry_equiv_pos_site_id
 _symmetry_equiv_pos_as_xyz
  1  'x, y, z'
loop_
 _atom_site_type_symbol
 _atom_site_label
 _atom_site_symmetry_multiplicity
 _atom_site_fract_x
 _atom_site_fract_y
 _atom_site_fract_z
 _atom_site_occupancy
  Re  Re0  1  0.31542600  0.31542600  0.71677100  1
  Re  Re1  1  0.40134500  0.68457400  0.00000000  1
  Re  Re2  1  0.68457400  0.40134500  0.00000000  1
  Re  Re3  1  0.59865500  0.28322900  0.59865500  1
  Re  Re4  1  0.40134500  0.00000000  0.68457400  1
  Re  Re5  1  0.00000000  0.40134500  0.68457400  1
  Re  Re6  1  0.28322900  0.59865500  0.59865500  1
  Re  Re7  1  0.71677100  0.31542600  0.31542600  1
  Re  Re8  1  0.31542600  0.71677100  0.31542600  1
  Re  Re9  1  0.68457400  0.00000000  0.40134500  1
  Re  Re10  1  0.00000000  0.68457400  0.40134500  1
  Re  Re11  1  0.59865500  0.59865500  0.28322900  1
  Re  Re12  1  0.80650400  0.80650400  0.18197700  1
  Re  Re13  1  0.37547400  0.19349600  0.00000000  1
  Re  Re14  1  0.19349600  0.37547400  0.00000000  1
  Re  Re15  1  0.62452600  0.81802300  0.62452600  1
  Re  Re16  1  0.37547400  0.00000000  0.19349600  1
  Re  Re17  1  0.00000000  0.37547400  0.19349600  1
  Re  Re18  1  0.81802300  0.62452600  0.62452600  1
  Re  Re19  1  0.18197700  0.80650400  0.80650400  1
  Re  Re20  1  0.80650400  0.18197700  0.80650400  1
  Re  Re21  1  0.19349600  0.00000000  0.37547400  1
  Re  Re22  1  0.00000000  0.19349600  0.37547400  1
  Re  Re23  1  0.62452600  0.62452600  0.81802300  1
  Mo  Mo24  1  0.00000000  0.00000000  0.00000000  1
  Mo  Mo25  1  0.00000000  0.00000000  0.64144800  1
  Mo  Mo26  1  0.64144800  0.00000000  0.00000000  1
  Mo  Mo27  1  0.00000000  0.64144800  0.00000000  1
  Mo  Mo28  1  0.35855200  0.35855200  0.35855200  1
