# generated using pymatgen
data_Na4Mg3P4O15
_symmetry_space_group_name_H-M   'P 1'
_cell_length_a   6.59298900
_cell_length_b   10.63309800
_cell_length_c   18.20090000
_cell_angle_alpha   90.00000000
_cell_angle_beta   90.00000000
_cell_angle_gamma   90.00000000
_symmetry_Int_Tables_number   1
_chemical_formula_structural   Na4Mg3P4O15
_chemical_formula_sum   'Na16 Mg12 P16 O60'
_cell_volume   1275.95403984
_cell_formula_units_Z   4
loop_
 _symmetry_equiv_pos_site_id
 _symmetry_equiv_pos_as_xyz
  1  'x, y, z'
loop_
 _atom_site_type_symbol
 _atom_site_label
 _atom_site_symmetry_multiplicity
 _atom_site_fract_x
 _atom_site_fract_y
 _atom_site_fract_z
 _atom_site_occupancy
  Na  Na0  1  0.57005000  0.76442100  0.89318400  1
  Na  Na1  1  0.07005000  0.23557900  0.10681600  1
  Na  Na2  1  0.07005000  0.26442100  0.60681600  1
  Na  Na3  1  0.57005000  0.73557900  0.39318400  1
  Na  Na4  1  0.99043400  0.24830800  0.79377800  1
  Na  Na5  1  0.49043400  0.75169200  0.20622200  1
  Na  Na6  1  0.49043400  0.74830800  0.70622200  1
  Na  Na7  1  0.99043400  0.25169200  0.29377800  1
  Na  Na8  1  0.95792100  0.47514900  0.99226000  1
  Na  Na9  1  0.45792100  0.52485100  0.00774000  1
  Na  Na10  1  0.45792100  0.97514900  0.50774000  1
  Na  Na11  1  0.95792100  0.02485100  0.49226000  1
  Na  Na12  1  0.81388800  0.04115600  0.96130100  1
  Na  Na13  1  0.31388800  0.95884400  0.03869900  1
  Na  Na14  1  0.31388800  0.54115600  0.53869900  1
  Na  Na15  1  0.81388800  0.45884400  0.46130100  1
  Mg  Mg16  1  0.73905700  0.99415400  0.63972700  1
  Mg  Mg17  1  0.23905700  0.00584600  0.36027300  1
  Mg  Mg18  1  0.23905700  0.49415400  0.86027300  1
  Mg  Mg19  1  0.73905700  0.50584600  0.13972700  1
  Mg  Mg20  1  0.47125300  0.24444700  0.73932800  1
  Mg  Mg21  1  0.97125300  0.75555300  0.26067200  1
  Mg  Mg22  1  0.97125300  0.74444700  0.76067200  1
  Mg  Mg23  1  0.47125300  0.25555300  0.23932800  1
  Mg  Mg24  1  0.74984600  0.50520500  0.66666500  1
  Mg  Mg25  1  0.24984600  0.49479500  0.33333500  1
  Mg  Mg26  1  0.24984600  0.00520500  0.83333500  1
  Mg  Mg27  1  0.74984600  0.99479500  0.16666500  1
  P  P28  1  0.73194900  0.48774400  0.81991000  1
  P  P29  1  0.23194900  0.51225600  0.18009000  1
  P  P30  1  0.23194900  0.98774400  0.68009000  1
  P  P31  1  0.73194900  0.01225600  0.31991000  1
  P  P32  1  0.74211000  0.00308200  0.79194000  1
  P  P33  1  0.24211000  0.99691800  0.20806000  1
  P  P34  1  0.24211000  0.50308200  0.70806000  1
  P  P35  1  0.74211000  0.49691800  0.29194000  1
  P  P36  1  0.59968600  0.26389300  0.56919900  1
  P  P37  1  0.09968600  0.73610700  0.43080100  1
  P  P38  1  0.09968600  0.76389300  0.93080100  1
  P  P39  1  0.59968600  0.23610700  0.06919900  1
  P  P40  1  0.28897400  0.27085900  0.44853600  1
  P  P41  1  0.78897400  0.72914100  0.55146400  1
  P  P42  1  0.78897400  0.77085900  0.05146400  1
  P  P43  1  0.28897400  0.22914100  0.94853600  1
  O  O44  1  0.71206700  0.13769800  0.56131400  1
  O  O45  1  0.21206700  0.86230200  0.43868600  1
  O  O46  1  0.21206700  0.63769800  0.93868600  1
  O  O47  1  0.71206700  0.36230200  0.06131400  1
  O  O48  1  0.70251500  0.11416200  0.73659600  1
  O  O49  1  0.20251500  0.88583800  0.26340400  1
  O  O50  1  0.20251500  0.61416200  0.76340400  1
  O  O51  1  0.70251500  0.38583800  0.23659600  1
  O  O52  1  0.56131100  0.97618400  0.84248900  1
  O  O53  1  0.06131100  0.02381600  0.15751100  1
  O  O54  1  0.06131100  0.47618400  0.65751100  1
  O  O55  1  0.56131100  0.52381600  0.34248900  1
  O  O56  1  0.93205700  0.03594700  0.83811000  1
  O  O57  1  0.43205700  0.96405300  0.16189000  1
  O  O58  1  0.43205700  0.53594700  0.66189000  1
  O  O59  1  0.93205700  0.46405300  0.33811000  1
  O  O60  1  0.74679100  0.37259300  0.58407000  1
  O  O61  1  0.24679100  0.62740700  0.41593000  1
  O  O62  1  0.24679100  0.87259300  0.91593000  1
  O  O63  1  0.74679100  0.12740700  0.08407000  1
  O  O64  1  0.75744800  0.60479900  0.76807800  1
  O  O65  1  0.25744800  0.39520100  0.23192200  1
  O  O66  1  0.25744800  0.10479900  0.73192200  1
  O  O67  1  0.75744800  0.89520100  0.26807800  1
  O  O68  1  0.92684200  0.45644400  0.86349600  1
  O  O69  1  0.42684200  0.54355600  0.13650400  1
  O  O70  1  0.42684200  0.95644400  0.63650400  1
  O  O71  1  0.92684200  0.04355600  0.36349600  1
  O  O72  1  0.55163400  0.51238700  0.87209300  1
  O  O73  1  0.05163400  0.48761300  0.12790700  1
  O  O74  1  0.05163400  0.01238700  0.62790700  1
  O  O75  1  0.55163400  0.98761300  0.37209300  1
  O  O76  1  0.27219600  0.38720500  0.76082700  1
  O  O77  1  0.77219600  0.61279500  0.23917300  1
  O  O78  1  0.77219600  0.88720500  0.73917300  1
  O  O79  1  0.27219600  0.11279500  0.26082700  1
  O  O80  1  0.69659600  0.37706000  0.76357200  1
  O  O81  1  0.19659600  0.62294000  0.23642800  1
  O  O82  1  0.19659600  0.87706000  0.73642800  1
  O  O83  1  0.69659600  0.12294000  0.26357200  1
  O  O84  1  0.92653900  0.75856400  0.87572800  1
  O  O85  1  0.42653900  0.24143600  0.12427200  1
  O  O86  1  0.42653900  0.25856400  0.62427200  1
  O  O87  1  0.92653900  0.74143600  0.37572800  1
  O  O88  1  0.51356400  0.29860600  0.48693500  1
  O  O89  1  0.01356400  0.70139400  0.51306500  1
  O  O90  1  0.01356400  0.79860600  0.01306500  1
  O  O91  1  0.51356400  0.20139400  0.98693500  1
  O  O92  1  0.31294800  0.31251300  0.36864500  1
  O  O93  1  0.81294800  0.68748700  0.63135500  1
  O  O94  1  0.81294800  0.81251300  0.13135500  1
  O  O95  1  0.31294800  0.18748700  0.86864500  1
  O  O96  1  0.13897400  0.35112600  0.49150300  1
  O  O97  1  0.63897400  0.64887400  0.50849700  1
  O  O98  1  0.63897400  0.85112600  0.00849700  1
  O  O99  1  0.13897400  0.14887400  0.99150300  1
  O  O100  1  0.25164900  0.12855900  0.45430300  1
  O  O101  1  0.75164900  0.87144100  0.54569700  1
  O  O102  1  0.75164900  0.62855900  0.04569700  1
  O  O103  1  0.25164900  0.37144100  0.95430300  1
