# generated using pymatgen
data_NaMn2Si3BH2O11
_symmetry_space_group_name_H-M   'P 1'
_cell_length_a   6.92119200
_cell_length_b   7.63549469
_cell_length_c   9.02099888
_cell_angle_alpha   100.28772706
_cell_angle_beta   102.32185671
_cell_angle_gamma   102.70941122
_symmetry_Int_Tables_number   1
_chemical_formula_structural   NaMn2Si3BH2O11
_chemical_formula_sum   'Na2 Mn4 Si6 B2 H4 O22'
_cell_volume   441.43048650
_cell_formula_units_Z   2
loop_
 _symmetry_equiv_pos_site_id
 _symmetry_equiv_pos_as_xyz
  1  'x, y, z'
loop_
 _atom_site_type_symbol
 _atom_site_label
 _atom_site_symmetry_multiplicity
 _atom_site_fract_x
 _atom_site_fract_y
 _atom_site_fract_z
 _atom_site_occupancy
  Na  Na0  1  0.11255500  0.35133100  0.18515800  1
  Na  Na1  1  0.88744500  0.64866900  0.81484200  1
  Mn  Mn2  1  0.87070200  0.12453500  0.39033800  1
  Mn  Mn3  1  0.12929800  0.87546500  0.60966200  1
  Mn  Mn4  1  0.38100100  0.13047800  0.40156700  1
  Mn  Mn5  1  0.61899900  0.86952200  0.59843300  1
  Si  Si6  1  0.26890000  0.47157700  0.61705300  1
  Si  Si7  1  0.73110000  0.52842300  0.38294700  1
  Si  Si8  1  0.53843900  0.25679000  0.78385100  1
  Si  Si9  1  0.46156100  0.74321000  0.21614900  1
  Si  Si10  1  0.98259200  0.25894700  0.77264900  1
  Si  Si11  1  0.01740800  0.74105300  0.22735100  1
  B  B12  1  0.27813100  0.12705000  0.96680500  1
  B  B13  1  0.72186900  0.87295000  0.03319500  1
  H  H14  1  0.70281800  0.13726400  0.08357300  1
  H  H15  1  0.29718200  0.86273600  0.91642700  1
  H  H16  1  0.45265000  0.23787100  0.18265600  1
  H  H17  1  0.54735000  0.76212900  0.81734400  1
  O  O18  1  0.55963300  0.92210100  0.36419500  1
  O  O19  1  0.44036700  0.07789900  0.63580500  1
  O  O20  1  0.18726300  0.31452400  0.45243800  1
  O  O21  1  0.81273700  0.68547600  0.54756200  1
  O  O22  1  0.47749700  0.21416400  0.94039200  1
  O  O23  1  0.52250300  0.78583600  0.05960800  1
  O  O24  1  0.91388800  0.07776700  0.62784800  1
  O  O25  1  0.08611200  0.92223300  0.37215200  1
  O  O26  1  0.12628500  0.22783200  0.92645500  1
  O  O27  1  0.87371500  0.77216800  0.07354500  1
  O  O28  1  0.67344700  0.31463300  0.39572700  1
  O  O29  1  0.32655300  0.68536700  0.60427300  1
  O  O30  1  0.09209800  0.44414800  0.71802100  1
  O  O31  1  0.90790200  0.55585200  0.28197900  1
  O  O32  1  0.79128800  0.32103100  0.82872800  1
  O  O33  1  0.20871200  0.67896900  0.17127200  1
  O  O34  1  0.47547200  0.43780300  0.73079600  1
  O  O35  1  0.52452800  0.56219700  0.26920400  1
  O  O36  1  0.80335200  0.07159300  0.12452500  1
  O  O37  1  0.19664800  0.92840700  0.87547500  1
  O  O38  1  0.32157300  0.14181500  0.13955600  1
  O  O39  1  0.67842700  0.85818500  0.86044400  1
