# generated using pymatgen
data_Rh2(Se3Br2)3
_symmetry_space_group_name_H-M   'P 1'
_cell_length_a   15.70130691
_cell_length_b   15.70130691
_cell_length_c   15.70130691
_cell_angle_alpha   131.99756229
_cell_angle_beta   131.99756229
_cell_angle_gamma   70.23287701
_symmetry_Int_Tables_number   1
_chemical_formula_structural   Rh2(Se3Br2)3
_chemical_formula_sum   'Rh8 Se36 Br24'
_cell_volume   2095.46632467
_cell_formula_units_Z   4
loop_
 _symmetry_equiv_pos_site_id
 _symmetry_equiv_pos_as_xyz
  1  'x, y, z'
loop_
 _atom_site_type_symbol
 _atom_site_label
 _atom_site_symmetry_multiplicity
 _atom_site_fract_x
 _atom_site_fract_y
 _atom_site_fract_z
 _atom_site_occupancy
  Rh  Rh0  1  0.12062500  0.58962500  0.74422600  1
  Rh  Rh1  1  0.84539900  0.37639900  0.25577400  1
  Rh  Rh2  1  0.12639900  0.37062500  0.03100000  1
  Rh  Rh3  1  0.33962500  0.09539900  0.96900000  1
  Rh  Rh4  1  0.62937500  0.66037500  0.75577400  1
  Rh  Rh5  1  0.90460100  0.87360100  0.24422600  1
  Rh  Rh6  1  0.62360100  0.87937500  0.46900000  1
  Rh  Rh7  1  0.41037500  0.15460100  0.53100000  1
  Se  Se8  1  0.04634700  0.40497100  0.36213400  1
  Se  Se9  1  0.04283700  0.68421300  0.63786600  1
  Se  Se10  1  0.43421300  0.29634700  0.14137600  1
  Se  Se11  1  0.15497100  0.29283700  0.85862400  1
  Se  Se12  1  0.70365300  0.84502900  0.13786600  1
  Se  Se13  1  0.70716300  0.56578700  0.86213400  1
  Se  Se14  1  0.31578700  0.95365300  0.35862400  1
  Se  Se15  1  0.59502900  0.95716300  0.64137600  1
  Se  Se16  1  0.93746900  0.49669000  0.62459800  1
  Se  Se17  1  0.87209300  0.31287100  0.37540200  1
  Se  Se18  1  0.06287100  0.18746900  0.94077900  1
  Se  Se19  1  0.24669000  0.12209300  0.05922100  1
  Se  Se20  1  0.81253100  0.75331000  0.87540200  1
  Se  Se21  1  0.87790700  0.93712900  0.12459800  1
  Se  Se22  1  0.68712900  0.06253100  0.55922100  1
  Se  Se23  1  0.50331000  0.12790700  0.44077900  1
  Se  Se24  1  0.58225200  0.82725900  0.90917000  1
  Se  Se25  1  0.91809000  0.67308200  0.09083000  1
  Se  Se26  1  0.42308200  0.83225200  0.25499300  1
  Se  Se27  1  0.57725900  0.16809000  0.74500700  1
  Se  Se28  1  0.16774800  0.42274100  0.59083000  1
  Se  Se29  1  0.83191000  0.57691800  0.40917000  1
  Se  Se30  1  0.32691800  0.41774800  0.24500700  1
  Se  Se31  1  0.17274100  0.08191000  0.75499300  1
  Se  Se32  1  0.69115500  0.99572300  0.02588700  1
  Se  Se33  1  0.96983600  0.66526700  0.97411300  1
  Se  Se34  1  0.41526700  0.94115500  0.19543100  1
  Se  Se35  1  0.74572300  0.21983600  0.80456900  1
  Se  Se36  1  0.05884500  0.25427700  0.47411300  1
  Se  Se37  1  0.78016400  0.58473300  0.52588700  1
  Se  Se38  1  0.33473300  0.30884500  0.30456900  1
  Se  Se39  1  0.00427700  0.03016400  0.69543100  1
  Se  Se40  1  0.10610800  0.60610800  0.50000000  1
  Se  Se41  1  0.35610800  0.35610800  0.00000000  1
  Se  Se42  1  0.64389200  0.64389200  0.00000000  1
  Se  Se43  1  0.39389200  0.89389200  0.50000000  1
  Br  Br44  1  0.26803500  0.87974000  0.80602700  1
  Br  Br45  1  0.07371300  0.46200800  0.19397300  1
  Br  Br46  1  0.21200800  0.51803500  0.88829500  1
  Br  Br47  1  0.62974000  0.32371300  0.11170500  1
  Br  Br48  1  0.48196500  0.37026000  0.69397300  1
  Br  Br49  1  0.67628700  0.78799200  0.30602700  1
  Br  Br50  1  0.53799200  0.73196500  0.61170500  1
  Br  Br51  1  0.12026000  0.92628700  0.38829500  1
  Br  Br52  1  0.43864600  0.04256500  0.86497900  1
  Br  Br53  1  0.17758600  0.57366700  0.13502100  1
  Br  Br54  1  0.32366700  0.68864600  0.89608100  1
  Br  Br55  1  0.79256500  0.42758600  0.10391900  1
  Br  Br56  1  0.31135400  0.20743500  0.63502100  1
  Br  Br57  1  0.57241400  0.67633300  0.36497900  1
  Br  Br58  1  0.42633300  0.56135400  0.60391900  1
  Br  Br59  1  0.95743500  0.82241400  0.39608100  1
  Br  Br60  1  0.65979800  0.48112400  0.57360300  1
  Br  Br61  1  0.90752100  0.08619500  0.42639700  1
  Br  Br62  1  0.83619500  0.90979800  0.67867400  1
  Br  Br63  1  0.23112400  0.15752100  0.32132600  1
  Br  Br64  1  0.09020200  0.76887600  0.92639700  1
  Br  Br65  1  0.84247900  0.16380500  0.07360300  1
  Br  Br66  1  0.91380500  0.34020200  0.82132600  1
  Br  Br67  1  0.51887600  0.09247900  0.17867400  1
