# generated using pymatgen
data_GePb(S2O7)3
_symmetry_space_group_name_H-M   'P 1'
_cell_length_a   9.28730700
_cell_length_b   9.55410568
_cell_length_c   10.98411257
_cell_angle_alpha   89.26417408
_cell_angle_beta   93.27868913
_cell_angle_gamma   118.29425263
_symmetry_Int_Tables_number   1
_chemical_formula_structural   GePb(S2O7)3
_chemical_formula_sum   'Ge2 Pb2 S12 O42'
_cell_volume   856.67837634
_cell_formula_units_Z   2
loop_
 _symmetry_equiv_pos_site_id
 _symmetry_equiv_pos_as_xyz
  1  'x, y, z'
loop_
 _atom_site_type_symbol
 _atom_site_label
 _atom_site_symmetry_multiplicity
 _atom_site_fract_x
 _atom_site_fract_y
 _atom_site_fract_z
 _atom_site_occupancy
  Ge  Ge0  1  0.02101200  0.00991100  0.74769800  1
  Ge  Ge1  1  0.97898800  0.99008900  0.25230200  1
  Pb  Pb2  1  0.32285300  0.61803800  0.62538800  1
  Pb  Pb3  1  0.67714700  0.38196200  0.37461200  1
  S  S4  1  0.80479900  0.64809400  0.67979600  1
  S  S5  1  0.19520100  0.35190600  0.32020400  1
  S  S6  1  0.36164300  0.22285800  0.65230200  1
  S  S7  1  0.63835700  0.77714200  0.34769800  1
  S  S8  1  0.30243900  0.32862000  0.87814900  1
  S  S9  1  0.69756100  0.67138000  0.12185100  1
  S  S10  1  0.07333800  0.74058500  0.86299800  1
  S  S11  1  0.92666200  0.25941500  0.13700200  1
  S  S12  1  0.89905200  0.23471500  0.62383500  1
  S  S13  1  0.10094800  0.76528500  0.37616500  1
  S  S14  1  0.68706800  0.99963300  0.78974500  1
  S  S15  1  0.31293200  0.00036700  0.21025500  1
  O  O16  1  0.08127000  0.90480500  0.87111600  1
  O  O17  1  0.91873000  0.09519500  0.12888400  1
  O  O18  1  0.91784300  0.82088300  0.64853600  1
  O  O19  1  0.08215700  0.17911700  0.35146400  1
  O  O20  1  0.21294900  0.05952800  0.66187700  1
  O  O21  1  0.78705100  0.94047200  0.33812300  1
  O  O22  1  0.41669300  0.27696900  0.79520600  1
  O  O23  1  0.58330700  0.72303100  0.20479400  1
  O  O24  1  0.78738700  0.18697300  0.74174600  1
  O  O25  1  0.21261300  0.81302700  0.25825400  1
  O  O26  1  0.87827400  0.62710600  0.81394100  1
  O  O27  1  0.12172600  0.37289400  0.18605900  1
  O  O28  1  0.82882600  0.96619800  0.82904700  1
  O  O29  1  0.17117400  0.03380200  0.17095300  1
  O  O30  1  0.95431600  0.10877600  0.61825300  1
  O  O31  1  0.04568400  0.89122400  0.38174700  1
  O  O32  1  0.31866300  0.33620000  0.59424800  1
  O  O33  1  0.68133700  0.66380000  0.40575200  1
  O  O34  1  0.12823700  0.20126300  0.84231600  1
  O  O35  1  0.87176300  0.79873700  0.15768400  1
  O  O36  1  0.17502700  0.73511300  0.77061000  1
  O  O37  1  0.82497300  0.26488700  0.22939000  1
  O  O38  1  0.32532300  0.48095200  0.83486800  1
  O  O39  1  0.67467700  0.51904800  0.16513200  1
  O  O40  1  0.79811000  0.22032900  0.51547800  1
  O  O41  1  0.20189000  0.77967100  0.48452200  1
  O  O42  1  0.82613200  0.54624100  0.59502700  1
  O  O43  1  0.17386800  0.45375900  0.40497300  1
  O  O44  1  0.35272700  0.31623600  0.00037200  1
  O  O45  1  0.64727300  0.68376400  0.99962800  1
  O  O46  1  0.08025000  0.68447500  0.98228500  1
  O  O47  1  0.91975000  0.31552500  0.01771500  1
  O  O48  1  0.59160300  0.90429800  0.68436000  1
  O  O49  1  0.40839700  0.09570200  0.31564000  1
  O  O50  1  0.60809600  0.01183900  0.89251300  1
  O  O51  1  0.39190400  0.98816100  0.10748700  1
  O  O52  1  0.49348400  0.20664900  0.60586600  1
  O  O53  1  0.50651600  0.79335100  0.39413400  1
  O  O54  1  0.02975800  0.39045800  0.65754600  1
  O  O55  1  0.97024200  0.60954200  0.34245400  1
  O  O56  1  0.64122000  0.61596100  0.70012500  1
  O  O57  1  0.35878000  0.38403900  0.29987500  1
