# generated using pymatgen
data_P2Ir
_symmetry_space_group_name_H-M   'P 1'
_cell_length_a   5.83771600
_cell_length_b   5.79539100
_cell_length_c   5.90072822
_cell_angle_alpha   68.69319216
_cell_angle_beta   90.00000000
_cell_angle_gamma   90.00000000
_symmetry_Int_Tables_number   1
_chemical_formula_structural   P2Ir
_chemical_formula_sum   'P8 Ir4'
_cell_volume   185.98726208
_cell_formula_units_Z   4
loop_
 _symmetry_equiv_pos_site_id
 _symmetry_equiv_pos_as_xyz
  1  'x, y, z'
loop_
 _atom_site_type_symbol
 _atom_site_label
 _atom_site_symmetry_multiplicity
 _atom_site_fract_x
 _atom_site_fract_y
 _atom_site_fract_z
 _atom_site_occupancy
  P  P0  1  0.11893000  0.84209900  0.87091100  1
  P  P1  1  0.61893000  0.15790100  0.62908900  1
  P  P2  1  0.88107000  0.15790100  0.12908900  1
  P  P3  1  0.38107000  0.84209900  0.37091100  1
  P  P4  1  0.62356600  0.66589400  0.18899000  1
  P  P5  1  0.12356600  0.33410600  0.31101000  1
  P  P6  1  0.37643400  0.33410600  0.81101000  1
  P  P7  1  0.87643400  0.66589400  0.68899000  1
  Ir  Ir8  1  0.50070800  0.72832400  0.79180100  1
  Ir  Ir9  1  0.00070800  0.27167600  0.70819900  1
  Ir  Ir10  1  0.49929200  0.27167600  0.20819900  1
  Ir  Ir11  1  0.99929200  0.72832400  0.29180100  1
