# generated using pymatgen
data_Cs2NbAgSe4
_symmetry_space_group_name_H-M   'P 1'
_cell_length_a   14.98631258
_cell_length_b   13.34295381
_cell_length_c   8.10174739
_cell_angle_alpha   84.93618496
_cell_angle_beta   62.48224300
_cell_angle_gamma   32.58157204
_symmetry_Int_Tables_number   1
_chemical_formula_structural   Cs2NbAgSe4
_chemical_formula_sum   'Cs4 Nb2 Ag2 Se8'
_cell_volume   600.61982266
_cell_formula_units_Z   2
loop_
 _symmetry_equiv_pos_site_id
 _symmetry_equiv_pos_as_xyz
  1  'x, y, z'
loop_
 _atom_site_type_symbol
 _atom_site_label
 _atom_site_symmetry_multiplicity
 _atom_site_fract_x
 _atom_site_fract_y
 _atom_site_fract_z
 _atom_site_occupancy
  Cs  Cs0  1  0.92932800  0.92932800  0.57067200  1
  Cs  Cs1  1  0.57067200  0.57067200  0.92932800  1
  Cs  Cs2  1  0.67932800  0.67932800  0.32067200  1
  Cs  Cs3  1  0.32067200  0.32067200  0.67932800  1
  Nb  Nb4  1  0.75000000  0.75000000  0.75000000  1
  Nb  Nb5  1  0.50000000  0.50000000  0.50000000  1
  Ag  Ag6  1  0.00000000  0.00000000  0.00000000  1
  Ag  Ag7  1  0.25000000  0.25000000  0.25000000  1
  Se  Se8  1  0.56783600  0.32206400  0.23917300  1
  Se  Se9  1  0.87092700  0.23917300  0.32206400  1
  Se  Se10  1  0.23917300  0.87092700  0.56783600  1
  Se  Se11  1  0.32206400  0.56783600  0.87092700  1
  Se  Se12  1  0.92793600  0.68216400  0.37907300  1
  Se  Se13  1  0.37907300  0.01082700  0.92793600  1
  Se  Se14  1  0.01082700  0.37907300  0.68216400  1
  Se  Se15  1  0.68216400  0.92793600  0.01082700  1
