# generated using pymatgen
data_KTm2Cl7
_symmetry_space_group_name_H-M   'P 1'
_cell_length_a   6.86395825
_cell_length_b   12.49898800
_cell_length_c   13.19065909
_cell_angle_alpha   90.00000000
_cell_angle_beta   90.89746591
_cell_angle_gamma   90.00000000
_symmetry_Int_Tables_number   1
_chemical_formula_structural   KTm2Cl7
_chemical_formula_sum   'K4 Tm8 Cl28'
_cell_volume   1131.52121375
_cell_formula_units_Z   4
loop_
 _symmetry_equiv_pos_site_id
 _symmetry_equiv_pos_as_xyz
  1  'x, y, z'
loop_
 _atom_site_type_symbol
 _atom_site_label
 _atom_site_symmetry_multiplicity
 _atom_site_fract_x
 _atom_site_fract_y
 _atom_site_fract_z
 _atom_site_occupancy
  K  K0  1  0.26597800  0.79898800  0.03837800  1
  K  K1  1  0.73402200  0.20101200  0.96162200  1
  K  K2  1  0.73402200  0.29898800  0.46162200  1
  K  K3  1  0.26597800  0.70101200  0.53837800  1
  Tm  Tm4  1  0.22055800  0.46248300  0.23798900  1
  Tm  Tm5  1  0.77944200  0.53751700  0.76201100  1
  Tm  Tm6  1  0.77944200  0.96248300  0.26201100  1
  Tm  Tm7  1  0.22055800  0.03751700  0.73798900  1
  Tm  Tm8  1  0.27379600  0.16099700  0.24927100  1
  Tm  Tm9  1  0.72620400  0.83900300  0.75072900  1
  Tm  Tm10  1  0.72620400  0.66099700  0.25072900  1
  Tm  Tm11  1  0.27379600  0.33900300  0.74927100  1
  Cl  Cl12  1  0.05621700  0.02714200  0.13471700  1
  Cl  Cl13  1  0.94378300  0.97285800  0.86528300  1
  Cl  Cl14  1  0.94378300  0.52714200  0.36528300  1
  Cl  Cl15  1  0.05621700  0.47285800  0.63471700  1
  Cl  Cl16  1  0.25651800  0.31479200  0.39187900  1
  Cl  Cl17  1  0.74348200  0.68520800  0.60812100  1
  Cl  Cl18  1  0.74348200  0.81479200  0.10812100  1
  Cl  Cl19  1  0.25651800  0.18520800  0.89187900  1
  Cl  Cl20  1  0.48269400  0.32230100  0.17404600  1
  Cl  Cl21  1  0.51730600  0.67769900  0.82595400  1
  Cl  Cl22  1  0.51730600  0.82230100  0.32595400  1
  Cl  Cl23  1  0.48269400  0.17769900  0.67404600  1
  Cl  Cl24  1  0.02593800  0.07397600  0.37853900  1
  Cl  Cl25  1  0.97406200  0.92602400  0.62146100  1
  Cl  Cl26  1  0.97406200  0.57397600  0.12146100  1
  Cl  Cl27  1  0.02593800  0.42602400  0.87853900  1
  Cl  Cl28  1  0.53617100  0.05854000  0.13170500  1
  Cl  Cl29  1  0.46382900  0.94146000  0.86829500  1
  Cl  Cl30  1  0.46382900  0.55854000  0.36829500  1
  Cl  Cl31  1  0.53617100  0.44146000  0.63170500  1
  Cl  Cl32  1  0.00307100  0.29705800  0.17613700  1
  Cl  Cl33  1  0.99692900  0.70294200  0.82386300  1
  Cl  Cl34  1  0.99692900  0.79705800  0.32386300  1
  Cl  Cl35  1  0.00307100  0.20294200  0.67613700  1
  Cl  Cl36  1  0.54419800  0.08628100  0.37713500  1
  Cl  Cl37  1  0.45580200  0.91371900  0.62286500  1
  Cl  Cl38  1  0.45580200  0.58628100  0.12286500  1
  Cl  Cl39  1  0.54419800  0.41371900  0.87713500  1
