# generated using pymatgen
data_EuLuCuS3
_symmetry_space_group_name_H-M   'P 1'
_cell_length_a   6.66396825
_cell_length_b   6.66396825
_cell_length_c   9.99268900
_cell_angle_alpha   90.00000000
_cell_angle_beta   90.00000000
_cell_angle_gamma   146.30424360
_symmetry_Int_Tables_number   1
_chemical_formula_structural   EuLuCuS3
_chemical_formula_sum   'Eu2 Lu2 Cu2 S6'
_cell_volume   246.19045086
_cell_formula_units_Z   2
loop_
 _symmetry_equiv_pos_site_id
 _symmetry_equiv_pos_as_xyz
  1  'x, y, z'
loop_
 _atom_site_type_symbol
 _atom_site_label
 _atom_site_symmetry_multiplicity
 _atom_site_fract_x
 _atom_site_fract_y
 _atom_site_fract_z
 _atom_site_occupancy
  Eu  Eu0  1  0.25262100  0.74737900  0.25000000  1
  Eu  Eu1  1  0.74737900  0.25262100  0.75000000  1
  Lu  Lu2  1  0.00000000  0.00000000  0.00000000  1
  Lu  Lu3  1  0.00000000  0.00000000  0.50000000  1
  Cu  Cu4  1  0.53187900  0.46812100  0.25000000  1
  Cu  Cu5  1  0.46812100  0.53187900  0.75000000  1
  S  S6  1  0.63915000  0.36085000  0.06410900  1
  S  S7  1  0.36085000  0.63915000  0.93589100  1
  S  S8  1  0.36085000  0.63915000  0.56410900  1
  S  S9  1  0.63915000  0.36085000  0.43589100  1
  S  S10  1  0.92448100  0.07551900  0.25000000  1
  S  S11  1  0.07551900  0.92448100  0.75000000  1
