# generated using pymatgen
data_U8TiS17
_symmetry_space_group_name_H-M   'P 1'
_cell_length_a   7.79637643
_cell_length_b   7.79637643
_cell_length_c   10.36897638
_cell_angle_alpha   80.82156720
_cell_angle_beta   80.82156720
_cell_angle_gamma   64.94190661
_symmetry_Int_Tables_number   1
_chemical_formula_structural   U8TiS17
_chemical_formula_sum   'U8 Ti1 S17'
_cell_volume   560.64399861
_cell_formula_units_Z   1
loop_
 _symmetry_equiv_pos_site_id
 _symmetry_equiv_pos_as_xyz
  1  'x, y, z'
loop_
 _atom_site_type_symbol
 _atom_site_label
 _atom_site_symmetry_multiplicity
 _atom_site_fract_x
 _atom_site_fract_y
 _atom_site_fract_z
 _atom_site_occupancy
  U  U0  1  0.81717800  0.30069800  0.29885700  1
  U  U1  1  0.30069800  0.81717800  0.29885700  1
  U  U2  1  0.18282200  0.69930200  0.70114300  1
  U  U3  1  0.69930200  0.18282200  0.70114300  1
  U  U4  1  0.20419800  0.20419800  0.54182400  1
  U  U5  1  0.79580200  0.79580200  0.45817600  1
  U  U6  1  0.68379200  0.68379200  0.98324800  1
  U  U7  1  0.31620800  0.31620800  0.01675200  1
  Ti  Ti8  1  0.00000000  0.00000000  0.00000000  1
  S  S9  1  0.82113100  0.43223400  0.53532800  1
  S  S10  1  0.43223400  0.82113100  0.53532800  1
  S  S11  1  0.17886900  0.56776600  0.46467200  1
  S  S12  1  0.56776600  0.17886900  0.46467200  1
  S  S13  1  0.93847000  0.32523600  0.03030800  1
  S  S14  1  0.32523600  0.93847000  0.03030800  1
  S  S15  1  0.06153000  0.67476400  0.96969200  1
  S  S16  1  0.67476400  0.06153000  0.96969200  1
  S  S17  1  0.21140500  0.21140500  0.27746500  1
  S  S18  1  0.78859500  0.78859500  0.72253500  1
  S  S19  1  0.06180900  0.06180900  0.76959900  1
  S  S20  1  0.93819100  0.93819100  0.23040100  1
  S  S21  1  0.30233000  0.30233000  0.75453500  1
  S  S22  1  0.69767000  0.69767000  0.24546500  1
  S  S23  1  0.52168400  0.52168400  0.83111000  1
  S  S24  1  0.47831600  0.47831600  0.16889000  1
  S  S25  1  0.00000000  0.00000000  0.50000000  1
