# generated using pymatgen
data_Ga7Ni3
_symmetry_space_group_name_H-M   'P 1'
_cell_length_a   7.33061059
_cell_length_b   7.33061059
_cell_length_c   7.33061059
_cell_angle_alpha   109.47122063
_cell_angle_beta   109.47122063
_cell_angle_gamma   109.47122063
_symmetry_Int_Tables_number   1
_chemical_formula_structural   Ga7Ni3
_chemical_formula_sum   'Ga14 Ni6'
_cell_volume   303.24842911
_cell_formula_units_Z   2
loop_
 _symmetry_equiv_pos_site_id
 _symmetry_equiv_pos_as_xyz
  1  'x, y, z'
loop_
 _atom_site_type_symbol
 _atom_site_label
 _atom_site_symmetry_multiplicity
 _atom_site_fract_x
 _atom_site_fract_y
 _atom_site_fract_z
 _atom_site_occupancy
  Ga  Ga0  1  0.75000000  0.25000000  0.50000000  1
  Ga  Ga1  1  0.50000000  0.25000000  0.75000000  1
  Ga  Ga2  1  0.50000000  0.75000000  0.25000000  1
  Ga  Ga3  1  0.25000000  0.50000000  0.75000000  1
  Ga  Ga4  1  0.75000000  0.50000000  0.25000000  1
  Ga  Ga5  1  0.25000000  0.75000000  0.50000000  1
  Ga  Ga6  1  0.32319400  0.32319400  0.32319400  1
  Ga  Ga7  1  0.00000000  0.00000000  0.32319400  1
  Ga  Ga8  1  0.32319400  0.00000000  0.00000000  1
  Ga  Ga9  1  0.00000000  0.32319400  0.00000000  1
  Ga  Ga10  1  0.67680600  0.00000000  0.00000000  1
  Ga  Ga11  1  0.00000000  0.67680600  0.00000000  1
  Ga  Ga12  1  0.00000000  0.00000000  0.67680600  1
  Ga  Ga13  1  0.67680600  0.67680600  0.67680600  1
  Ni  Ni14  1  0.34984900  0.34984900  0.00000000  1
  Ni  Ni15  1  0.00000000  0.34984900  0.34984900  1
  Ni  Ni16  1  0.00000000  0.65015100  0.65015100  1
  Ni  Ni17  1  0.65015100  0.00000000  0.65015100  1
  Ni  Ni18  1  0.34984900  0.00000000  0.34984900  1
  Ni  Ni19  1  0.65015100  0.65015100  0.00000000  1
