# generated using pymatgen
data_Ho2CoGe4
_symmetry_space_group_name_H-M   'P 1'
_cell_length_a   4.09979300
_cell_length_b   4.12153800
_cell_length_c   8.18942146
_cell_angle_alpha   75.42555006
_cell_angle_beta   90.00000000
_cell_angle_gamma   90.00000000
_symmetry_Int_Tables_number   1
_chemical_formula_structural   Ho2CoGe4
_chemical_formula_sum   'Ho2 Co1 Ge4'
_cell_volume   133.92748610
_cell_formula_units_Z   1
loop_
 _symmetry_equiv_pos_site_id
 _symmetry_equiv_pos_as_xyz
  1  'x, y, z'
loop_
 _atom_site_type_symbol
 _atom_site_label
 _atom_site_symmetry_multiplicity
 _atom_site_fract_x
 _atom_site_fract_y
 _atom_site_fract_z
 _atom_site_occupancy
  Ho  Ho0  1  0.25000000  0.89566800  0.20866400  1
  Ho  Ho1  1  0.75000000  0.10417100  0.79165800  1
  Co  Co2  1  0.25000000  0.69114500  0.61770900  1
  Ge  Ge3  1  0.25000000  0.26016800  0.47966400  1
  Ge  Ge4  1  0.75000000  0.75767400  0.48465100  1
  Ge  Ge5  1  0.25000000  0.54675600  0.90648900  1
  Ge  Ge6  1  0.75000000  0.44341700  0.11316600  1
