# generated using pymatgen
data_SmMg2Cu9
_symmetry_space_group_name_H-M   'P 1'
_cell_length_a   5.03133841
_cell_length_b   5.03133841
_cell_length_c   16.17738000
_cell_angle_alpha   90.00000000
_cell_angle_beta   90.00000000
_cell_angle_gamma   120.00000543
_symmetry_Int_Tables_number   1
_chemical_formula_structural   SmMg2Cu9
_chemical_formula_sum   'Sm2 Mg4 Cu18'
_cell_volume   354.65480952
_cell_formula_units_Z   2
loop_
 _symmetry_equiv_pos_site_id
 _symmetry_equiv_pos_as_xyz
  1  'x, y, z'
loop_
 _atom_site_type_symbol
 _atom_site_label
 _atom_site_symmetry_multiplicity
 _atom_site_fract_x
 _atom_site_fract_y
 _atom_site_fract_z
 _atom_site_occupancy
  Sm  Sm0  1  0.66666700  0.33333300  0.25000000  1
  Sm  Sm1  1  0.33333300  0.66666700  0.75000000  1
  Mg  Mg2  1  0.66666700  0.33333300  0.46794000  1
  Mg  Mg3  1  0.33333300  0.66666700  0.96794000  1
  Mg  Mg4  1  0.66666700  0.33333300  0.03206000  1
  Mg  Mg5  1  0.33333300  0.66666700  0.53206000  1
  Cu  Cu6  1  0.33333300  0.66666700  0.25000000  1
  Cu  Cu7  1  0.66666700  0.33333300  0.75000000  1
  Cu  Cu8  1  0.16812500  0.83187500  0.37736700  1
  Cu  Cu9  1  0.16812500  0.33625100  0.37736700  1
  Cu  Cu10  1  0.00000000  0.00000000  0.75000000  1
  Cu  Cu11  1  0.00000000  0.00000000  0.25000000  1
  Cu  Cu12  1  0.00000000  0.00000000  0.00000000  1
  Cu  Cu13  1  0.00000000  0.00000000  0.50000000  1
  Cu  Cu14  1  0.16812500  0.33625100  0.12263300  1
  Cu  Cu15  1  0.83187500  0.16812500  0.62263300  1
  Cu  Cu16  1  0.33625100  0.16812500  0.62263300  1
  Cu  Cu17  1  0.66374900  0.83187500  0.12263300  1
  Cu  Cu18  1  0.16812500  0.83187500  0.12263300  1
  Cu  Cu19  1  0.83187500  0.66374900  0.87736700  1
  Cu  Cu20  1  0.83187500  0.16812500  0.87736700  1
  Cu  Cu21  1  0.83187500  0.66374900  0.62263300  1
  Cu  Cu22  1  0.33625100  0.16812500  0.87736700  1
  Cu  Cu23  1  0.66374900  0.83187500  0.37736700  1
