# generated using pymatgen
data_YbMoO4
_symmetry_space_group_name_H-M   'P 1'
_cell_length_a   6.78258236
_cell_length_b   6.78258236
_cell_length_c   6.78258236
_cell_angle_alpha   134.68650911
_cell_angle_beta   134.68650911
_cell_angle_gamma   66.01768569
_symmetry_Int_Tables_number   1
_chemical_formula_structural   YbMoO4
_chemical_formula_sum   'Yb2 Mo2 O8'
_cell_volume   155.30556256
_cell_formula_units_Z   2
loop_
 _symmetry_equiv_pos_site_id
 _symmetry_equiv_pos_as_xyz
  1  'x, y, z'
loop_
 _atom_site_type_symbol
 _atom_site_label
 _atom_site_symmetry_multiplicity
 _atom_site_fract_x
 _atom_site_fract_y
 _atom_site_fract_z
 _atom_site_occupancy
  Yb  Yb0  1  0.25000000  0.75000000  0.50000000  1
  Yb  Yb1  1  0.50000000  0.50000000  0.00000000  1
  Mo  Mo2  1  0.75000000  0.25000000  0.50000000  1
  Mo  Mo3  1  0.00000000  0.00000000  0.00000000  1
  O  O4  1  0.58937400  0.49146700  0.40924100  1
  O  O5  1  0.08222600  0.18013300  0.59075900  1
  O  O6  1  0.50853300  0.91777400  0.09790700  1
  O  O7  1  0.81986700  0.41062600  0.90209300  1
  O  O8  1  0.24146700  0.33222600  0.40209300  1
  O  O9  1  0.93013300  0.83937400  0.59790700  1
  O  O10  1  0.66777400  0.06986700  0.90924100  1
  O  O11  1  0.16062600  0.75853300  0.09075900  1
