# generated using pymatgen
data_HoP4HO12
_symmetry_space_group_name_H-M   'P 1'
_cell_length_a   7.18724300
_cell_length_b   9.78077400
_cell_length_c   13.77947689
_cell_angle_alpha   78.83492863
_cell_angle_beta   90.00000000
_cell_angle_gamma   90.00000000
_symmetry_Int_Tables_number   1
_chemical_formula_structural   HoP4HO12
_chemical_formula_sum   'Ho4 P16 H4 O48'
_cell_volume   950.31979641
_cell_formula_units_Z   4
loop_
 _symmetry_equiv_pos_site_id
 _symmetry_equiv_pos_as_xyz
  1  'x, y, z'
loop_
 _atom_site_type_symbol
 _atom_site_label
 _atom_site_symmetry_multiplicity
 _atom_site_fract_x
 _atom_site_fract_y
 _atom_site_fract_z
 _atom_site_occupancy
  Ho  Ho0  1  0.55565800  0.44129900  0.72973300  1
  Ho  Ho1  1  0.05565800  0.05870100  0.27026700  1
  Ho  Ho2  1  0.44434200  0.55870100  0.27026700  1
  Ho  Ho3  1  0.94434200  0.94129900  0.72973300  1
  P  P4  1  0.17464600  0.37489700  0.90114800  1
  P  P5  1  0.67464600  0.12510300  0.09885200  1
  P  P6  1  0.82535400  0.62510300  0.09885200  1
  P  P7  1  0.32535400  0.87489700  0.90114800  1
  P  P8  1  0.65459500  0.68862300  0.89752200  1
  P  P9  1  0.15459500  0.81137700  0.10247800  1
  P  P10  1  0.34540500  0.31137700  0.10247800  1
  P  P11  1  0.84540500  0.18862300  0.89752200  1
  P  P12  1  0.78756100  0.29330200  0.38639000  1
  P  P13  1  0.28756100  0.20669800  0.61361000  1
  P  P14  1  0.21243900  0.70669800  0.61361000  1
  P  P15  1  0.71243900  0.79330200  0.38639000  1
  P  P16  1  0.89636500  0.28730800  0.59516200  1
  P  P17  1  0.39636500  0.21269200  0.40483800  1
  P  P18  1  0.10363500  0.71269200  0.40483800  1
  P  P19  1  0.60363500  0.78730800  0.59516200  1
  H  H20  1  0.13158000  0.55696400  0.79258200  1
  H  H21  1  0.63158000  0.94303600  0.20741800  1
  H  H22  1  0.86842000  0.44303600  0.20741800  1
  H  H23  1  0.36842000  0.05696400  0.79258200  1
  O  O24  1  0.47747000  0.76115300  0.94211900  1
  O  O25  1  0.97747000  0.73884700  0.05788100  1
  O  O26  1  0.52253000  0.23884700  0.05788100  1
  O  O27  1  0.02253000  0.26115300  0.94211900  1
  O  O28  1  0.26622100  0.40365700  0.00049200  1
  O  O29  1  0.76622100  0.09634300  0.99950800  1
  O  O30  1  0.73377900  0.59634300  0.99950800  1
  O  O31  1  0.23377900  0.90365700  0.00049200  1
  O  O32  1  0.61815300  0.18648100  0.41642400  1
  O  O33  1  0.11815300  0.31351900  0.58357600  1
  O  O34  1  0.38184700  0.81351900  0.58357600  1
  O  O35  1  0.88184700  0.68648100  0.41642400  1
  O  O36  1  0.82524100  0.35356600  0.48495100  1
  O  O37  1  0.32524100  0.14643400  0.51504900  1
  O  O38  1  0.17475900  0.64643400  0.51504900  1
  O  O39  1  0.67475900  0.85356600  0.48495100  1
  O  O40  1  0.31241700  0.33091900  0.83249700  1
  O  O41  1  0.81241700  0.16908100  0.16750300  1
  O  O42  1  0.68758300  0.66908100  0.16750300  1
  O  O43  1  0.18758300  0.83091900  0.83249700  1
  O  O44  1  0.58262500  0.58760300  0.83835700  1
  O  O45  1  0.08262500  0.91239700  0.16164300  1
  O  O46  1  0.41737500  0.41239700  0.16164300  1
  O  O47  1  0.91737500  0.08760300  0.83835700  1
  O  O48  1  0.70730100  0.29787500  0.85570000  1
  O  O49  1  0.20730100  0.20212500  0.14430000  1
  O  O50  1  0.29269900  0.70212500  0.14430000  1
  O  O51  1  0.79269900  0.79787500  0.85570000  1
  O  O52  1  0.44950200  0.29177300  0.63680900  1
  O  O53  1  0.94950200  0.20822700  0.36319100  1
  O  O54  1  0.55049800  0.70822700  0.36319100  1
  O  O55  1  0.05049800  0.79177300  0.63680900  1
  O  O56  1  0.27039300  0.58323200  0.69204500  1
  O  O57  1  0.77039300  0.91676800  0.30795500  1
  O  O58  1  0.72960700  0.41676800  0.30795500  1
  O  O59  1  0.22960700  0.08323200  0.69204500  1
  O  O60  1  0.64000600  0.63297000  0.61842800  1
  O  O61  1  0.14000600  0.86703000  0.38157200  1
  O  O62  1  0.35999400  0.36703000  0.38157200  1
  O  O63  1  0.85999400  0.13297000  0.61842800  1
  O  O64  1  0.82521300  0.37927400  0.66165200  1
  O  O65  1  0.32521300  0.12072600  0.33834800  1
  O  O66  1  0.17478700  0.62072600  0.33834800  1
  O  O67  1  0.67478700  0.87927400  0.66165200  1
  O  O68  1  0.06990200  0.51261600  0.85743300  1
  O  O69  1  0.56990200  0.98738400  0.14256700  1
  O  O70  1  0.93009800  0.48738400  0.14256700  1
  O  O71  1  0.43009800  0.01261600  0.85743300  1
