# generated using pymatgen
data_Dy3(GeRh)2
_symmetry_space_group_name_H-M   'P 1'
_cell_length_a   5.60398400
_cell_length_b   7.88239500
_cell_length_c   13.23927100
_cell_angle_alpha   90.00000000
_cell_angle_beta   90.00000000
_cell_angle_gamma   90.00000000
_symmetry_Int_Tables_number   1
_chemical_formula_structural   Dy3(GeRh)2
_chemical_formula_sum   'Dy12 Ge8 Rh8'
_cell_volume   584.81587473
_cell_formula_units_Z   4
loop_
 _symmetry_equiv_pos_site_id
 _symmetry_equiv_pos_as_xyz
  1  'x, y, z'
loop_
 _atom_site_type_symbol
 _atom_site_label
 _atom_site_symmetry_multiplicity
 _atom_site_fract_x
 _atom_site_fract_y
 _atom_site_fract_z
 _atom_site_occupancy
  Dy  Dy0  1  0.63331900  0.25177700  0.25000000  1
  Dy  Dy1  1  0.36668100  0.74822300  0.75000000  1
  Dy  Dy2  1  0.36668100  0.75177700  0.25000000  1
  Dy  Dy3  1  0.63331900  0.24822300  0.75000000  1
  Dy  Dy4  1  0.14737300  0.39313000  0.10047600  1
  Dy  Dy5  1  0.85262700  0.60687000  0.89952400  1
  Dy  Dy6  1  0.85262700  0.60687000  0.60047600  1
  Dy  Dy7  1  0.85262700  0.89313000  0.39952400  1
  Dy  Dy8  1  0.14737300  0.39313000  0.39952400  1
  Dy  Dy9  1  0.14737300  0.10687000  0.60047600  1
  Dy  Dy10  1  0.14737300  0.10687000  0.89952400  1
  Dy  Dy11  1  0.85262700  0.89313000  0.10047600  1
  Ge  Ge12  1  0.13033000  0.10790100  0.25000000  1
  Ge  Ge13  1  0.86967000  0.89209900  0.75000000  1
  Ge  Ge14  1  0.86967000  0.60790100  0.25000000  1
  Ge  Ge15  1  0.13033000  0.39209900  0.75000000  1
  Ge  Ge16  1  0.65912700  0.25000000  0.00000000  1
  Ge  Ge17  1  0.34087300  0.75000000  0.00000000  1
  Ge  Ge18  1  0.34087300  0.75000000  0.50000000  1
  Ge  Ge19  1  0.65912700  0.25000000  0.50000000  1
  Rh  Rh20  1  0.37539600  0.03854100  0.09369000  1
  Rh  Rh21  1  0.62460400  0.96145900  0.90631000  1
  Rh  Rh22  1  0.62460400  0.96145900  0.59369000  1
  Rh  Rh23  1  0.62460400  0.53854100  0.40631000  1
  Rh  Rh24  1  0.37539600  0.03854100  0.40631000  1
  Rh  Rh25  1  0.37539600  0.46145900  0.59369000  1
  Rh  Rh26  1  0.37539600  0.46145900  0.90631000  1
  Rh  Rh27  1  0.62460400  0.53854100  0.09369000  1
