# generated using pymatgen
data_NaSiAu3
_symmetry_space_group_name_H-M   'P 1'
_cell_length_a   9.07036300
_cell_length_b   9.07036300
_cell_length_c   9.07036300
_cell_angle_alpha   90.00000000
_cell_angle_beta   90.00000000
_cell_angle_gamma   90.00000000
_symmetry_Int_Tables_number   1
_chemical_formula_structural   NaSiAu3
_chemical_formula_sum   'Na8 Si8 Au24'
_cell_volume   746.23223306
_cell_formula_units_Z   8
loop_
 _symmetry_equiv_pos_site_id
 _symmetry_equiv_pos_as_xyz
  1  'x, y, z'
loop_
 _atom_site_type_symbol
 _atom_site_label
 _atom_site_symmetry_multiplicity
 _atom_site_fract_x
 _atom_site_fract_y
 _atom_site_fract_z
 _atom_site_occupancy
  Na  Na0  1  0.09675700  0.09675700  0.09675700  1
  Na  Na1  1  0.40324300  0.90324300  0.59675700  1
  Na  Na2  1  0.59675700  0.40324300  0.90324300  1
  Na  Na3  1  0.90324300  0.59675700  0.40324300  1
  Na  Na4  1  0.90324300  0.90324300  0.90324300  1
  Na  Na5  1  0.59675700  0.09675700  0.40324300  1
  Na  Na6  1  0.40324300  0.59675700  0.09675700  1
  Na  Na7  1  0.09675700  0.40324300  0.59675700  1
  Si  Si8  1  0.12404700  0.87595300  0.37595300  1
  Si  Si9  1  0.87595300  0.37595300  0.12404700  1
  Si  Si10  1  0.62404700  0.62404700  0.62404700  1
  Si  Si11  1  0.62404700  0.87595300  0.12404700  1
  Si  Si12  1  0.87595300  0.12404700  0.62404700  1
  Si  Si13  1  0.12404700  0.62404700  0.87595300  1
  Si  Si14  1  0.37595300  0.37595300  0.37595300  1
  Si  Si15  1  0.37595300  0.12404700  0.87595300  1
  Au  Au16  1  0.59553100  0.72654700  0.37146200  1
  Au  Au17  1  0.72654700  0.37146200  0.59553100  1
  Au  Au18  1  0.77345300  0.62853800  0.09553100  1
  Au  Au19  1  0.27345300  0.87146200  0.90446900  1
  Au  Au20  1  0.62853800  0.09553100  0.77345300  1
  Au  Au21  1  0.59553100  0.77345300  0.87146200  1
  Au  Au22  1  0.87146200  0.59553100  0.77345300  1
  Au  Au23  1  0.62853800  0.40446900  0.27345300  1
  Au  Au24  1  0.09553100  0.72654700  0.12853800  1
  Au  Au25  1  0.12853800  0.09553100  0.72654700  1
  Au  Au26  1  0.90446900  0.22654700  0.37146200  1
  Au  Au27  1  0.40446900  0.27345300  0.62853800  1
  Au  Au28  1  0.37146200  0.90446900  0.22654700  1
  Au  Au29  1  0.27345300  0.62853800  0.40446900  1
  Au  Au30  1  0.22654700  0.37146200  0.90446900  1
  Au  Au31  1  0.72654700  0.12853800  0.09553100  1
  Au  Au32  1  0.09553100  0.77345300  0.62853800  1
  Au  Au33  1  0.87146200  0.90446900  0.27345300  1
  Au  Au34  1  0.90446900  0.27345300  0.87146200  1
  Au  Au35  1  0.37146200  0.59553100  0.72654700  1
  Au  Au36  1  0.12853800  0.40446900  0.22654700  1
  Au  Au37  1  0.40446900  0.22654700  0.12853800  1
  Au  Au38  1  0.22654700  0.12853800  0.40446900  1
  Au  Au39  1  0.77345300  0.87146200  0.59553100  1
