# generated using pymatgen
data_Sm2AlNi2
_symmetry_space_group_name_H-M   'P 1'
_cell_length_a   4.22853300
_cell_length_b   5.37265700
_cell_length_c   5.44696026
_cell_angle_alpha   119.54977430
_cell_angle_beta   112.83975972
_cell_angle_gamma   90.00000000
_symmetry_Int_Tables_number   1
_chemical_formula_structural   Sm2AlNi2
_chemical_formula_sum   'Sm2 Al1 Ni2'
_cell_volume   96.34043579
_cell_formula_units_Z   1
loop_
 _symmetry_equiv_pos_site_id
 _symmetry_equiv_pos_as_xyz
  1  'x, y, z'
loop_
 _atom_site_type_symbol
 _atom_site_label
 _atom_site_symmetry_multiplicity
 _atom_site_fract_x
 _atom_site_fract_y
 _atom_site_fract_z
 _atom_site_occupancy
  Sm  Sm0  1  0.79818000  0.29818000  0.59636100  1
  Sm  Sm1  1  0.20182000  0.70182000  0.40363900  1
  Al  Al2  1  0.00000000  0.00000000  0.00000000  1
  Ni  Ni3  1  0.50000000  0.26103700  0.00000000  1
  Ni  Ni4  1  0.50000000  0.73896300  0.00000000  1
