# generated using pymatgen
data_Sr3(AlN2)2
_symmetry_space_group_name_H-M   'P 1'
_cell_length_a   5.94601900
_cell_length_b   9.63888600
_cell_length_c   10.07321500
_cell_angle_alpha   90.00000000
_cell_angle_beta   90.00000000
_cell_angle_gamma   90.00000000
_symmetry_Int_Tables_number   1
_chemical_formula_structural   Sr3(AlN2)2
_chemical_formula_sum   'Sr12 Al8 N16'
_cell_volume   577.32616419
_cell_formula_units_Z   4
loop_
 _symmetry_equiv_pos_site_id
 _symmetry_equiv_pos_as_xyz
  1  'x, y, z'
loop_
 _atom_site_type_symbol
 _atom_site_label
 _atom_site_symmetry_multiplicity
 _atom_site_fract_x
 _atom_site_fract_y
 _atom_site_fract_z
 _atom_site_occupancy
  Sr  Sr0  1  0.25000000  0.59377900  0.50000000  1
  Sr  Sr1  1  0.25000000  0.90622100  0.00000000  1
  Sr  Sr2  1  0.75000000  0.40622100  0.50000000  1
  Sr  Sr3  1  0.75000000  0.09377900  0.00000000  1
  Sr  Sr4  1  0.38486200  0.58588300  0.15464100  1
  Sr  Sr5  1  0.38486200  0.91411700  0.34535900  1
  Sr  Sr6  1  0.11513800  0.58588300  0.84535900  1
  Sr  Sr7  1  0.11513800  0.91411700  0.65464100  1
  Sr  Sr8  1  0.61513800  0.41411700  0.84535900  1
  Sr  Sr9  1  0.61513800  0.08588300  0.65464100  1
  Sr  Sr10  1  0.88486200  0.41411700  0.15464100  1
  Sr  Sr11  1  0.88486200  0.08588300  0.34535900  1
  Al  Al12  1  0.83001400  0.75000000  0.25000000  1
  Al  Al13  1  0.66998600  0.75000000  0.75000000  1
  Al  Al14  1  0.16998600  0.25000000  0.75000000  1
  Al  Al15  1  0.33001400  0.25000000  0.25000000  1
  Al  Al16  1  0.25000000  0.23097700  0.00000000  1
  Al  Al17  1  0.75000000  0.73097700  0.50000000  1
  Al  Al18  1  0.75000000  0.76902300  0.00000000  1
  Al  Al19  1  0.25000000  0.26902300  0.50000000  1
  N  N20  1  0.47957600  0.16951400  0.40207300  1
  N  N21  1  0.47957600  0.33048600  0.09792700  1
  N  N22  1  0.02042400  0.16951400  0.59792700  1
  N  N23  1  0.02042400  0.33048600  0.90207300  1
  N  N24  1  0.52042400  0.83048600  0.59792700  1
  N  N25  1  0.52042400  0.66951400  0.90207300  1
  N  N26  1  0.97957600  0.83048600  0.40207300  1
  N  N27  1  0.97957600  0.66951400  0.09792700  1
  N  N28  1  0.12975600  0.37067000  0.35461600  1
  N  N29  1  0.12975600  0.12933000  0.14538400  1
  N  N30  1  0.37024400  0.37067000  0.64538400  1
  N  N31  1  0.37024400  0.12933000  0.85461600  1
  N  N32  1  0.87024400  0.87067000  0.85461600  1
  N  N33  1  0.62975600  0.62933000  0.35461600  1
  N  N34  1  0.62975600  0.87067000  0.14538400  1
  N  N35  1  0.87024400  0.62933000  0.64538400  1
