# generated using pymatgen
data_LaGa2Ni3
_symmetry_space_group_name_H-M   'P 1'
_cell_length_a   8.94218939
_cell_length_b   8.94218939
_cell_length_c   4.15408400
_cell_angle_alpha   90.00000000
_cell_angle_beta   90.00000000
_cell_angle_gamma   119.99999548
_symmetry_Int_Tables_number   1
_chemical_formula_structural   LaGa2Ni3
_chemical_formula_sum   'La3 Ga6 Ni9'
_cell_volume   287.66939038
_cell_formula_units_Z   3
loop_
 _symmetry_equiv_pos_site_id
 _symmetry_equiv_pos_as_xyz
  1  'x, y, z'
loop_
 _atom_site_type_symbol
 _atom_site_label
 _atom_site_symmetry_multiplicity
 _atom_site_fract_x
 _atom_site_fract_y
 _atom_site_fract_z
 _atom_site_occupancy
  La  La0  1  0.66666700  0.33333300  0.50000000  1
  La  La1  1  0.33333300  0.66666700  0.50000000  1
  La  La2  1  0.00000000  0.00000000  0.00000000  1
  Ga  Ga3  1  0.48995300  0.48995300  0.00000000  1
  Ga  Ga4  1  0.51004700  0.00000000  0.00000000  1
  Ga  Ga5  1  0.00000000  0.51004700  0.00000000  1
  Ga  Ga6  1  0.72240800  0.72240800  0.50000000  1
  Ga  Ga7  1  0.27759200  0.00000000  0.50000000  1
  Ga  Ga8  1  0.00000000  0.27759200  0.50000000  1
  Ni  Ni9  1  0.82094000  0.18672200  0.00000000  1
  Ni  Ni10  1  0.81327800  0.63421900  0.00000000  1
  Ni  Ni11  1  0.36578100  0.17906000  0.00000000  1
  Ni  Ni12  1  0.18672200  0.82094000  0.00000000  1
  Ni  Ni13  1  0.63421900  0.81327800  0.00000000  1
  Ni  Ni14  1  0.17906000  0.36578100  0.00000000  1
  Ni  Ni15  1  0.29173300  0.29173300  0.50000000  1
  Ni  Ni16  1  0.70826700  0.00000000  0.50000000  1
  Ni  Ni17  1  0.00000000  0.70826700  0.50000000  1
