# generated using pymatgen
data_Mg4Nb2O9
_symmetry_space_group_name_H-M   'P 1'
_cell_length_a   5.22545854
_cell_length_b   5.22545854
_cell_length_c   14.19895800
_cell_angle_alpha   90.00000000
_cell_angle_beta   90.00000000
_cell_angle_gamma   120.00000686
_symmetry_Int_Tables_number   1
_chemical_formula_structural   Mg4Nb2O9
_chemical_formula_sum   'Mg8 Nb4 O18'
_cell_volume   335.76536000
_cell_formula_units_Z   2
loop_
 _symmetry_equiv_pos_site_id
 _symmetry_equiv_pos_as_xyz
  1  'x, y, z'
loop_
 _atom_site_type_symbol
 _atom_site_label
 _atom_site_symmetry_multiplicity
 _atom_site_fract_x
 _atom_site_fract_y
 _atom_site_fract_z
 _atom_site_occupancy
  Mg  Mg0  1  0.66666700  0.33333300  0.51659400  1
  Mg  Mg1  1  0.33333300  0.66666700  0.98340600  1
  Mg  Mg2  1  0.33333300  0.66666700  0.48340600  1
  Mg  Mg3  1  0.66666700  0.33333300  0.01659400  1
  Mg  Mg4  1  0.66666700  0.33333300  0.30780700  1
  Mg  Mg5  1  0.33333300  0.66666700  0.19219300  1
  Mg  Mg6  1  0.33333300  0.66666700  0.69219300  1
  Mg  Mg7  1  0.66666700  0.33333300  0.80780700  1
  Nb  Nb8  1  0.00000000  0.00000000  0.35800900  1
  Nb  Nb9  1  0.00000000  0.00000000  0.14199100  1
  Nb  Nb10  1  0.00000000  0.00000000  0.64199100  1
  Nb  Nb11  1  0.00000000  0.00000000  0.85800900  1
  O  O12  1  0.34756700  0.02899000  0.91558400  1
  O  O13  1  0.97101000  0.31857600  0.91558400  1
  O  O14  1  0.68142400  0.65243300  0.91558400  1
  O  O15  1  0.31857600  0.97101000  0.58441600  1
  O  O16  1  0.65243300  0.68142400  0.58441600  1
  O  O17  1  0.02899000  0.34756700  0.58441600  1
  O  O18  1  0.65243300  0.97101000  0.08441600  1
  O  O19  1  0.02899000  0.68142400  0.08441600  1
  O  O20  1  0.31857600  0.34756700  0.08441600  1
  O  O21  1  0.68142400  0.02899000  0.41558400  1
  O  O22  1  0.34756700  0.31857600  0.41558400  1
  O  O23  1  0.97101000  0.65243300  0.41558400  1
  O  O24  1  0.29019600  0.00000000  0.25000000  1
  O  O25  1  0.00000000  0.29019600  0.25000000  1
  O  O26  1  0.70980400  0.70980400  0.25000000  1
  O  O27  1  0.70980400  0.00000000  0.75000000  1
  O  O28  1  0.00000000  0.70980400  0.75000000  1
  O  O29  1  0.29019600  0.29019600  0.75000000  1
