# generated using pymatgen
data_Rb3NpH8O9
_symmetry_space_group_name_H-M   'P 1'
_cell_length_a   7.93873227
_cell_length_b   8.38108342
_cell_length_c   8.38108342
_cell_angle_alpha   84.10840461
_cell_angle_beta   87.35290027
_cell_angle_gamma   87.35290027
_symmetry_Int_Tables_number   1
_chemical_formula_structural   Rb3NpH8O9
_chemical_formula_sum   'Rb6 Np2 H16 O18'
_cell_volume   553.61732535
_cell_formula_units_Z   2
loop_
 _symmetry_equiv_pos_site_id
 _symmetry_equiv_pos_as_xyz
  1  'x, y, z'
loop_
 _atom_site_type_symbol
 _atom_site_label
 _atom_site_symmetry_multiplicity
 _atom_site_fract_x
 _atom_site_fract_y
 _atom_site_fract_z
 _atom_site_occupancy
  Rb  Rb0  1  0.46038100  0.70738500  0.88715200  1
  Rb  Rb1  1  0.03961900  0.11284800  0.29261500  1
  Rb  Rb2  1  0.53961900  0.29261500  0.11284800  1
  Rb  Rb3  1  0.96038100  0.88715200  0.70738500  1
  Rb  Rb4  1  0.25000000  0.56120700  0.43879300  1
  Rb  Rb5  1  0.75000000  0.43879300  0.56120700  1
  Np  Np6  1  0.00000000  0.50000000  0.00000000  1
  Np  Np7  1  0.50000000  0.00000000  0.50000000  1
  H  H8  1  0.09274900  0.82598500  0.05875200  1
  H  H9  1  0.40725100  0.94124800  0.17401500  1
  H  H10  1  0.90725100  0.17401500  0.94124800  1
  H  H11  1  0.59274900  0.05875200  0.82598500  1
  H  H12  1  0.31125400  0.43241100  0.78035400  1
  H  H13  1  0.18874600  0.21964600  0.56758900  1
  H  H14  1  0.68874600  0.56758900  0.21964600  1
  H  H15  1  0.81125400  0.78035400  0.43241100  1
  H  H16  1  0.44259300  0.28136800  0.75517200  1
  H  H17  1  0.05740700  0.24482800  0.71863200  1
  H  H18  1  0.55740700  0.71863200  0.24482800  1
  H  H19  1  0.94259300  0.75517200  0.28136800  1
  H  H20  1  0.65880000  0.95986400  0.10090300  1
  H  H21  1  0.84120000  0.89909700  0.04013600  1
  H  H22  1  0.34120000  0.04013600  0.89909700  1
  H  H23  1  0.15880000  0.10090300  0.95986400  1
  O  O24  1  0.12836300  0.57302100  0.80744900  1
  O  O25  1  0.37163700  0.19255100  0.42697900  1
  O  O26  1  0.87163700  0.42697900  0.19255100  1
  O  O27  1  0.62836300  0.80744900  0.57302100  1
  O  O28  1  0.79484700  0.54701900  0.89454500  1
  O  O29  1  0.70515300  0.10545500  0.45298100  1
  O  O30  1  0.20515300  0.45298100  0.10545500  1
  O  O31  1  0.29484700  0.89454500  0.54701900  1
  O  O32  1  0.98976100  0.76588900  0.08485200  1
  O  O33  1  0.51023900  0.91514800  0.23411100  1
  O  O34  1  0.01023900  0.23411100  0.91514800  1
  O  O35  1  0.48976100  0.08485200  0.76588900  1
  O  O36  1  0.43026100  0.40211500  0.75268100  1
  O  O37  1  0.06973900  0.24731900  0.59788500  1
  O  O38  1  0.56973900  0.59788500  0.24731900  1
  O  O39  1  0.93026100  0.75268100  0.40211500  1
  O  O40  1  0.75000000  0.98656900  0.01343100  1
  O  O41  1  0.25000000  0.01343100  0.98656900  1
