# generated using pymatgen
data_KSnI3
_symmetry_space_group_name_H-M   'P 1'
_cell_length_a   4.78961500
_cell_length_b   10.38448100
_cell_length_c   17.34593800
_cell_angle_alpha   90.00000000
_cell_angle_beta   90.00000000
_cell_angle_gamma   90.00000000
_symmetry_Int_Tables_number   1
_chemical_formula_structural   KSnI3
_chemical_formula_sum   'K4 Sn4 I12'
_cell_volume   862.74647009
_cell_formula_units_Z   4
loop_
 _symmetry_equiv_pos_site_id
 _symmetry_equiv_pos_as_xyz
  1  'x, y, z'
loop_
 _atom_site_type_symbol
 _atom_site_label
 _atom_site_symmetry_multiplicity
 _atom_site_fract_x
 _atom_site_fract_y
 _atom_site_fract_z
 _atom_site_occupancy
  K  K0  1  0.75000000  0.58077900  0.17242100  1
  K  K1  1  0.25000000  0.41922100  0.82757900  1
  K  K2  1  0.75000000  0.08077900  0.32757900  1
  K  K3  1  0.25000000  0.91922100  0.67242100  1
  Sn  Sn4  1  0.25000000  0.66183100  0.43943000  1
  Sn  Sn5  1  0.75000000  0.33816900  0.56057000  1
  Sn  Sn6  1  0.25000000  0.16183100  0.06057000  1
  Sn  Sn7  1  0.75000000  0.83816900  0.93943000  1
  I  I8  1  0.75000000  0.84119600  0.50353500  1
  I  I9  1  0.25000000  0.15880400  0.49646500  1
  I  I10  1  0.75000000  0.34119600  0.99646500  1
  I  I11  1  0.25000000  0.65880400  0.00353500  1
  I  I12  1  0.25000000  0.52580200  0.61775200  1
  I  I13  1  0.75000000  0.47419800  0.38224800  1
  I  I14  1  0.25000000  0.02580200  0.88224800  1
  I  I15  1  0.75000000  0.97419800  0.11775200  1
  I  I16  1  0.25000000  0.79952400  0.28582500  1
  I  I17  1  0.75000000  0.20047600  0.71417500  1
  I  I18  1  0.25000000  0.29952400  0.21417500  1
  I  I19  1  0.75000000  0.70047600  0.78582500  1
