# generated using pymatgen
data_Li2VSiO5
_symmetry_space_group_name_H-M   'P 1'
_cell_length_a   4.54033200
_cell_length_b   9.08670398
_cell_length_c   9.08596859
_cell_angle_alpha   89.99998216
_cell_angle_beta   90.00168378
_cell_angle_gamma   90.00046530
_symmetry_Int_Tables_number   1
_chemical_formula_structural   Li2VSiO5
_chemical_formula_sum   'Li8 V4 Si4 O20'
_cell_volume   374.85665150
_cell_formula_units_Z   4
loop_
 _symmetry_equiv_pos_site_id
 _symmetry_equiv_pos_as_xyz
  1  'x, y, z'
loop_
 _atom_site_type_symbol
 _atom_site_label
 _atom_site_symmetry_multiplicity
 _atom_site_fract_x
 _atom_site_fract_y
 _atom_site_fract_z
 _atom_site_occupancy
  Li  Li0  1  0.49996100  0.00000800  0.00002000  1
  Li  Li1  1  0.50001300  0.49998200  0.49999000  1
  Li  Li2  1  0.49998600  0.49998900  0.00001900  1
  Li  Li3  1  0.50001800  0.99999400  0.49998900  1
  Li  Li4  1  0.49994700  0.25000100  0.75006800  1
  Li  Li5  1  0.50006300  0.74999400  0.24994600  1
  Li  Li6  1  0.49991100  0.25000200  0.24994000  1
  Li  Li7  1  0.50005800  0.74999200  0.75006400  1
  V  V8  1  0.08367500  0.75000400  0.50012700  1
  V  V9  1  0.91662900  0.24998300  0.49994800  1
  V  V10  1  0.08320700  0.25001400  0.99994500  1
  V  V11  1  0.91664000  0.75000300  0.00003200  1
  Si  Si12  1  0.99994100  0.49999900  0.74997900  1
  Si  Si13  1  0.00003700  0.99999300  0.25001100  1
  Si  Si14  1  0.00003400  0.50000900  0.25001700  1
  Si  Si15  1  0.99994000  0.00000200  0.74998500  1
  O  O16  1  0.71283600  0.25002200  0.99997600  1
  O  O17  1  0.71331300  0.75000100  0.50006200  1
  O  O18  1  0.28707800  0.75000700  0.99993200  1
  O  O19  1  0.28686600  0.24999500  0.49999500  1
  O  O20  1  0.21676600  0.60277000  0.35277400  1
  O  O21  1  0.21659300  0.10280000  0.85273700  1
  O  O22  1  0.21658100  0.39719900  0.14721000  1
  O  O23  1  0.21684900  0.89727700  0.64730400  1
  O  O24  1  0.78321200  0.39724500  0.35274100  1
  O  O25  1  0.78333200  0.89719800  0.85275500  1
  O  O26  1  0.78337200  0.60279300  0.14723400  1
  O  O27  1  0.78321400  0.10277000  0.64723800  1
  O  O28  1  0.78323600  0.39721100  0.64723600  1
  O  O29  1  0.78337300  0.89721000  0.14722800  1
  O  O30  1  0.78333000  0.60280700  0.85274800  1
  O  O31  1  0.78319400  0.10273600  0.35273800  1
  O  O32  1  0.21684900  0.60272700  0.64729800  1
  O  O33  1  0.21656700  0.10281600  0.14720900  1
  O  O34  1  0.21660800  0.39721100  0.85273800  1
  O  O35  1  0.21677100  0.89723400  0.35276700  1
