# generated using pymatgen
data_RbLa(WO4)2
_symmetry_space_group_name_H-M   'P 1'
_cell_length_a   7.62300983
_cell_length_b   7.62300983
_cell_length_c   7.75638859
_cell_angle_alpha   66.36643367
_cell_angle_beta   66.36643367
_cell_angle_gamma   92.29440505
_symmetry_Int_Tables_number   1
_chemical_formula_structural   RbLa(WO4)2
_chemical_formula_sum   'Rb2 La2 W4 O16'
_cell_volume   367.30998897
_cell_formula_units_Z   2
loop_
 _symmetry_equiv_pos_site_id
 _symmetry_equiv_pos_as_xyz
  1  'x, y, z'
loop_
 _atom_site_type_symbol
 _atom_site_label
 _atom_site_symmetry_multiplicity
 _atom_site_fract_x
 _atom_site_fract_y
 _atom_site_fract_z
 _atom_site_occupancy
  Rb  Rb0  1  0.31404200  0.31404200  0.53348700  1
  Rb  Rb1  1  0.68595800  0.68595800  0.46651300  1
  La  La2  1  0.29868200  0.70131800  0.00000000  1
  La  La3  1  0.70131800  0.29868200  0.00000000  1
  W  W4  1  0.20111300  0.20111300  0.06828000  1
  W  W5  1  0.79888700  0.79888700  0.93172000  1
  W  W6  1  0.83893000  0.16107000  0.50000000  1
  W  W7  1  0.16107000  0.83893000  0.50000000  1
  O  O8  1  0.98476800  0.98476800  0.34728900  1
  O  O9  1  0.01523200  0.01523200  0.65271100  1
  O  O10  1  0.29116500  0.03824900  0.94905900  1
  O  O11  1  0.96175100  0.70883500  0.05094100  1
  O  O12  1  0.70883500  0.96175100  0.05094100  1
  O  O13  1  0.03824900  0.29116500  0.94905900  1
  O  O14  1  0.58159000  0.58159000  0.09441500  1
  O  O15  1  0.41841000  0.41841000  0.90558500  1
  O  O16  1  0.91047800  0.65698900  0.73368800  1
  O  O17  1  0.34301100  0.08952200  0.26631200  1
  O  O18  1  0.08952200  0.34301100  0.26631200  1
  O  O19  1  0.65698900  0.91047800  0.73368800  1
  O  O20  1  0.78339800  0.30632800  0.64406300  1
  O  O21  1  0.69367200  0.21660200  0.35593700  1
  O  O22  1  0.21660200  0.69367200  0.35593700  1
  O  O23  1  0.30632800  0.78339800  0.64406300  1
