# generated using pymatgen
data_Ca4SiP4
_symmetry_space_group_name_H-M   'P 1'
_cell_length_a   11.88158800
_cell_length_b   11.88158800
_cell_length_c   11.88158800
_cell_angle_alpha   90.00000000
_cell_angle_beta   90.00000000
_cell_angle_gamma   90.00000000
_symmetry_Int_Tables_number   1
_chemical_formula_structural   Ca4SiP4
_chemical_formula_sum   'Ca32 Si8 P32'
_cell_volume   1677.34912616
_cell_formula_units_Z   8
loop_
 _symmetry_equiv_pos_site_id
 _symmetry_equiv_pos_as_xyz
  1  'x, y, z'
loop_
 _atom_site_type_symbol
 _atom_site_label
 _atom_site_symmetry_multiplicity
 _atom_site_fract_x
 _atom_site_fract_y
 _atom_site_fract_z
 _atom_site_occupancy
  Ca  Ca0  1  0.35436500  0.35436500  0.35436500  1
  Ca  Ca1  1  0.64563500  0.64563500  0.35436500  1
  Ca  Ca2  1  0.64563500  0.35436500  0.64563500  1
  Ca  Ca3  1  0.85436500  0.85436500  0.85436500  1
  Ca  Ca4  1  0.35436500  0.64563500  0.64563500  1
  Ca  Ca5  1  0.14563500  0.14563500  0.85436500  1
  Ca  Ca6  1  0.85436500  0.14563500  0.14563500  1
  Ca  Ca7  1  0.14563500  0.85436500  0.14563500  1
  Ca  Ca8  1  0.09482300  0.13305900  0.35466800  1
  Ca  Ca9  1  0.90517700  0.86694100  0.35466800  1
  Ca  Ca10  1  0.90517700  0.13305900  0.64533200  1
  Ca  Ca11  1  0.35466800  0.09482300  0.13305900  1
  Ca  Ca12  1  0.63305900  0.59482300  0.85466800  1
  Ca  Ca13  1  0.09482300  0.86694100  0.64533200  1
  Ca  Ca14  1  0.35466800  0.90517700  0.86694100  1
  Ca  Ca15  1  0.36694100  0.40517700  0.85466800  1
  Ca  Ca16  1  0.64533200  0.90517700  0.13305900  1
  Ca  Ca17  1  0.63305900  0.40517700  0.14533200  1
  Ca  Ca18  1  0.64533200  0.09482300  0.86694100  1
  Ca  Ca19  1  0.36694100  0.59482300  0.14533200  1
  Ca  Ca20  1  0.13305900  0.35466800  0.09482300  1
  Ca  Ca21  1  0.59482300  0.85466800  0.63305900  1
  Ca  Ca22  1  0.13305900  0.64533200  0.90517700  1
  Ca  Ca23  1  0.40517700  0.14533200  0.63305900  1
  Ca  Ca24  1  0.86694100  0.64533200  0.09482300  1
  Ca  Ca25  1  0.59482300  0.14533200  0.36694100  1
  Ca  Ca26  1  0.86694100  0.35466800  0.90517700  1
  Ca  Ca27  1  0.40517700  0.85466800  0.36694100  1
  Ca  Ca28  1  0.85466800  0.63305900  0.59482300  1
  Ca  Ca29  1  0.85466800  0.36694100  0.40517700  1
  Ca  Ca30  1  0.14533200  0.36694100  0.59482300  1
  Ca  Ca31  1  0.14533200  0.63305900  0.40517700  1
  Si  Si32  1  0.25000000  0.00000000  0.50000000  1
  Si  Si33  1  0.75000000  0.00000000  0.50000000  1
  Si  Si34  1  0.50000000  0.25000000  0.00000000  1
  Si  Si35  1  0.50000000  0.75000000  0.00000000  1
  Si  Si36  1  0.00000000  0.50000000  0.25000000  1
  Si  Si37  1  0.00000000  0.50000000  0.75000000  1
  Si  Si38  1  0.00000000  0.00000000  0.00000000  1
  Si  Si39  1  0.50000000  0.50000000  0.50000000  1
  P  P40  1  0.10802800  0.38163000  0.35345400  1
  P  P41  1  0.89197200  0.61837000  0.35345400  1
  P  P42  1  0.89197200  0.38163000  0.64654600  1
  P  P43  1  0.35345400  0.10802800  0.38163000  1
  P  P44  1  0.88163000  0.60802800  0.85345400  1
  P  P45  1  0.10802800  0.61837000  0.64654600  1
  P  P46  1  0.35345400  0.89197200  0.61837000  1
  P  P47  1  0.11837000  0.39197200  0.85345400  1
  P  P48  1  0.64654600  0.89197200  0.38163000  1
  P  P49  1  0.88163000  0.39197200  0.14654600  1
  P  P50  1  0.64654600  0.10802800  0.61837000  1
  P  P51  1  0.11837000  0.60802800  0.14654600  1
  P  P52  1  0.38163000  0.35345400  0.10802800  1
  P  P53  1  0.60802800  0.85345400  0.88163000  1
  P  P54  1  0.38163000  0.64654600  0.89197200  1
  P  P55  1  0.39197200  0.14654600  0.88163000  1
  P  P56  1  0.61837000  0.64654600  0.10802800  1
  P  P57  1  0.60802800  0.14654600  0.11837000  1
  P  P58  1  0.61837000  0.35345400  0.89197200  1
  P  P59  1  0.39197200  0.85345400  0.11837000  1
  P  P60  1  0.85345400  0.88163000  0.60802800  1
  P  P61  1  0.85345400  0.11837000  0.39197200  1
  P  P62  1  0.14654600  0.11837000  0.60802800  1
  P  P63  1  0.14654600  0.88163000  0.39197200  1
  P  P64  1  0.10975300  0.10975300  0.10975300  1
  P  P65  1  0.89024700  0.89024700  0.10975300  1
  P  P66  1  0.89024700  0.10975300  0.89024700  1
  P  P67  1  0.60975300  0.60975300  0.60975300  1
  P  P68  1  0.10975300  0.89024700  0.89024700  1
  P  P69  1  0.39024700  0.39024700  0.60975300  1
  P  P70  1  0.60975300  0.39024700  0.39024700  1
  P  P71  1  0.39024700  0.60975300  0.39024700  1
