# generated using pymatgen
data_NaPr9(Ge3O13)2
_symmetry_space_group_name_H-M   'P 1'
_cell_length_a   9.90787573
_cell_length_b   9.90787573
_cell_length_c   7.24670700
_cell_angle_alpha   90.00000000
_cell_angle_beta   90.00000000
_cell_angle_gamma   119.99999819
_symmetry_Int_Tables_number   1
_chemical_formula_structural   NaPr9(Ge3O13)2
_chemical_formula_sum   'Na1 Pr9 Ge6 O26'
_cell_volume   616.07337940
_cell_formula_units_Z   1
loop_
 _symmetry_equiv_pos_site_id
 _symmetry_equiv_pos_as_xyz
  1  'x, y, z'
loop_
 _atom_site_type_symbol
 _atom_site_label
 _atom_site_symmetry_multiplicity
 _atom_site_fract_x
 _atom_site_fract_y
 _atom_site_fract_z
 _atom_site_occupancy
  Na  Na0  1  0.66666700  0.33333300  0.50786500  1
  Pr  Pr1  1  0.33333300  0.66666700  0.00107400  1
  Pr  Pr2  1  0.33333300  0.66666700  0.50066800  1
  Pr  Pr3  1  0.66666700  0.33333300  0.00023800  1
  Pr  Pr4  1  0.76701100  0.00717600  0.74998900  1
  Pr  Pr5  1  0.99282400  0.75983500  0.74998900  1
  Pr  Pr6  1  0.24016500  0.23298900  0.74998900  1
  Pr  Pr7  1  0.23035800  0.99287700  0.25174000  1
  Pr  Pr8  1  0.00712300  0.23748100  0.25174000  1
  Pr  Pr9  1  0.76251900  0.76964200  0.25174000  1
  Ge  Ge10  1  0.60211600  0.62731900  0.75190100  1
  Ge  Ge11  1  0.37268100  0.97479800  0.75190100  1
  Ge  Ge12  1  0.02520200  0.39788400  0.75190100  1
  Ge  Ge13  1  0.40266000  0.37208900  0.25227500  1
  Ge  Ge14  1  0.62791100  0.03057100  0.25227500  1
  Ge  Ge15  1  0.96942900  0.59734000  0.25227500  1
  O  O16  1  0.69568200  0.51858300  0.75789300  1
  O  O17  1  0.48141700  0.17709900  0.75789300  1
  O  O18  1  0.82290100  0.30431800  0.75789300  1
  O  O19  1  0.31811300  0.49370600  0.25125400  1
  O  O20  1  0.50629400  0.82440700  0.25125400  1
  O  O21  1  0.17559300  0.68188700  0.25125400  1
  O  O22  1  0.00000000  0.00000000  0.74972500  1
  O  O23  1  0.00000000  0.00000000  0.24141000  1
  O  O24  1  0.65182800  0.75219200  0.55639500  1
  O  O25  1  0.24780800  0.89963600  0.55639500  1
  O  O26  1  0.10036400  0.34817200  0.55639500  1
  O  O27  1  0.34057500  0.24558600  0.05727400  1
  O  O28  1  0.75441400  0.09498900  0.05727400  1
  O  O29  1  0.90501100  0.65942500  0.05727400  1
  O  O30  1  0.32030300  0.23822200  0.43671900  1
  O  O31  1  0.76177800  0.08208100  0.43671900  1
  O  O32  1  0.91791900  0.67969700  0.43671900  1
  O  O33  1  0.65166500  0.75654400  0.94429800  1
  O  O34  1  0.24345600  0.89512100  0.94429800  1
  O  O35  1  0.10487900  0.34833500  0.94429800  1
  O  O36  1  0.39392700  0.52579600  0.75017800  1
  O  O37  1  0.47420400  0.86813100  0.75017800  1
  O  O38  1  0.13186900  0.60607300  0.75017800  1
  O  O39  1  0.60687600  0.47963600  0.23974500  1
  O  O40  1  0.52036400  0.12724000  0.23974500  1
  O  O41  1  0.87276000  0.39312400  0.23974500  1
