# generated using pymatgen
data_Yb4Al23Ni6
_symmetry_space_group_name_H-M   'P 1'
_cell_length_a   8.24756656
_cell_length_b   8.24756656
_cell_length_c   18.28048977
_cell_angle_alpha   68.11051489
_cell_angle_beta   68.11051489
_cell_angle_gamma   28.62905311
_symmetry_Int_Tables_number   1
_chemical_formula_structural   Yb4Al23Ni6
_chemical_formula_sum   'Yb4 Al23 Ni6'
_cell_volume   549.93086985
_cell_formula_units_Z   1
loop_
 _symmetry_equiv_pos_site_id
 _symmetry_equiv_pos_as_xyz
  1  'x, y, z'
loop_
 _atom_site_type_symbol
 _atom_site_label
 _atom_site_symmetry_multiplicity
 _atom_site_fract_x
 _atom_site_fract_y
 _atom_site_fract_z
 _atom_site_occupancy
  Yb  Yb0  1  0.73840400  0.73840400  0.21553400  1
  Yb  Yb1  1  0.57880200  0.57880200  0.59324500  1
  Yb  Yb2  1  0.42119800  0.42119800  0.40675500  1
  Yb  Yb3  1  0.26159600  0.26159600  0.78446600  1
  Al  Al4  1  0.00000000  0.00000000  0.50000000  1
  Al  Al5  1  0.85543500  0.85543500  0.85749800  1
  Al  Al6  1  0.91931500  0.91931500  0.68725500  1
  Al  Al7  1  0.08068500  0.08068500  0.31274500  1
  Al  Al8  1  0.91005200  0.91005200  0.04919500  1
  Al  Al9  1  0.08994800  0.08994800  0.95080500  1
  Al  Al10  1  0.90818900  0.90818900  0.27819000  1
  Al  Al11  1  0.09181100  0.09181100  0.72181000  1
  Al  Al12  1  0.79776500  0.79776500  0.52148900  1
  Al  Al13  1  0.20223500  0.20223500  0.47851100  1
  Al  Al14  1  0.14456500  0.14456500  0.14250200  1
  Al  Al15  1  0.60887900  0.60887900  0.83803100  1
  Al  Al16  1  0.74485200  0.74485200  0.04637000  1
  Al  Al17  1  0.25514800  0.25514800  0.95363000  1
  Al  Al18  1  0.39112100  0.39112100  0.16196900  1
  Al  Al19  1  0.46748300  0.46748300  0.78116100  1
  Al  Al20  1  0.72824400  0.72824400  0.67653200  1
  Al  Al21  1  0.27175600  0.27175600  0.32346800  1
  Al  Al22  1  0.62153700  0.62153700  0.40430900  1
  Al  Al23  1  0.37846300  0.37846300  0.59569100  1
  Al  Al24  1  0.56848500  0.56848500  0.06084700  1
  Al  Al25  1  0.43151500  0.43151500  0.93915300  1
  Al  Al26  1  0.53251700  0.53251700  0.21883900  1
  Ni  Ni27  1  0.99325300  0.99325300  0.13417400  1
  Ni  Ni28  1  0.00674700  0.00674700  0.86582600  1
  Ni  Ni29  1  0.77280500  0.77280500  0.39750000  1
  Ni  Ni30  1  0.68937200  0.68937200  0.93290200  1
  Ni  Ni31  1  0.22719500  0.22719500  0.60250000  1
  Ni  Ni32  1  0.31062800  0.31062800  0.06709800  1
