# generated using pymatgen
data_SmCoSi2
_symmetry_space_group_name_H-M   'P 1'
_cell_length_a   8.38659527
_cell_length_b   8.38659527
_cell_length_c   4.04431800
_cell_angle_alpha   90.00000000
_cell_angle_beta   90.00000000
_cell_angle_gamma   151.62798706
_symmetry_Int_Tables_number   1
_chemical_formula_structural   SmCoSi2
_chemical_formula_sum   'Sm2 Co2 Si4'
_cell_volume   135.17240691
_cell_formula_units_Z   2
loop_
 _symmetry_equiv_pos_site_id
 _symmetry_equiv_pos_as_xyz
  1  'x, y, z'
loop_
 _atom_site_type_symbol
 _atom_site_label
 _atom_site_symmetry_multiplicity
 _atom_site_fract_x
 _atom_site_fract_y
 _atom_site_fract_z
 _atom_site_occupancy
  Sm  Sm0  1  0.10674500  0.89325500  0.25000000  1
  Sm  Sm1  1  0.89325500  0.10674500  0.75000000  1
  Co  Co2  1  0.68119000  0.31881000  0.75000000  1
  Co  Co3  1  0.31881000  0.68119000  0.25000000  1
  Si  Si4  1  0.75021600  0.24978400  0.25000000  1
  Si  Si5  1  0.24978400  0.75021600  0.75000000  1
  Si  Si6  1  0.54313300  0.45686700  0.75000000  1
  Si  Si7  1  0.45686700  0.54313300  0.25000000  1
