# generated using pymatgen
data_LaAlZn
_symmetry_space_group_name_H-M   'P 1'
_cell_length_a   5.88139386
_cell_length_b   5.88139386
_cell_length_c   7.70730012
_cell_angle_alpha   50.41262467
_cell_angle_beta   50.41262467
_cell_angle_gamma   47.09653080
_symmetry_Int_Tables_number   1
_chemical_formula_structural   LaAlZn
_chemical_formula_sum   'La2 Al2 Zn2'
_cell_volume   140.38563089
_cell_formula_units_Z   2
loop_
 _symmetry_equiv_pos_site_id
 _symmetry_equiv_pos_as_xyz
  1  'x, y, z'
loop_
 _atom_site_type_symbol
 _atom_site_label
 _atom_site_symmetry_multiplicity
 _atom_site_fract_x
 _atom_site_fract_y
 _atom_site_fract_z
 _atom_site_occupancy
  La  La0  1  0.46357400  0.46357400  0.78965300  1
  La  La1  1  0.53642600  0.53642600  0.21034700  1
  Al  Al2  1  0.83764400  0.83764400  0.60490000  1
  Al  Al3  1  0.16235600  0.16235600  0.39510000  1
  Zn  Zn4  1  0.16387600  0.16387600  0.77883100  1
  Zn  Zn5  1  0.83612400  0.83612400  0.22116900  1
