# generated using pymatgen
data_YSnPd
_symmetry_space_group_name_H-M   'P 1'
_cell_length_a   4.65769500
_cell_length_b   7.24537000
_cell_length_c   7.98939500
_cell_angle_alpha   90.00000000
_cell_angle_beta   90.00000000
_cell_angle_gamma   90.00000000
_symmetry_Int_Tables_number   1
_chemical_formula_structural   YSnPd
_chemical_formula_sum   'Y4 Sn4 Pd4'
_cell_volume   269.61590497
_cell_formula_units_Z   4
loop_
 _symmetry_equiv_pos_site_id
 _symmetry_equiv_pos_as_xyz
  1  'x, y, z'
loop_
 _atom_site_type_symbol
 _atom_site_label
 _atom_site_symmetry_multiplicity
 _atom_site_fract_x
 _atom_site_fract_y
 _atom_site_fract_z
 _atom_site_occupancy
  Y  Y0  1  0.25000000  0.99232200  0.29373600  1
  Y  Y1  1  0.25000000  0.49232200  0.20626400  1
  Y  Y2  1  0.75000000  0.00767800  0.70626400  1
  Y  Y3  1  0.75000000  0.50767800  0.79373600  1
  Sn  Sn4  1  0.25000000  0.30495400  0.58788800  1
  Sn  Sn5  1  0.25000000  0.80495400  0.91211200  1
  Sn  Sn6  1  0.75000000  0.69504600  0.41211200  1
  Sn  Sn7  1  0.75000000  0.19504600  0.08788800  1
  Pd  Pd8  1  0.25000000  0.20382500  0.91645500  1
  Pd  Pd9  1  0.25000000  0.70382500  0.58354500  1
  Pd  Pd10  1  0.75000000  0.79617500  0.08354500  1
  Pd  Pd11  1  0.75000000  0.29617500  0.41645500  1
