# generated using pymatgen
data_Na4CrO4
_symmetry_space_group_name_H-M   'P 1'
_cell_length_a   5.76200000
_cell_length_b   5.76940904
_cell_length_c   8.74029886
_cell_angle_alpha   81.43625074
_cell_angle_beta   71.35358096
_cell_angle_gamma   68.39711739
_symmetry_Int_Tables_number   1
_chemical_formula_structural   Na4CrO4
_chemical_formula_sum   'Na8 Cr2 O8'
_cell_volume   255.80673553
_cell_formula_units_Z   2
loop_
 _symmetry_equiv_pos_site_id
 _symmetry_equiv_pos_as_xyz
  1  'x, y, z'
loop_
 _atom_site_type_symbol
 _atom_site_label
 _atom_site_symmetry_multiplicity
 _atom_site_fract_x
 _atom_site_fract_y
 _atom_site_fract_z
 _atom_site_occupancy
  Na  Na0  1  0.94637300  0.24344200  0.60055200  1
  Na  Na1  1  0.52077200  0.26477500  0.43278700  1
  Na  Na2  1  0.60737500  0.73166700  0.18248600  1
  Na  Na3  1  0.24131400  0.75402600  0.98802000  1
  Na  Na4  1  0.75868600  0.24597400  0.01198000  1
  Na  Na5  1  0.47922800  0.73522500  0.56721300  1
  Na  Na6  1  0.05362700  0.75655800  0.39944800  1
  Na  Na7  1  0.39262500  0.26833300  0.81751400  1
  Cr  Cr8  1  0.84376500  0.72089500  0.75772600  1
  Cr  Cr9  1  0.15623500  0.27910500  0.24227400  1
  O  O10  1  0.85036500  0.84571900  0.93133700  1
  O  O11  1  0.70454500  0.97278600  0.62413800  1
  O  O12  1  0.29545500  0.02721400  0.37586200  1
  O  O13  1  0.36231700  0.47092700  0.19620600  1
  O  O14  1  0.63768300  0.52907300  0.80379400  1
  O  O15  1  0.16367300  0.52834300  0.63860000  1
  O  O16  1  0.14963500  0.15428100  0.06866300  1
  O  O17  1  0.83632700  0.47165700  0.36140000  1
