# generated using pymatgen
data_K2RuO4
_symmetry_space_group_name_H-M   'P 1'
_cell_length_a   6.46549600
_cell_length_b   8.08104500
_cell_length_c   10.63925700
_cell_angle_alpha   90.00000000
_cell_angle_beta   90.00000000
_cell_angle_gamma   90.00000000
_symmetry_Int_Tables_number   1
_chemical_formula_structural   K2RuO4
_chemical_formula_sum   'K8 Ru4 O16'
_cell_volume   555.87951803
_cell_formula_units_Z   4
loop_
 _symmetry_equiv_pos_site_id
 _symmetry_equiv_pos_as_xyz
  1  'x, y, z'
loop_
 _atom_site_type_symbol
 _atom_site_label
 _atom_site_symmetry_multiplicity
 _atom_site_fract_x
 _atom_site_fract_y
 _atom_site_fract_z
 _atom_site_occupancy
  K  K0  1  0.25000000  0.48962300  0.72427500  1
  K  K1  1  0.75000000  0.51037700  0.27572500  1
  K  K2  1  0.25000000  0.98962300  0.77572500  1
  K  K3  1  0.75000000  0.01037700  0.22427500  1
  K  K4  1  0.25000000  0.30997400  0.06954100  1
  K  K5  1  0.75000000  0.69002600  0.93045900  1
  K  K6  1  0.25000000  0.80997400  0.43045900  1
  K  K7  1  0.75000000  0.19002600  0.56954100  1
  Ru  Ru8  1  0.25000000  0.28184400  0.40369800  1
  Ru  Ru9  1  0.75000000  0.71815600  0.59630200  1
  Ru  Ru10  1  0.25000000  0.78184400  0.09630200  1
  Ru  Ru11  1  0.75000000  0.21815600  0.90369800  1
  O  O12  1  0.02528000  0.74955700  0.19402800  1
  O  O13  1  0.52528000  0.25044300  0.80597200  1
  O  O14  1  0.47472000  0.24955700  0.30597200  1
  O  O15  1  0.97472000  0.75044300  0.69402800  1
  O  O16  1  0.97472000  0.25044300  0.80597200  1
  O  O17  1  0.47472000  0.74955700  0.19402800  1
  O  O18  1  0.52528000  0.75044300  0.69402800  1
  O  O19  1  0.02528000  0.24955700  0.30597200  1
  O  O20  1  0.25000000  0.98625100  0.03359300  1
  O  O21  1  0.75000000  0.01374900  0.96640700  1
  O  O22  1  0.25000000  0.48625100  0.46640700  1
  O  O23  1  0.75000000  0.51374900  0.53359300  1
  O  O24  1  0.75000000  0.36855800  0.02910300  1
  O  O25  1  0.25000000  0.63144200  0.97089700  1
  O  O26  1  0.75000000  0.86855800  0.47089700  1
  O  O27  1  0.25000000  0.13144200  0.52910300  1
