# generated using pymatgen
data_TaTlCl6
_symmetry_space_group_name_H-M   'P 1'
_cell_length_a   6.96613724
_cell_length_b   6.96613724
_cell_length_c   12.51991874
_cell_angle_alpha   79.40092853
_cell_angle_beta   79.40092853
_cell_angle_gamma   55.52735059
_symmetry_Int_Tables_number   1
_chemical_formula_structural   TaTlCl6
_chemical_formula_sum   'Ta2 Tl2 Cl12'
_cell_volume   489.92593139
_cell_formula_units_Z   2
loop_
 _symmetry_equiv_pos_site_id
 _symmetry_equiv_pos_as_xyz
  1  'x, y, z'
loop_
 _atom_site_type_symbol
 _atom_site_label
 _atom_site_symmetry_multiplicity
 _atom_site_fract_x
 _atom_site_fract_y
 _atom_site_fract_z
 _atom_site_occupancy
  Ta  Ta0  1  0.50000000  0.00000000  0.50000000  1
  Ta  Ta1  1  0.00000000  0.50000000  0.00000000  1
  Tl  Tl2  1  0.88147100  0.11852900  0.75000000  1
  Tl  Tl3  1  0.11852900  0.88147100  0.25000000  1
  Cl  Cl4  1  0.46289700  0.70032400  0.60341100  1
  Cl  Cl5  1  0.53710300  0.29967600  0.39658900  1
  Cl  Cl6  1  0.29967600  0.53710300  0.89658900  1
  Cl  Cl7  1  0.70032400  0.46289700  0.10341100  1
  Cl  Cl8  1  0.37072300  0.20084700  0.65902700  1
  Cl  Cl9  1  0.62927700  0.79915300  0.34097300  1
  Cl  Cl10  1  0.79915200  0.62927700  0.84097300  1
  Cl  Cl11  1  0.20084700  0.37072300  0.15902700  1
  Cl  Cl12  1  0.79583300  0.89407700  0.04020400  1
  Cl  Cl13  1  0.20416700  0.10592300  0.95979600  1
  Cl  Cl14  1  0.10592300  0.20416700  0.45979600  1
  Cl  Cl15  1  0.89407700  0.79583300  0.54020400  1
