# generated using pymatgen
data_Na2Yb2B2TeO10
_symmetry_space_group_name_H-M   'P 1'
_cell_length_a   10.18324100
_cell_length_b   6.39665300
_cell_length_c   6.81219440
_cell_angle_alpha   76.59987697
_cell_angle_beta   90.00000000
_cell_angle_gamma   90.00000000
_symmetry_Int_Tables_number   1
_chemical_formula_structural   Na2Yb2B2TeO10
_chemical_formula_sum   'Na4 Yb4 B4 Te2 O20'
_cell_volume   431.65663206
_cell_formula_units_Z   2
loop_
 _symmetry_equiv_pos_site_id
 _symmetry_equiv_pos_as_xyz
  1  'x, y, z'
loop_
 _atom_site_type_symbol
 _atom_site_label
 _atom_site_symmetry_multiplicity
 _atom_site_fract_x
 _atom_site_fract_y
 _atom_site_fract_z
 _atom_site_occupancy
  Na  Na0  1  0.60994800  0.41510000  0.16375800  1
  Na  Na1  1  0.10994800  0.58490000  0.33624200  1
  Na  Na2  1  0.39005200  0.58490000  0.83624200  1
  Na  Na3  1  0.89005200  0.41510000  0.66375800  1
  Yb  Yb4  1  0.83210100  0.87641100  0.02184400  1
  Yb  Yb5  1  0.33210100  0.12358900  0.47815600  1
  Yb  Yb6  1  0.16789900  0.12358900  0.97815600  1
  Yb  Yb7  1  0.66789900  0.87641100  0.52184400  1
  B  B8  1  0.40035600  0.66819100  0.36692300  1
  B  B9  1  0.90035600  0.33180900  0.13307700  1
  B  B10  1  0.59964400  0.33180900  0.63307700  1
  B  B11  1  0.09964400  0.66819100  0.86692300  1
  Te  Te12  1  0.50000000  0.00000000  0.00000000  1
  Te  Te13  1  0.00000000  0.00000000  0.50000000  1
  O  O14  1  0.82607300  0.50818000  0.05325900  1
  O  O15  1  0.32607300  0.49182000  0.44674100  1
  O  O16  1  0.17392700  0.49182000  0.94674100  1
  O  O17  1  0.67392700  0.50818000  0.55325900  1
  O  O18  1  0.64596800  0.00615400  0.17617100  1
  O  O19  1  0.14596800  0.99384600  0.32382900  1
  O  O20  1  0.35403200  0.99384600  0.82382900  1
  O  O21  1  0.85403200  0.00615400  0.67617100  1
  O  O22  1  0.43854900  0.70692900  0.16479000  1
  O  O23  1  0.93854900  0.29307100  0.33521000  1
  O  O24  1  0.56145100  0.29307100  0.83521000  1
  O  O25  1  0.06145100  0.70692900  0.66479000  1
  O  O26  1  0.93625600  0.20353800  0.00679200  1
  O  O27  1  0.43625600  0.79646200  0.49320800  1
  O  O28  1  0.06374400  0.79646200  0.99320800  1
  O  O29  1  0.56374400  0.20353800  0.50679200  1
  O  O30  1  0.38885300  0.16215500  0.13605700  1
  O  O31  1  0.88885300  0.83784500  0.36394300  1
  O  O32  1  0.61114700  0.83784500  0.86394300  1
  O  O33  1  0.11114700  0.16215500  0.63605700  1
