# generated using pymatgen
data_Dy2Mo4O15
_symmetry_space_group_name_H-M   'P 1'
_cell_length_a   9.74017400
_cell_length_b   6.92029700
_cell_length_c   10.71621324
_cell_angle_alpha   74.68673422
_cell_angle_beta   90.00000000
_cell_angle_gamma   90.00000000
_symmetry_Int_Tables_number   1
_chemical_formula_structural   Dy2Mo4O15
_chemical_formula_sum   'Dy4 Mo8 O30'
_cell_volume   696.68002845
_cell_formula_units_Z   2
loop_
 _symmetry_equiv_pos_site_id
 _symmetry_equiv_pos_as_xyz
  1  'x, y, z'
loop_
 _atom_site_type_symbol
 _atom_site_label
 _atom_site_symmetry_multiplicity
 _atom_site_fract_x
 _atom_site_fract_y
 _atom_site_fract_z
 _atom_site_occupancy
  Dy  Dy0  1  0.52316200  0.71096600  0.22378600  1
  Dy  Dy1  1  0.47683800  0.28903400  0.77621400  1
  Dy  Dy2  1  0.02316200  0.28903400  0.27621400  1
  Dy  Dy3  1  0.97683800  0.71096600  0.72378600  1
  Mo  Mo4  1  0.74310500  0.41820100  0.01106100  1
  Mo  Mo5  1  0.25689500  0.58179900  0.98893900  1
  Mo  Mo6  1  0.24310500  0.58179900  0.48893900  1
  Mo  Mo7  1  0.75689500  0.41820100  0.51106100  1
  Mo  Mo8  1  0.90452600  0.87907000  0.15604500  1
  Mo  Mo9  1  0.09547400  0.12093000  0.84395500  1
  Mo  Mo10  1  0.40452600  0.12093000  0.34395500  1
  Mo  Mo11  1  0.59547400  0.87907000  0.65604500  1
  O  O12  1  0.72254700  0.88647700  0.14770200  1
  O  O13  1  0.27745300  0.11352300  0.85229800  1
  O  O14  1  0.22254700  0.11352300  0.35229800  1
  O  O15  1  0.77745300  0.88647700  0.64770200  1
  O  O16  1  0.62642100  0.52344100  0.10331200  1
  O  O17  1  0.37357900  0.47655900  0.89668800  1
  O  O18  1  0.12642100  0.47655900  0.39668800  1
  O  O19  1  0.87357900  0.52344100  0.60331200  1
  O  O20  1  0.34882500  0.72102900  0.08116500  1
  O  O21  1  0.65117500  0.27897100  0.91883500  1
  O  O22  1  0.84882500  0.27897100  0.41883500  1
  O  O23  1  0.15117500  0.72102900  0.58116500  1
  O  O24  1  0.00000000  0.00000000  0.00000000  1
  O  O25  1  0.50000000  0.00000000  0.50000000  1
  O  O26  1  0.66673300  0.61594100  0.39900100  1
  O  O27  1  0.33326700  0.38405900  0.60099900  1
  O  O28  1  0.16673300  0.38405900  0.10099900  1
  O  O29  1  0.83326700  0.61594100  0.89900100  1
  O  O30  1  0.97200400  0.94781100  0.29254100  1
  O  O31  1  0.02799600  0.05218900  0.70745900  1
  O  O32  1  0.47200400  0.05218900  0.20745900  1
  O  O33  1  0.52799600  0.94781100  0.79254100  1
  O  O34  1  0.94399700  0.62072800  0.18368900  1
  O  O35  1  0.05600300  0.37927200  0.81631100  1
  O  O36  1  0.44399700  0.37927200  0.31631100  1
  O  O37  1  0.55600300  0.62072800  0.68368900  1
  O  O38  1  0.86483100  0.25581800  0.11818800  1
  O  O39  1  0.13516900  0.74418200  0.88181200  1
  O  O40  1  0.36483100  0.74418200  0.38181200  1
  O  O41  1  0.63516900  0.25581800  0.61818800  1
