# generated using pymatgen
data_Rb2Ge(S2O7)3
_symmetry_space_group_name_H-M   'P 1'
_cell_length_a   9.90472125
_cell_length_b   9.90472125
_cell_length_c   11.40648100
_cell_angle_alpha   90.00000000
_cell_angle_beta   90.00000000
_cell_angle_gamma   119.99999497
_symmetry_Int_Tables_number   1
_chemical_formula_structural   Rb2Ge(S2O7)3
_chemical_formula_sum   'Rb4 Ge2 S12 O42'
_cell_volume   969.09610961
_cell_formula_units_Z   2
loop_
 _symmetry_equiv_pos_site_id
 _symmetry_equiv_pos_as_xyz
  1  'x, y, z'
loop_
 _atom_site_type_symbol
 _atom_site_label
 _atom_site_symmetry_multiplicity
 _atom_site_fract_x
 _atom_site_fract_y
 _atom_site_fract_z
 _atom_site_occupancy
  Rb  Rb0  1  0.66666700  0.33333300  0.56060100  1
  Rb  Rb1  1  0.33333300  0.66666700  0.43939900  1
  Rb  Rb2  1  0.33333300  0.66666700  0.87789300  1
  Rb  Rb3  1  0.66666700  0.33333300  0.12210700  1
  Ge  Ge4  1  0.00000000  0.00000000  0.75747000  1
  Ge  Ge5  1  0.00000000  0.00000000  0.24253000  1
  S  S6  1  0.08188900  0.33428100  0.66030300  1
  S  S7  1  0.25239200  0.91811100  0.66030300  1
  S  S8  1  0.66571900  0.74760800  0.66030300  1
  S  S9  1  0.91811100  0.66571900  0.33969700  1
  S  S10  1  0.74760800  0.08188900  0.33969700  1
  S  S11  1  0.33428100  0.25239200  0.33969700  1
  S  S12  1  0.80445100  0.65595800  0.84597900  1
  S  S13  1  0.85150700  0.19554900  0.84597900  1
  S  S14  1  0.34404200  0.14849300  0.84597900  1
  S  S15  1  0.19554900  0.34404200  0.15402100  1
  S  S16  1  0.14849300  0.80445100  0.15402100  1
  S  S17  1  0.65595800  0.85150700  0.15402100  1
  O  O18  1  0.65994500  0.67837800  0.79483400  1
  O  O19  1  0.01843200  0.34005500  0.79483400  1
  O  O20  1  0.32162200  0.98156800  0.79483400  1
  O  O21  1  0.34005500  0.32162200  0.20516600  1
  O  O22  1  0.98156800  0.65994500  0.20516600  1
  O  O23  1  0.67837800  0.01843200  0.20516600  1
  O  O24  1  0.93701800  0.82507100  0.85891900  1
  O  O25  1  0.88805400  0.06298200  0.85891900  1
  O  O26  1  0.17492900  0.11194600  0.85891900  1
  O  O27  1  0.06298200  0.17492900  0.14108100  1
  O  O28  1  0.11194600  0.93701800  0.14108100  1
  O  O29  1  0.82507100  0.88805400  0.14108100  1
  O  O30  1  0.06115700  0.17164200  0.65278200  1
  O  O31  1  0.11048400  0.93884300  0.65278200  1
  O  O32  1  0.82835800  0.88951600  0.65278200  1
  O  O33  1  0.93884300  0.82835800  0.34721800  1
  O  O34  1  0.88951600  0.06115700  0.34721800  1
  O  O35  1  0.17164200  0.11048400  0.34721800  1
  O  O36  1  0.83910500  0.57115300  0.76088100  1
  O  O37  1  0.73204800  0.16089500  0.76088100  1
  O  O38  1  0.42884700  0.26795200  0.76088100  1
  O  O39  1  0.16089500  0.42884700  0.23911900  1
  O  O40  1  0.26795200  0.83910500  0.23911900  1
  O  O41  1  0.57115300  0.73204800  0.23911900  1
  O  O42  1  0.74964200  0.59136500  0.96004400  1
  O  O43  1  0.84172300  0.25035800  0.96004400  1
  O  O44  1  0.40863500  0.15827700  0.96004400  1
  O  O45  1  0.25035800  0.40863500  0.03995600  1
  O  O46  1  0.15827700  0.74964200  0.03995600  1
  O  O47  1  0.59136500  0.84172300  0.03995600  1
  O  O48  1  0.24293600  0.45303900  0.66836100  1
  O  O49  1  0.21010200  0.75706400  0.66836100  1
  O  O50  1  0.54696100  0.78989800  0.66836100  1
  O  O51  1  0.75706400  0.54696100  0.33163900  1
  O  O52  1  0.78989800  0.24293600  0.33163900  1
  O  O53  1  0.45303900  0.21010200  0.33163900  1
  O  O54  1  0.98484600  0.35197900  0.57579300  1
  O  O55  1  0.36713300  0.01515400  0.57579300  1
  O  O56  1  0.64802100  0.63286700  0.57579300  1
  O  O57  1  0.01515400  0.64802100  0.42420700  1
  O  O58  1  0.63286700  0.98484600  0.42420700  1
  O  O59  1  0.35197900  0.36713300  0.42420700  1
