# generated using pymatgen
data_K6Sn2S7
_symmetry_space_group_name_H-M   'P 1'
_cell_length_a   9.81852500
_cell_length_b   13.30360600
_cell_length_c   14.63882600
_cell_angle_alpha   90.00000000
_cell_angle_beta   90.00000000
_cell_angle_gamma   90.00000000
_symmetry_Int_Tables_number   1
_chemical_formula_structural   K6Sn2S7
_chemical_formula_sum   'K24 Sn8 S28'
_cell_volume   1912.14962782
_cell_formula_units_Z   4
loop_
 _symmetry_equiv_pos_site_id
 _symmetry_equiv_pos_as_xyz
  1  'x, y, z'
loop_
 _atom_site_type_symbol
 _atom_site_label
 _atom_site_symmetry_multiplicity
 _atom_site_fract_x
 _atom_site_fract_y
 _atom_site_fract_z
 _atom_site_occupancy
  K  K0  1  0.97291100  0.83943900  0.18692000  1
  K  K1  1  0.52708900  0.16056100  0.68692000  1
  K  K2  1  0.02708900  0.33943900  0.31308000  1
  K  K3  1  0.47291100  0.66056100  0.81308000  1
  K  K4  1  0.72039300  0.85867200  0.93645400  1
  K  K5  1  0.77960700  0.14132800  0.43645400  1
  K  K6  1  0.27960700  0.35867200  0.56354600  1
  K  K7  1  0.22039300  0.64132800  0.06354600  1
  K  K8  1  0.75418900  0.89112400  0.63310300  1
  K  K9  1  0.74581100  0.10887600  0.13310300  1
  K  K10  1  0.24581100  0.39112400  0.86689700  1
  K  K11  1  0.25418900  0.60887600  0.36689700  1
  K  K12  1  0.56129700  0.81780400  0.38409400  1
  K  K13  1  0.93870300  0.18219600  0.88409400  1
  K  K14  1  0.43870300  0.31780400  0.11590600  1
  K  K15  1  0.06129700  0.68219600  0.61590600  1
  K  K16  1  0.64489800  0.65415300  0.13741200  1
  K  K17  1  0.85510200  0.34584700  0.63741200  1
  K  K18  1  0.35510200  0.15415300  0.36258800  1
  K  K19  1  0.14489800  0.84584700  0.86258800  1
  K  K20  1  0.63880000  0.57023700  0.58541800  1
  K  K21  1  0.86120000  0.42976300  0.08541800  1
  K  K22  1  0.36120000  0.07023700  0.91458200  1
  K  K23  1  0.13880000  0.92976300  0.41458200  1
  Sn  Sn24  1  0.92407500  0.60767900  0.85715300  1
  Sn  Sn25  1  0.57592500  0.39232100  0.35715300  1
  Sn  Sn26  1  0.07592500  0.10767900  0.64284700  1
  Sn  Sn27  1  0.42407500  0.89232100  0.14284700  1
  Sn  Sn28  1  0.87743200  0.60873800  0.38193200  1
  Sn  Sn29  1  0.62256800  0.39126200  0.88193200  1
  Sn  Sn30  1  0.12256800  0.10873800  0.11806800  1
  Sn  Sn31  1  0.37743200  0.89126200  0.61806800  1
  S  S32  1  0.62607700  0.57653900  0.36115000  1
  S  S33  1  0.87392300  0.42346100  0.86115000  1
  S  S34  1  0.37392300  0.07653900  0.13885000  1
  S  S35  1  0.12607700  0.92346100  0.63885000  1
  S  S36  1  0.97207700  0.59158100  0.23304500  1
  S  S37  1  0.52792300  0.40841900  0.73304500  1
  S  S38  1  0.02792300  0.09158100  0.26695500  1
  S  S39  1  0.47207700  0.90841900  0.76695500  1
  S  S40  1  0.51648300  0.50596900  0.98782200  1
  S  S41  1  0.98351700  0.49403100  0.48782200  1
  S  S42  1  0.48351700  0.00596900  0.51217800  1
  S  S43  1  0.01648300  0.99403100  0.01217800  1
  S  S44  1  0.65806700  0.89146200  0.18635800  1
  S  S45  1  0.84193300  0.10853800  0.68635800  1
  S  S46  1  0.34193300  0.39146200  0.31364200  1
  S  S47  1  0.15806700  0.60853800  0.81364200  1
  S  S48  1  0.78402700  0.69672900  0.75068900  1
  S  S49  1  0.71597300  0.30327100  0.25068900  1
  S  S50  1  0.21597300  0.19672900  0.74931100  1
  S  S51  1  0.28402700  0.80327100  0.24931100  1
  S  S52  1  0.90673500  0.67592600  0.00774100  1
  S  S53  1  0.59326500  0.32407400  0.50774100  1
  S  S54  1  0.09326500  0.17592600  0.49225900  1
  S  S55  1  0.40673500  0.82407400  0.99225900  1
  S  S56  1  0.88129300  0.77612400  0.44334600  1
  S  S57  1  0.61870700  0.22387600  0.94334600  1
  S  S58  1  0.11870700  0.27612400  0.05665400  1
  S  S59  1  0.38129300  0.72387600  0.55665400  1
