# generated using pymatgen
data_La5Se6N
_symmetry_space_group_name_H-M   'P 1'
_cell_length_a   26.83024454
_cell_length_b   26.83024454
_cell_length_c   7.92429605
_cell_angle_alpha   89.33786827
_cell_angle_beta   89.33786827
_cell_angle_gamma   27.59479289
_symmetry_Int_Tables_number   1
_chemical_formula_structural   La5Se6N
_chemical_formula_sum   'La40 Se48 N8'
_cell_volume   2642.17927757
_cell_formula_units_Z   8
loop_
 _symmetry_equiv_pos_site_id
 _symmetry_equiv_pos_as_xyz
  1  'x, y, z'
loop_
 _atom_site_type_symbol
 _atom_site_label
 _atom_site_symmetry_multiplicity
 _atom_site_fract_x
 _atom_site_fract_y
 _atom_site_fract_z
 _atom_site_occupancy
  La  La0  1  0.75231600  0.35637500  0.68589800  1
  La  La1  1  0.63622000  0.25409400  0.82450300  1
  La  La2  1  0.25409400  0.63622000  0.32450300  1
  La  La3  1  0.35637500  0.75231600  0.18589800  1
  La  La4  1  0.85470200  0.69673800  0.78422300  1
  La  La5  1  0.30281400  0.14509500  0.71594800  1
  La  La6  1  0.14509500  0.30281400  0.21594800  1
  La  La7  1  0.69673800  0.85470200  0.28422300  1
  La  La8  1  0.95986600  0.45079600  0.62863300  1
  La  La9  1  0.54885800  0.03950300  0.87171800  1
  La  La10  1  0.03950300  0.54885800  0.37171800  1
  La  La11  1  0.45079600  0.95986600  0.12863300  1
  La  La12  1  0.98252900  0.86739600  0.65516800  1
  La  La13  1  0.12896200  0.01844500  0.84137100  1
  La  La14  1  0.01844500  0.12896200  0.34137100  1
  La  La15  1  0.86739600  0.98252900  0.15516800  1
  La  La16  1  0.72197900  0.56769500  0.53026000  1
  La  La17  1  0.43146000  0.27828900  0.97023500  1
  La  La18  1  0.27828900  0.43146000  0.47023500  1
  La  La19  1  0.56769500  0.72197900  0.03026000  1
  La  La20  1  0.15609200  0.43300400  0.83020400  1
  La  La21  1  0.56623500  0.84394100  0.66940100  1
  La  La22  1  0.84394100  0.56623500  0.16940100  1
  La  La23  1  0.43300400  0.15609200  0.33020400  1
  La  La24  1  0.98773700  0.70061900  0.63541200  1
  La  La25  1  0.29851600  0.01215200  0.86558500  1
  La  La26  1  0.01215300  0.29851600  0.36558500  1
  La  La27  1  0.70061900  0.98773700  0.13541200  1
  La  La28  1  0.28853800  0.54619400  0.82218600  1
  La  La29  1  0.45160400  0.71363800  0.67767300  1
  La  La30  1  0.71363800  0.45160400  0.17767300  1
  La  La31  1  0.54619400  0.28853800  0.32218600  1
  La  La32  1  0.94105500  0.32740700  0.82789900  1
  La  La33  1  0.67112500  0.05965400  0.67426700  1
  La  La34  1  0.05965400  0.67112500  0.17426700  1
  La  La35  1  0.32740700  0.94105500  0.32789900  1
  La  La36  1  0.43232400  0.56876200  0.74651600  1
  La  La37  1  0.56876200  0.43232400  0.24651600  1
  La  La38  1  0.12541100  0.85324400  0.99197900  1
  La  La39  1  0.85324400  0.12541100  0.49197900  1
  Se  Se40  1  0.11305500  0.26264500  0.89657200  1
  Se  Se41  1  0.73763300  0.88728600  0.60367300  1
  Se  Se42  1  0.88728600  0.73763300  0.10367300  1
  Se  Se43  1  0.26264500  0.11305500  0.39657200  1
  Se  Se44  1  0.74165900  0.62984500  0.82449300  1
  Se  Se45  1  0.37070800  0.25841800  0.67570200  1
  Se  Se46  1  0.25841800  0.37070800  0.17570200  1
  Se  Se47  1  0.62984500  0.74165900  0.32449300  1
  Se  Se48  1  0.90040800  0.25448900  0.97117400  1
  Se  Se49  1  0.74884200  0.10027700  0.53188900  1
  Se  Se50  1  0.10027700  0.74884200  0.03188900  1
  Se  Se51  1  0.25448900  0.90040800  0.47117400  1
  Se  Se52  1  0.16448500  0.34704400  0.53022900  1
  Se  Se53  1  0.65318000  0.83628300  0.96925500  1
  Se  Se54  1  0.83628300  0.65318000  0.46925500  1
  Se  Se55  1  0.34704400  0.16448500  0.03022900  1
  Se  Se56  1  0.55607100  0.52949200  0.97945500  1
  Se  Se57  1  0.46662900  0.44615300  0.52004300  1
  Se  Se58  1  0.44615300  0.46662900  0.02004300  1
  Se  Se59  1  0.52949200  0.55607100  0.47945500  1
  Se  Se60  1  0.67934500  0.31853300  0.73859200  1
  Se  Se61  1  0.31853300  0.67934500  0.23859200  1
  Se  Se62  1  0.97325300  0.10091800  0.64229300  1
  Se  Se63  1  0.90234600  0.02494100  0.85062800  1
  Se  Se64  1  0.02494100  0.90234600  0.35062800  1
  Se  Se65  1  0.10091800  0.97325300  0.14229300  1
  Se  Se66  1  0.21305700  0.71600100  0.69194000  1
  Se  Se67  1  0.28260500  0.78610400  0.81628700  1
  Se  Se68  1  0.78610400  0.28260500  0.31628700  1
  Se  Se69  1  0.71600100  0.21305700  0.19194000  1
  Se  Se70  1  0.67615200  0.53634700  0.82035300  1
  Se  Se71  1  0.46510900  0.32228900  0.67974500  1
  Se  Se72  1  0.32228900  0.46510900  0.17974500  1
  Se  Se73  1  0.53634700  0.67615200  0.32035300  1
  Se  Se74  1  0.88040600  0.87618700  0.88221800  1
  Se  Se75  1  0.12345000  0.12078600  0.61848500  1
  Se  Se76  1  0.12078600  0.12345000  0.11848500  1
  Se  Se77  1  0.87618700  0.88040600  0.38221800  1
  Se  Se78  1  0.00001900  0.50038000  0.00046000  1
  Se  Se79  1  0.50038000  0.00001900  0.50046000  1
  Se  Se80  1  0.18899100  0.52109200  0.84236000  1
  Se  Se81  1  0.47915400  0.81124100  0.65763900  1
  Se  Se82  1  0.81124100  0.47915400  0.15763900  1
  Se  Se83  1  0.52109200  0.18899100  0.34236000  1
  Se  Se84  1  0.14880100  0.64895000  0.52266600  1
  Se  Se85  1  0.35030900  0.85111100  0.97766400  1
  Se  Se86  1  0.85111100  0.35030900  0.47766400  1
  Se  Se87  1  0.64895000  0.14880100  0.02266600  1
  N  N88  1  0.01065400  0.58953300  0.66918800  1
  N  N89  1  0.41055000  0.98961100  0.83031400  1
  N  N90  1  0.98961100  0.41055000  0.33031400  1
  N  N91  1  0.58953300  0.01065400  0.16918800  1
  N  N92  1  0.90868100  0.41197200  0.60445400  1
  N  N93  1  0.58865000  0.09098800  0.89484900  1
  N  N94  1  0.09098800  0.58865000  0.39484900  1
  N  N95  1  0.41197200  0.90868100  0.10445400  1
