# generated using pymatgen
data_Zr3(Sn2Sb)2
_symmetry_space_group_name_H-M   'P 1'
_cell_length_a   5.58374903
_cell_length_b   5.58374903
_cell_length_c   7.69503851
_cell_angle_alpha   89.75261240
_cell_angle_beta   89.75261240
_cell_angle_gamma   119.95320480
_symmetry_Int_Tables_number   1
_chemical_formula_structural   Zr3(Sn2Sb)2
_chemical_formula_sum   'Zr3 Sn4 Sb2'
_cell_volume   207.86512591
_cell_formula_units_Z   1
loop_
 _symmetry_equiv_pos_site_id
 _symmetry_equiv_pos_as_xyz
  1  'x, y, z'
loop_
 _atom_site_type_symbol
 _atom_site_label
 _atom_site_symmetry_multiplicity
 _atom_site_fract_x
 _atom_site_fract_y
 _atom_site_fract_z
 _atom_site_occupancy
  Zr  Zr0  1  0.50226400  0.00421600  0.16340800  1
  Zr  Zr1  1  0.99578400  0.49773600  0.83659200  1
  Zr  Zr2  1  0.50203700  0.49796300  0.50000000  1
  Sn  Sn3  1  0.83294600  0.16705400  0.50000000  1
  Sn  Sn4  1  0.16737000  0.33620400  0.16894900  1
  Sn  Sn5  1  0.66379600  0.83263000  0.83105100  1
  Sn  Sn6  1  0.17003300  0.82996700  0.50000000  1
  Sb  Sb7  1  0.83286900  0.66710000  0.16743700  1
  Sb  Sb8  1  0.33290000  0.16713100  0.83256300  1
