# generated using pymatgen
data_Ho2AlSi2
_symmetry_space_group_name_H-M   'P 1'
_cell_length_a   5.58086436
_cell_length_b   5.58086436
_cell_length_c   5.58086436
_cell_angle_alpha   137.48467780
_cell_angle_beta   117.26227248
_cell_angle_gamma   78.74587284
_symmetry_Int_Tables_number   1
_chemical_formula_structural   Ho2AlSi2
_chemical_formula_sum   'Ho2 Al1 Si2'
_cell_volume   101.43890129
_cell_formula_units_Z   1
loop_
 _symmetry_equiv_pos_site_id
 _symmetry_equiv_pos_as_xyz
  1  'x, y, z'
loop_
 _atom_site_type_symbol
 _atom_site_label
 _atom_site_symmetry_multiplicity
 _atom_site_fract_x
 _atom_site_fract_y
 _atom_site_fract_z
 _atom_site_occupancy
  Ho  Ho0  1  0.71112300  0.21112300  0.50000000  1
  Ho  Ho1  1  0.28887700  0.78887700  0.50000000  1
  Al  Al2  1  0.00000000  0.00000000  0.00000000  1
  Si  Si3  1  0.28912500  0.50000000  0.78912500  1
  Si  Si4  1  0.71087500  0.50000000  0.21087500  1
