# generated using pymatgen
data_Tm3FeSi3
_symmetry_space_group_name_H-M   'P 1'
_cell_length_a   5.56723074
_cell_length_b   5.56723074
_cell_length_c   13.33248310
_cell_angle_alpha   70.49708423
_cell_angle_beta   70.49708423
_cell_angle_gamma   43.39974491
_symmetry_Int_Tables_number   1
_chemical_formula_structural   Tm3FeSi3
_chemical_formula_sum   'Tm6 Fe2 Si6'
_cell_volume   264.96053898
_cell_formula_units_Z   2
loop_
 _symmetry_equiv_pos_site_id
 _symmetry_equiv_pos_as_xyz
  1  'x, y, z'
loop_
 _atom_site_type_symbol
 _atom_site_label
 _atom_site_symmetry_multiplicity
 _atom_site_fract_x
 _atom_site_fract_y
 _atom_site_fract_z
 _atom_site_occupancy
  Tm  Tm0  1  0.74860200  0.74860200  0.77018000  1
  Tm  Tm1  1  0.25139800  0.25139800  0.22982000  1
  Tm  Tm2  1  0.52385200  0.52385200  0.62055900  1
  Tm  Tm3  1  0.47614800  0.47614800  0.37944100  1
  Tm  Tm4  1  0.39908000  0.39908000  0.91910100  1
  Tm  Tm5  1  0.60092000  0.60092000  0.08089900  1
  Fe  Fe6  1  0.75279200  0.75279200  0.41526900  1
  Fe  Fe7  1  0.24720800  0.24720800  0.58473100  1
  Si  Si8  1  0.14279000  0.14279000  0.45669900  1
  Si  Si9  1  0.85721000  0.85721000  0.54330100  1
  Si  Si10  1  0.11474800  0.11474800  0.92466900  1
  Si  Si11  1  0.88525200  0.88525200  0.07533100  1
  Si  Si12  1  0.05434400  0.05434400  0.75799700  1
  Si  Si13  1  0.94565600  0.94565600  0.24200300  1
