# generated using pymatgen
data_K3Np(HO3)2
_symmetry_space_group_name_H-M   'P 1'
_cell_length_a   6.76312400
_cell_length_b   10.19527700
_cell_length_c   11.10470100
_cell_angle_alpha   90.00000000
_cell_angle_beta   90.00000000
_cell_angle_gamma   90.00000000
_symmetry_Int_Tables_number   1
_chemical_formula_structural   K3Np(HO3)2
_chemical_formula_sum   'K12 Np4 H8 O24'
_cell_volume   765.69048346
_cell_formula_units_Z   4
loop_
 _symmetry_equiv_pos_site_id
 _symmetry_equiv_pos_as_xyz
  1  'x, y, z'
loop_
 _atom_site_type_symbol
 _atom_site_label
 _atom_site_symmetry_multiplicity
 _atom_site_fract_x
 _atom_site_fract_y
 _atom_site_fract_z
 _atom_site_occupancy
  K  K0  1  0.98952700  0.58585000  0.65459400  1
  K  K1  1  0.98952700  0.91415000  0.84540600  1
  K  K2  1  0.51047300  0.08585000  0.34540600  1
  K  K3  1  0.51047300  0.41415000  0.15459400  1
  K  K4  1  0.01047300  0.41415000  0.34540600  1
  K  K5  1  0.01047300  0.08585000  0.15459400  1
  K  K6  1  0.48952700  0.91415000  0.65459400  1
  K  K7  1  0.48952700  0.58585000  0.84540600  1
  K  K8  1  0.08382600  0.25000000  0.75000000  1
  K  K9  1  0.41617400  0.75000000  0.25000000  1
  K  K10  1  0.91617400  0.75000000  0.25000000  1
  K  K11  1  0.58382600  0.25000000  0.75000000  1
  Np  Np12  1  0.00000000  0.50000000  0.00000000  1
  Np  Np13  1  0.00000000  0.00000000  0.50000000  1
  Np  Np14  1  0.50000000  0.00000000  0.00000000  1
  Np  Np15  1  0.50000000  0.50000000  0.50000000  1
  H  H16  1  0.29330700  0.29573800  0.97663400  1
  H  H17  1  0.29330700  0.20426200  0.52336600  1
  H  H18  1  0.20669300  0.79573800  0.02336600  1
  H  H19  1  0.20669300  0.70426200  0.47663400  1
  H  H20  1  0.70669300  0.70426200  0.02336600  1
  H  H21  1  0.70669300  0.79573800  0.47663400  1
  H  H22  1  0.79330700  0.20426200  0.97663400  1
  H  H23  1  0.79330700  0.29573800  0.52336600  1
  O  O24  1  0.14864100  0.56178300  0.13705500  1
  O  O25  1  0.14864100  0.93821700  0.36294500  1
  O  O26  1  0.35135900  0.06178300  0.86294500  1
  O  O27  1  0.35135900  0.43821700  0.63705500  1
  O  O28  1  0.85135900  0.43821700  0.86294500  1
  O  O29  1  0.85135900  0.06178300  0.63705500  1
  O  O30  1  0.64864100  0.93821700  0.13705500  1
  O  O31  1  0.64864100  0.56178300  0.36294500  1
  O  O32  1  0.09593500  0.64321900  0.90221600  1
  O  O33  1  0.09593500  0.85678100  0.59778400  1
  O  O34  1  0.40406500  0.14321900  0.09778400  1
  O  O35  1  0.40406500  0.35678100  0.40221600  1
  O  O36  1  0.90406500  0.35678100  0.09778400  1
  O  O37  1  0.90406500  0.14321900  0.40221600  1
  O  O38  1  0.59593500  0.85678100  0.90221600  1
  O  O39  1  0.59593500  0.64321900  0.59778400  1
  O  O40  1  0.27412800  0.38074200  0.93704900  1
  O  O41  1  0.27412800  0.11925800  0.56295100  1
  O  O42  1  0.22587200  0.88074200  0.06295100  1
  O  O43  1  0.22587200  0.61925800  0.43704900  1
  O  O44  1  0.72587200  0.61925800  0.06295100  1
  O  O45  1  0.72587200  0.88074200  0.43704900  1
  O  O46  1  0.77412800  0.11925800  0.93704900  1
  O  O47  1  0.77412800  0.38074200  0.56295100  1
