# generated using pymatgen
data_Lu2B6Rh
_symmetry_space_group_name_H-M   'P 1'
_cell_length_a   3.59654200
_cell_length_b   9.07425800
_cell_length_c   11.39006800
_cell_angle_alpha   90.00000000
_cell_angle_beta   90.00000000
_cell_angle_gamma   90.00000000
_symmetry_Int_Tables_number   1
_chemical_formula_structural   Lu2B6Rh
_chemical_formula_sum   'Lu8 B24 Rh4'
_cell_volume   371.72568992
_cell_formula_units_Z   4
loop_
 _symmetry_equiv_pos_site_id
 _symmetry_equiv_pos_as_xyz
  1  'x, y, z'
loop_
 _atom_site_type_symbol
 _atom_site_label
 _atom_site_symmetry_multiplicity
 _atom_site_fract_x
 _atom_site_fract_y
 _atom_site_fract_z
 _atom_site_occupancy
  Lu  Lu0  1  0.50000000  0.32163400  0.41329500  1
  Lu  Lu1  1  0.50000000  0.67836600  0.58670500  1
  Lu  Lu2  1  0.50000000  0.17836600  0.91329500  1
  Lu  Lu3  1  0.50000000  0.82163400  0.08670500  1
  Lu  Lu4  1  0.50000000  0.44491100  0.12595200  1
  Lu  Lu5  1  0.50000000  0.55508900  0.87404800  1
  Lu  Lu6  1  0.50000000  0.05508900  0.62595200  1
  Lu  Lu7  1  0.50000000  0.94491100  0.37404800  1
  B  B8  1  0.00000000  0.10887600  0.47004300  1
  B  B9  1  0.00000000  0.89112400  0.52995700  1
  B  B10  1  0.00000000  0.39112400  0.97004300  1
  B  B11  1  0.00000000  0.60887600  0.02995700  1
  B  B12  1  0.00000000  0.13379400  0.31605700  1
  B  B13  1  0.00000000  0.86620600  0.68394300  1
  B  B14  1  0.00000000  0.36620600  0.81605700  1
  B  B15  1  0.00000000  0.63379400  0.18394300  1
  B  B16  1  0.00000000  0.05335900  0.06549900  1
  B  B17  1  0.00000000  0.94664100  0.93450100  1
  B  B18  1  0.00000000  0.44664100  0.56549900  1
  B  B19  1  0.00000000  0.55335900  0.43450100  1
  B  B20  1  0.00000000  0.48244000  0.28791900  1
  B  B21  1  0.00000000  0.51756000  0.71208100  1
  B  B22  1  0.00000000  0.01756000  0.78791900  1
  B  B23  1  0.00000000  0.98244000  0.21208100  1
  B  B24  1  0.00000000  0.25103200  0.07909500  1
  B  B25  1  0.00000000  0.74896800  0.92090500  1
  B  B26  1  0.00000000  0.24896800  0.57909500  1
  B  B27  1  0.00000000  0.75103200  0.42090500  1
  B  B28  1  0.00000000  0.29582500  0.23553300  1
  B  B29  1  0.00000000  0.70417500  0.76446700  1
  B  B30  1  0.00000000  0.20417500  0.73553300  1
  B  B31  1  0.00000000  0.79582500  0.26446700  1
  Rh  Rh32  1  0.50000000  0.14043500  0.17888000  1
  Rh  Rh33  1  0.50000000  0.85956500  0.82112000  1
  Rh  Rh34  1  0.50000000  0.35956500  0.67888000  1
  Rh  Rh35  1  0.50000000  0.64043500  0.32112000  1
