# generated using pymatgen
data_AlAgTe2
_symmetry_space_group_name_H-M   'P 1'
_cell_length_a   7.61976088
_cell_length_b   7.61976088
_cell_length_c   7.61976088
_cell_angle_alpha   130.18212981
_cell_angle_beta   130.18212981
_cell_angle_gamma   73.11576786
_symmetry_Int_Tables_number   1
_chemical_formula_structural   AlAgTe2
_chemical_formula_sum   'Al2 Ag2 Te4'
_cell_volume   252.15498964
_cell_formula_units_Z   2
loop_
 _symmetry_equiv_pos_site_id
 _symmetry_equiv_pos_as_xyz
  1  'x, y, z'
loop_
 _atom_site_type_symbol
 _atom_site_label
 _atom_site_symmetry_multiplicity
 _atom_site_fract_x
 _atom_site_fract_y
 _atom_site_fract_z
 _atom_site_occupancy
  Al  Al0  1  0.50000000  0.50000000  0.00000000  1
  Al  Al1  1  0.25000000  0.75000000  0.50000000  1
  Ag  Ag2  1  0.00000000  0.00000000  0.00000000  1
  Ag  Ag3  1  0.75000000  0.25000000  0.50000000  1
  Te  Te4  1  0.14589000  0.12500000  0.52089000  1
  Te  Te5  1  0.87500000  0.39589000  0.02089000  1
  Te  Te6  1  0.37500000  0.85411000  0.97911000  1
  Te  Te7  1  0.60411000  0.62500000  0.47911000  1
