# generated using pymatgen
data_Ho2MoO6
_symmetry_space_group_name_H-M   'P 1'
_cell_length_a   9.91241158
_cell_length_b   9.91241158
_cell_length_c   5.37794871
_cell_angle_alpha   75.02283475
_cell_angle_beta   75.02283475
_cell_angle_gamma   68.07136540
_symmetry_Int_Tables_number   1
_chemical_formula_structural   Ho2MoO6
_chemical_formula_sum   'Ho8 Mo4 O24'
_cell_volume   465.73797234
_cell_formula_units_Z   4
loop_
 _symmetry_equiv_pos_site_id
 _symmetry_equiv_pos_as_xyz
  1  'x, y, z'
loop_
 _atom_site_type_symbol
 _atom_site_label
 _atom_site_symmetry_multiplicity
 _atom_site_fract_x
 _atom_site_fract_y
 _atom_site_fract_z
 _atom_site_occupancy
  Ho  Ho0  1  0.44771900  0.21656100  0.37784400  1
  Ho  Ho1  1  0.78343900  0.55228100  0.12215600  1
  Ho  Ho2  1  0.55228100  0.78343900  0.62215600  1
  Ho  Ho3  1  0.21656100  0.44771900  0.87784400  1
  Ho  Ho4  1  0.86338300  0.13661700  0.25000000  1
  Ho  Ho5  1  0.13661700  0.86338300  0.75000000  1
  Ho  Ho6  1  0.39390800  0.60609200  0.25000000  1
  Ho  Ho7  1  0.60609200  0.39390800  0.75000000  1
  Mo  Mo8  1  0.29637400  0.01147600  0.06138900  1
  Mo  Mo9  1  0.98852400  0.70362600  0.43861100  1
  Mo  Mo10  1  0.70362600  0.98852400  0.93861100  1
  Mo  Mo11  1  0.01147600  0.29637400  0.56138900  1
  O  O12  1  0.60948700  0.57301800  0.92217600  1
  O  O13  1  0.42698200  0.39051300  0.57782400  1
  O  O14  1  0.39051300  0.42698200  0.07782400  1
  O  O15  1  0.57301800  0.60948700  0.42217600  1
  O  O16  1  0.33791000  0.80700300  0.91814000  1
  O  O17  1  0.19299700  0.66209000  0.58186000  1
  O  O18  1  0.66209000  0.19299700  0.08186000  1
  O  O19  1  0.80700300  0.33791000  0.41814000  1
  O  O20  1  0.32565500  0.88388400  0.37472000  1
  O  O21  1  0.11611600  0.67434500  0.12528000  1
  O  O22  1  0.67434500  0.11611600  0.62528000  1
  O  O23  1  0.88388400  0.32565500  0.87472000  1
  O  O24  1  0.18421400  0.28912000  0.63711500  1
  O  O25  1  0.71088000  0.81578600  0.86288500  1
  O  O26  1  0.81578600  0.71088000  0.36288500  1
  O  O27  1  0.28912000  0.18421400  0.13711500  1
  O  O28  1  0.04798200  0.11010100  0.51460500  1
  O  O29  1  0.88989900  0.95201800  0.98539500  1
  O  O30  1  0.95201800  0.88989900  0.48539500  1
  O  O31  1  0.11010100  0.04798200  0.01460500  1
  O  O32  1  0.02491500  0.43288100  0.25448300  1
  O  O33  1  0.56711900  0.97508500  0.24551700  1
  O  O34  1  0.97508500  0.56711900  0.74551700  1
  O  O35  1  0.43288100  0.02491500  0.75448300  1
