# generated using pymatgen
data_Cs2HfO3
_symmetry_space_group_name_H-M   'P 1'
_cell_length_a   6.94403049
_cell_length_b   6.94403049
_cell_length_c   5.93368100
_cell_angle_alpha   90.00000000
_cell_angle_beta   90.00000000
_cell_angle_gamma   111.26538876
_symmetry_Int_Tables_number   1
_chemical_formula_structural   Cs2HfO3
_chemical_formula_sum   'Cs4 Hf2 O6'
_cell_volume   266.63774825
_cell_formula_units_Z   2
loop_
 _symmetry_equiv_pos_site_id
 _symmetry_equiv_pos_as_xyz
  1  'x, y, z'
loop_
 _atom_site_type_symbol
 _atom_site_label
 _atom_site_symmetry_multiplicity
 _atom_site_fract_x
 _atom_site_fract_y
 _atom_site_fract_z
 _atom_site_occupancy
  Cs  Cs0  1  0.51608500  0.19145600  0.75000000  1
  Cs  Cs1  1  0.80854400  0.48391500  0.25000000  1
  Cs  Cs2  1  0.48391500  0.80854400  0.25000000  1
  Cs  Cs3  1  0.19145600  0.51608500  0.75000000  1
  Hf  Hf4  1  0.08068800  0.08068800  0.25000000  1
  Hf  Hf5  1  0.91931200  0.91931200  0.75000000  1
  O  O6  1  0.88381800  0.11618200  0.00000000  1
  O  O7  1  0.88381800  0.11618200  0.50000000  1
  O  O8  1  0.67397200  0.67397200  0.75000000  1
  O  O9  1  0.32602800  0.32602800  0.25000000  1
  O  O10  1  0.11618200  0.88381800  0.00000000  1
  O  O11  1  0.11618200  0.88381800  0.50000000  1
