# generated using pymatgen
data_Pr14Ag51
_symmetry_space_group_name_H-M   'P 1'
_cell_length_a   13.05445058
_cell_length_b   13.05445058
_cell_length_c   9.58294400
_cell_angle_alpha   90.00000000
_cell_angle_beta   90.00000000
_cell_angle_gamma   120.00000293
_symmetry_Int_Tables_number   1
_chemical_formula_structural   Pr14Ag51
_chemical_formula_sum   'Pr14 Ag51'
_cell_volume   1414.31701425
_cell_formula_units_Z   1
loop_
 _symmetry_equiv_pos_site_id
 _symmetry_equiv_pos_as_xyz
  1  'x, y, z'
loop_
 _atom_site_type_symbol
 _atom_site_label
 _atom_site_symmetry_multiplicity
 _atom_site_fract_x
 _atom_site_fract_y
 _atom_site_fract_z
 _atom_site_occupancy
  Pr  Pr0  1  0.99481600  0.19410800  0.50000000  1
  Pr  Pr1  1  0.19929200  0.00518400  0.50000000  1
  Pr  Pr2  1  0.80589200  0.80070800  0.50000000  1
  Pr  Pr3  1  0.33864500  0.47493100  0.50000000  1
  Pr  Pr4  1  0.13628600  0.66135500  0.50000000  1
  Pr  Pr5  1  0.52506900  0.86371400  0.50000000  1
  Pr  Pr6  1  0.39794200  0.95030500  0.00000000  1
  Pr  Pr7  1  0.55236300  0.60205800  0.00000000  1
  Pr  Pr8  1  0.04969500  0.44763700  0.00000000  1
  Pr  Pr9  1  0.94970400  0.73479900  0.00000000  1
  Pr  Pr10  1  0.78509600  0.05029600  0.00000000  1
  Pr  Pr11  1  0.26520100  0.21490400  0.00000000  1
  Pr  Pr12  1  0.66666700  0.33333300  0.69759100  1
  Pr  Pr13  1  0.66666700  0.33333300  0.30240900  1
  Ag  Ag14  1  0.04469400  0.21754400  0.84626900  1
  Ag  Ag15  1  0.17285000  0.95530600  0.84626900  1
  Ag  Ag16  1  0.78245600  0.82715000  0.84626900  1
  Ag  Ag17  1  0.28592700  0.45036000  0.84755700  1
  Ag  Ag18  1  0.16443300  0.71407300  0.84755700  1
  Ag  Ag19  1  0.54964000  0.83556700  0.84755700  1
  Ag  Ag20  1  0.28592700  0.45036000  0.15244300  1
  Ag  Ag21  1  0.16443300  0.71407300  0.15244300  1
  Ag  Ag22  1  0.54964000  0.83556700  0.15244300  1
  Ag  Ag23  1  0.04469400  0.21754400  0.15373100  1
  Ag  Ag24  1  0.17285000  0.95530600  0.15373100  1
  Ag  Ag25  1  0.78245600  0.82715000  0.15373100  1
  Ag  Ag26  1  0.48749500  0.09570700  0.50000000  1
  Ag  Ag27  1  0.60821200  0.51250500  0.50000000  1
  Ag  Ag28  1  0.90429300  0.39178800  0.50000000  1
  Ag  Ag29  1  0.84624700  0.57246200  0.50000000  1
  Ag  Ag30  1  0.72621500  0.15375300  0.50000000  1
  Ag  Ag31  1  0.42753800  0.27378500  0.50000000  1
  Ag  Ag32  1  0.00000000  0.00000000  0.00000000  1
  Ag  Ag33  1  0.33333300  0.66666700  0.00000000  1
  Ag  Ag34  1  0.33478300  0.89594200  0.67012900  1
  Ag  Ag35  1  0.56115900  0.66521700  0.67012900  1
  Ag  Ag36  1  0.10405800  0.43884100  0.67012900  1
  Ag  Ag37  1  0.00027600  0.77244700  0.66842800  1
  Ag  Ag38  1  0.77217100  0.99972400  0.66842800  1
  Ag  Ag39  1  0.22755300  0.22782900  0.66842800  1
  Ag  Ag40  1  0.00027600  0.77244700  0.33157200  1
  Ag  Ag41  1  0.77217100  0.99972400  0.33157200  1
  Ag  Ag42  1  0.22755300  0.22782900  0.33157200  1
  Ag  Ag43  1  0.33478300  0.89594200  0.32987100  1
  Ag  Ag44  1  0.56115900  0.66521700  0.32987100  1
  Ag  Ag45  1  0.10405800  0.43884100  0.32987100  1
  Ag  Ag46  1  0.59271000  0.06346600  0.75882500  1
  Ag  Ag47  1  0.47075600  0.40729000  0.75882500  1
  Ag  Ag48  1  0.93653400  0.52924400  0.75882500  1
  Ag  Ag49  1  0.74164900  0.59989800  0.76458000  1
  Ag  Ag50  1  0.85824900  0.25835100  0.76458000  1
  Ag  Ag51  1  0.40010200  0.14175100  0.76458000  1
  Ag  Ag52  1  0.74164900  0.59989800  0.23542000  1
  Ag  Ag53  1  0.85824900  0.25835100  0.23542000  1
  Ag  Ag54  1  0.40010200  0.14175100  0.23542000  1
  Ag  Ag55  1  0.59271000  0.06346600  0.24117500  1
  Ag  Ag56  1  0.47075600  0.40729000  0.24117500  1
  Ag  Ag57  1  0.93653400  0.52924400  0.24117500  1
  Ag  Ag58  1  0.00000000  0.00000000  0.70570700  1
  Ag  Ag59  1  0.33333300  0.66666700  0.70650100  1
  Ag  Ag60  1  0.33333300  0.66666700  0.29349900  1
  Ag  Ag61  1  0.00000000  0.00000000  0.29429300  1
  Ag  Ag62  1  0.68536600  0.21658000  0.00000000  1
  Ag  Ag63  1  0.53121400  0.31463400  0.00000000  1
  Ag  Ag64  1  0.78342000  0.46878600  0.00000000  1
