# generated using pymatgen
data_K2Si6GeO15
_symmetry_space_group_name_H-M   'P 1'
_cell_length_a   7.34943827
_cell_length_b   7.34943827
_cell_length_c   15.00824126
_cell_angle_alpha   75.42566699
_cell_angle_beta   75.42566699
_cell_angle_gamma   59.52989367
_symmetry_Int_Tables_number   1
_chemical_formula_structural   K2Si6GeO15
_chemical_formula_sum   'K4 Si12 Ge2 O30'
_cell_volume   668.70169004
_cell_formula_units_Z   2
loop_
 _symmetry_equiv_pos_site_id
 _symmetry_equiv_pos_as_xyz
  1  'x, y, z'
loop_
 _atom_site_type_symbol
 _atom_site_label
 _atom_site_symmetry_multiplicity
 _atom_site_fract_x
 _atom_site_fract_y
 _atom_site_fract_z
 _atom_site_occupancy
  K  K0  1  0.78700000  0.92131100  0.21180700  1
  K  K1  1  0.92131100  0.78700000  0.71180700  1
  K  K2  1  0.20900600  0.57599300  0.40104000  1
  K  K3  1  0.57599300  0.20900600  0.90104000  1
  Si  Si4  1  0.56448800  0.59091300  0.16953500  1
  Si  Si5  1  0.59091300  0.56448800  0.66953500  1
  Si  Si6  1  0.69294000  0.13313700  0.47747000  1
  Si  Si7  1  0.13313700  0.69294000  0.97747000  1
  Si  Si8  1  0.11902500  0.04583500  0.49339000  1
  Si  Si9  1  0.04583500  0.11902500  0.99339000  1
  Si  Si10  1  0.19560600  0.05087500  0.18767500  1
  Si  Si11  1  0.05087500  0.19560600  0.68767500  1
  Si  Si12  1  0.29278900  0.39749100  0.17156000  1
  Si  Si13  1  0.39749100  0.29278900  0.67156000  1
  Si  Si14  1  0.59799400  0.77107000  0.45999500  1
  Si  Si15  1  0.77107000  0.59799400  0.95999500  1
  Ge  Ge16  1  0.89467700  0.39541700  0.32691600  1
  Ge  Ge17  1  0.39541700  0.89467700  0.82691600  1
  O  O18  1  0.33411000  0.78959600  0.20721700  1
  O  O19  1  0.78959600  0.33411000  0.70721700  1
  O  O20  1  0.36435000  0.15046700  0.15966400  1
  O  O21  1  0.15046700  0.36435000  0.65966400  1
  O  O22  1  0.93981200  0.96655200  0.49996300  1
  O  O23  1  0.96655200  0.93981200  0.99996300  1
  O  O24  1  0.34597500  0.84014200  0.46038100  1
  O  O25  1  0.84014200  0.34597500  0.96038100  1
  O  O26  1  0.06466300  0.11952100  0.10032200  1
  O  O27  1  0.11952100  0.06466300  0.60032200  1
  O  O28  1  0.22210300  0.54993800  0.07414200  1
  O  O29  1  0.54993800  0.22210300  0.57414200  1
  O  O30  1  0.62106300  0.66928700  0.05878700  1
  O  O31  1  0.66928700  0.62106300  0.55878700  1
  O  O32  1  0.60142200  0.99725100  0.45012900  1
  O  O33  1  0.99725100  0.60142200  0.95012900  1
  O  O34  1  0.75065500  0.54124200  0.22268400  1
  O  O35  1  0.54124200  0.75065500  0.72268400  1
  O  O36  1  0.47791500  0.11024600  0.75928900  1
  O  O37  1  0.11024600  0.47791500  0.25928900  1
  O  O38  1  0.66154200  0.75975500  0.87214900  1
  O  O39  1  0.75975500  0.66154200  0.37214900  1
  O  O40  1  0.33216000  0.67337100  0.89701500  1
  O  O41  1  0.67337100  0.33216000  0.39701500  1
  O  O42  1  0.26916200  0.06331800  0.92594400  1
  O  O43  1  0.06331800  0.26916200  0.42594400  1
  O  O44  1  0.12838900  0.03018100  0.78056900  1
  O  O45  1  0.03018100  0.12838900  0.28056900  1
  O  O46  1  0.38857300  0.51427100  0.68425900  1
  O  O47  1  0.51427100  0.38857300  0.18425900  1
