# generated using pymatgen
data_Rb3LuV2O8
_symmetry_space_group_name_H-M   'P 1'
_cell_length_a   6.02337185
_cell_length_b   6.02337185
_cell_length_c   7.93865200
_cell_angle_alpha   90.00000000
_cell_angle_beta   90.00000000
_cell_angle_gamma   119.99999840
_symmetry_Int_Tables_number   1
_chemical_formula_structural   Rb3LuV2O8
_chemical_formula_sum   'Rb3 Lu1 V2 O8'
_cell_volume   249.43463323
_cell_formula_units_Z   1
loop_
 _symmetry_equiv_pos_site_id
 _symmetry_equiv_pos_as_xyz
  1  'x, y, z'
loop_
 _atom_site_type_symbol
 _atom_site_label
 _atom_site_symmetry_multiplicity
 _atom_site_fract_x
 _atom_site_fract_y
 _atom_site_fract_z
 _atom_site_occupancy
  Rb  Rb0  1  0.33333300  0.66666700  0.70385400  1
  Rb  Rb1  1  0.66666700  0.33333300  0.29614600  1
  Rb  Rb2  1  0.00000000  0.00000000  0.00000000  1
  Lu  Lu3  1  0.00000000  0.00000000  0.50000000  1
  V  V4  1  0.33333300  0.66666700  0.26123900  1
  V  V5  1  0.66666700  0.33333300  0.73876100  1
  O  O6  1  0.33333300  0.66666700  0.04860700  1
  O  O7  1  0.66666700  0.33333300  0.95139300  1
  O  O8  1  0.17303300  0.82696700  0.33553300  1
  O  O9  1  0.82696700  0.17303300  0.66446700  1
  O  O10  1  0.17303300  0.34606600  0.33553300  1
  O  O11  1  0.82696700  0.65393400  0.66446700  1
  O  O12  1  0.65393400  0.82696700  0.33553300  1
  O  O13  1  0.34606600  0.17303300  0.66446700  1
