# generated using pymatgen
data_Nd3Mn2Sb3O14
_symmetry_space_group_name_H-M   'P 1'
_cell_length_a   7.35967648
_cell_length_b   7.35967648
_cell_length_c   7.35967607
_cell_angle_alpha   62.03681471
_cell_angle_beta   62.03681471
_cell_angle_gamma   62.03681239
_symmetry_Int_Tables_number   1
_chemical_formula_structural   Nd3Mn2Sb3O14
_chemical_formula_sum   'Nd3 Mn2 Sb3 O14'
_cell_volume   294.71650652
_cell_formula_units_Z   1
loop_
 _symmetry_equiv_pos_site_id
 _symmetry_equiv_pos_as_xyz
  1  'x, y, z'
loop_
 _atom_site_type_symbol
 _atom_site_label
 _atom_site_symmetry_multiplicity
 _atom_site_fract_x
 _atom_site_fract_y
 _atom_site_fract_z
 _atom_site_occupancy
  Nd  Nd0  1  0.50000000  0.50000000  0.00000000  1
  Nd  Nd1  1  0.00000000  0.50000000  0.50000000  1
  Nd  Nd2  1  0.50000000  0.00000000  0.50000000  1
  Mn  Mn3  1  0.00000000  0.00000000  0.00000000  1
  Mn  Mn4  1  0.50000000  0.50000000  0.50000000  1
  Sb  Sb5  1  0.00000000  0.00000000  0.50000000  1
  Sb  Sb6  1  0.50000000  0.00000000  0.00000000  1
  Sb  Sb7  1  0.00000000  0.50000000  0.00000000  1
  O  O8  1  0.61562800  0.61562800  0.61562800  1
  O  O9  1  0.38437200  0.38437200  0.38437200  1
  O  O10  1  0.32006600  0.92113000  0.32006600  1
  O  O11  1  0.32006600  0.32006600  0.92113000  1
  O  O12  1  0.92113000  0.32006600  0.32006600  1
  O  O13  1  0.67993400  0.07887000  0.67993400  1
  O  O14  1  0.67993400  0.67993400  0.07887000  1
  O  O15  1  0.07887000  0.67993400  0.67993400  1
  O  O16  1  0.90808500  0.35384800  0.90808500  1
  O  O17  1  0.90808500  0.90808500  0.35384800  1
  O  O18  1  0.35384800  0.90808500  0.90808500  1
  O  O19  1  0.09191500  0.64615200  0.09191500  1
  O  O20  1  0.09191500  0.09191500  0.64615200  1
  O  O21  1  0.64615200  0.09191500  0.09191500  1
