# generated using pymatgen
data_CuAs7PS7Br
_symmetry_space_group_name_H-M   'P 1'
_cell_length_a   13.72364400
_cell_length_b   9.81192300
_cell_length_c   14.16895240
_cell_angle_alpha   83.45534673
_cell_angle_beta   90.00000000
_cell_angle_gamma   90.00000000
_symmetry_Int_Tables_number   1
_chemical_formula_structural   CuAs7PS7Br
_chemical_formula_sum   'Cu4 As28 P4 S28 Br4'
_cell_volume   1895.49175761
_cell_formula_units_Z   4
loop_
 _symmetry_equiv_pos_site_id
 _symmetry_equiv_pos_as_xyz
  1  'x, y, z'
loop_
 _atom_site_type_symbol
 _atom_site_label
 _atom_site_symmetry_multiplicity
 _atom_site_fract_x
 _atom_site_fract_y
 _atom_site_fract_z
 _atom_site_occupancy
  Cu  Cu0  1  0.67080000  0.61567800  0.28632800  1
  Cu  Cu1  1  0.17080000  0.38432200  0.21367200  1
  Cu  Cu2  1  0.32920000  0.38432200  0.71367200  1
  Cu  Cu3  1  0.82920000  0.61567800  0.78632800  1
  As  As4  1  0.55080700  0.15689200  0.29791900  1
  As  As5  1  0.05080700  0.84310800  0.20208100  1
  As  As6  1  0.44919300  0.84310800  0.70208100  1
  As  As7  1  0.94919300  0.15689200  0.79791900  1
  As  As8  1  0.39955600  0.02254500  0.34703100  1
  As  As9  1  0.89955600  0.97745500  0.15296900  1
  As  As10  1  0.60044400  0.97745500  0.65296900  1
  As  As11  1  0.10044400  0.02254500  0.84703100  1
  As  As12  1  0.44519000  0.06896100  0.17408900  1
  As  As13  1  0.94519000  0.93103900  0.32591100  1
  As  As14  1  0.55481000  0.93103900  0.82591100  1
  As  As15  1  0.05481000  0.06896100  0.67408900  1
  As  As16  1  0.75563300  0.35636300  0.16264700  1
  As  As17  1  0.25563300  0.64363700  0.33735300  1
  As  As18  1  0.24436700  0.64363700  0.83735300  1
  As  As19  1  0.74436700  0.35636300  0.66264700  1
  As  As20  1  0.86103200  0.52869700  0.05244800  1
  As  As21  1  0.36103200  0.47130300  0.44755200  1
  As  As22  1  0.13896800  0.47130300  0.94755200  1
  As  As23  1  0.63896800  0.52869700  0.55244800  1
  As  As24  1  0.61310900  0.58662200  0.00865200  1
  As  As25  1  0.11310900  0.41337800  0.49134800  1
  As  As26  1  0.38689100  0.41337800  0.99134800  1
  As  As27  1  0.88689100  0.58662200  0.50865200  1
  As  As28  1  0.67187400  0.37546600  0.92705300  1
  As  As29  1  0.17187400  0.62453400  0.57294700  1
  As  As30  1  0.32812600  0.62453400  0.07294700  1
  As  As31  1  0.82812600  0.37546600  0.42705300  1
  P  P32  1  0.58866900  0.81356100  0.28823600  1
  P  P33  1  0.08866900  0.18643900  0.21176400  1
  P  P34  1  0.41133100  0.18643900  0.71176400  1
  P  P35  1  0.91133100  0.81356100  0.78823600  1
  S  S36  1  0.66486000  0.98915200  0.31785800  1
  S  S37  1  0.16486000  0.01084800  0.18214200  1
  S  S38  1  0.33514000  0.01084800  0.68214200  1
  S  S39  1  0.83514000  0.98915200  0.81785800  1
  S  S40  1  0.46991600  0.81364500  0.38314200  1
  S  S41  1  0.96991600  0.18635500  0.11685800  1
  S  S42  1  0.53008400  0.18635500  0.61685800  1
  S  S43  1  0.03008400  0.81364500  0.88314200  1
  S  S44  1  0.52572600  0.87216700  0.15525100  1
  S  S45  1  0.02572600  0.12783300  0.34474900  1
  S  S46  1  0.47427400  0.12783300  0.84474900  1
  S  S47  1  0.97427400  0.87216700  0.65525100  1
  S  S48  1  0.61766100  0.48594300  0.16371100  1
  S  S49  1  0.11766100  0.51405700  0.33628900  1
  S  S50  1  0.38233900  0.51405700  0.83628900  1
  S  S51  1  0.88233900  0.48594300  0.66371100  1
  S  S52  1  0.69775700  0.22254000  0.05587700  1
  S  S53  1  0.19775700  0.77746000  0.44412300  1
  S  S54  1  0.30224300  0.77746000  0.94412300  1
  S  S55  1  0.80224300  0.22254000  0.55587700  1
  S  S56  1  0.83333600  0.43557200  0.91129500  1
  S  S57  1  0.33333600  0.56442800  0.58870500  1
  S  S58  1  0.16666400  0.56442800  0.08870500  1
  S  S59  1  0.66666400  0.43557200  0.41129500  1
  S  S60  1  0.75394200  0.69998700  0.01607200  1
  S  S61  1  0.25394200  0.30001300  0.48392800  1
  S  S62  1  0.24605800  0.30001300  0.98392800  1
  S  S63  1  0.74605800  0.69998700  0.51607200  1
  Br  Br64  1  0.85288600  0.64503300  0.26192600  1
  Br  Br65  1  0.35288600  0.35496700  0.23807400  1
  Br  Br66  1  0.14711400  0.35496700  0.73807400  1
  Br  Br67  1  0.64711400  0.64503300  0.76192600  1
