# generated using pymatgen
data_CeAs2
_symmetry_space_group_name_H-M   'P 1'
_cell_length_a   3.99449000
_cell_length_b   7.08415200
_cell_length_c   9.84069400
_cell_angle_alpha   90.00000000
_cell_angle_beta   90.00000000
_cell_angle_gamma   90.00000000
_symmetry_Int_Tables_number   1
_chemical_formula_structural   CeAs2
_chemical_formula_sum   'Ce4 As8'
_cell_volume   278.46776985
_cell_formula_units_Z   4
loop_
 _symmetry_equiv_pos_site_id
 _symmetry_equiv_pos_as_xyz
  1  'x, y, z'
loop_
 _atom_site_type_symbol
 _atom_site_label
 _atom_site_symmetry_multiplicity
 _atom_site_fract_x
 _atom_site_fract_y
 _atom_site_fract_z
 _atom_site_occupancy
  Ce  Ce0  1  0.25000000  0.30407500  0.14538300  1
  Ce  Ce1  1  0.25000000  0.80407500  0.35461700  1
  Ce  Ce2  1  0.75000000  0.69592500  0.85461700  1
  Ce  Ce3  1  0.75000000  0.19592500  0.64538300  1
  As  As4  1  0.25000000  0.39356900  0.45216400  1
  As  As5  1  0.25000000  0.89356900  0.04783600  1
  As  As6  1  0.75000000  0.60643100  0.54783600  1
  As  As7  1  0.75000000  0.10643100  0.95216400  1
  As  As8  1  0.75000000  0.61516100  0.17064800  1
  As  As9  1  0.75000000  0.11516100  0.32935200  1
  As  As10  1  0.25000000  0.38483900  0.82935200  1
  As  As11  1  0.25000000  0.88483900  0.67064800  1
