# generated using pymatgen
data_CeAsO4F
_symmetry_space_group_name_H-M   'P 1'
_cell_length_a   6.70809500
_cell_length_b   7.19905200
_cell_length_c   8.82723100
_cell_angle_alpha   90.00000000
_cell_angle_beta   90.00000000
_cell_angle_gamma   90.00000000
_symmetry_Int_Tables_number   1
_chemical_formula_structural   CeAsO4F
_chemical_formula_sum   'Ce4 As4 O16 F4'
_cell_volume   426.28397499
_cell_formula_units_Z   4
loop_
 _symmetry_equiv_pos_site_id
 _symmetry_equiv_pos_as_xyz
  1  'x, y, z'
loop_
 _atom_site_type_symbol
 _atom_site_label
 _atom_site_symmetry_multiplicity
 _atom_site_fract_x
 _atom_site_fract_y
 _atom_site_fract_z
 _atom_site_occupancy
  Ce  Ce0  1  0.85240500  0.25000000  0.45647700  1
  Ce  Ce1  1  0.64759500  0.25000000  0.95647700  1
  Ce  Ce2  1  0.14759500  0.75000000  0.54352300  1
  Ce  Ce3  1  0.35240500  0.75000000  0.04352300  1
  As  As4  1  0.17618700  0.25000000  0.10392700  1
  As  As5  1  0.32381300  0.25000000  0.60392700  1
  As  As6  1  0.82381300  0.75000000  0.89607300  1
  As  As7  1  0.67618700  0.75000000  0.39607300  1
  O  O8  1  0.33800000  0.06698700  0.07047100  1
  O  O9  1  0.16200000  0.43301300  0.57047100  1
  O  O10  1  0.66200000  0.56698700  0.92952900  1
  O  O11  1  0.83800000  0.93301300  0.42952900  1
  O  O12  1  0.66200000  0.93301300  0.92952900  1
  O  O13  1  0.83800000  0.56698700  0.42952900  1
  O  O14  1  0.33800000  0.43301300  0.07047100  1
  O  O15  1  0.16200000  0.06698700  0.57047100  1
  O  O16  1  0.98055200  0.25000000  0.98051400  1
  O  O17  1  0.51944800  0.25000000  0.48051400  1
  O  O18  1  0.01944800  0.75000000  0.01948600  1
  O  O19  1  0.48055200  0.75000000  0.51948600  1
  O  O20  1  0.10063000  0.25000000  0.28783100  1
  O  O21  1  0.39937000  0.25000000  0.78783100  1
  O  O22  1  0.89937000  0.75000000  0.71216900  1
  O  O23  1  0.60063000  0.75000000  0.21216900  1
  F  F24  1  0.79938900  0.25000000  0.71038200  1
  F  F25  1  0.70061100  0.25000000  0.21038200  1
  F  F26  1  0.20061100  0.75000000  0.28961800  1
  F  F27  1  0.29938900  0.75000000  0.78961800  1
