# generated using pymatgen
data_Cr3NiP4
_symmetry_space_group_name_H-M   'P 1'
_cell_length_a   3.07336000
_cell_length_b   5.33635700
_cell_length_c   5.95783648
_cell_angle_alpha   89.90334073
_cell_angle_beta   90.00000000
_cell_angle_gamma   90.00000000
_symmetry_Int_Tables_number   1
_chemical_formula_structural   Cr3NiP4
_chemical_formula_sum   'Cr3 Ni1 P4'
_cell_volume   97.71163306
_cell_formula_units_Z   1
loop_
 _symmetry_equiv_pos_site_id
 _symmetry_equiv_pos_as_xyz
  1  'x, y, z'
loop_
 _atom_site_type_symbol
 _atom_site_label
 _atom_site_symmetry_multiplicity
 _atom_site_fract_x
 _atom_site_fract_y
 _atom_site_fract_z
 _atom_site_occupancy
  Cr  Cr0  1  0.00000000  0.00855500  0.80905200  1
  Cr  Cr1  1  0.50000000  0.49352800  0.29463100  1
  Cr  Cr2  1  0.50000000  0.99327900  0.19654200  1
  Ni  Ni3  1  0.00000000  0.50646600  0.69738700  1
  P  P4  1  0.00000000  0.69327200  0.06620300  1
  P  P5  1  0.00000000  0.18426300  0.43845800  1
  P  P6  1  0.50000000  0.30764500  0.93236100  1
  P  P7  1  0.50000000  0.81299300  0.56536700  1
