# generated using pymatgen
data_Er3Rh2
_symmetry_space_group_name_H-M   'P 1'
_cell_length_a   14.79389434
_cell_length_b   14.79389434
_cell_length_c   14.79389434
_cell_angle_alpha   135.77349722
_cell_angle_beta   135.77349722
_cell_angle_gamma   64.33070708
_symmetry_Int_Tables_number   1
_chemical_formula_structural   Er3Rh2
_chemical_formula_sum   'Er42 Rh28'
_cell_volume   1553.56873467
_cell_formula_units_Z   14
loop_
 _symmetry_equiv_pos_site_id
 _symmetry_equiv_pos_as_xyz
  1  'x, y, z'
loop_
 _atom_site_type_symbol
 _atom_site_label
 _atom_site_symmetry_multiplicity
 _atom_site_fract_x
 _atom_site_fract_y
 _atom_site_fract_z
 _atom_site_occupancy
  Er  Er0  1  0.63212600  0.50421200  0.27913100  1
  Er  Er1  1  0.22508100  0.35299500  0.72086900  1
  Er  Er2  1  0.13212600  0.85299500  0.12791300  1
  Er  Er3  1  0.72508100  0.00421200  0.87208700  1
  Er  Er4  1  0.35299500  0.63212600  0.12791300  1
  Er  Er5  1  0.50421200  0.22508100  0.87208700  1
  Er  Er6  1  0.00421200  0.13212600  0.27913100  1
  Er  Er7  1  0.85299500  0.72508100  0.72086900  1
  Er  Er8  1  0.36787400  0.49578800  0.72086900  1
  Er  Er9  1  0.77491900  0.64700500  0.27913100  1
  Er  Er10  1  0.86787400  0.14700500  0.87208700  1
  Er  Er11  1  0.27491900  0.99578800  0.12791300  1
  Er  Er12  1  0.64700500  0.36787400  0.87208700  1
  Er  Er13  1  0.49578800  0.77491900  0.12791300  1
  Er  Er14  1  0.99578800  0.86787400  0.72086900  1
  Er  Er15  1  0.14700500  0.27491900  0.27913100  1
  Er  Er16  1  0.38627300  0.51694600  0.29015200  1
  Er  Er17  1  0.22679400  0.09612100  0.70984800  1
  Er  Er18  1  0.88627300  0.59612100  0.86932700  1
  Er  Er19  1  0.72679400  0.01694600  0.13067300  1
  Er  Er20  1  0.09612100  0.38627300  0.86932700  1
  Er  Er21  1  0.51694600  0.22679400  0.13067300  1
  Er  Er22  1  0.01694600  0.88627300  0.29015200  1
  Er  Er23  1  0.59612100  0.72679400  0.70984800  1
  Er  Er24  1  0.61372700  0.48305400  0.70984800  1
  Er  Er25  1  0.77320600  0.90387900  0.29015200  1
  Er  Er26  1  0.11372700  0.40387900  0.13067300  1
  Er  Er27  1  0.27320600  0.98305400  0.86932700  1
  Er  Er28  1  0.90387900  0.61372700  0.13067300  1
  Er  Er29  1  0.48305400  0.77320600  0.86932700  1
  Er  Er30  1  0.98305400  0.11372700  0.70984800  1
  Er  Er31  1  0.40387900  0.27320600  0.29015200  1
  Er  Er32  1  0.84962200  0.34962200  0.19924400  1
  Er  Er33  1  0.15037800  0.65037800  0.80075600  1
  Er  Er34  1  0.34962200  0.15037800  0.50000000  1
  Er  Er35  1  0.65037800  0.84962200  0.50000000  1
  Er  Er36  1  0.38807100  0.88807100  0.50000000  1
  Er  Er37  1  0.88807100  0.38807100  0.50000000  1
  Er  Er38  1  0.61192900  0.11192900  0.50000000  1
  Er  Er39  1  0.11192900  0.61192900  0.50000000  1
  Er  Er40  1  0.25000000  0.75000000  0.50000000  1
  Er  Er41  1  0.75000000  0.25000000  0.50000000  1
  Rh  Rh42  1  0.71472800  0.21472800  0.14207900  1
  Rh  Rh43  1  0.07264900  0.57264900  0.85792100  1
  Rh  Rh44  1  0.21472800  0.07264900  0.50000000  1
  Rh  Rh45  1  0.57264900  0.71472800  0.50000000  1
  Rh  Rh46  1  0.28527200  0.78527200  0.85792100  1
  Rh  Rh47  1  0.92735100  0.42735100  0.14207900  1
  Rh  Rh48  1  0.78527200  0.92735100  0.50000000  1
  Rh  Rh49  1  0.42735100  0.28527200  0.50000000  1
  Rh  Rh50  1  0.46586500  0.96586500  0.80841700  1
  Rh  Rh51  1  0.15744800  0.65744800  0.19158300  1
  Rh  Rh52  1  0.96586500  0.15744800  0.50000000  1
  Rh  Rh53  1  0.65744800  0.46586500  0.50000000  1
  Rh  Rh54  1  0.53413500  0.03413500  0.19158300  1
  Rh  Rh55  1  0.84255200  0.34255200  0.80841700  1
  Rh  Rh56  1  0.03413500  0.84255200  0.50000000  1
  Rh  Rh57  1  0.34255200  0.53413500  0.50000000  1
  Rh  Rh58  1  0.59674600  0.09674600  0.69349300  1
  Rh  Rh59  1  0.40325400  0.90325400  0.30650700  1
  Rh  Rh60  1  0.09674600  0.40325400  0.50000000  1
  Rh  Rh61  1  0.90325400  0.59674600  0.50000000  1
  Rh  Rh62  1  0.36645600  0.36645600  0.00000000  1
  Rh  Rh63  1  0.86645600  0.86645600  0.00000000  1
  Rh  Rh64  1  0.63354400  0.63354400  0.00000000  1
  Rh  Rh65  1  0.13354400  0.13354400  0.00000000  1
  Rh  Rh66  1  0.50000000  0.50000000  0.00000000  1
  Rh  Rh67  1  0.00000000  0.00000000  0.00000000  1
  Rh  Rh68  1  0.25000000  0.25000000  0.00000000  1
  Rh  Rh69  1  0.75000000  0.75000000  0.00000000  1
