# generated using pymatgen
data_Ho3Ga5
_symmetry_space_group_name_H-M   'P 1'
_cell_length_a   6.08391900
_cell_length_b   9.65440200
_cell_length_c   11.38231100
_cell_angle_alpha   90.00000000
_cell_angle_beta   90.00000000
_cell_angle_gamma   90.00000000
_symmetry_Int_Tables_number   1
_chemical_formula_structural   Ho3Ga5
_chemical_formula_sum   'Ho12 Ga20'
_cell_volume   668.55824557
_cell_formula_units_Z   4
loop_
 _symmetry_equiv_pos_site_id
 _symmetry_equiv_pos_as_xyz
  1  'x, y, z'
loop_
 _atom_site_type_symbol
 _atom_site_label
 _atom_site_symmetry_multiplicity
 _atom_site_fract_x
 _atom_site_fract_y
 _atom_site_fract_z
 _atom_site_occupancy
  Ho  Ho0  1  0.84851200  0.75000000  0.07368100  1
  Ho  Ho1  1  0.65148800  0.75000000  0.57368100  1
  Ho  Ho2  1  0.15148800  0.25000000  0.92631900  1
  Ho  Ho3  1  0.34851200  0.25000000  0.42631900  1
  Ho  Ho4  1  0.88958600  0.50929300  0.35207200  1
  Ho  Ho5  1  0.61041400  0.99070700  0.85207200  1
  Ho  Ho6  1  0.11041400  0.00929300  0.64792800  1
  Ho  Ho7  1  0.38958600  0.49070700  0.14792800  1
  Ho  Ho8  1  0.11041400  0.49070700  0.64792800  1
  Ho  Ho9  1  0.38958600  0.00929300  0.14792800  1
  Ho  Ho10  1  0.88958600  0.99070700  0.35207200  1
  Ho  Ho11  1  0.61041400  0.50929300  0.85207200  1
  Ga  Ga12  1  0.87496500  0.05286000  0.09096100  1
  Ga  Ga13  1  0.62503500  0.44714000  0.59096100  1
  Ga  Ga14  1  0.12503500  0.55286000  0.90903900  1
  Ga  Ga15  1  0.37496500  0.94714000  0.40903900  1
  Ga  Ga16  1  0.12503500  0.94714000  0.90903900  1
  Ga  Ga17  1  0.37496500  0.55286000  0.40903900  1
  Ga  Ga18  1  0.87496500  0.44714000  0.09096100  1
  Ga  Ga19  1  0.62503500  0.05286000  0.59096100  1
  Ga  Ga20  1  0.17554400  0.75000000  0.25186700  1
  Ga  Ga21  1  0.32445600  0.75000000  0.75186700  1
  Ga  Ga22  1  0.82445600  0.25000000  0.74813300  1
  Ga  Ga23  1  0.67554400  0.25000000  0.24813300  1
  Ga  Ga24  1  0.37146300  0.75000000  0.00508500  1
  Ga  Ga25  1  0.12853700  0.75000000  0.50508500  1
  Ga  Ga26  1  0.62853700  0.25000000  0.99491500  1
  Ga  Ga27  1  0.87146300  0.25000000  0.49491500  1
  Ga  Ga28  1  0.60316500  0.75000000  0.29861900  1
  Ga  Ga29  1  0.89683500  0.75000000  0.79861900  1
  Ga  Ga30  1  0.39683500  0.25000000  0.70138100  1
  Ga  Ga31  1  0.10316500  0.25000000  0.20138100  1
