# generated using pymatgen
data_Er3(Al3Ru)4
_symmetry_space_group_name_H-M   'P 1'
_cell_length_a   8.79773165
_cell_length_b   8.79773165
_cell_length_c   9.54273500
_cell_angle_alpha   90.00000000
_cell_angle_beta   90.00000000
_cell_angle_gamma   119.99999734
_symmetry_Int_Tables_number   1
_chemical_formula_structural   Er3(Al3Ru)4
_chemical_formula_sum   'Er6 Al24 Ru8'
_cell_volume   639.65371797
_cell_formula_units_Z   2
loop_
 _symmetry_equiv_pos_site_id
 _symmetry_equiv_pos_as_xyz
  1  'x, y, z'
loop_
 _atom_site_type_symbol
 _atom_site_label
 _atom_site_symmetry_multiplicity
 _atom_site_fract_x
 _atom_site_fract_y
 _atom_site_fract_z
 _atom_site_occupancy
  Er  Er0  1  0.19395800  0.38791600  0.25000000  1
  Er  Er1  1  0.80604200  0.61208400  0.75000000  1
  Er  Er2  1  0.61208400  0.80604200  0.25000000  1
  Er  Er3  1  0.38791600  0.19395800  0.75000000  1
  Er  Er4  1  0.19395800  0.80604200  0.25000000  1
  Er  Er5  1  0.80604200  0.19395800  0.75000000  1
  Al  Al6  1  0.33333300  0.66666700  0.01546700  1
  Al  Al7  1  0.66666700  0.33333300  0.98453300  1
  Al  Al8  1  0.66666700  0.33333300  0.51546700  1
  Al  Al9  1  0.33333300  0.66666700  0.48453300  1
  Al  Al10  1  0.16192400  0.32384800  0.57760600  1
  Al  Al11  1  0.83807600  0.67615200  0.42239400  1
  Al  Al12  1  0.67615200  0.83807600  0.57760600  1
  Al  Al13  1  0.83807600  0.67615200  0.07760600  1
  Al  Al14  1  0.32384800  0.16192400  0.42239400  1
  Al  Al15  1  0.16192400  0.32384800  0.92239400  1
  Al  Al16  1  0.16192400  0.83807600  0.57760600  1
  Al  Al17  1  0.32384800  0.16192400  0.07760600  1
  Al  Al18  1  0.83807600  0.16192400  0.42239400  1
  Al  Al19  1  0.67615200  0.83807600  0.92239400  1
  Al  Al20  1  0.83807600  0.16192400  0.07760600  1
  Al  Al21  1  0.16192400  0.83807600  0.92239400  1
  Al  Al22  1  0.56062800  0.12125600  0.25000000  1
  Al  Al23  1  0.43937200  0.87874400  0.75000000  1
  Al  Al24  1  0.87874400  0.43937200  0.25000000  1
  Al  Al25  1  0.12125600  0.56062800  0.75000000  1
  Al  Al26  1  0.56062800  0.43937200  0.25000000  1
  Al  Al27  1  0.43937200  0.56062800  0.75000000  1
  Al  Al28  1  0.00000000  0.00000000  0.25000000  1
  Al  Al29  1  0.00000000  0.00000000  0.75000000  1
  Ru  Ru30  1  0.50000000  0.00000000  0.00000000  1
  Ru  Ru31  1  0.00000000  0.50000000  0.00000000  1
  Ru  Ru32  1  0.50000000  0.00000000  0.50000000  1
  Ru  Ru33  1  0.50000000  0.50000000  0.00000000  1
  Ru  Ru34  1  0.00000000  0.50000000  0.50000000  1
  Ru  Ru35  1  0.50000000  0.50000000  0.50000000  1
  Ru  Ru36  1  0.00000000  0.00000000  0.00000000  1
  Ru  Ru37  1  0.00000000  0.00000000  0.50000000  1
