# generated using pymatgen
data_CsZr6MnCl14
_symmetry_space_group_name_H-M   'P 1'
_cell_length_a   9.88690722
_cell_length_b   9.88690722
_cell_length_c   12.09785400
_cell_angle_alpha   90.00000000
_cell_angle_beta   90.00000000
_cell_angle_gamma   95.92073447
_symmetry_Int_Tables_number   1
_chemical_formula_structural   CsZr6MnCl14
_chemical_formula_sum   'Cs2 Zr12 Mn2 Cl28'
_cell_volume   1176.26813955
_cell_formula_units_Z   2
loop_
 _symmetry_equiv_pos_site_id
 _symmetry_equiv_pos_as_xyz
  1  'x, y, z'
loop_
 _atom_site_type_symbol
 _atom_site_label
 _atom_site_symmetry_multiplicity
 _atom_site_fract_x
 _atom_site_fract_y
 _atom_site_fract_z
 _atom_site_occupancy
  Cs  Cs0  1  0.50000000  0.50000000  0.00000000  1
  Cs  Cs1  1  0.00000000  0.00000000  0.50000000  1
  Zr  Zr2  1  0.34897700  0.34897700  0.39004400  1
  Zr  Zr3  1  0.65102300  0.65102300  0.60995600  1
  Zr  Zr4  1  0.15102300  0.15102300  0.89004400  1
  Zr  Zr5  1  0.84897700  0.84897700  0.10995600  1
  Zr  Zr6  1  0.95202500  0.19120400  0.11827100  1
  Zr  Zr7  1  0.04797500  0.80879600  0.88172900  1
  Zr  Zr8  1  0.54797500  0.30879600  0.61827100  1
  Zr  Zr9  1  0.69120400  0.45202500  0.38172900  1
  Zr  Zr10  1  0.45202500  0.69120400  0.38172900  1
  Zr  Zr11  1  0.30879600  0.54797500  0.61827100  1
  Zr  Zr12  1  0.80879600  0.04797500  0.88172900  1
  Zr  Zr13  1  0.19120400  0.95202500  0.11827100  1
  Mn  Mn14  1  0.00000000  0.00000000  0.00000000  1
  Mn  Mn15  1  0.50000000  0.50000000  0.50000000  1
  Cl  Cl16  1  0.11622700  0.36253400  0.00668800  1
  Cl  Cl17  1  0.88377300  0.63746600  0.99331200  1
  Cl  Cl18  1  0.38377300  0.13746600  0.50668800  1
  Cl  Cl19  1  0.86253400  0.61622700  0.49331200  1
  Cl  Cl20  1  0.61622700  0.86253400  0.49331200  1
  Cl  Cl21  1  0.13746600  0.38377300  0.50668800  1
  Cl  Cl22  1  0.63746600  0.88377300  0.99331200  1
  Cl  Cl23  1  0.36253400  0.11622700  0.00668800  1
  Cl  Cl24  1  0.75104400  0.24895600  0.00000000  1
  Cl  Cl25  1  0.24895600  0.75104400  0.00000000  1
  Cl  Cl26  1  0.74895600  0.25104400  0.50000000  1
  Cl  Cl27  1  0.25104400  0.74895600  0.50000000  1
  Cl  Cl28  1  0.89919500  0.39919500  0.25000000  1
  Cl  Cl29  1  0.10080500  0.60080500  0.75000000  1
  Cl  Cl30  1  0.60080500  0.10080500  0.75000000  1
  Cl  Cl31  1  0.39919500  0.89919500  0.25000000  1
  Cl  Cl32  1  0.15631000  0.15631000  0.25651400  1
  Cl  Cl33  1  0.84369000  0.84369000  0.74348600  1
  Cl  Cl34  1  0.34369000  0.34369000  0.75651400  1
  Cl  Cl35  1  0.65631000  0.65631000  0.24348600  1
  Cl  Cl36  1  0.29027200  0.53550800  0.25480200  1
  Cl  Cl37  1  0.70972800  0.46449200  0.74519800  1
  Cl  Cl38  1  0.20972800  0.96449200  0.75480200  1
  Cl  Cl39  1  0.03550800  0.79027200  0.24519800  1
  Cl  Cl40  1  0.79027200  0.03550800  0.24519800  1
  Cl  Cl41  1  0.96449200  0.20972800  0.75480200  1
  Cl  Cl42  1  0.46449200  0.70972800  0.74519800  1
  Cl  Cl43  1  0.53550800  0.29027200  0.25480200  1
