# generated using pymatgen
data_Tl2Ge2S5
_symmetry_space_group_name_H-M   'P 1'
_cell_length_a   10.93924581
_cell_length_b   10.93924581
_cell_length_c   9.04367909
_cell_angle_alpha   80.48721858
_cell_angle_beta   80.48721858
_cell_angle_gamma   90.12215108
_symmetry_Int_Tables_number   1
_chemical_formula_structural   Tl2Ge2S5
_chemical_formula_sum   'Tl8 Ge8 S20'
_cell_volume   1052.18900493
_cell_formula_units_Z   4
loop_
 _symmetry_equiv_pos_site_id
 _symmetry_equiv_pos_as_xyz
  1  'x, y, z'
loop_
 _atom_site_type_symbol
 _atom_site_label
 _atom_site_symmetry_multiplicity
 _atom_site_fract_x
 _atom_site_fract_y
 _atom_site_fract_z
 _atom_site_occupancy
  Tl  Tl0  1  0.20566400  0.06275000  0.89973700  1
  Tl  Tl1  1  0.93725000  0.79433600  0.60026300  1
  Tl  Tl2  1  0.79433600  0.93725000  0.10026300  1
  Tl  Tl3  1  0.06275000  0.20566400  0.39973700  1
  Tl  Tl4  1  0.54795900  0.79446500  0.62250800  1
  Tl  Tl5  1  0.20553500  0.45204100  0.87749200  1
  Tl  Tl6  1  0.45204100  0.20553500  0.37749200  1
  Tl  Tl7  1  0.79446500  0.54795900  0.12250800  1
  Ge  Ge8  1  0.73046800  0.13344400  0.60935500  1
  Ge  Ge9  1  0.86655600  0.26953200  0.89064500  1
  Ge  Ge10  1  0.26953200  0.86655600  0.39064500  1
  Ge  Ge11  1  0.13344400  0.73046800  0.10935500  1
  Ge  Ge12  1  0.46945200  0.73387900  0.10177800  1
  Ge  Ge13  1  0.26612100  0.53054800  0.39822200  1
  Ge  Ge14  1  0.53054800  0.26612100  0.89822200  1
  Ge  Ge15  1  0.73387900  0.46945200  0.60177800  1
  S  S16  1  0.45467000  0.54533000  0.25000000  1
  S  S17  1  0.54533000  0.45467000  0.75000000  1
  S  S18  1  0.11374700  0.88625300  0.25000000  1
  S  S19  1  0.88625300  0.11374700  0.75000000  1
  S  S20  1  0.24556500  0.00934900  0.53073300  1
  S  S21  1  0.99065100  0.75443500  0.96926700  1
  S  S22  1  0.75443500  0.99065100  0.46926700  1
  S  S23  1  0.00934900  0.24556500  0.03073300  1
  S  S24  1  0.64977300  0.75477200  0.95646500  1
  S  S25  1  0.24522800  0.35022700  0.54353500  1
  S  S26  1  0.35022700  0.24522800  0.04353500  1
  S  S27  1  0.75477200  0.64977300  0.45646500  1
  S  S28  1  0.67991300  0.24360300  0.04711200  1
  S  S29  1  0.75639700  0.32008700  0.45288800  1
  S  S30  1  0.32008700  0.75639700  0.95288800  1
  S  S31  1  0.24360300  0.67991300  0.54711200  1
  S  S32  1  0.88745200  0.45842800  0.74441700  1
  S  S33  1  0.54157200  0.11254800  0.75558300  1
  S  S34  1  0.11254800  0.54157200  0.25558300  1
  S  S35  1  0.45842800  0.88745200  0.24441700  1
