# generated using pymatgen
data_Ca2VN3
_symmetry_space_group_name_H-M   'P 1'
_cell_length_a   5.94241107
_cell_length_b   5.94241107
_cell_length_c   11.64721720
_cell_angle_alpha   89.01747794
_cell_angle_beta   89.01747794
_cell_angle_gamma   123.35619316
_symmetry_Int_Tables_number   1
_chemical_formula_structural   Ca2VN3
_chemical_formula_sum   'Ca8 V4 N12'
_cell_volume   343.31264800
_cell_formula_units_Z   4
loop_
 _symmetry_equiv_pos_site_id
 _symmetry_equiv_pos_as_xyz
  1  'x, y, z'
loop_
 _atom_site_type_symbol
 _atom_site_label
 _atom_site_symmetry_multiplicity
 _atom_site_fract_x
 _atom_site_fract_y
 _atom_site_fract_z
 _atom_site_occupancy
  Ca  Ca0  1  0.61404100  0.83908600  0.07723600  1
  Ca  Ca1  1  0.45973900  0.05392500  0.35302600  1
  Ca  Ca2  1  0.05392500  0.45973900  0.85302600  1
  Ca  Ca3  1  0.54026100  0.94607500  0.64697400  1
  Ca  Ca4  1  0.38595900  0.16091400  0.92276400  1
  Ca  Ca5  1  0.83908600  0.61404100  0.57723600  1
  Ca  Ca6  1  0.16091400  0.38595900  0.42276400  1
  Ca  Ca7  1  0.94607500  0.54026100  0.14697400  1
  V  V8  1  0.76668400  0.76651600  0.83766700  1
  V  V9  1  0.23348400  0.23331600  0.66233300  1
  V  V10  1  0.23331600  0.23348400  0.16233300  1
  V  V11  1  0.76651600  0.76668400  0.33766700  1
  N  N12  1  0.08830600  0.91169400  0.75000000  1
  N  N13  1  0.91169400  0.08830600  0.25000000  1
  N  N14  1  0.50568100  0.49431900  0.75000000  1
  N  N15  1  0.49431900  0.50568100  0.25000000  1
  N  N16  1  0.33930700  0.01270700  0.12837100  1
  N  N17  1  0.98729300  0.66069300  0.37162900  1
  N  N18  1  0.66069300  0.98729300  0.87162900  1
  N  N19  1  0.01270700  0.33930700  0.62837100  1
  N  N20  1  0.80758200  0.62212500  0.96235200  1
  N  N21  1  0.62212500  0.80758200  0.46235200  1
  N  N22  1  0.19241800  0.37787500  0.03764800  1
  N  N23  1  0.37787500  0.19241800  0.53764800  1
