# generated using pymatgen
data_Ti4Si7Ni4
_symmetry_space_group_name_H-M   'P 1'
_cell_length_a   9.22902496
_cell_length_b   9.22902496
_cell_length_c   9.22902496
_cell_angle_alpha   94.12570182
_cell_angle_beta   94.12570182
_cell_angle_gamma   148.88260872
_symmetry_Int_Tables_number   1
_chemical_formula_structural   Ti4Si7Ni4
_chemical_formula_sum   'Ti8 Si14 Ni8'
_cell_volume   391.35523673
_cell_formula_units_Z   2
loop_
 _symmetry_equiv_pos_site_id
 _symmetry_equiv_pos_as_xyz
  1  'x, y, z'
loop_
 _atom_site_type_symbol
 _atom_site_label
 _atom_site_symmetry_multiplicity
 _atom_site_fract_x
 _atom_site_fract_y
 _atom_site_fract_z
 _atom_site_occupancy
  Ti  Ti0  1  0.31005300  0.50000000  0.81005300  1
  Ti  Ti1  1  0.13442000  0.86558000  0.00000000  1
  Ti  Ti2  1  0.50000000  0.31005300  0.81005300  1
  Ti  Ti3  1  0.68994700  0.50000000  0.18994700  1
  Ti  Ti4  1  0.86558000  0.13442000  0.00000000  1
  Ti  Ti5  1  0.13442000  0.13442000  0.26883900  1
  Ti  Ti6  1  0.86558000  0.86558000  0.73116100  1
  Ti  Ti7  1  0.50000000  0.68994700  0.18994700  1
  Si  Si8  1  0.24895700  0.24895700  0.00000000  1
  Si  Si9  1  0.28797900  0.00000000  0.28797900  1
  Si  Si10  1  0.70427400  0.29572600  0.00000000  1
  Si  Si11  1  0.29572600  0.29572600  0.59145300  1
  Si  Si12  1  0.70427400  0.70427400  0.40854700  1
  Si  Si13  1  0.29572600  0.70427400  0.00000000  1
  Si  Si14  1  0.00000000  0.71202100  0.71202100  1
  Si  Si15  1  0.00000000  0.28797900  0.28797900  1
  Si  Si16  1  0.75104300  0.75104300  0.00000000  1
  Si  Si17  1  0.09329000  0.50000000  0.59329000  1
  Si  Si18  1  0.50000000  0.90671000  0.40671000  1
  Si  Si19  1  0.50000000  0.09329000  0.59329000  1
  Si  Si20  1  0.90671000  0.50000000  0.40671000  1
  Si  Si21  1  0.71202100  0.00000000  0.71202100  1
  Ni  Ni22  1  0.60124500  0.10124500  0.20248900  1
  Ni  Ni23  1  0.89875500  0.39875500  0.79751100  1
  Ni  Ni24  1  0.10124500  0.89875500  0.50000000  1
  Ni  Ni25  1  0.60124500  0.39875500  0.50000000  1
  Ni  Ni26  1  0.39875500  0.89875500  0.79751100  1
  Ni  Ni27  1  0.10124500  0.60124500  0.20248900  1
  Ni  Ni28  1  0.89875500  0.10124500  0.50000000  1
  Ni  Ni29  1  0.39875500  0.60124500  0.50000000  1
