# generated using pymatgen
data_TlSO3F
_symmetry_space_group_name_H-M   'P 1'
_cell_length_a   5.43395700
_cell_length_b   5.70997500
_cell_length_c   14.02941700
_cell_angle_alpha   90.00000000
_cell_angle_beta   90.00000000
_cell_angle_gamma   90.00000000
_symmetry_Int_Tables_number   1
_chemical_formula_structural   TlSO3F
_chemical_formula_sum   'Tl4 S4 O12 F4'
_cell_volume   435.30136427
_cell_formula_units_Z   4
loop_
 _symmetry_equiv_pos_site_id
 _symmetry_equiv_pos_as_xyz
  1  'x, y, z'
loop_
 _atom_site_type_symbol
 _atom_site_label
 _atom_site_symmetry_multiplicity
 _atom_site_fract_x
 _atom_site_fract_y
 _atom_site_fract_z
 _atom_site_occupancy
  Tl  Tl0  1  0.95743600  0.25000000  0.86679200  1
  Tl  Tl1  1  0.45743600  0.25000000  0.63320800  1
  Tl  Tl2  1  0.04256400  0.75000000  0.13320800  1
  Tl  Tl3  1  0.54256400  0.75000000  0.36679200  1
  S  S4  1  0.42073500  0.75000000  0.87211100  1
  S  S5  1  0.92073500  0.75000000  0.62788900  1
  S  S6  1  0.57926500  0.25000000  0.12788900  1
  S  S7  1  0.07926500  0.25000000  0.37211100  1
  O  O8  1  0.17703900  0.75000000  0.91584200  1
  O  O9  1  0.67703900  0.75000000  0.58415800  1
  O  O10  1  0.82296100  0.25000000  0.08415800  1
  O  O11  1  0.32296100  0.25000000  0.41584200  1
  O  O12  1  0.48808800  0.96622800  0.82384500  1
  O  O13  1  0.98808800  0.53377200  0.67615500  1
  O  O14  1  0.51191200  0.46622800  0.17615500  1
  O  O15  1  0.01191200  0.03377200  0.32384500  1
  O  O16  1  0.51191200  0.03377200  0.17615500  1
  O  O17  1  0.01191200  0.46622800  0.32384500  1
  O  O18  1  0.48808800  0.53377200  0.82384500  1
  O  O19  1  0.98808800  0.96622800  0.67615500  1
  F  F20  1  0.60438000  0.75000000  0.96521600  1
  F  F21  1  0.10438000  0.75000000  0.53478400  1
  F  F22  1  0.39562000  0.25000000  0.03478400  1
  F  F23  1  0.89562000  0.25000000  0.46521600  1
