# generated using pymatgen
data_Ba3CdIr2O9
_symmetry_space_group_name_H-M   'P 1'
_cell_length_a   5.95612030
_cell_length_b   5.95612030
_cell_length_c   14.78467784
_cell_angle_alpha   89.00736387
_cell_angle_beta   89.00736387
_cell_angle_gamma   119.65767584
_symmetry_Int_Tables_number   1
_chemical_formula_structural   Ba3CdIr2O9
_chemical_formula_sum   'Ba6 Cd2 Ir4 O18'
_cell_volume   455.51118161
_cell_formula_units_Z   2
loop_
 _symmetry_equiv_pos_site_id
 _symmetry_equiv_pos_as_xyz
  1  'x, y, z'
loop_
 _atom_site_type_symbol
 _atom_site_label
 _atom_site_symmetry_multiplicity
 _atom_site_fract_x
 _atom_site_fract_y
 _atom_site_fract_z
 _atom_site_occupancy
  Ba  Ba0  1  0.32862000  0.65935200  0.58606000  1
  Ba  Ba1  1  0.67138000  0.34064800  0.41394000  1
  Ba  Ba2  1  0.34064800  0.67138000  0.91394000  1
  Ba  Ba3  1  0.65935200  0.32862000  0.08606000  1
  Ba  Ba4  1  0.99758400  0.00241600  0.75000000  1
  Ba  Ba5  1  0.00241600  0.99758400  0.25000000  1
  Cd  Cd6  1  0.00000000  0.00000000  0.50000000  1
  Cd  Cd7  1  0.00000000  0.00000000  0.00000000  1
  Ir  Ir8  1  0.65175900  0.31727500  0.66380000  1
  Ir  Ir9  1  0.34824100  0.68272500  0.33620000  1
  Ir  Ir10  1  0.68272500  0.34824100  0.83620000  1
  Ir  Ir11  1  0.31727500  0.65175900  0.16380000  1
  O  O12  1  0.39586400  0.20785800  0.92547800  1
  O  O13  1  0.60413600  0.79214200  0.07452200  1
  O  O14  1  0.79214200  0.60413600  0.57452200  1
  O  O15  1  0.20785800  0.39586400  0.42547800  1
  O  O16  1  0.51207000  0.48793000  0.75000000  1
  O  O17  1  0.48793000  0.51207000  0.25000000  1
  O  O18  1  0.78716900  0.13588100  0.59119200  1
  O  O19  1  0.21283100  0.86411900  0.40880800  1
  O  O20  1  0.86411900  0.21283100  0.90880800  1
  O  O21  1  0.13588100  0.78716900  0.09119200  1
  O  O22  1  0.32473400  0.14529600  0.59989200  1
  O  O23  1  0.67526600  0.85470400  0.40010800  1
  O  O24  1  0.85470400  0.67526600  0.90010800  1
  O  O25  1  0.14529600  0.32473400  0.09989200  1
  O  O26  1  0.51201300  0.02664500  0.76095300  1
  O  O27  1  0.48798700  0.97335500  0.23904700  1
  O  O28  1  0.97335500  0.48798700  0.73904700  1
  O  O29  1  0.02664500  0.51201300  0.26095300  1
