# generated using pymatgen
data_GdH(SeO4)2
_symmetry_space_group_name_H-M   'P 1'
_cell_length_a   9.40409300
_cell_length_b   10.23679300
_cell_length_c   13.76011200
_cell_angle_alpha   90.00000000
_cell_angle_beta   90.00000000
_cell_angle_gamma   90.00000000
_symmetry_Int_Tables_number   1
_chemical_formula_structural   GdH(SeO4)2
_chemical_formula_sum   'Gd8 H8 Se16 O64'
_cell_volume   1324.65506869
_cell_formula_units_Z   8
loop_
 _symmetry_equiv_pos_site_id
 _symmetry_equiv_pos_as_xyz
  1  'x, y, z'
loop_
 _atom_site_type_symbol
 _atom_site_label
 _atom_site_symmetry_multiplicity
 _atom_site_fract_x
 _atom_site_fract_y
 _atom_site_fract_z
 _atom_site_occupancy
  Gd  Gd0  1  0.71970200  0.44911100  0.10600900  1
  Gd  Gd1  1  0.21970200  0.55088900  0.39399100  1
  Gd  Gd2  1  0.28029800  0.05088900  0.60600900  1
  Gd  Gd3  1  0.78029800  0.94911100  0.89399100  1
  Gd  Gd4  1  0.28029800  0.55088900  0.89399100  1
  Gd  Gd5  1  0.78029800  0.44911100  0.60600900  1
  Gd  Gd6  1  0.71970200  0.94911100  0.39399100  1
  Gd  Gd7  1  0.21970200  0.05088900  0.10600900  1
  H  H8  1  0.16116600  0.74522400  0.18551400  1
  H  H9  1  0.66116600  0.25477600  0.31448600  1
  H  H10  1  0.83883400  0.75477600  0.68551400  1
  H  H11  1  0.33883400  0.24522400  0.81448600  1
  H  H12  1  0.83883400  0.25477600  0.81448600  1
  H  H13  1  0.33883400  0.74522400  0.68551400  1
  H  H14  1  0.16116600  0.24522400  0.31448600  1
  H  H15  1  0.66116600  0.75477600  0.18551400  1
  Se  Se16  1  0.81383800  0.59875200  0.34959200  1
  Se  Se17  1  0.31383800  0.40124800  0.15040800  1
  Se  Se18  1  0.18616200  0.90124800  0.84959200  1
  Se  Se19  1  0.68616200  0.09875200  0.65040800  1
  Se  Se20  1  0.18616200  0.40124800  0.65040800  1
  Se  Se21  1  0.68616200  0.59875200  0.84959200  1
  Se  Se22  1  0.81383800  0.09875200  0.15040800  1
  Se  Se23  1  0.31383800  0.90124800  0.34959200  1
  Se  Se24  1  0.99017800  0.71345400  0.06202600  1
  Se  Se25  1  0.49017800  0.28654600  0.43797400  1
  Se  Se26  1  0.00982200  0.78654600  0.56202600  1
  Se  Se27  1  0.50982200  0.21345400  0.93797400  1
  Se  Se28  1  0.00982200  0.28654600  0.93797400  1
  Se  Se29  1  0.50982200  0.71345400  0.56202600  1
  Se  Se30  1  0.99017800  0.21345400  0.43797400  1
  Se  Se31  1  0.49017800  0.78654600  0.06202600  1
  O  O32  1  0.98959100  0.58736400  0.34272300  1
  O  O33  1  0.48959100  0.41263600  0.15727700  1
  O  O34  1  0.01040900  0.91263600  0.84272300  1
  O  O35  1  0.51040900  0.08736400  0.65727700  1
  O  O36  1  0.01040900  0.41263600  0.65727700  1
  O  O37  1  0.51040900  0.58736400  0.84272300  1
  O  O38  1  0.98959100  0.08736400  0.15727700  1
  O  O39  1  0.48959100  0.91263600  0.34272300  1
  O  O40  1  0.73730300  0.48884600  0.27699600  1
  O  O41  1  0.23730300  0.51115400  0.22300400  1
  O  O42  1  0.26269700  0.01115400  0.77699600  1
  O  O43  1  0.76269700  0.98884600  0.72300400  1
  O  O44  1  0.26269700  0.51115400  0.72300400  1
  O  O45  1  0.76269700  0.48884600  0.77699600  1
  O  O46  1  0.73730300  0.98884600  0.22300400  1
  O  O47  1  0.23730300  0.01115400  0.27699600  1
  O  O48  1  0.76148300  0.57882300  0.46441600  1
  O  O49  1  0.26148300  0.42117700  0.03558400  1
  O  O50  1  0.23851700  0.92117700  0.96441600  1
  O  O51  1  0.73851700  0.07882300  0.53558400  1
  O  O52  1  0.23851700  0.42117700  0.53558400  1
  O  O53  1  0.73851700  0.57882300  0.96441600  1
  O  O54  1  0.76148300  0.07882300  0.03558400  1
  O  O55  1  0.26148300  0.92117700  0.46441600  1
  O  O56  1  0.75770700  0.74745300  0.31364000  1
  O  O57  1  0.25770700  0.25254700  0.18636000  1
  O  O58  1  0.24229300  0.75254700  0.81364000  1
  O  O59  1  0.74229300  0.24745300  0.68636000  1
  O  O60  1  0.24229300  0.25254700  0.68636000  1
  O  O61  1  0.74229300  0.74745300  0.81364000  1
  O  O62  1  0.75770700  0.24745300  0.18636000  1
  O  O63  1  0.25770700  0.75254700  0.31364000  1
  O  O64  1  0.88790800  0.83608000  0.02890800  1
  O  O65  1  0.38790800  0.16392000  0.47109200  1
  O  O66  1  0.11209200  0.66392000  0.52890800  1
  O  O67  1  0.61209200  0.33608000  0.97109200  1
  O  O68  1  0.11209200  0.16392000  0.97109200  1
  O  O69  1  0.61209200  0.83608000  0.52890800  1
  O  O70  1  0.88790800  0.33608000  0.47109200  1
  O  O71  1  0.38790800  0.66392000  0.02890800  1
  O  O72  1  0.91998100  0.35106000  0.02855900  1
  O  O73  1  0.41998100  0.64894000  0.47144100  1
  O  O74  1  0.08001900  0.14894000  0.52855900  1
  O  O75  1  0.58001900  0.85106000  0.97144100  1
  O  O76  1  0.08001900  0.64894000  0.97144100  1
  O  O77  1  0.58001900  0.35106000  0.52855900  1
  O  O78  1  0.91998100  0.85106000  0.47144100  1
  O  O79  1  0.41998100  0.14894000  0.02855900  1
  O  O80  1  0.91199600  0.60576900  0.13302500  1
  O  O81  1  0.41199600  0.39423100  0.36697500  1
  O  O82  1  0.08800400  0.89423100  0.63302500  1
  O  O83  1  0.58800400  0.10576900  0.86697500  1
  O  O84  1  0.08800400  0.39423100  0.86697500  1
  O  O85  1  0.58800400  0.60576900  0.63302500  1
  O  O86  1  0.91199600  0.10576900  0.36697500  1
  O  O87  1  0.41199600  0.89423100  0.13302500  1
  O  O88  1  0.10939500  0.80164200  0.13822900  1
  O  O89  1  0.60939500  0.19835800  0.36177100  1
  O  O90  1  0.89060500  0.69835800  0.63822900  1
  O  O91  1  0.39060500  0.30164200  0.86177100  1
  O  O92  1  0.89060500  0.19835800  0.86177100  1
  O  O93  1  0.39060500  0.80164200  0.63822900  1
  O  O94  1  0.10939500  0.30164200  0.36177100  1
  O  O95  1  0.60939500  0.69835800  0.13822900  1
