# generated using pymatgen
data_Nb6HSI9
_symmetry_space_group_name_H-M   'P 1'
_cell_length_a   10.55066000
_cell_length_b   10.70919933
_cell_length_c   11.83852639
_cell_angle_alpha   105.21936640
_cell_angle_beta   105.39265030
_cell_angle_gamma   113.78407838
_symmetry_Int_Tables_number   1
_chemical_formula_structural   Nb6HSI9
_chemical_formula_sum   'Nb12 H2 S2 I18'
_cell_volume   1071.59095677
_cell_formula_units_Z   2
loop_
 _symmetry_equiv_pos_site_id
 _symmetry_equiv_pos_as_xyz
  1  'x, y, z'
loop_
 _atom_site_type_symbol
 _atom_site_label
 _atom_site_symmetry_multiplicity
 _atom_site_fract_x
 _atom_site_fract_y
 _atom_site_fract_z
 _atom_site_occupancy
  Nb  Nb0  1  0.19417800  0.12090200  0.17606600  1
  Nb  Nb1  1  0.80582200  0.87909800  0.82393400  1
  Nb  Nb2  1  0.92778400  0.80140300  0.04243700  1
  Nb  Nb3  1  0.07221600  0.19859700  0.95756300  1
  Nb  Nb4  1  0.87715200  0.06481800  0.08595200  1
  Nb  Nb5  1  0.12284800  0.93518200  0.91404800  1
  Nb  Nb6  1  0.19325100  0.12003000  0.47317600  1
  Nb  Nb7  1  0.80674900  0.87997000  0.52682400  1
  Nb  Nb8  1  0.87691800  0.06481700  0.38618700  1
  Nb  Nb9  1  0.12308200  0.93518300  0.61381300  1
  Nb  Nb10  1  0.92625100  0.80132100  0.32851200  1
  Nb  Nb11  1  0.07374900  0.19867900  0.67148800  1
  H  H12  1  0.00000000  0.00000000  0.50000000  1
  H  H13  1  0.00000000  0.00000000  0.00000000  1
  S  S14  1  0.99812400  0.99330200  0.24784500  1
  S  S15  1  0.00187600  0.00669800  0.75215500  1
  I  I16  1  0.62149200  0.75424300  0.94717900  1
  I  I17  1  0.37850800  0.24575700  0.05282100  1
  I  I18  1  0.54711800  0.72159000  0.57618500  1
  I  I19  1  0.45288200  0.27841000  0.42381500  1
  I  I20  1  0.13802200  0.37190100  0.52707000  1
  I  I21  1  0.86197800  0.62809900  0.47293000  1
  I  I22  1  0.83326600  0.54349400  0.10223200  1
  I  I23  1  0.16673400  0.45650600  0.89776800  1
  I  I24  1  0.24054400  0.86540000  0.11997300  1
  I  I25  1  0.75945600  0.13460000  0.88002700  1
  I  I26  1  0.71426400  0.15583000  0.21896700  1
  I  I27  1  0.28573600  0.84417000  0.78103300  1
  I  I28  1  0.13973400  0.37267300  0.21575500  1
  I  I29  1  0.86026600  0.62732700  0.78424500  1
  I  I30  1  0.23833600  0.86239200  0.42901700  1
  I  I31  1  0.76166400  0.13760800  0.57098300  1
  I  I32  1  0.61883800  0.75509800  0.25752400  1
  I  I33  1  0.38116200  0.24490200  0.74247600  1
