# generated using pymatgen
data_Dy4BClO7
_symmetry_space_group_name_H-M   'P 1'
_cell_length_a   8.07211100
_cell_length_b   8.66313600
_cell_length_c   12.34320246
_cell_angle_alpha   59.69004581
_cell_angle_beta   90.00000000
_cell_angle_gamma   90.00000000
_symmetry_Int_Tables_number   1
_chemical_formula_structural   Dy4BClO7
_chemical_formula_sum   'Dy16 B4 Cl4 O28'
_cell_volume   745.17078091
_cell_formula_units_Z   4
loop_
 _symmetry_equiv_pos_site_id
 _symmetry_equiv_pos_as_xyz
  1  'x, y, z'
loop_
 _atom_site_type_symbol
 _atom_site_label
 _atom_site_symmetry_multiplicity
 _atom_site_fract_x
 _atom_site_fract_y
 _atom_site_fract_z
 _atom_site_occupancy
  Dy  Dy0  1  0.62631000  0.79798700  0.22042500  1
  Dy  Dy1  1  0.87369000  0.79798700  0.72042500  1
  Dy  Dy2  1  0.37369000  0.20201300  0.77957500  1
  Dy  Dy3  1  0.12631000  0.20201300  0.27957500  1
  Dy  Dy4  1  0.61742000  0.42254600  0.91046300  1
  Dy  Dy5  1  0.88258000  0.42254600  0.41046300  1
  Dy  Dy6  1  0.38258000  0.57745400  0.08953700  1
  Dy  Dy7  1  0.11742000  0.57745400  0.58953700  1
  Dy  Dy8  1  0.63787800  0.57082800  0.58074900  1
  Dy  Dy9  1  0.86212200  0.57082800  0.08074900  1
  Dy  Dy10  1  0.36212200  0.42917200  0.41925100  1
  Dy  Dy11  1  0.13787800  0.42917200  0.91925100  1
  Dy  Dy12  1  0.61472600  0.18283500  0.27909400  1
  Dy  Dy13  1  0.88527400  0.18283500  0.77909400  1
  Dy  Dy14  1  0.38527400  0.81716500  0.72090600  1
  Dy  Dy15  1  0.11472600  0.81716500  0.22090600  1
  B  B16  1  0.87095600  0.86992600  0.41299400  1
  B  B17  1  0.62904400  0.86992600  0.91299400  1
  B  B18  1  0.12904400  0.13007400  0.58700600  1
  B  B19  1  0.37095600  0.13007400  0.08700600  1
  Cl  Cl20  1  0.85498000  0.11807200  0.03268300  1
  Cl  Cl21  1  0.64502000  0.11807200  0.53268300  1
  Cl  Cl22  1  0.14502000  0.88192800  0.96731700  1
  Cl  Cl23  1  0.35498000  0.88192800  0.46731700  1
  O  O24  1  0.62222200  0.54201800  0.40293700  1
  O  O25  1  0.87777800  0.54201800  0.90293700  1
  O  O26  1  0.37777800  0.45798200  0.59706300  1
  O  O27  1  0.12222200  0.45798200  0.09706300  1
  O  O28  1  0.63694800  0.30852100  0.77579500  1
  O  O29  1  0.86305200  0.30852100  0.27579500  1
  O  O30  1  0.36305200  0.69147900  0.22420500  1
  O  O31  1  0.13694800  0.69147900  0.72420500  1
  O  O32  1  0.61702300  0.67757500  0.71842100  1
  O  O33  1  0.88297700  0.67757500  0.21842100  1
  O  O34  1  0.38297700  0.32242500  0.28157900  1
  O  O35  1  0.11702300  0.32242500  0.78157900  1
  O  O36  1  0.62244400  0.42943000  0.09258300  1
  O  O37  1  0.87755600  0.42943000  0.59258300  1
  O  O38  1  0.37755600  0.57057000  0.90741700  1
  O  O39  1  0.12244400  0.57057000  0.40741700  1
  O  O40  1  0.88833800  0.77552600  0.54263600  1
  O  O41  1  0.61166200  0.77552600  0.04263600  1
  O  O42  1  0.11166200  0.22447400  0.45736400  1
  O  O43  1  0.38833800  0.22447400  0.95736400  1
  O  O44  1  0.00811700  0.93316000  0.33678200  1
  O  O45  1  0.49188300  0.93316000  0.83678200  1
  O  O46  1  0.99188300  0.06684000  0.66321800  1
  O  O47  1  0.50811700  0.06684000  0.16321800  1
  O  O48  1  0.71454600  0.88801300  0.36351700  1
  O  O49  1  0.78545400  0.88801300  0.86351700  1
  O  O50  1  0.28545400  0.11198700  0.63648300  1
  O  O51  1  0.21454600  0.11198700  0.13648300  1
