# generated using pymatgen
data_KIn7S8
_symmetry_space_group_name_H-M   'P 1'
_cell_length_a   3.98946500
_cell_length_b   17.90127200
_cell_length_c   19.32866776
_cell_angle_alpha   67.83913453
_cell_angle_beta   90.00000000
_cell_angle_gamma   90.00000000
_symmetry_Int_Tables_number   1
_chemical_formula_structural   KIn7S8
_chemical_formula_sum   'K3 In21 S24'
_cell_volume   1278.41452026
_cell_formula_units_Z   3
loop_
 _symmetry_equiv_pos_site_id
 _symmetry_equiv_pos_as_xyz
  1  'x, y, z'
loop_
 _atom_site_type_symbol
 _atom_site_label
 _atom_site_symmetry_multiplicity
 _atom_site_fract_x
 _atom_site_fract_y
 _atom_site_fract_z
 _atom_site_occupancy
  K  K0  1  0.50000000  0.29762300  0.78379600  1
  K  K1  1  0.00000000  0.20228200  0.21632200  1
  K  K2  1  0.00000000  0.70228800  0.21645800  1
  In  In3  1  0.50000000  0.50121600  0.11411400  1
  In  In4  1  0.50000000  0.00136300  0.11394000  1
  In  In5  1  0.00000000  0.49870600  0.88590700  1
  In  In6  1  0.00000000  0.99882200  0.88594400  1
  In  In7  1  0.50000000  0.60015900  0.45601600  1
  In  In8  1  0.50000000  0.10012000  0.45616800  1
  In  In9  1  0.00000000  0.39976200  0.54405200  1
  In  In10  1  0.00000000  0.90032500  0.54388300  1
  In  In11  1  0.50000000  0.21041100  0.61673000  1
  In  In12  1  0.50000000  0.70994700  0.61672000  1
  In  In13  1  0.00000000  0.78959900  0.38310700  1
  In  In14  1  0.00000000  0.28948600  0.38312100  1
  In  In15  1  0.50000000  0.54155700  0.68551100  1
  In  In16  1  0.50000000  0.04066600  0.68597700  1
  In  In17  1  0.00000000  0.45865600  0.31457300  1
  In  In18  1  0.00000000  0.95861900  0.31437100  1
  In  In19  1  0.50000000  0.15608700  0.99492900  1
  In  In20  1  0.50000000  0.65563700  0.99485100  1
  In  In21  1  0.00000000  0.84458400  0.00519600  1
  In  In22  1  0.00000000  0.34380000  0.00494500  1
  In  In23  1  0.50000000  0.79650400  0.78381800  1
  S  S24  1  0.50000000  0.53585400  0.23512900  1
  S  S25  1  0.50000000  0.03583900  0.23523100  1
  S  S26  1  0.00000000  0.46378300  0.76510700  1
  S  S27  1  0.00000000  0.96444700  0.76471900  1
  S  S28  1  0.50000000  0.33473100  0.49524800  1
  S  S29  1  0.50000000  0.83424200  0.49602700  1
  S  S30  1  0.00000000  0.66580700  0.50421200  1
  S  S31  1  0.00000000  0.16572300  0.50457800  1
  S  S32  1  0.50000000  0.73120400  0.33332000  1
  S  S33  1  0.50000000  0.23123000  0.33330600  1
  S  S34  1  0.00000000  0.26854400  0.66683500  1
  S  S35  1  0.00000000  0.76895800  0.66811600  1
  S  S36  1  0.50000000  0.47399600  0.58667100  1
  S  S37  1  0.50000000  0.97408300  0.58642200  1
  S  S38  1  0.00000000  0.52610200  0.41322300  1
  S  S39  1  0.00000000  0.02612600  0.41312400  1
  S  S40  1  0.50000000  0.08856800  0.86798900  1
  S  S41  1  0.50000000  0.58924700  0.86784600  1
  S  S42  1  0.00000000  0.91125500  0.13225900  1
  S  S43  1  0.00000000  0.41143200  0.13206900  1
  S  S44  1  0.50000000  0.76061100  0.07402800  1
  S  S45  1  0.50000000  0.26061800  0.07449600  1
  S  S46  1  0.00000000  0.23952300  0.92559500  1
  S  S47  1  0.00000000  0.73985800  0.92400100  1
