# generated using pymatgen
data_Zr2CuS4
_symmetry_space_group_name_H-M   'P 1'
_cell_length_a   7.38790256
_cell_length_b   7.38790256
_cell_length_c   7.38790256
_cell_angle_alpha   60.00000000
_cell_angle_beta   60.00000000
_cell_angle_gamma   60.00000000
_symmetry_Int_Tables_number   1
_chemical_formula_structural   Zr2CuS4
_chemical_formula_sum   'Zr4 Cu2 S8'
_cell_volume   285.13365357
_cell_formula_units_Z   2
loop_
 _symmetry_equiv_pos_site_id
 _symmetry_equiv_pos_as_xyz
  1  'x, y, z'
loop_
 _atom_site_type_symbol
 _atom_site_label
 _atom_site_symmetry_multiplicity
 _atom_site_fract_x
 _atom_site_fract_y
 _atom_site_fract_z
 _atom_site_occupancy
  Zr  Zr0  1  0.62500000  0.12500000  0.12500000  1
  Zr  Zr1  1  0.12500000  0.12500000  0.12500000  1
  Zr  Zr2  1  0.12500000  0.62500000  0.12500000  1
  Zr  Zr3  1  0.12500000  0.12500000  0.62500000  1
  Cu  Cu4  1  0.50000000  0.50000000  0.50000000  1
  Cu  Cu5  1  0.75000000  0.75000000  0.75000000  1
  S  S6  1  0.37362000  0.37362000  0.37362000  1
  S  S7  1  0.37086100  0.87638000  0.87638000  1
  S  S8  1  0.87638000  0.87638000  0.37086100  1
  S  S9  1  0.87638000  0.37086100  0.87638000  1
  S  S10  1  0.37362000  0.37362000  0.87913900  1
  S  S11  1  0.37362000  0.87913900  0.37362000  1
  S  S12  1  0.87638000  0.87638000  0.87638000  1
  S  S13  1  0.87913900  0.37362000  0.37362000  1
