# generated using pymatgen
data_SrCd6
_symmetry_space_group_name_H-M   'P 1'
_cell_length_a   14.03013492
_cell_length_b   14.03013492
_cell_length_c   14.03013492
_cell_angle_alpha   109.88054502
_cell_angle_beta   109.53565981
_cell_angle_gamma   108.99867390
_symmetry_Int_Tables_number   1
_chemical_formula_structural   SrCd6
_chemical_formula_sum   'Sr12 Cd72'
_cell_volume   2125.87413735
_cell_formula_units_Z   12
loop_
 _symmetry_equiv_pos_site_id
 _symmetry_equiv_pos_as_xyz
  1  'x, y, z'
loop_
 _atom_site_type_symbol
 _atom_site_label
 _atom_site_symmetry_multiplicity
 _atom_site_fract_x
 _atom_site_fract_y
 _atom_site_fract_z
 _atom_site_occupancy
  Sr  Sr0  1  0.81272700  0.51729900  0.70457200  1
  Sr  Sr1  1  0.18727300  0.48270100  0.29542800  1
  Sr  Sr2  1  0.18727300  0.89184500  0.70457200  1
  Sr  Sr3  1  0.81272700  0.10815500  0.29542800  1
  Sr  Sr4  1  0.11289700  0.30151600  0.81138200  1
  Sr  Sr5  1  0.88710300  0.69848400  0.18861800  1
  Sr  Sr6  1  0.49013400  0.30151600  0.18861800  1
  Sr  Sr7  1  0.50986600  0.69848400  0.81138200  1
  Sr  Sr8  1  0.29955100  0.18649800  0.48604900  1
  Sr  Sr9  1  0.70044900  0.81350200  0.51395100  1
  Sr  Sr10  1  0.29955100  0.81350200  0.11305300  1
  Sr  Sr11  1  0.70044900  0.18649800  0.88694700  1
  Cd  Cd12  1  0.00004200  0.67755400  0.00234500  1
  Cd  Cd13  1  0.32479100  0.32244600  0.32248800  1
  Cd  Cd14  1  0.99995800  0.00230300  0.67751200  1
  Cd  Cd15  1  0.67520900  0.99769700  0.99765500  1
  Cd  Cd16  1  0.99995800  0.32244600  0.99765500  1
  Cd  Cd17  1  0.67520900  0.67755400  0.67751200  1
  Cd  Cd18  1  0.00004200  0.99769700  0.32248800  1
  Cd  Cd19  1  0.32479100  0.00230300  0.00234500  1
  Cd  Cd20  1  0.73808500  0.64179400  0.90370900  1
  Cd  Cd21  1  0.26191500  0.35820600  0.09629100  1
  Cd  Cd22  1  0.26191500  0.16562400  0.90370900  1
  Cd  Cd23  1  0.73808500  0.83437600  0.09629100  1
  Cd  Cd24  1  0.85464900  0.09376400  0.76088500  1
  Cd  Cd25  1  0.14535100  0.90623600  0.23911500  1
  Cd  Cd26  1  0.33287900  0.09376400  0.23911500  1
  Cd  Cd27  1  0.66712100  0.90623600  0.76088500  1
  Cd  Cd28  1  0.09614000  0.24446300  0.34060300  1
  Cd  Cd29  1  0.90386000  0.75553700  0.65939700  1
  Cd  Cd30  1  0.09614000  0.75553700  0.85167700  1
  Cd  Cd31  1  0.90386000  0.24446300  0.14832300  1
  Cd  Cd32  1  0.59597200  0.25125400  0.65528200  1
  Cd  Cd33  1  0.40402800  0.74874600  0.34471800  1
  Cd  Cd34  1  0.40402800  0.05931000  0.65528200  1
  Cd  Cd35  1  0.59597200  0.94069000  0.34471800  1
  Cd  Cd36  1  0.94248500  0.34644900  0.59603600  1
  Cd  Cd37  1  0.05751500  0.65355100  0.40396400  1
  Cd  Cd38  1  0.75041300  0.34644900  0.40396400  1
  Cd  Cd39  1  0.24958700  0.65355100  0.59603600  1
  Cd  Cd40  1  0.34401700  0.40305400  0.74707100  1
  Cd  Cd41  1  0.65598300  0.59694600  0.25292900  1
  Cd  Cd42  1  0.34401700  0.59694600  0.94096200  1
  Cd  Cd43  1  0.65598300  0.40305400  0.05903800  1
  Cd  Cd44  1  0.58764500  0.58764500  0.00000000  1
  Cd  Cd45  1  0.41235500  0.41235500  0.00000000  1
  Cd  Cd46  1  0.59298900  0.00000000  0.59298900  1
  Cd  Cd47  1  0.40701100  0.00000000  0.40701100  1
  Cd  Cd48  1  0.00000000  0.40641500  0.40641500  1
  Cd  Cd49  1  0.00000000  0.59358500  0.59358500  1
  Cd  Cd50  1  0.77726400  0.45501600  0.91944400  1
  Cd  Cd51  1  0.46442800  0.54498400  0.32224800  1
  Cd  Cd52  1  0.22273600  0.14218000  0.67775200  1
  Cd  Cd53  1  0.53557200  0.85782000  0.08055600  1
  Cd  Cd54  1  0.85881000  0.08135100  0.54040700  1
  Cd  Cd55  1  0.14119000  0.68159700  0.22254100  1
  Cd  Cd56  1  0.54094400  0.31840300  0.45959300  1
  Cd  Cd57  1  0.45905600  0.91864900  0.77745900  1
  Cd  Cd58  1  0.31673500  0.45883200  0.54203800  1
  Cd  Cd59  1  0.91679400  0.77469700  0.45796200  1
  Cd  Cd60  1  0.08320600  0.54116800  0.85790300  1
  Cd  Cd61  1  0.68326500  0.22530300  0.14209700  1
  Cd  Cd62  1  0.22273600  0.54498400  0.08055600  1
  Cd  Cd63  1  0.53557200  0.45501600  0.67775200  1
  Cd  Cd64  1  0.77726400  0.85782000  0.32224800  1
  Cd  Cd65  1  0.46442800  0.14218000  0.91944400  1
  Cd  Cd66  1  0.14119000  0.91864900  0.45959300  1
  Cd  Cd67  1  0.85881000  0.31840300  0.77745900  1
  Cd  Cd68  1  0.45905600  0.68159700  0.54040700  1
  Cd  Cd69  1  0.54094400  0.08135100  0.22254100  1
  Cd  Cd70  1  0.68326500  0.54116800  0.45796200  1
  Cd  Cd71  1  0.08320600  0.22530300  0.54203800  1
  Cd  Cd72  1  0.91679400  0.45883200  0.14209700  1
  Cd  Cd73  1  0.31673500  0.77469700  0.85790300  1
  Cd  Cd74  1  0.50000000  0.31313900  0.81313900  1
  Cd  Cd75  1  0.50000000  0.68686100  0.18686100  1
  Cd  Cd76  1  0.69171300  0.19171300  0.50000000  1
  Cd  Cd77  1  0.30828700  0.80828700  0.50000000  1
  Cd  Cd78  1  0.18731200  0.50000000  0.68731200  1
  Cd  Cd79  1  0.81268800  0.50000000  0.31268800  1
  Cd  Cd80  1  0.91301300  0.82188800  0.90887500  1
  Cd  Cd81  1  0.08698700  0.17811200  0.09112500  1
  Cd  Cd82  1  0.08698700  0.99586200  0.90887500  1
  Cd  Cd83  1  0.91301300  0.00413800  0.09112500  1
