# generated using pymatgen
data_Tl3Bi
_symmetry_space_group_name_H-M   'P 1'
_cell_length_a   7.45811024
_cell_length_b   7.45811024
_cell_length_c   5.38916700
_cell_angle_alpha   90.00000000
_cell_angle_beta   90.00000000
_cell_angle_gamma   120.00000212
_symmetry_Int_Tables_number   1
_chemical_formula_structural   Tl3Bi
_chemical_formula_sum   'Tl6 Bi2'
_cell_volume   259.60309211
_cell_formula_units_Z   2
loop_
 _symmetry_equiv_pos_site_id
 _symmetry_equiv_pos_as_xyz
  1  'x, y, z'
loop_
 _atom_site_type_symbol
 _atom_site_label
 _atom_site_symmetry_multiplicity
 _atom_site_fract_x
 _atom_site_fract_y
 _atom_site_fract_z
 _atom_site_occupancy
  Tl  Tl0  1  0.16978100  0.33956200  0.25000000  1
  Tl  Tl1  1  0.66043800  0.83021900  0.25000000  1
  Tl  Tl2  1  0.16978100  0.83021900  0.25000000  1
  Tl  Tl3  1  0.83021900  0.66043800  0.75000000  1
  Tl  Tl4  1  0.33956200  0.16978100  0.75000000  1
  Tl  Tl5  1  0.83021900  0.16978100  0.75000000  1
  Bi  Bi6  1  0.33333300  0.66666700  0.75000000  1
  Bi  Bi7  1  0.66666700  0.33333300  0.25000000  1
