# generated using pymatgen
data_Na6MnSe4
_symmetry_space_group_name_H-M   'P 1'
_cell_length_a   9.42087245
_cell_length_b   9.42087245
_cell_length_c   7.27488200
_cell_angle_alpha   90.00000000
_cell_angle_beta   90.00000000
_cell_angle_gamma   120.00000318
_symmetry_Int_Tables_number   1
_chemical_formula_structural   Na6MnSe4
_chemical_formula_sum   'Na12 Mn2 Se8'
_cell_volume   559.16350582
_cell_formula_units_Z   2
loop_
 _symmetry_equiv_pos_site_id
 _symmetry_equiv_pos_as_xyz
  1  'x, y, z'
loop_
 _atom_site_type_symbol
 _atom_site_label
 _atom_site_symmetry_multiplicity
 _atom_site_fract_x
 _atom_site_fract_y
 _atom_site_fract_z
 _atom_site_occupancy
  Na  Na0  1  0.14796000  0.85204000  0.53960200  1
  Na  Na1  1  0.29591900  0.14796000  0.03960200  1
  Na  Na2  1  0.85204000  0.70408100  0.03960200  1
  Na  Na3  1  0.14796000  0.29591900  0.53960200  1
  Na  Na4  1  0.70408100  0.85204000  0.53960200  1
  Na  Na5  1  0.85204000  0.14796000  0.03960200  1
  Na  Na6  1  0.53105700  0.46894300  0.37052900  1
  Na  Na7  1  0.06211400  0.53105700  0.87052900  1
  Na  Na8  1  0.46894300  0.93788600  0.87052900  1
  Na  Na9  1  0.53105700  0.06211400  0.37052900  1
  Na  Na10  1  0.93788600  0.46894300  0.37052900  1
  Na  Na11  1  0.46894300  0.53105700  0.87052900  1
  Mn  Mn12  1  0.33333300  0.66666700  0.25145900  1
  Mn  Mn13  1  0.66666700  0.33333300  0.75145900  1
  Se  Se14  1  0.33333300  0.66666700  0.60077500  1
  Se  Se15  1  0.66666700  0.33333300  0.10077500  1
  Se  Se16  1  0.18583700  0.81416300  0.14322400  1
  Se  Se17  1  0.37167400  0.18583700  0.64322400  1
  Se  Se18  1  0.81416300  0.62832600  0.64322400  1
  Se  Se19  1  0.18583700  0.37167400  0.14322400  1
  Se  Se20  1  0.62832600  0.81416300  0.14322400  1
  Se  Se21  1  0.81416300  0.18583700  0.64322400  1
