# generated using pymatgen
data_La2MoO6
_symmetry_space_group_name_H-M   'P 1'
_cell_length_a   16.71375152
_cell_length_b   16.71375152
_cell_length_c   16.71375152
_cell_angle_alpha   159.89823349
_cell_angle_beta   159.89823349
_cell_angle_gamma   28.57792849
_symmetry_Int_Tables_number   1
_chemical_formula_structural   La2MoO6
_chemical_formula_sum   'La8 Mo4 O24'
_cell_volume   551.23627602
_cell_formula_units_Z   4
loop_
 _symmetry_equiv_pos_site_id
 _symmetry_equiv_pos_as_xyz
  1  'x, y, z'
loop_
 _atom_site_type_symbol
 _atom_site_label
 _atom_site_symmetry_multiplicity
 _atom_site_fract_x
 _atom_site_fract_y
 _atom_site_fract_z
 _atom_site_occupancy
  La  La0  1  0.33688500  0.33688500  0.00000000  1
  La  La1  1  0.08688500  0.58688500  0.50000000  1
  La  La2  1  0.91311500  0.41311500  0.50000000  1
  La  La3  1  0.16311500  0.16311500  0.00000000  1
  La  La4  1  0.41311500  0.91311500  0.50000000  1
  La  La5  1  0.66311500  0.66311500  0.00000000  1
  La  La6  1  0.83688500  0.83688500  0.00000000  1
  La  La7  1  0.58688500  0.08688500  0.50000000  1
  Mo  Mo8  1  0.50000000  0.50000000  0.00000000  1
  Mo  Mo9  1  0.25000000  0.75000000  0.50000000  1
  Mo  Mo10  1  0.75000000  0.25000000  0.50000000  1
  Mo  Mo11  1  0.00000000  0.00000000  0.00000000  1
  O  O12  1  0.36869200  0.87500000  0.99369200  1
  O  O13  1  0.62500000  0.13130800  0.00630800  1
  O  O14  1  0.12500000  0.61869200  0.99369200  1
  O  O15  1  0.88130800  0.37500000  0.00630800  1
  O  O16  1  0.38130800  0.37500000  0.50630800  1
  O  O17  1  0.12500000  0.11869200  0.49369200  1
  O  O18  1  0.62500000  0.63130800  0.50630800  1
  O  O19  1  0.86869200  0.87500000  0.49369200  1
  O  O20  1  0.61570600  0.45380800  0.49810400  1
  O  O21  1  0.38239800  0.54429700  0.49810400  1
  O  O22  1  0.04619200  0.88429400  0.50189600  1
  O  O23  1  0.63429400  0.63239800  0.33810100  1
  O  O24  1  0.79429700  0.13239800  0.99810400  1
  O  O25  1  0.88239800  0.38429400  0.83810100  1
  O  O26  1  0.54619200  0.04429700  0.16189900  1
  O  O27  1  0.45570300  0.95380800  0.83810100  1
  O  O28  1  0.11570600  0.61760200  0.16189900  1
  O  O29  1  0.70380800  0.36570600  0.99810400  1
  O  O30  1  0.36760200  0.70570300  0.00189600  1
  O  O31  1  0.13429400  0.79619200  0.00189600  1
  O  O32  1  0.95570300  0.11760200  0.50189600  1
  O  O33  1  0.86760200  0.86570600  0.66189900  1
  O  O34  1  0.20380800  0.20570300  0.33810100  1
  O  O35  1  0.29429700  0.29619200  0.66189900  1
