# generated using pymatgen
data_Sr
_symmetry_space_group_name_H-M   'P 1'
_cell_length_a   10.72823703
_cell_length_b   10.72823703
_cell_length_c   10.72823704
_cell_angle_alpha   22.82768399
_cell_angle_beta   22.82768399
_cell_angle_gamma   22.82767941
_symmetry_Int_Tables_number   1
_chemical_formula_structural   Sr
_chemical_formula_sum   Sr3
_cell_volume   163.07832690
_cell_formula_units_Z   3
loop_
 _symmetry_equiv_pos_site_id
 _symmetry_equiv_pos_as_xyz
  1  'x, y, z'
loop_
 _atom_site_type_symbol
 _atom_site_label
 _atom_site_symmetry_multiplicity
 _atom_site_fract_x
 _atom_site_fract_y
 _atom_site_fract_z
 _atom_site_occupancy
  Sr  Sr0  1  0.00000000  0.00000000  0.00000000  1
  Sr  Sr1  1  0.22238300  0.22238300  0.22238300  1
  Sr  Sr2  1  0.77761700  0.77761700  0.77761700  1
