# generated using pymatgen
data_ErCo5P3
_symmetry_space_group_name_H-M   'P 1'
_cell_length_a   3.63311400
_cell_length_b   10.25059700
_cell_length_c   11.69903800
_cell_angle_alpha   90.00000000
_cell_angle_beta   90.00000000
_cell_angle_gamma   90.00000000
_symmetry_Int_Tables_number   1
_chemical_formula_structural   ErCo5P3
_chemical_formula_sum   'Er4 Co20 P12'
_cell_volume   435.69074698
_cell_formula_units_Z   4
loop_
 _symmetry_equiv_pos_site_id
 _symmetry_equiv_pos_as_xyz
  1  'x, y, z'
loop_
 _atom_site_type_symbol
 _atom_site_label
 _atom_site_symmetry_multiplicity
 _atom_site_fract_x
 _atom_site_fract_y
 _atom_site_fract_z
 _atom_site_occupancy
  Er  Er0  1  0.25000000  0.58293500  0.70287100  1
  Er  Er1  1  0.25000000  0.91706500  0.20287100  1
  Er  Er2  1  0.75000000  0.41706500  0.29712900  1
  Er  Er3  1  0.75000000  0.08293500  0.79712900  1
  Co  Co4  1  0.25000000  0.71660400  0.99084000  1
  Co  Co5  1  0.25000000  0.78339600  0.49084000  1
  Co  Co6  1  0.75000000  0.28339600  0.00916000  1
  Co  Co7  1  0.75000000  0.21660400  0.50916000  1
  Co  Co8  1  0.25000000  0.40707000  0.48738200  1
  Co  Co9  1  0.25000000  0.09293000  0.98738200  1
  Co  Co10  1  0.75000000  0.59293000  0.51261800  1
  Co  Co11  1  0.75000000  0.90707000  0.01261800  1
  Co  Co12  1  0.25000000  0.22111600  0.17635200  1
  Co  Co13  1  0.25000000  0.27888400  0.67635200  1
  Co  Co14  1  0.75000000  0.77888400  0.82364800  1
  Co  Co15  1  0.75000000  0.72111600  0.32364800  1
  Co  Co16  1  0.25000000  0.88263200  0.69822300  1
  Co  Co17  1  0.25000000  0.61736800  0.19822300  1
  Co  Co18  1  0.75000000  0.11736800  0.30177700  1
  Co  Co19  1  0.75000000  0.38263200  0.80177700  1
  Co  Co20  1  0.25000000  0.46772800  0.93181600  1
  Co  Co21  1  0.25000000  0.03227200  0.43181600  1
  Co  Co22  1  0.75000000  0.53227200  0.06818400  1
  Co  Co23  1  0.75000000  0.96772800  0.56818400  1
  P  P24  1  0.25000000  0.41819700  0.11230000  1
  P  P25  1  0.25000000  0.08180300  0.61230000  1
  P  P26  1  0.75000000  0.58180300  0.88770000  1
  P  P27  1  0.75000000  0.91819700  0.38770000  1
  P  P28  1  0.25000000  0.27000800  0.87006000  1
  P  P29  1  0.25000000  0.22999200  0.37006000  1
  P  P30  1  0.75000000  0.72999200  0.12994000  1
  P  P31  1  0.75000000  0.77000800  0.62994000  1
  P  P32  1  0.25000000  0.60110100  0.39069200  1
  P  P33  1  0.25000000  0.89889900  0.89069200  1
  P  P34  1  0.75000000  0.39889900  0.60930800  1
  P  P35  1  0.75000000  0.10110100  0.10930800  1
