# generated using pymatgen
data_Mn3V2O8
_symmetry_space_group_name_H-M   'P 1'
_cell_length_a   6.32940400
_cell_length_b   6.75213497
_cell_length_c   8.62032100
_cell_angle_alpha   90.00000000
_cell_angle_beta   90.00000000
_cell_angle_gamma   117.94971648
_symmetry_Int_Tables_number   1
_chemical_formula_structural   Mn3V2O8
_chemical_formula_sum   'Mn6 V4 O16'
_cell_volume   325.43536052
_cell_formula_units_Z   2
loop_
 _symmetry_equiv_pos_site_id
 _symmetry_equiv_pos_as_xyz
  1  'x, y, z'
loop_
 _atom_site_type_symbol
 _atom_site_label
 _atom_site_symmetry_multiplicity
 _atom_site_fract_x
 _atom_site_fract_y
 _atom_site_fract_z
 _atom_site_occupancy
  Mn  Mn0  1  0.11199100  0.72398200  0.25000000  1
  Mn  Mn1  1  0.38800900  0.27601900  0.75000000  1
  Mn  Mn2  1  0.61199100  0.72398200  0.25000000  1
  Mn  Mn3  1  0.88800900  0.27601900  0.75000000  1
  Mn  Mn4  1  0.50000000  0.00000000  0.50000000  1
  Mn  Mn5  1  0.00000000  0.00000000  0.00000000  1
  V  V6  1  0.88052100  0.76104200  0.61831500  1
  V  V7  1  0.11947900  0.23895900  0.38168400  1
  V  V8  1  0.61947900  0.23895900  0.11831600  1
  V  V9  1  0.38052100  0.76104200  0.88168400  1
  O  O10  1  0.10735000  0.76686000  0.50145500  1
  O  O11  1  0.34049100  0.23314000  0.49854400  1
  O  O12  1  0.39265100  0.23314000  0.00145600  1
  O  O13  1  0.15950900  0.76686000  0.99854400  1
  O  O14  1  0.89265000  0.23314000  0.49854400  1
  O  O15  1  0.65951100  0.76686000  0.50145500  1
  O  O16  1  0.60735100  0.76686000  0.99854400  1
  O  O17  1  0.84049000  0.23314000  0.00145600  1
  O  O18  1  0.49947000  0.99893900  0.74876500  1
  O  O19  1  0.50053000  0.00106100  0.25123600  1
  O  O20  1  0.25390700  0.50781400  0.77805000  1
  O  O21  1  0.74609300  0.49218700  0.22195000  1
  O  O22  1  0.24609300  0.49218700  0.27805100  1
  O  O23  1  0.00053100  0.00106100  0.24876400  1
  O  O24  1  0.99946900  0.99893900  0.75123600  1
  O  O25  1  0.75390700  0.50781400  0.72195000  1
