# generated using pymatgen
data_K3Na8FeH12S6(NO18)2
_symmetry_space_group_name_H-M   'P 1'
_cell_length_a   10.54074964
_cell_length_b   10.54074964
_cell_length_c   10.54074973
_cell_angle_alpha   63.31079049
_cell_angle_beta   63.31079049
_cell_angle_gamma   63.31079424
_symmetry_Int_Tables_number   1
_chemical_formula_structural   K3Na8FeH12S6(NO18)2
_chemical_formula_sum   'K3 Na8 Fe1 H12 S6 N2 O36'
_cell_volume   888.85285465
_cell_formula_units_Z   1
loop_
 _symmetry_equiv_pos_site_id
 _symmetry_equiv_pos_as_xyz
  1  'x, y, z'
loop_
 _atom_site_type_symbol
 _atom_site_label
 _atom_site_symmetry_multiplicity
 _atom_site_fract_x
 _atom_site_fract_y
 _atom_site_fract_z
 _atom_site_occupancy
  K  K0  1  0.00000000  0.50000000  0.50000000  1
  K  K1  1  0.50000000  0.00000000  0.50000000  1
  K  K2  1  0.50000000  0.50000000  0.00000000  1
  Na  Na3  1  0.87283300  0.87283300  0.87283300  1
  Na  Na4  1  0.12716700  0.12716700  0.12716700  1
  Na  Na5  1  0.72681100  0.73675900  0.26569100  1
  Na  Na6  1  0.26569100  0.72681100  0.73675900  1
  Na  Na7  1  0.73675900  0.26569100  0.72681100  1
  Na  Na8  1  0.27318900  0.26324100  0.73430900  1
  Na  Na9  1  0.73430900  0.27318900  0.26324100  1
  Na  Na10  1  0.26324100  0.73430900  0.27318900  1
  Fe  Fe11  1  0.00000000  0.00000000  0.00000000  1
  H  H12  1  0.61149800  0.76990300  0.03704800  1
  H  H13  1  0.03704800  0.61149800  0.76990300  1
  H  H14  1  0.76990300  0.03704800  0.61149800  1
  H  H15  1  0.38850200  0.23009700  0.96295200  1
  H  H16  1  0.96295200  0.38850200  0.23009700  1
  H  H17  1  0.23009700  0.96295200  0.38850200  1
  H  H18  1  0.75172000  0.63007000  0.03609600  1
  H  H19  1  0.03609600  0.75172000  0.63007000  1
  H  H20  1  0.63007000  0.03609600  0.75172000  1
  H  H21  1  0.24828000  0.36993000  0.96390400  1
  H  H22  1  0.96390400  0.24828000  0.36993000  1
  H  H23  1  0.36993000  0.96390400  0.24828000  1
  S  S24  1  0.90005000  0.89055400  0.37703400  1
  S  S25  1  0.37703400  0.90005000  0.89055400  1
  S  S26  1  0.89055400  0.37703400  0.90005000  1
  S  S27  1  0.09995000  0.10944600  0.62296600  1
  S  S28  1  0.62296600  0.09995000  0.10944600  1
  S  S29  1  0.10944600  0.62296600  0.09995000  1
  N  N30  1  0.57292800  0.57292800  0.57292800  1
  N  N31  1  0.42707200  0.42707200  0.42707200  1
  O  O32  1  0.99125600  0.94842500  0.21356100  1
  O  O33  1  0.21356100  0.99125600  0.94842500  1
  O  O34  1  0.94842500  0.21356100  0.99125600  1
  O  O35  1  0.00874400  0.05157500  0.78643900  1
  O  O36  1  0.78643900  0.00874400  0.05157500  1
  O  O37  1  0.05157500  0.78643900  0.00874400  1
  O  O38  1  0.80843000  0.81247400  0.38666400  1
  O  O39  1  0.38666400  0.80843000  0.81247400  1
  O  O40  1  0.81247400  0.38666400  0.80843000  1
  O  O41  1  0.19157100  0.18752600  0.61333600  1
  O  O42  1  0.61333600  0.19157100  0.18752600  1
  O  O43  1  0.18752600  0.61333600  0.19157100  1
  O  O44  1  0.01171500  0.78626100  0.45716100  1
  O  O45  1  0.45716100  0.01171500  0.78626100  1
  O  O46  1  0.78626100  0.45716100  0.01171500  1
  O  O47  1  0.98828500  0.21373900  0.54283900  1
  O  O48  1  0.54283900  0.98828500  0.21373900  1
  O  O49  1  0.21373900  0.54283900  0.98828500  1
  O  O50  1  0.80467400  0.02128800  0.43247400  1
  O  O51  1  0.43247400  0.80467400  0.02128800  1
  O  O52  1  0.02128800  0.43247400  0.80467400  1
  O  O53  1  0.19532600  0.97871200  0.56752600  1
  O  O54  1  0.56752600  0.19532600  0.97871200  1
  O  O55  1  0.97871200  0.56752600  0.19532600  1
  O  O56  1  0.72990500  0.04834900  0.71181800  1
  O  O57  1  0.71181800  0.72990500  0.04834900  1
  O  O58  1  0.04834900  0.71181800  0.72990500  1
  O  O59  1  0.27009500  0.95165100  0.28818200  1
  O  O60  1  0.28818200  0.27009500  0.95165100  1
  O  O61  1  0.95165100  0.28818200  0.27009500  1
  O  O62  1  0.70525900  0.50865500  0.50440700  1
  O  O63  1  0.50440700  0.70525900  0.50865500  1
  O  O64  1  0.50865500  0.50440700  0.70525900  1
  O  O65  1  0.29474100  0.49134500  0.49559300  1
  O  O66  1  0.49559300  0.29474100  0.49134500  1
  O  O67  1  0.49134500  0.49559300  0.29474100  1
