# generated using pymatgen
data_Mn6AgP7O24
_symmetry_space_group_name_H-M   'P 1'
_cell_length_a   5.43810381
_cell_length_b   6.65635985
_cell_length_c   27.12596300
_cell_angle_alpha   90.00000000
_cell_angle_beta   90.00000000
_cell_angle_gamma   107.45383866
_symmetry_Int_Tables_number   1
_chemical_formula_structural   Mn6AgP7O24
_chemical_formula_sum   'Mn12 Ag2 P14 O48'
_cell_volume   936.69697944
_cell_formula_units_Z   2
loop_
 _symmetry_equiv_pos_site_id
 _symmetry_equiv_pos_as_xyz
  1  'x, y, z'
loop_
 _atom_site_type_symbol
 _atom_site_label
 _atom_site_symmetry_multiplicity
 _atom_site_fract_x
 _atom_site_fract_y
 _atom_site_fract_z
 _atom_site_occupancy
  Mn  Mn0  1  0.81163800  0.31433100  0.45484600  1
  Mn  Mn1  1  0.18836100  0.68566900  0.95484600  1
  Mn  Mn2  1  0.81163800  0.31433100  0.04515400  1
  Mn  Mn3  1  0.18836100  0.68566900  0.54515400  1
  Mn  Mn4  1  0.79369300  0.91360600  0.59766500  1
  Mn  Mn5  1  0.20630700  0.08639400  0.09766500  1
  Mn  Mn6  1  0.12759300  0.27934100  0.81713200  1
  Mn  Mn7  1  0.20630700  0.08639400  0.40233500  1
  Mn  Mn8  1  0.87240700  0.72066000  0.18286800  1
  Mn  Mn9  1  0.12759300  0.27934100  0.68286800  1
  Mn  Mn10  1  0.79369300  0.91360600  0.90233500  1
  Mn  Mn11  1  0.87240700  0.72066000  0.31713200  1
  Ag  Ag12  1  0.77360200  0.58686500  0.75000000  1
  Ag  Ag13  1  0.22639700  0.41313400  0.25000000  1
  P  P14  1  0.31537500  0.61804600  0.10900400  1
  P  P15  1  0.68462600  0.38195300  0.60900400  1
  P  P16  1  0.68462600  0.38195300  0.89099600  1
  P  P17  1  0.31537500  0.61804600  0.39099600  1
  P  P18  1  0.25056400  0.80904100  0.83216700  1
  P  P19  1  0.74943700  0.19095900  0.33216800  1
  P  P20  1  0.74943700  0.19095900  0.16783200  1
  P  P21  1  0.25056400  0.80904100  0.66783200  1
  P  P22  1  0.45220100  0.91288300  0.25000000  1
  P  P23  1  0.54779800  0.08711600  0.75000000  1
  P  P24  1  0.70643600  0.79510700  0.02446000  1
  P  P25  1  0.29356500  0.20489300  0.97554000  1
  P  P26  1  0.70643600  0.79510700  0.47554000  1
  P  P27  1  0.29356500  0.20489300  0.52446000  1
  O  O28  1  0.85168700  0.63032200  0.02262300  1
  O  O29  1  0.14831400  0.36967800  0.52262300  1
  O  O30  1  0.14831400  0.36967800  0.97737700  1
  O  O31  1  0.85168700  0.63032200  0.47737700  1
  O  O32  1  0.59020000  0.82523700  0.97423400  1
  O  O33  1  0.40979900  0.17476300  0.47423400  1
  O  O34  1  0.40979900  0.17476300  0.02576600  1
  O  O35  1  0.59020000  0.82523700  0.52576600  1
  O  O36  1  0.86909000  0.00296700  0.04768900  1
  O  O37  1  0.13090900  0.99703300  0.54768900  1
  O  O38  1  0.13090900  0.99703300  0.95231100  1
  O  O39  1  0.86909000  0.00296700  0.45231100  1
  O  O40  1  0.44951700  0.71270600  0.05745700  1
  O  O41  1  0.55048300  0.28729600  0.55745700  1
  O  O42  1  0.14144700  0.39715700  0.09487900  1
  O  O43  1  0.44951700  0.71270600  0.44254300  1
  O  O44  1  0.83597600  0.20127800  0.75000000  1
  O  O45  1  0.16402300  0.79872100  0.25000000  1
  O  O46  1  0.37009500  0.22667300  0.75000000  1
  O  O47  1  0.62990400  0.77332700  0.25000000  1
  O  O48  1  0.49552700  0.93429600  0.70375800  1
  O  O49  1  0.50447200  0.06570300  0.20375800  1
  O  O50  1  0.50447200  0.06570300  0.29624300  1
  O  O51  1  0.49552700  0.93429600  0.79624200  1
  O  O52  1  0.51441100  0.61402600  0.14736900  1
  O  O53  1  0.48558800  0.38597400  0.64736900  1
  O  O54  1  0.48558800  0.38597400  0.85263100  1
  O  O55  1  0.51441100  0.61402600  0.35263100  1
  O  O56  1  0.07098700  0.94792400  0.66475200  1
  O  O57  1  0.92901200  0.05207600  0.16475200  1
  O  O58  1  0.92901200  0.05207600  0.33524800  1
  O  O59  1  0.07098700  0.94792400  0.83524800  1
  O  O60  1  0.39126800  0.79271000  0.61997200  1
  O  O61  1  0.60873200  0.20729000  0.11997200  1
  O  O62  1  0.60873200  0.20729000  0.38002800  1
  O  O63  1  0.39126800  0.79271000  0.88002800  1
  O  O64  1  0.12313100  0.59976100  0.69374800  1
  O  O65  1  0.87686800  0.40023800  0.19374800  1
  O  O66  1  0.87686800  0.40023800  0.30625200  1
  O  O67  1  0.12313100  0.59976100  0.80625200  1
  O  O68  1  0.15448300  0.76601000  0.12273000  1
  O  O69  1  0.84551600  0.23399000  0.62273000  1
  O  O70  1  0.84551600  0.23399000  0.87727000  1
  O  O71  1  0.15448300  0.76601000  0.37727000  1
  O  O72  1  0.14144700  0.39715700  0.40512100  1
  O  O73  1  0.85855200  0.60284300  0.90512100  1
  O  O74  1  0.85855200  0.60284300  0.59487900  1
  O  O75  1  0.55048300  0.28729600  0.94254300  1
