# generated using pymatgen
data_EuTmCuS3
_symmetry_space_group_name_H-M   'P 1'
_cell_length_a   6.69374767
_cell_length_b   6.69374767
_cell_length_c   10.07571100
_cell_angle_alpha   90.00000000
_cell_angle_beta   90.00000000
_cell_angle_gamma   146.28043564
_symmetry_Int_Tables_number   1
_chemical_formula_structural   EuTmCuS3
_chemical_formula_sum   'Eu2 Tm2 Cu2 S6'
_cell_volume   250.61547333
_cell_formula_units_Z   2
loop_
 _symmetry_equiv_pos_site_id
 _symmetry_equiv_pos_as_xyz
  1  'x, y, z'
loop_
 _atom_site_type_symbol
 _atom_site_label
 _atom_site_symmetry_multiplicity
 _atom_site_fract_x
 _atom_site_fract_y
 _atom_site_fract_z
 _atom_site_occupancy
  Eu  Eu0  1  0.75105600  0.24894400  0.25000000  1
  Eu  Eu1  1  0.24894400  0.75105600  0.75000000  1
  Tm  Tm2  1  0.00000000  0.00000000  0.50000000  1
  Tm  Tm3  1  0.00000000  0.00000000  0.00000000  1
  Cu  Cu4  1  0.52584000  0.47416000  0.75000000  1
  Cu  Cu5  1  0.47416000  0.52584000  0.25000000  1
  S  S6  1  0.07964200  0.92035800  0.25000000  1
  S  S7  1  0.92035800  0.07964200  0.75000000  1
  S  S8  1  0.63782300  0.36217700  0.56831700  1
  S  S9  1  0.63782300  0.36217700  0.93168300  1
  S  S10  1  0.36217700  0.63782300  0.06831700  1
  S  S11  1  0.36217700  0.63782300  0.43168300  1
