# generated using pymatgen
data_Eu4Sb2O
_symmetry_space_group_name_H-M   'P 1'
_cell_length_a   9.11854506
_cell_length_b   9.11854506
_cell_length_c   9.11854506
_cell_angle_alpha   149.06962322
_cell_angle_beta   149.06962322
_cell_angle_gamma   44.30883440
_symmetry_Int_Tables_number   1
_chemical_formula_structural   Eu4Sb2O
_chemical_formula_sum   'Eu4 Sb2 O1'
_cell_volume   199.71938205
_cell_formula_units_Z   1
loop_
 _symmetry_equiv_pos_site_id
 _symmetry_equiv_pos_as_xyz
  1  'x, y, z'
loop_
 _atom_site_type_symbol
 _atom_site_label
 _atom_site_symmetry_multiplicity
 _atom_site_fract_x
 _atom_site_fract_y
 _atom_site_fract_z
 _atom_site_occupancy
  Eu  Eu0  1  0.00000000  0.50000000  0.50000000  1
  Eu  Eu1  1  0.50000000  0.00000000  0.50000000  1
  Eu  Eu2  1  0.83167300  0.83167300  0.00000000  1
  Eu  Eu3  1  0.16832700  0.16832700  0.00000000  1
  Sb  Sb4  1  0.63762900  0.63762900  0.00000000  1
  Sb  Sb5  1  0.36237100  0.36237100  0.00000000  1
  O  O6  1  0.00000000  0.00000000  0.00000000  1
