# generated using pymatgen
data_ZnMoO4
_symmetry_space_group_name_H-M   'P 1'
_cell_length_a   7.08166400
_cell_length_b   8.49947549
_cell_length_c   9.90707539
_cell_angle_alpha   97.06556775
_cell_angle_beta   106.78912138
_cell_angle_gamma   101.82898611
_symmetry_Int_Tables_number   1
_chemical_formula_structural   ZnMoO4
_chemical_formula_sum   'Zn6 Mo6 O24'
_cell_volume   548.10280349
_cell_formula_units_Z   6
loop_
 _symmetry_equiv_pos_site_id
 _symmetry_equiv_pos_as_xyz
  1  'x, y, z'
loop_
 _atom_site_type_symbol
 _atom_site_label
 _atom_site_symmetry_multiplicity
 _atom_site_fract_x
 _atom_site_fract_y
 _atom_site_fract_z
 _atom_site_occupancy
  Zn  Zn0  1  0.25228800  0.69361100  0.91022500  1
  Zn  Zn1  1  0.74771200  0.30638900  0.08977500  1
  Zn  Zn2  1  0.53372700  0.69881000  0.48548100  1
  Zn  Zn3  1  0.46627300  0.30119000  0.51451900  1
  Zn  Zn4  1  0.96792300  0.88409300  0.71252200  1
  Zn  Zn5  1  0.03207700  0.11590700  0.28747800  1
  Mo  Mo6  1  0.50470000  0.98687900  0.75659600  1
  Mo  Mo7  1  0.49530000  0.01312100  0.24340400  1
  Mo  Mo8  1  0.69924600  0.60213100  0.83880200  1
  Mo  Mo9  1  0.30075400  0.39786900  0.16119800  1
  Mo  Mo10  1  0.97877400  0.70756900  0.37418400  1
  Mo  Mo11  1  0.02122600  0.29243100  0.62581600  1
  O  O12  1  0.26404400  0.86667500  0.76559000  1
  O  O13  1  0.73595600  0.13332500  0.23441000  1
  O  O14  1  0.55584200  0.70965900  0.91981500  1
  O  O15  1  0.44415800  0.29034100  0.08018500  1
  O  O16  1  0.55517100  0.51783100  0.64999700  1
  O  O17  1  0.44482900  0.48216900  0.35000300  1
  O  O18  1  0.55267000  0.87032700  0.35405500  1
  O  O19  1  0.44733000  0.12967300  0.64594500  1
  O  O20  1  0.66109800  0.09745200  0.92790700  1
  O  O21  1  0.33890200  0.90254800  0.07209300  1
  O  O22  1  0.64806100  0.85979100  0.68113400  1
  O  O23  1  0.35193900  0.14020900  0.31886600  1
  O  O24  1  0.02201200  0.12112200  0.71555700  1
  O  O25  1  0.97798800  0.87887800  0.28444300  1
  O  O26  1  0.04871500  0.26799500  0.14393800  1
  O  O27  1  0.95128500  0.73200500  0.85606200  1
  O  O28  1  0.14845200  0.47793800  0.75320100  1
  O  O29  1  0.85154800  0.52206200  0.24679900  1
  O  O30  1  0.14300800  0.26806800  0.48560900  1
  O  O31  1  0.85699200  0.73193200  0.51439100  1
  O  O32  1  0.25499500  0.55976400  0.07133500  1
  O  O33  1  0.74500500  0.44023600  0.92866500  1
  O  O34  1  0.23611100  0.70773600  0.46108100  1
  O  O35  1  0.76388900  0.29226400  0.53891900  1
