# generated using pymatgen
data_K8Zr6MnBr20
_symmetry_space_group_name_H-M   'P 1'
_cell_length_a   11.87468459
_cell_length_b   11.87468459
_cell_length_c   11.87468459
_cell_angle_alpha   60.00000000
_cell_angle_beta   60.00000000
_cell_angle_gamma   60.00000000
_symmetry_Int_Tables_number   1
_chemical_formula_structural   K8Zr6MnBr20
_chemical_formula_sum   'K8 Zr6 Mn1 Br20'
_cell_volume   1183.99877001
_cell_formula_units_Z   1
loop_
 _symmetry_equiv_pos_site_id
 _symmetry_equiv_pos_as_xyz
  1  'x, y, z'
loop_
 _atom_site_type_symbol
 _atom_site_label
 _atom_site_symmetry_multiplicity
 _atom_site_fract_x
 _atom_site_fract_y
 _atom_site_fract_z
 _atom_site_occupancy
  K  K0  1  0.36028200  0.36028200  0.36028200  1
  K  K1  1  0.63971800  0.63971800  0.63971800  1
  K  K2  1  0.36028200  0.36028200  0.91915300  1
  K  K3  1  0.36028200  0.91915300  0.36028200  1
  K  K4  1  0.63971800  0.63971800  0.08084700  1
  K  K5  1  0.63971800  0.08084700  0.63971800  1
  K  K6  1  0.91915300  0.36028200  0.36028200  1
  K  K7  1  0.08084700  0.63971800  0.63971800  1
  Zr  Zr8  1  0.85523700  0.14476300  0.14476300  1
  Zr  Zr9  1  0.14476300  0.85523700  0.85523700  1
  Zr  Zr10  1  0.14476300  0.85523700  0.14476300  1
  Zr  Zr11  1  0.85523700  0.14476300  0.85523700  1
  Zr  Zr12  1  0.14476300  0.14476300  0.85523700  1
  Zr  Zr13  1  0.85523700  0.85523700  0.14476300  1
  Mn  Mn14  1  0.00000000  0.00000000  0.00000000  1
  Br  Br15  1  0.32880100  0.00000000  0.00000000  1
  Br  Br16  1  0.67119900  0.00000000  0.00000000  1
  Br  Br17  1  0.00000000  0.32880100  0.67119900  1
  Br  Br18  1  0.00000000  0.67119900  0.32880100  1
  Br  Br19  1  0.00000000  0.32880100  0.00000000  1
  Br  Br20  1  0.67119900  0.00000000  0.32880100  1
  Br  Br21  1  0.00000000  0.67119900  0.00000000  1
  Br  Br22  1  0.32880100  0.00000000  0.67119900  1
  Br  Br23  1  0.00000000  0.00000000  0.32880100  1
  Br  Br24  1  0.00000000  0.00000000  0.67119900  1
  Br  Br25  1  0.67119900  0.32880100  0.00000000  1
  Br  Br26  1  0.32880100  0.67119900  0.00000000  1
  Br  Br27  1  0.68251700  0.31748300  0.31748300  1
  Br  Br28  1  0.31748300  0.68251700  0.68251700  1
  Br  Br29  1  0.31748300  0.68251700  0.31748300  1
  Br  Br30  1  0.68251700  0.31748300  0.68251700  1
  Br  Br31  1  0.31748300  0.31748300  0.68251700  1
  Br  Br32  1  0.68251700  0.68251700  0.31748300  1
  Br  Br33  1  0.25000000  0.25000000  0.25000000  1
  Br  Br34  1  0.75000000  0.75000000  0.75000000  1
