# generated using pymatgen
data_Ba3AlO4
_symmetry_space_group_name_H-M   'P 1'
_cell_length_a   10.64628900
_cell_length_b   8.28274600
_cell_length_c   7.35627600
_cell_angle_alpha   90.00000000
_cell_angle_beta   90.00000000
_cell_angle_gamma   90.00000000
_symmetry_Int_Tables_number   1
_chemical_formula_structural   Ba3AlO4
_chemical_formula_sum   'Ba12 Al4 O16'
_cell_volume   648.68015194
_cell_formula_units_Z   4
loop_
 _symmetry_equiv_pos_site_id
 _symmetry_equiv_pos_as_xyz
  1  'x, y, z'
loop_
 _atom_site_type_symbol
 _atom_site_label
 _atom_site_symmetry_multiplicity
 _atom_site_fract_x
 _atom_site_fract_y
 _atom_site_fract_z
 _atom_site_occupancy
  Ba  Ba0  1  0.33597100  0.52624800  0.89776200  1
  Ba  Ba1  1  0.83597100  0.97375200  0.60223800  1
  Ba  Ba2  1  0.66402900  0.02624800  0.10223800  1
  Ba  Ba3  1  0.16402900  0.47375200  0.39776200  1
  Ba  Ba4  1  0.66402900  0.47375200  0.10223800  1
  Ba  Ba5  1  0.16402900  0.02624800  0.39776200  1
  Ba  Ba6  1  0.33597100  0.97375200  0.89776200  1
  Ba  Ba7  1  0.83597100  0.52624800  0.60223800  1
  Ba  Ba8  1  0.46293400  0.75000000  0.40436500  1
  Ba  Ba9  1  0.96293400  0.75000000  0.09563500  1
  Ba  Ba10  1  0.53706600  0.25000000  0.59563500  1
  Ba  Ba11  1  0.03706600  0.25000000  0.90436500  1
  Al  Al12  1  0.10386600  0.75000000  0.68894700  1
  Al  Al13  1  0.60386600  0.75000000  0.81105300  1
  Al  Al14  1  0.89613400  0.25000000  0.31105300  1
  Al  Al15  1  0.39613400  0.25000000  0.18894700  1
  O  O16  1  0.07208400  0.56620300  0.80450100  1
  O  O17  1  0.57208300  0.93379700  0.69549900  1
  O  O18  1  0.92791700  0.06620300  0.19549900  1
  O  O19  1  0.42791600  0.43379700  0.30450100  1
  O  O20  1  0.92791700  0.43379700  0.19549900  1
  O  O21  1  0.42791600  0.06620300  0.30450100  1
  O  O22  1  0.07208400  0.93379700  0.80450100  1
  O  O23  1  0.57208300  0.56620300  0.69549900  1
  O  O24  1  0.01230900  0.75000000  0.48297400  1
  O  O25  1  0.51230900  0.75000000  0.01702600  1
  O  O26  1  0.98769100  0.25000000  0.51702600  1
  O  O27  1  0.48769100  0.25000000  0.98297400  1
  O  O28  1  0.26711200  0.75000000  0.62778100  1
  O  O29  1  0.76711200  0.75000000  0.87221900  1
  O  O30  1  0.73288800  0.25000000  0.37221900  1
  O  O31  1  0.23288800  0.25000000  0.12778100  1
