# generated using pymatgen
data_Mg149Zr
_symmetry_space_group_name_H-M   'P 1'
_cell_length_a   15.91981210
_cell_length_b   15.91981888
_cell_length_c   15.59844037
_cell_angle_alpha   90.00000000
_cell_angle_beta   90.00000000
_cell_angle_gamma   120.00000962
_symmetry_Int_Tables_number   1
_chemical_formula_structural   Mg149Zr
_chemical_formula_sum   'Mg149 Zr1'
_cell_volume   3423.63790909
_cell_formula_units_Z   1
loop_
 _symmetry_equiv_pos_site_id
 _symmetry_equiv_pos_as_xyz
  1  'x, y, z'
loop_
 _atom_site_type_symbol
 _atom_site_label
 _atom_site_symmetry_multiplicity
 _atom_site_fract_x
 _atom_site_fract_y
 _atom_site_fract_z
 _atom_site_occupancy
  Mg  Mg0  1  0.60140500  0.00014375  -0.00000000  1
  Mg  Mg1  1  0.39873974  0.00014475  -0.00000000  1
  Mg  Mg2  1  0.19729764  0.19882558  -0.00000000  1
  Mg  Mg3  1  0.00152893  0.19882558  -0.00000000  1
  Mg  Mg4  1  0.59978966  0.19958033  -0.00000000  1
  Mg  Mg5  1  0.79963619  0.20036381  -0.00000000  1
  Mg  Mg6  1  0.40072762  0.20036381  -0.00000000  1
  Mg  Mg7  1  0.99985525  0.39859500  -0.00000000  1
  Mg  Mg8  1  0.39873974  0.39859500  -0.00000000  1
  Mg  Mg9  1  0.59978966  0.40020934  -0.00000000  1
  Mg  Mg10  1  0.80041967  0.40020934  -0.00000000  1
  Mg  Mg11  1  0.20055960  0.40111919  -0.00000000  1
  Mg  Mg12  1  0.79963619  0.59927238  -0.00000000  1
  Mg  Mg13  1  0.19998744  0.59999372  -0.00000000  1
  Mg  Mg14  1  0.40000628  0.59999372  -0.00000000  1
  Mg  Mg15  1  0.60140500  0.60126126  -0.00000000  1
  Mg  Mg16  1  0.99985525  0.60126126  -0.00000000  1
  Mg  Mg17  1  0.59888181  0.79944040  -0.00000000  1
  Mg  Mg18  1  0.20055960  0.79944040  -0.00000000  1
  Mg  Mg19  1  0.40000628  0.80001256  -0.00000000  1
  Mg  Mg20  1  0.00152893  0.80270336  -0.00000000  1
  Mg  Mg21  1  0.80117442  0.80270336  -0.00000000  1
  Mg  Mg22  1  0.19729764  0.99847107  -0.00000000  1
  Mg  Mg23  1  0.80117442  0.99847107  -0.00000000  1
  Mg  Mg24  1  0.06605886  0.13211871  0.16465624  1
  Mg  Mg25  1  0.06605886  0.93394014  0.16465624  1
  Mg  Mg26  1  0.86788129  0.93394014  0.16465624  1
  Mg  Mg27  1  0.26532488  0.13266244  0.16523936  1
  Mg  Mg28  1  0.86733756  0.13266244  0.16523936  1
  Mg  Mg29  1  0.86733756  0.73467512  0.16523936  1
  Mg  Mg30  1  0.66666700  0.33333300  0.16620722  1
  Mg  Mg31  1  0.46587664  0.13307827  0.16662423  1
  Mg  Mg32  1  0.66720163  0.13307827  0.16662423  1
  Mg  Mg33  1  0.86692173  0.33279837  0.16662423  1
  Mg  Mg34  1  0.46587664  0.33279837  0.16662423  1
  Mg  Mg35  1  0.86692173  0.53412336  0.16662423  1
  Mg  Mg36  1  0.66720163  0.53412336  0.16662423  1
  Mg  Mg37  1  0.06667582  0.53333791  0.16674174  1
  Mg  Mg38  1  0.46666209  0.53333791  0.16674174  1
  Mg  Mg39  1  0.46666209  0.93332418  0.16674174  1
  Mg  Mg40  1  0.26677516  0.33439277  0.16703514  1
  Mg  Mg41  1  0.06761761  0.33439277  0.16703514  1
  Mg  Mg42  1  0.06761761  0.73322484  0.16703514  1
  Mg  Mg43  1  0.66560723  0.73322484  0.16703514  1
  Mg  Mg44  1  0.66560723  0.93238239  0.16703514  1
  Mg  Mg45  1  0.26677516  0.93238339  0.16703514  1
  Mg  Mg46  1  0.26694253  0.53388506  0.16708051  1
  Mg  Mg47  1  0.46611494  0.73305747  0.16708051  1
  Mg  Mg48  1  0.26694253  0.73305747  0.16708051  1
  Mg  Mg49  1  0.80005914  0.99982312  0.33224487  1
  Mg  Mg50  1  0.19976399  0.99982412  0.33224487  1
  Mg  Mg51  1  0.19976399  0.19994086  0.33224487  1
  Mg  Mg52  1  0.00017688  0.19994086  0.33224487  1
  Mg  Mg53  1  0.00017688  0.80023601  0.33224487  1
  Mg  Mg54  1  0.80005914  0.80023601  0.33224487  1
  Mg  Mg55  1  0.59996926  0.19993953  0.33301390  1
  Mg  Mg56  1  0.59996926  0.40002974  0.33301390  1
  Mg  Mg57  1  0.80006147  0.40003074  0.33301390  1
  Mg  Mg58  1  0.80006713  0.19993287  0.33318854  1
  Mg  Mg59  1  0.39986574  0.19993287  0.33318854  1
  Mg  Mg60  1  0.80006713  0.60013426  0.33318854  1
  Mg  Mg61  1  0.40003242  0.00009271  0.33332173  1
  Mg  Mg62  1  0.60006029  0.00009271  0.33332173  1
  Mg  Mg63  1  0.99990729  0.39993871  0.33332173  1
  Mg  Mg64  1  0.40003242  0.39993971  0.33332173  1
  Mg  Mg65  1  0.60006029  0.59996758  0.33332173  1
  Mg  Mg66  1  0.99990729  0.59996858  0.33332173  1
  Mg  Mg67  1  0.19990133  0.59995067  0.33374359  1
  Mg  Mg68  1  0.40004933  0.59995067  0.33374359  1
  Mg  Mg69  1  0.40004933  0.80009867  0.33374359  1
  Mg  Mg70  1  0.20025799  0.40051598  0.33395631  1
  Mg  Mg71  1  0.59948502  0.79974201  0.33395631  1
  Mg  Mg72  1  0.20025799  0.79974201  0.33395631  1
  Mg  Mg73  1  -0.00000000  0.00000000  0.33421719  1
  Mg  Mg74  1  0.26648720  0.13324410  0.50000000  1
  Mg  Mg75  1  0.86675590  0.13324410  0.50000000  1
  Mg  Mg76  1  0.06674344  0.13348689  0.50000000  1
  Mg  Mg77  1  0.46699312  0.13419971  0.50000000  1
  Mg  Mg78  1  0.66720659  0.13419971  0.50000000  1
  Mg  Mg79  1  0.46699312  0.33279341  0.50000000  1
  Mg  Mg80  1  0.86580029  0.33279341  0.50000000  1
  Mg  Mg81  1  0.06651473  0.33308606  0.50000000  1
  Mg  Mg82  1  0.26657133  0.33308606  0.50000000  1
  Mg  Mg83  1  0.66666700  0.33333300  0.50000000  1
  Mg  Mg84  1  0.86580029  0.53300688  0.50000000  1
  Mg  Mg85  1  0.66720659  0.53300688  0.50000000  1
  Mg  Mg86  1  0.06577562  0.53288781  0.50000000  1
  Mg  Mg87  1  0.46711219  0.53288781  0.50000000  1
  Mg  Mg88  1  0.26653875  0.53307850  0.50000000  1
  Mg  Mg89  1  0.66691494  0.73342867  0.50000000  1
  Mg  Mg90  1  0.06651473  0.73342867  0.50000000  1
  Mg  Mg91  1  0.46692150  0.73346025  0.50000000  1
  Mg  Mg92  1  0.26653875  0.73346125  0.50000000  1
  Mg  Mg93  1  0.86675590  0.73351280  0.50000000  1
  Mg  Mg94  1  0.86651211  0.93325556  0.50000000  1
  Mg  Mg95  1  0.06674344  0.93325656  0.50000000  1
  Mg  Mg96  1  0.26657133  0.93348527  0.50000000  1
  Mg  Mg97  1  0.66691494  0.93348627  0.50000000  1
  Mg  Mg98  1  0.46711219  0.93422438  0.50000000  1
  Mg  Mg99  1  -0.00000000  0.00000000  0.66578281  1
  Mg  Mg100  1  0.20025799  0.40051598  0.66604369  1
  Mg  Mg101  1  0.59948502  0.79974201  0.66604369  1
  Mg  Mg102  1  0.20025799  0.79974201  0.66604369  1
  Mg  Mg103  1  0.19990133  0.59995067  0.66625641  1
  Mg  Mg104  1  0.40004933  0.59995067  0.66625641  1
  Mg  Mg105  1  0.40004933  0.80009867  0.66625641  1
  Mg  Mg106  1  0.40003242  0.00009271  0.66667827  1
  Mg  Mg107  1  0.60006029  0.00009271  0.66667827  1
  Mg  Mg108  1  0.99990729  0.39993871  0.66667827  1
  Mg  Mg109  1  0.40003242  0.39993971  0.66667827  1
  Mg  Mg110  1  0.60006029  0.59996758  0.66667827  1
  Mg  Mg111  1  0.99990729  0.59996858  0.66667827  1
  Mg  Mg112  1  0.80006713  0.19993287  0.66681146  1
  Mg  Mg113  1  0.39986574  0.19993287  0.66681146  1
  Mg  Mg114  1  0.80006713  0.60013426  0.66681146  1
  Mg  Mg115  1  0.59996926  0.19993953  0.66698610  1
  Mg  Mg116  1  0.59996926  0.40002974  0.66698610  1
  Mg  Mg117  1  0.80006147  0.40003074  0.66698610  1
  Mg  Mg118  1  0.80005914  0.99982312  0.66775513  1
  Mg  Mg119  1  0.19976399  0.99982412  0.66775513  1
  Mg  Mg120  1  0.19976399  0.19994086  0.66775513  1
  Mg  Mg121  1  0.00017688  0.19994086  0.66775513  1
  Mg  Mg122  1  0.00017688  0.80023601  0.66775513  1
  Mg  Mg123  1  0.80005914  0.80023601  0.66775513  1
  Mg  Mg124  1  0.26694253  0.53388506  0.83291949  1
  Mg  Mg125  1  0.46611494  0.73305747  0.83291949  1
  Mg  Mg126  1  0.26694253  0.73305747  0.83291949  1
  Mg  Mg127  1  0.26677516  0.33439277  0.83296386  1
  Mg  Mg128  1  0.06761761  0.33439277  0.83296386  1
  Mg  Mg129  1  0.06761761  0.73322484  0.83296386  1
  Mg  Mg130  1  0.66560723  0.73322484  0.83296386  1
  Mg  Mg131  1  0.66560723  0.93238239  0.83296386  1
  Mg  Mg132  1  0.26677516  0.93238339  0.83296386  1
  Mg  Mg133  1  0.06667582  0.53333791  0.83325826  1
  Mg  Mg134  1  0.46666209  0.53333791  0.83325826  1
  Mg  Mg135  1  0.46666209  0.93332418  0.83325826  1
  Mg  Mg136  1  0.46587664  0.13307827  0.83337577  1
  Mg  Mg137  1  0.66720163  0.13307827  0.83337577  1
  Mg  Mg138  1  0.86692173  0.33279837  0.83337577  1
  Mg  Mg139  1  0.46587664  0.33279837  0.83337577  1
  Mg  Mg140  1  0.86692173  0.53412336  0.83337577  1
  Mg  Mg141  1  0.66720163  0.53412336  0.83337577  1
  Mg  Mg142  1  0.66666700  0.33333300  0.83379278  1
  Mg  Mg143  1  0.26532488  0.13266244  0.83476064  1
  Mg  Mg144  1  0.86733756  0.13266244  0.83476064  1
  Mg  Mg145  1  0.86733756  0.73467512  0.83476064  1
  Mg  Mg146  1  0.06605886  0.13211871  0.83534376  1
  Mg  Mg147  1  0.06605886  0.93394014  0.83534376  1
  Mg  Mg148  1  0.86788129  0.93394014  0.83534376  1
  Zr  Zr149  1  -0.00000000  0.00000000  -0.00000000  1
