# generated using pymatgen
data_CaTe3O8
_symmetry_space_group_name_H-M   'P 1'
_cell_length_a   6.93082549
_cell_length_b   6.93082549
_cell_length_c   10.23907374
_cell_angle_alpha   66.13475299
_cell_angle_beta   66.13475299
_cell_angle_gamma   49.50670752
_symmetry_Int_Tables_number   1
_chemical_formula_structural   CaTe3O8
_chemical_formula_sum   'Ca2 Te6 O16'
_cell_volume   334.86828016
_cell_formula_units_Z   2
loop_
 _symmetry_equiv_pos_site_id
 _symmetry_equiv_pos_as_xyz
  1  'x, y, z'
loop_
 _atom_site_type_symbol
 _atom_site_label
 _atom_site_symmetry_multiplicity
 _atom_site_fract_x
 _atom_site_fract_y
 _atom_site_fract_z
 _atom_site_occupancy
  Ca  Ca0  1  0.43186600  0.56813400  0.25000000  1
  Ca  Ca1  1  0.56813400  0.43186600  0.75000000  1
  Te  Te2  1  0.00000000  0.00000000  0.50000000  1
  Te  Te3  1  0.00000000  0.00000000  0.00000000  1
  Te  Te4  1  0.30911200  0.12553700  0.64164400  1
  Te  Te5  1  0.87446300  0.69088800  0.85835600  1
  Te  Te6  1  0.69088800  0.87446300  0.35835600  1
  Te  Te7  1  0.12553700  0.30911200  0.14164400  1
  O  O8  1  0.78754700  0.57360200  0.08987900  1
  O  O9  1  0.42639800  0.21245300  0.41012100  1
  O  O10  1  0.21245300  0.42639800  0.91012100  1
  O  O11  1  0.57360200  0.78754700  0.58987900  1
  O  O12  1  0.19492400  0.01294000  0.09293600  1
  O  O13  1  0.98706000  0.80507600  0.40706400  1
  O  O14  1  0.80507600  0.98706000  0.90706400  1
  O  O15  1  0.01294000  0.19492400  0.59293600  1
  O  O16  1  0.85863400  0.30577000  0.34143000  1
  O  O17  1  0.69423000  0.14136600  0.15857000  1
  O  O18  1  0.14136600  0.69423000  0.65857000  1
  O  O19  1  0.30577000  0.85863400  0.84143000  1
  O  O20  1  0.86748800  0.34061400  0.87641300  1
  O  O21  1  0.65938600  0.13251200  0.62358700  1
  O  O22  1  0.13251200  0.65938600  0.12358700  1
  O  O23  1  0.34061400  0.86748800  0.37641300  1
