# generated using pymatgen
data_La4CdNi
_symmetry_space_group_name_H-M   'P 1'
_cell_length_a   10.05989928
_cell_length_b   10.05989928
_cell_length_c   10.05989928
_cell_angle_alpha   60.00000000
_cell_angle_beta   60.00000000
_cell_angle_gamma   60.00000000
_symmetry_Int_Tables_number   1
_chemical_formula_structural   La4CdNi
_chemical_formula_sum   'La16 Cd4 Ni4'
_cell_volume   719.88960095
_cell_formula_units_Z   4
loop_
 _symmetry_equiv_pos_site_id
 _symmetry_equiv_pos_as_xyz
  1  'x, y, z'
loop_
 _atom_site_type_symbol
 _atom_site_label
 _atom_site_symmetry_multiplicity
 _atom_site_fract_x
 _atom_site_fract_y
 _atom_site_fract_z
 _atom_site_occupancy
  La  La0  1  0.59654100  0.59654100  0.59654100  1
  La  La1  1  0.59654100  0.59654100  0.21037800  1
  La  La2  1  0.59654100  0.21037800  0.59654100  1
  La  La3  1  0.21037800  0.59654100  0.59654100  1
  La  La4  1  0.05987700  0.44012300  0.44012300  1
  La  La5  1  0.44012300  0.05987700  0.05987700  1
  La  La6  1  0.44012300  0.05987700  0.44012300  1
  La  La7  1  0.05987700  0.44012300  0.05987700  1
  La  La8  1  0.44012300  0.44012300  0.05987700  1
  La  La9  1  0.05987700  0.05987700  0.44012300  1
  La  La10  1  0.18676500  0.81323500  0.81323500  1
  La  La11  1  0.81323500  0.18676500  0.18676500  1
  La  La12  1  0.81323500  0.18676500  0.81323500  1
  La  La13  1  0.18676500  0.81323500  0.18676500  1
  La  La14  1  0.81323500  0.81323500  0.18676500  1
  La  La15  1  0.18676500  0.18676500  0.81323500  1
  Cd  Cd16  1  0.82922000  0.82922000  0.82922000  1
  Cd  Cd17  1  0.82922000  0.82922000  0.51234100  1
  Cd  Cd18  1  0.82922000  0.51234100  0.82922000  1
  Cd  Cd19  1  0.51234100  0.82922000  0.82922000  1
  Ni  Ni20  1  0.39112000  0.39112000  0.39112000  1
  Ni  Ni21  1  0.39112000  0.39112000  0.82664100  1
  Ni  Ni22  1  0.39112000  0.82664100  0.39112000  1
  Ni  Ni23  1  0.82664100  0.39112000  0.39112000  1
