# generated using pymatgen
data_LuFe5P3
_symmetry_space_group_name_H-M   'P 1'
_cell_length_a   3.63126200
_cell_length_b   10.21477800
_cell_length_c   11.74761700
_cell_angle_alpha   90.00000000
_cell_angle_beta   90.00000000
_cell_angle_gamma   90.00000000
_symmetry_Int_Tables_number   1
_chemical_formula_structural   LuFe5P3
_chemical_formula_sum   'Lu4 Fe20 P12'
_cell_volume   435.74889697
_cell_formula_units_Z   4
loop_
 _symmetry_equiv_pos_site_id
 _symmetry_equiv_pos_as_xyz
  1  'x, y, z'
loop_
 _atom_site_type_symbol
 _atom_site_label
 _atom_site_symmetry_multiplicity
 _atom_site_fract_x
 _atom_site_fract_y
 _atom_site_fract_z
 _atom_site_occupancy
  Lu  Lu0  1  0.25000000  0.58158200  0.70520000  1
  Lu  Lu1  1  0.25000000  0.91841800  0.20520000  1
  Lu  Lu2  1  0.75000000  0.41841800  0.29480000  1
  Lu  Lu3  1  0.75000000  0.08158200  0.79480000  1
  Fe  Fe4  1  0.25000000  0.70758200  0.98744700  1
  Fe  Fe5  1  0.25000000  0.79241800  0.48744700  1
  Fe  Fe6  1  0.75000000  0.29241800  0.01255300  1
  Fe  Fe7  1  0.75000000  0.20758200  0.51255300  1
  Fe  Fe8  1  0.25000000  0.40588900  0.48969800  1
  Fe  Fe9  1  0.25000000  0.09411100  0.98969800  1
  Fe  Fe10  1  0.75000000  0.59411100  0.51030200  1
  Fe  Fe11  1  0.75000000  0.90588900  0.01030200  1
  Fe  Fe12  1  0.25000000  0.21945800  0.17670900  1
  Fe  Fe13  1  0.25000000  0.28054200  0.67670900  1
  Fe  Fe14  1  0.75000000  0.78054200  0.82329100  1
  Fe  Fe15  1  0.75000000  0.71945800  0.32329100  1
  Fe  Fe16  1  0.25000000  0.87745300  0.69995000  1
  Fe  Fe17  1  0.25000000  0.62254700  0.19995000  1
  Fe  Fe18  1  0.75000000  0.12254700  0.30005000  1
  Fe  Fe19  1  0.75000000  0.37745300  0.80005000  1
  Fe  Fe20  1  0.25000000  0.46330200  0.93292500  1
  Fe  Fe21  1  0.25000000  0.03669800  0.43292500  1
  Fe  Fe22  1  0.75000000  0.53669800  0.06707500  1
  Fe  Fe23  1  0.75000000  0.96330200  0.56707500  1
  P  P24  1  0.25000000  0.42107500  0.11376600  1
  P  P25  1  0.25000000  0.07892500  0.61376600  1
  P  P26  1  0.75000000  0.57892500  0.88623400  1
  P  P27  1  0.75000000  0.92107500  0.38623400  1
  P  P28  1  0.25000000  0.26498100  0.87063500  1
  P  P29  1  0.25000000  0.23501900  0.37063500  1
  P  P30  1  0.75000000  0.73501900  0.12936500  1
  P  P31  1  0.75000000  0.76498100  0.62936500  1
  P  P32  1  0.25000000  0.60005200  0.39373100  1
  P  P33  1  0.25000000  0.89994800  0.89373100  1
  P  P34  1  0.75000000  0.39994800  0.60626900  1
  P  P35  1  0.75000000  0.10005200  0.10626900  1
