# generated using pymatgen
data_Na7Al4P9O32
_symmetry_space_group_name_H-M   'P 1'
_cell_length_a   14.22363400
_cell_length_b   14.22363400
_cell_length_c   6.23738300
_cell_angle_alpha   90.00000000
_cell_angle_beta   90.00000000
_cell_angle_gamma   90.00000000
_symmetry_Int_Tables_number   1
_chemical_formula_structural   Na7Al4P9O32
_chemical_formula_sum   'Na14 Al8 P18 O64'
_cell_volume   1261.89595851
_cell_formula_units_Z   2
loop_
 _symmetry_equiv_pos_site_id
 _symmetry_equiv_pos_as_xyz
  1  'x, y, z'
loop_
 _atom_site_type_symbol
 _atom_site_label
 _atom_site_symmetry_multiplicity
 _atom_site_fract_x
 _atom_site_fract_y
 _atom_site_fract_z
 _atom_site_occupancy
  Na  Na0  1  0.92303100  0.25902500  0.59226800  1
  Na  Na1  1  0.57696900  0.75902500  0.90773200  1
  Na  Na2  1  0.07696900  0.74097500  0.59226800  1
  Na  Na3  1  0.42303100  0.24097500  0.90773200  1
  Na  Na4  1  0.74097500  0.92303100  0.40773200  1
  Na  Na5  1  0.24097500  0.57696900  0.09226800  1
  Na  Na6  1  0.25902500  0.07696900  0.40773200  1
  Na  Na7  1  0.75902500  0.42303100  0.09226800  1
  Na  Na8  1  0.00000000  0.50000000  0.81538400  1
  Na  Na9  1  0.50000000  0.00000000  0.68461600  1
  Na  Na10  1  0.50000000  0.00000000  0.18461600  1
  Na  Na11  1  0.00000000  0.50000000  0.31538400  1
  Na  Na12  1  0.00000000  0.00000000  0.50000000  1
  Na  Na13  1  0.50000000  0.50000000  0.00000000  1
  Al  Al14  1  0.82085900  0.12212200  0.13713300  1
  Al  Al15  1  0.67914100  0.62212200  0.36286700  1
  Al  Al16  1  0.17914100  0.87787800  0.13713300  1
  Al  Al17  1  0.32085900  0.37787800  0.36286700  1
  Al  Al18  1  0.87787800  0.82085900  0.86286700  1
  Al  Al19  1  0.37787800  0.67914100  0.63713300  1
  Al  Al20  1  0.12212200  0.17914100  0.86286700  1
  Al  Al21  1  0.62212200  0.32085900  0.63713300  1
  P  P22  1  0.12772200  0.24204200  0.35008100  1
  P  P23  1  0.37227800  0.74204200  0.14991900  1
  P  P24  1  0.87227800  0.75795800  0.35008100  1
  P  P25  1  0.62772200  0.25795800  0.14991900  1
  P  P26  1  0.75795800  0.12772200  0.64991900  1
  P  P27  1  0.25795800  0.37227800  0.85008100  1
  P  P28  1  0.24204200  0.87227800  0.64991900  1
  P  P29  1  0.74204200  0.62772200  0.85008100  1
  P  P30  1  0.96179100  0.29963700  0.10053900  1
  P  P31  1  0.53820900  0.79963700  0.39946100  1
  P  P32  1  0.03820900  0.70036300  0.10053900  1
  P  P33  1  0.46179100  0.20036300  0.39946100  1
  P  P34  1  0.70036300  0.96179100  0.89946100  1
  P  P35  1  0.20036300  0.53820900  0.60053900  1
  P  P36  1  0.29963700  0.03820900  0.89946100  1
  P  P37  1  0.79963700  0.46179100  0.60053900  1
  P  P38  1  0.00000000  0.00000000  0.00000000  1
  P  P39  1  0.50000000  0.50000000  0.50000000  1
  O  O40  1  0.92706600  0.39898300  0.06089700  1
  O  O41  1  0.57293400  0.89898300  0.43910300  1
  O  O42  1  0.07293400  0.60101700  0.06089700  1
  O  O43  1  0.42706600  0.10101700  0.43910300  1
  O  O44  1  0.60101700  0.92706600  0.93910300  1
  O  O45  1  0.10101700  0.57293400  0.56089700  1
  O  O46  1  0.39898300  0.07293400  0.93910300  1
  O  O47  1  0.89898300  0.42706600  0.56089700  1
  O  O48  1  0.04193700  0.31364500  0.28813000  1
  O  O49  1  0.45806300  0.81364500  0.21187000  1
  O  O50  1  0.95806300  0.68635500  0.28813000  1
  O  O51  1  0.54193700  0.18635500  0.21187000  1
  O  O52  1  0.68635500  0.04193700  0.71187000  1
  O  O53  1  0.18635500  0.45806300  0.78813000  1
  O  O54  1  0.31364500  0.95806300  0.71187000  1
  O  O55  1  0.81364500  0.54193700  0.78813000  1
  O  O56  1  0.88750500  0.23599100  0.20402200  1
  O  O57  1  0.61249500  0.73599100  0.29597800  1
  O  O58  1  0.11249500  0.76400900  0.20402200  1
  O  O59  1  0.38750500  0.26400900  0.29597800  1
  O  O60  1  0.76400900  0.88750500  0.79597800  1
  O  O61  1  0.26400900  0.61249500  0.70402200  1
  O  O62  1  0.23599100  0.11249500  0.79597800  1
  O  O63  1  0.73599100  0.38750500  0.70402200  1
  O  O64  1  0.01090300  0.25596700  0.90658800  1
  O  O65  1  0.48909700  0.75596700  0.59341200  1
  O  O66  1  0.98909700  0.74403300  0.90658800  1
  O  O67  1  0.51090300  0.24403300  0.59341200  1
  O  O68  1  0.74403300  0.01090300  0.09341200  1
  O  O69  1  0.24403300  0.48909700  0.40658800  1
  O  O70  1  0.25596700  0.98909700  0.09341200  1
  O  O71  1  0.75596700  0.51090300  0.40658800  1
  O  O72  1  0.21147600  0.30488100  0.37929100  1
  O  O73  1  0.28852400  0.80488100  0.12070900  1
  O  O74  1  0.78852400  0.69511900  0.37929100  1
  O  O75  1  0.71147600  0.19511900  0.12070900  1
  O  O76  1  0.69511900  0.21147600  0.62070900  1
  O  O77  1  0.19511900  0.28852400  0.87929100  1
  O  O78  1  0.30488100  0.78852400  0.62070900  1
  O  O79  1  0.80488100  0.71147600  0.87929100  1
  O  O80  1  0.09646800  0.19281800  0.55715000  1
  O  O81  1  0.40353200  0.69281800  0.94285000  1
  O  O82  1  0.90353200  0.80718200  0.55715000  1
  O  O83  1  0.59646800  0.30718200  0.94285000  1
  O  O84  1  0.80718200  0.09646800  0.44285000  1
  O  O85  1  0.30718200  0.40353200  0.05715000  1
  O  O86  1  0.19281800  0.90353200  0.44285000  1
  O  O87  1  0.69281800  0.59646800  0.05715000  1
  O  O88  1  0.13730000  0.16871400  0.17163600  1
  O  O89  1  0.36270000  0.66871400  0.32836400  1
  O  O90  1  0.86270000  0.83128600  0.17163600  1
  O  O91  1  0.63730000  0.33128600  0.32836400  1
  O  O92  1  0.83128600  0.13730000  0.82836400  1
  O  O93  1  0.33128600  0.36270000  0.67163600  1
  O  O94  1  0.16871400  0.86270000  0.82836400  1
  O  O95  1  0.66871400  0.63730000  0.67163600  1
  O  O96  1  0.93164800  0.05225300  0.15250300  1
  O  O97  1  0.56835200  0.55225300  0.34749700  1
  O  O98  1  0.06835200  0.94774700  0.15250300  1
  O  O99  1  0.43164800  0.44774700  0.34749700  1
  O  O100  1  0.94774700  0.93164800  0.84749700  1
  O  O101  1  0.44774700  0.56835200  0.65250300  1
  O  O102  1  0.05225300  0.06835200  0.84749700  1
  O  O103  1  0.55225300  0.43164800  0.65250300  1
