# generated using pymatgen
data_Ti4CoS8
_symmetry_space_group_name_H-M   'P 1'
_cell_length_a   6.58370593
_cell_length_b   6.58370593
_cell_length_c   8.12348237
_cell_angle_alpha   53.67908925
_cell_angle_beta   53.67908925
_cell_angle_gamma   62.36951045
_symmetry_Int_Tables_number   1
_chemical_formula_structural   Ti4CoS8
_chemical_formula_sum   'Ti4 Co1 S8'
_cell_volume   225.09661393
_cell_formula_units_Z   1
loop_
 _symmetry_equiv_pos_site_id
 _symmetry_equiv_pos_as_xyz
  1  'x, y, z'
loop_
 _atom_site_type_symbol
 _atom_site_label
 _atom_site_symmetry_multiplicity
 _atom_site_fract_x
 _atom_site_fract_y
 _atom_site_fract_z
 _atom_site_occupancy
  Ti  Ti0  1  0.25882800  0.25882800  0.99384500  1
  Ti  Ti1  1  0.74117200  0.74117200  0.00615500  1
  Ti  Ti2  1  0.25744200  0.74255800  0.50000000  1
  Ti  Ti3  1  0.74255800  0.25744200  0.50000000  1
  Co  Co4  1  0.00000000  0.00000000  0.00000000  1
  S  S5  1  0.96052100  0.96052100  0.32796400  1
  S  S6  1  0.03947900  0.03947900  0.67203600  1
  S  S7  1  0.45262400  0.45262400  0.33577300  1
  S  S8  1  0.54737600  0.54737600  0.66422700  1
  S  S9  1  0.04303100  0.55247600  0.16471900  1
  S  S10  1  0.55247600  0.04303100  0.16471900  1
  S  S11  1  0.95696900  0.44752400  0.83528100  1
  S  S12  1  0.44752400  0.95696900  0.83528100  1
