# generated using pymatgen
data_Er5Co19P12
_symmetry_space_group_name_H-M   'P 1'
_cell_length_a   11.96650224
_cell_length_b   11.96650224
_cell_length_c   3.66748500
_cell_angle_alpha   90.00000000
_cell_angle_beta   90.00000000
_cell_angle_gamma   120.00000131
_symmetry_Int_Tables_number   1
_chemical_formula_structural   Er5Co19P12
_chemical_formula_sum   'Er5 Co19 P12'
_cell_volume   454.81358140
_cell_formula_units_Z   1
loop_
 _symmetry_equiv_pos_site_id
 _symmetry_equiv_pos_as_xyz
  1  'x, y, z'
loop_
 _atom_site_type_symbol
 _atom_site_label
 _atom_site_symmetry_multiplicity
 _atom_site_fract_x
 _atom_site_fract_y
 _atom_site_fract_z
 _atom_site_occupancy
  Er  Er0  1  0.33333300  0.66666700  0.00000000  1
  Er  Er1  1  0.66666700  0.33333300  0.00000000  1
  Er  Er2  1  0.00000000  0.18744600  0.50000000  1
  Er  Er3  1  0.81255400  0.81255400  0.50000000  1
  Er  Er4  1  0.18744600  0.00000000  0.50000000  1
  Co  Co5  1  0.62271100  0.82206700  0.00000000  1
  Co  Co6  1  0.17793300  0.80064400  0.00000000  1
  Co  Co7  1  0.19935600  0.37728900  0.00000000  1
  Co  Co8  1  0.37728900  0.19935600  0.00000000  1
  Co  Co9  1  0.82206700  0.62271100  0.00000000  1
  Co  Co10  1  0.80064400  0.17793300  0.00000000  1
  Co  Co11  1  0.00000000  0.55222300  0.00000000  1
  Co  Co12  1  0.44777700  0.44777700  0.00000000  1
  Co  Co13  1  0.55222300  0.00000000  0.00000000  1
  Co  Co14  1  0.51626300  0.64219200  0.50000000  1
  Co  Co15  1  0.35780800  0.87407100  0.50000000  1
  Co  Co16  1  0.12592900  0.48373700  0.50000000  1
  Co  Co17  1  0.48373700  0.12592900  0.50000000  1
  Co  Co18  1  0.64219200  0.51626300  0.50000000  1
  Co  Co19  1  0.87407100  0.35780800  0.50000000  1
  Co  Co20  1  0.00000000  0.71543900  0.50000000  1
  Co  Co21  1  0.28456100  0.28456100  0.50000000  1
  Co  Co22  1  0.71543900  0.00000000  0.50000000  1
  Co  Co23  1  0.00000000  0.00000000  0.00000000  1
  P  P24  1  0.00000000  0.36717200  0.00000000  1
  P  P25  1  0.63282800  0.63282800  0.00000000  1
  P  P26  1  0.36717200  0.00000000  0.00000000  1
  P  P27  1  0.51931600  0.83407700  0.50000000  1
  P  P28  1  0.16592300  0.68523900  0.50000000  1
  P  P29  1  0.31476100  0.48068400  0.50000000  1
  P  P30  1  0.48068400  0.31476100  0.50000000  1
  P  P31  1  0.83407700  0.51931600  0.50000000  1
  P  P32  1  0.68523900  0.16592300  0.50000000  1
  P  P33  1  0.00000000  0.81986500  0.00000000  1
  P  P34  1  0.18013500  0.18013500  0.00000000  1
  P  P35  1  0.81986500  0.00000000  0.00000000  1
