# generated using pymatgen
data_NdSi2Ag
_symmetry_space_group_name_H-M   'P 1'
_cell_length_a   4.23599200
_cell_length_b   4.20863500
_cell_length_c   9.10099686
_cell_angle_alpha   90.00000000
_cell_angle_beta   103.45734034
_cell_angle_gamma   90.00000000
_symmetry_Int_Tables_number   1
_chemical_formula_structural   NdSi2Ag
_chemical_formula_sum   'Nd2 Si4 Ag2'
_cell_volume   157.79541402
_cell_formula_units_Z   2
loop_
 _symmetry_equiv_pos_site_id
 _symmetry_equiv_pos_as_xyz
  1  'x, y, z'
loop_
 _atom_site_type_symbol
 _atom_site_label
 _atom_site_symmetry_multiplicity
 _atom_site_fract_x
 _atom_site_fract_y
 _atom_site_fract_z
 _atom_site_occupancy
  Nd  Nd0  1  0.59613700  0.25000000  0.19227400  1
  Nd  Nd1  1  0.40386300  0.75000000  0.80772600  1
  Si  Si2  1  0.96678100  0.25000000  0.93356300  1
  Si  Si3  1  0.03321900  0.75000000  0.06643700  1
  Si  Si4  1  0.83573700  0.25000000  0.67147500  1
  Si  Si5  1  0.16426300  0.75000000  0.32852500  1
  Ag  Ag6  1  0.25176000  0.25000000  0.50352100  1
  Ag  Ag7  1  0.74824000  0.75000000  0.49647900  1
