# generated using pymatgen
data_NdCoGe2
_symmetry_space_group_name_H-M   'P 1'
_cell_length_a   8.58940867
_cell_length_b   8.58940867
_cell_length_c   4.23531900
_cell_angle_alpha   90.00000000
_cell_angle_beta   90.00000000
_cell_angle_gamma   151.28011575
_symmetry_Int_Tables_number   1
_chemical_formula_structural   NdCoGe2
_chemical_formula_sum   'Nd2 Co2 Ge4'
_cell_volume   150.15204353
_cell_formula_units_Z   2
loop_
 _symmetry_equiv_pos_site_id
 _symmetry_equiv_pos_as_xyz
  1  'x, y, z'
loop_
 _atom_site_type_symbol
 _atom_site_label
 _atom_site_symmetry_multiplicity
 _atom_site_fract_x
 _atom_site_fract_y
 _atom_site_fract_z
 _atom_site_occupancy
  Nd  Nd0  1  0.89250500  0.10749500  0.75000000  1
  Nd  Nd1  1  0.10749500  0.89250500  0.25000000  1
  Co  Co2  1  0.68321900  0.31678100  0.75000000  1
  Co  Co3  1  0.31678100  0.68321900  0.25000000  1
  Ge  Ge4  1  0.54578800  0.45421200  0.75000000  1
  Ge  Ge5  1  0.45421200  0.54578800  0.25000000  1
  Ge  Ge6  1  0.25025700  0.74974300  0.75000000  1
  Ge  Ge7  1  0.74974300  0.25025700  0.25000000  1
