# generated using pymatgen
data_ThRu
_symmetry_space_group_name_H-M   'P 1'
_cell_length_a   6.11766344
_cell_length_b   6.11766344
_cell_length_c   4.00964500
_cell_angle_alpha   90.00000000
_cell_angle_beta   90.00000000
_cell_angle_gamma   142.94072107
_symmetry_Int_Tables_number   1
_chemical_formula_structural   ThRu
_chemical_formula_sum   'Th2 Ru2'
_cell_volume   90.43483378
_cell_formula_units_Z   2
loop_
 _symmetry_equiv_pos_site_id
 _symmetry_equiv_pos_as_xyz
  1  'x, y, z'
loop_
 _atom_site_type_symbol
 _atom_site_label
 _atom_site_symmetry_multiplicity
 _atom_site_fract_x
 _atom_site_fract_y
 _atom_site_fract_z
 _atom_site_occupancy
  Th  Th0  1  0.13729100  0.86270900  0.75000000  1
  Th  Th1  1  0.86270900  0.13729100  0.25000000  1
  Ru  Ru2  1  0.40661300  0.59338700  0.75000000  1
  Ru  Ru3  1  0.59338700  0.40661300  0.25000000  1
