# generated using pymatgen
data_EuV(SeO4)2
_symmetry_space_group_name_H-M   'P 1'
_cell_length_a   7.10712400
_cell_length_b   6.91163200
_cell_length_c   13.78421823
_cell_angle_alpha   88.79502295
_cell_angle_beta   90.00000000
_cell_angle_gamma   90.00000000
_symmetry_Int_Tables_number   1
_chemical_formula_structural   EuV(SeO4)2
_chemical_formula_sum   'Eu4 V4 Se8 O32'
_cell_volume   676.95623022
_cell_formula_units_Z   4
loop_
 _symmetry_equiv_pos_site_id
 _symmetry_equiv_pos_as_xyz
  1  'x, y, z'
loop_
 _atom_site_type_symbol
 _atom_site_label
 _atom_site_symmetry_multiplicity
 _atom_site_fract_x
 _atom_site_fract_y
 _atom_site_fract_z
 _atom_site_occupancy
  Eu  Eu0  1  0.75000000  0.37754100  0.86314800  1
  Eu  Eu1  1  0.25000000  0.62245900  0.13685200  1
  Eu  Eu2  1  0.75000000  0.92488000  0.06944400  1
  Eu  Eu3  1  0.25000000  0.07512000  0.93055600  1
  V  V4  1  0.49163300  0.37390100  0.38702000  1
  V  V5  1  0.99163300  0.62609900  0.61298000  1
  V  V6  1  0.50836700  0.62609900  0.61298000  1
  V  V7  1  0.00836700  0.37390100  0.38702000  1
  Se  Se8  1  0.75000000  0.96803500  0.35228100  1
  Se  Se9  1  0.25000000  0.03196500  0.64771900  1
  Se  Se10  1  0.75000000  0.44925800  0.13842700  1
  Se  Se11  1  0.25000000  0.55074200  0.86157300  1
  Se  Se12  1  0.75000000  0.21034300  0.59171700  1
  Se  Se13  1  0.25000000  0.78965700  0.40828300  1
  Se  Se14  1  0.75000000  0.89585200  0.83982300  1
  Se  Se15  1  0.25000000  0.10414800  0.16017700  1
  O  O16  1  0.55529100  0.09788500  0.39550800  1
  O  O17  1  0.05529100  0.90211500  0.60449200  1
  O  O18  1  0.44470900  0.90211500  0.60449200  1
  O  O19  1  0.94470900  0.09788500  0.39550800  1
  O  O20  1  0.75000000  0.02057400  0.23212400  1
  O  O21  1  0.25000000  0.97942600  0.76787600  1
  O  O22  1  0.92447500  0.61570000  0.10780300  1
  O  O23  1  0.42447500  0.38430000  0.89219700  1
  O  O24  1  0.07552500  0.38430000  0.89219700  1
  O  O25  1  0.57552500  0.61570000  0.10780300  1
  O  O26  1  0.75000000  0.29062300  0.04368200  1
  O  O27  1  0.25000000  0.70937700  0.95631800  1
  O  O28  1  0.94468200  0.36279800  0.56260800  1
  O  O29  1  0.44468200  0.63720200  0.43739200  1
  O  O30  1  0.05531800  0.63720200  0.43739200  1
  O  O31  1  0.55531800  0.36279800  0.56260800  1
  O  O32  1  0.75000000  0.20911800  0.71401800  1
  O  O33  1  0.25000000  0.79088200  0.28598200  1
  O  O34  1  0.42244500  0.97028600  0.10125900  1
  O  O35  1  0.92244500  0.02971400  0.89874100  1
  O  O36  1  0.57755500  0.02971400  0.89874100  1
  O  O37  1  0.07755500  0.97028600  0.10125900  1
  O  O38  1  0.75000000  0.69832200  0.91834000  1
  O  O39  1  0.25000000  0.30167800  0.08166000  1
  O  O40  1  0.55972000  0.58852200  0.72923500  1
  O  O41  1  0.05972000  0.41147800  0.27076500  1
  O  O42  1  0.44028000  0.41147800  0.27076500  1
  O  O43  1  0.94028000  0.58852200  0.72923500  1
  O  O44  1  0.25000000  0.30457600  0.42741300  1
  O  O45  1  0.75000000  0.69542400  0.57258700  1
  O  O46  1  0.75000000  0.42268200  0.38405000  1
  O  O47  1  0.25000000  0.57731800  0.61595000  1
