# generated using pymatgen
data_Na2MgPO4F
_symmetry_space_group_name_H-M   'P 1'
_cell_length_a   5.27898000
_cell_length_b   11.80273400
_cell_length_c   13.87578400
_cell_angle_alpha   90.00000000
_cell_angle_beta   90.00000000
_cell_angle_gamma   90.00000000
_symmetry_Int_Tables_number   1
_chemical_formula_structural   Na2MgPO4F
_chemical_formula_sum   'Na16 Mg8 P8 O32 F8'
_cell_volume   864.55010286
_cell_formula_units_Z   8
loop_
 _symmetry_equiv_pos_site_id
 _symmetry_equiv_pos_as_xyz
  1  'x, y, z'
loop_
 _atom_site_type_symbol
 _atom_site_label
 _atom_site_symmetry_multiplicity
 _atom_site_fract_x
 _atom_site_fract_y
 _atom_site_fract_z
 _atom_site_occupancy
  Na  Na0  1  0.76006900  0.32883700  0.74663100  1
  Na  Na1  1  0.26006900  0.17116300  0.24663100  1
  Na  Na2  1  0.73993100  0.32883700  0.24663100  1
  Na  Na3  1  0.23993100  0.67116300  0.25336900  1
  Na  Na4  1  0.23993100  0.17116300  0.74663100  1
  Na  Na5  1  0.73993100  0.82883700  0.75336900  1
  Na  Na6  1  0.26006900  0.67116300  0.75336900  1
  Na  Na7  1  0.76006900  0.82883700  0.25336900  1
  Na  Na8  1  0.74358400  0.08082100  0.62321500  1
  Na  Na9  1  0.24358400  0.91917900  0.87678500  1
  Na  Na10  1  0.75641600  0.58082100  0.87678500  1
  Na  Na11  1  0.74358400  0.58082100  0.37678500  1
  Na  Na12  1  0.25641600  0.91917900  0.37678500  1
  Na  Na13  1  0.75641600  0.08082100  0.12321500  1
  Na  Na14  1  0.24358400  0.41917900  0.12321500  1
  Na  Na15  1  0.25641600  0.41917900  0.62321500  1
  Mg  Mg16  1  0.72138200  0.32400200  0.51282300  1
  Mg  Mg17  1  0.22138200  0.67599800  0.98717700  1
  Mg  Mg18  1  0.77861800  0.82400200  0.98717700  1
  Mg  Mg19  1  0.27861800  0.17599800  0.51282300  1
  Mg  Mg20  1  0.27861800  0.67599800  0.48717700  1
  Mg  Mg21  1  0.77861800  0.32400200  0.01282300  1
  Mg  Mg22  1  0.22138200  0.17599800  0.01282300  1
  Mg  Mg23  1  0.72138200  0.82400200  0.48717700  1
  P  P24  1  0.79190300  0.08750300  0.38247300  1
  P  P25  1  0.29190300  0.91249700  0.11752700  1
  P  P26  1  0.70809700  0.58750300  0.11752700  1
  P  P27  1  0.20809700  0.41249700  0.38247300  1
  P  P28  1  0.20809700  0.91249700  0.61752700  1
  P  P29  1  0.70809700  0.08750300  0.88247300  1
  P  P30  1  0.29190300  0.41249700  0.88247300  1
  P  P31  1  0.79190300  0.58750300  0.61752700  1
  O  O32  1  0.23428800  0.54141800  0.89135700  1
  O  O33  1  0.21086600  0.36878700  0.78258000  1
  O  O34  1  0.78913400  0.13121300  0.78258000  1
  O  O35  1  0.28913400  0.86878700  0.71742000  1
  O  O36  1  0.28913400  0.36878700  0.28258000  1
  O  O37  1  0.78913400  0.63121300  0.21742000  1
  O  O38  1  0.21086600  0.86878700  0.21742000  1
  O  O39  1  0.71086600  0.13121300  0.28258000  1
  O  O40  1  0.08318600  0.60719800  0.60145600  1
  O  O41  1  0.58318600  0.39280200  0.89854400  1
  O  O42  1  0.41681400  0.10719800  0.89854400  1
  O  O43  1  0.91681400  0.89280200  0.60145600  1
  O  O44  1  0.91681400  0.39280200  0.39854400  1
  O  O45  1  0.41681400  0.60719800  0.10145600  1
  O  O46  1  0.58318600  0.89280200  0.10145600  1
  O  O47  1  0.08318600  0.10719800  0.39854400  1
  O  O48  1  0.73428800  0.45858200  0.60864300  1
  O  O49  1  0.71086600  0.63121300  0.71742000  1
  O  O50  1  0.76571200  0.95858200  0.89135700  1
  O  O51  1  0.64576700  0.15246500  0.46341300  1
  O  O52  1  0.26571200  0.54141800  0.39135700  1
  O  O53  1  0.76571200  0.45858200  0.10864300  1
  O  O54  1  0.23428800  0.04141800  0.10864300  1
  O  O55  1  0.73428800  0.95858200  0.39135700  1
  O  O56  1  0.64576700  0.65246500  0.53658700  1
  O  O57  1  0.14576700  0.34753500  0.96341300  1
  O  O58  1  0.85423300  0.15246500  0.96341300  1
  O  O59  1  0.35423300  0.84753500  0.53658700  1
  O  O60  1  0.35423300  0.34753500  0.46341300  1
  O  O61  1  0.85423300  0.65246500  0.03658700  1
  O  O62  1  0.14576700  0.84753500  0.03658700  1
  O  O63  1  0.26571200  0.04141800  0.60864300  1
  F  F64  1  0.50000000  0.75000000  0.37722400  1
  F  F65  1  0.00000000  0.25000000  0.12277600  1
  F  F66  1  0.50000000  0.25000000  0.62277600  1
  F  F67  1  0.00000000  0.75000000  0.87722400  1
  F  F68  1  0.00000000  0.75000000  0.41187300  1
  F  F69  1  0.50000000  0.25000000  0.08812700  1
  F  F70  1  0.00000000  0.25000000  0.58812700  1
  F  F71  1  0.50000000  0.75000000  0.91187300  1
