# generated using pymatgen
data_CeInCu5
_symmetry_space_group_name_H-M   'P 1'
_cell_length_a   5.05224500
_cell_length_b   8.32259600
_cell_length_c   10.55959500
_cell_angle_alpha   90.00000000
_cell_angle_beta   90.00000000
_cell_angle_gamma   90.00000000
_symmetry_Int_Tables_number   1
_chemical_formula_structural   CeInCu5
_chemical_formula_sum   'Ce4 In4 Cu20'
_cell_volume   444.00767558
_cell_formula_units_Z   4
loop_
 _symmetry_equiv_pos_site_id
 _symmetry_equiv_pos_as_xyz
  1  'x, y, z'
loop_
 _atom_site_type_symbol
 _atom_site_label
 _atom_site_symmetry_multiplicity
 _atom_site_fract_x
 _atom_site_fract_y
 _atom_site_fract_z
 _atom_site_occupancy
  Ce  Ce0  1  0.75000000  0.74399400  0.44064900  1
  Ce  Ce1  1  0.25000000  0.25600600  0.55935100  1
  Ce  Ce2  1  0.25000000  0.75600600  0.94064900  1
  Ce  Ce3  1  0.75000000  0.24399400  0.05935100  1
  In  In4  1  0.75000000  0.86076000  0.13735800  1
  In  In5  1  0.25000000  0.13924000  0.86264200  1
  In  In6  1  0.25000000  0.63924000  0.63735800  1
  In  In7  1  0.75000000  0.36076000  0.36264200  1
  Cu  Cu8  1  0.49993600  0.93309900  0.68824500  1
  Cu  Cu9  1  0.50006400  0.06690100  0.31175500  1
  Cu  Cu10  1  0.50006400  0.56690100  0.18824500  1
  Cu  Cu11  1  0.99993600  0.06690100  0.31175500  1
  Cu  Cu12  1  0.49993600  0.43309900  0.81175500  1
  Cu  Cu13  1  0.00006400  0.93309900  0.68824500  1
  Cu  Cu14  1  0.00006400  0.43309900  0.81175500  1
  Cu  Cu15  1  0.99993600  0.56690100  0.18824500  1
  Cu  Cu16  1  0.75000000  0.58387300  0.98454600  1
  Cu  Cu17  1  0.25000000  0.41612700  0.01545400  1
  Cu  Cu18  1  0.25000000  0.91612700  0.48454600  1
  Cu  Cu19  1  0.75000000  0.08387300  0.51545400  1
  Cu  Cu20  1  0.75000000  0.94103300  0.89428700  1
  Cu  Cu21  1  0.25000000  0.05896700  0.10571300  1
  Cu  Cu22  1  0.25000000  0.55896700  0.39428700  1
  Cu  Cu23  1  0.75000000  0.44103300  0.60571300  1
  Cu  Cu24  1  0.75000000  0.68306500  0.75594800  1
  Cu  Cu25  1  0.25000000  0.31693500  0.24405200  1
  Cu  Cu26  1  0.25000000  0.81693500  0.25594800  1
  Cu  Cu27  1  0.75000000  0.18306500  0.74405200  1
