# generated using pymatgen
data_NdAlPd2
_symmetry_space_group_name_H-M   'P 1'
_cell_length_a   5.89417500
_cell_length_b   7.09280600
_cell_length_c   7.57060700
_cell_angle_alpha   90.00000000
_cell_angle_beta   90.00000000
_cell_angle_gamma   90.00000000
_symmetry_Int_Tables_number   1
_chemical_formula_structural   NdAlPd2
_chemical_formula_sum   'Nd4 Al4 Pd8'
_cell_volume   316.49861171
_cell_formula_units_Z   4
loop_
 _symmetry_equiv_pos_site_id
 _symmetry_equiv_pos_as_xyz
  1  'x, y, z'
loop_
 _atom_site_type_symbol
 _atom_site_label
 _atom_site_symmetry_multiplicity
 _atom_site_fract_x
 _atom_site_fract_y
 _atom_site_fract_z
 _atom_site_occupancy
  Nd  Nd0  1  0.34680900  0.75000000  0.03273600  1
  Nd  Nd1  1  0.15319100  0.75000000  0.53273600  1
  Nd  Nd2  1  0.65319100  0.25000000  0.96726400  1
  Nd  Nd3  1  0.84680900  0.25000000  0.46726400  1
  Al  Al4  1  0.65402200  0.75000000  0.38178100  1
  Al  Al5  1  0.84597800  0.75000000  0.88178100  1
  Al  Al6  1  0.34597800  0.25000000  0.61821900  1
  Al  Al7  1  0.15402200  0.25000000  0.11821900  1
  Pd  Pd8  1  0.91196800  0.55283600  0.17706800  1
  Pd  Pd9  1  0.58803200  0.94716400  0.67706800  1
  Pd  Pd10  1  0.08803200  0.05283600  0.82293200  1
  Pd  Pd11  1  0.41196800  0.44716400  0.32293200  1
  Pd  Pd12  1  0.08803200  0.44716400  0.82293200  1
  Pd  Pd13  1  0.41196800  0.05283600  0.32293200  1
  Pd  Pd14  1  0.91196800  0.94716400  0.17706800  1
  Pd  Pd15  1  0.58803200  0.55283600  0.67706800  1
