# generated using pymatgen
data_Mg3(AlCu2)2
_symmetry_space_group_name_H-M   'P 1'
_cell_length_a   5.09078060
_cell_length_b   5.09078060
_cell_length_c   12.26304055
_cell_angle_alpha   89.69648547
_cell_angle_beta   89.69648547
_cell_angle_gamma   60.05671458
_symmetry_Int_Tables_number   1
_chemical_formula_structural   Mg3(AlCu2)2
_chemical_formula_sum   'Mg6 Al4 Cu8'
_cell_volume   275.38313541
_cell_formula_units_Z   2
loop_
 _symmetry_equiv_pos_site_id
 _symmetry_equiv_pos_as_xyz
  1  'x, y, z'
loop_
 _atom_site_type_symbol
 _atom_site_label
 _atom_site_symmetry_multiplicity
 _atom_site_fract_x
 _atom_site_fract_y
 _atom_site_fract_z
 _atom_site_occupancy
  Mg  Mg0  1  0.16659400  0.16659400  0.54197800  1
  Mg  Mg1  1  0.83263800  0.83263800  0.21202700  1
  Mg  Mg2  1  0.49882100  0.49882100  0.87296300  1
  Mg  Mg3  1  0.83340600  0.83340600  0.45802200  1
  Mg  Mg4  1  0.50117900  0.50117900  0.12703700  1
  Mg  Mg5  1  0.16736200  0.16736200  0.78797300  1
  Al  Al6  1  0.17363300  0.17363300  0.17131000  1
  Al  Al7  1  0.82636700  0.82636700  0.82869000  1
  Al  Al8  1  0.50000000  0.50000000  0.50000000  1
  Al  Al9  1  0.00000000  0.00000000  0.00000000  1
  Cu  Cu10  1  0.66567800  0.66567800  0.66508000  1
  Cu  Cu11  1  0.33432200  0.33432200  0.33492000  1
  Cu  Cu12  1  0.00000000  0.50000000  0.00000000  1
  Cu  Cu13  1  0.66682300  0.16729800  0.66578200  1
  Cu  Cu14  1  0.33317700  0.83270200  0.33421800  1
  Cu  Cu15  1  0.83270200  0.33317700  0.33421800  1
  Cu  Cu16  1  0.50000000  0.00000000  0.00000000  1
  Cu  Cu17  1  0.16729800  0.66682300  0.66578200  1
