# generated using pymatgen
data_Y5Sn4
_symmetry_space_group_name_H-M   'P 1'
_cell_length_a   8.04322400
_cell_length_b   8.16916500
_cell_length_c   15.58103700
_cell_angle_alpha   90.00000000
_cell_angle_beta   90.00000000
_cell_angle_gamma   90.00000000
_symmetry_Int_Tables_number   1
_chemical_formula_structural   Y5Sn4
_chemical_formula_sum   'Y20 Sn16'
_cell_volume   1023.77422329
_cell_formula_units_Z   4
loop_
 _symmetry_equiv_pos_site_id
 _symmetry_equiv_pos_as_xyz
  1  'x, y, z'
loop_
 _atom_site_type_symbol
 _atom_site_label
 _atom_site_symmetry_multiplicity
 _atom_site_fract_x
 _atom_site_fract_y
 _atom_site_fract_z
 _atom_site_occupancy
  Y  Y0  1  0.36686800  0.83589600  0.87829700  1
  Y  Y1  1  0.86686800  0.66410400  0.62170300  1
  Y  Y2  1  0.63313200  0.16410400  0.37829700  1
  Y  Y3  1  0.13313200  0.33589600  0.12170300  1
  Y  Y4  1  0.63313200  0.16410400  0.12170300  1
  Y  Y5  1  0.13313200  0.33589600  0.37829700  1
  Y  Y6  1  0.36686800  0.83589600  0.62170300  1
  Y  Y7  1  0.86686800  0.66410400  0.87829700  1
  Y  Y8  1  0.52311600  0.32024400  0.90185100  1
  Y  Y9  1  0.02311600  0.17975600  0.59814900  1
  Y  Y10  1  0.47688400  0.67975600  0.40185100  1
  Y  Y11  1  0.97688400  0.82024400  0.09814900  1
  Y  Y12  1  0.47688400  0.67975600  0.09814900  1
  Y  Y13  1  0.97688400  0.82024400  0.40185100  1
  Y  Y14  1  0.52311600  0.32024400  0.59814900  1
  Y  Y15  1  0.02311600  0.17975600  0.90185100  1
  Y  Y16  1  0.19794700  0.50270500  0.75000000  1
  Y  Y17  1  0.69794700  0.99729500  0.75000000  1
  Y  Y18  1  0.80205300  0.49729500  0.25000000  1
  Y  Y19  1  0.30205300  0.00270500  0.25000000  1
  Sn  Sn20  1  0.29179700  0.03336700  0.04147900  1
  Sn  Sn21  1  0.79179700  0.46663300  0.45852100  1
  Sn  Sn22  1  0.70820300  0.96663300  0.54147900  1
  Sn  Sn23  1  0.20820300  0.53336700  0.95852100  1
  Sn  Sn24  1  0.70820300  0.96663300  0.95852100  1
  Sn  Sn25  1  0.20820300  0.53336700  0.54147900  1
  Sn  Sn26  1  0.29179700  0.03336700  0.45852100  1
  Sn  Sn27  1  0.79179700  0.46663300  0.04147900  1
  Sn  Sn28  1  0.56475600  0.62033900  0.75000000  1
  Sn  Sn29  1  0.06475600  0.87966100  0.75000000  1
  Sn  Sn30  1  0.43524400  0.37966100  0.25000000  1
  Sn  Sn31  1  0.93524400  0.12033900  0.25000000  1
  Sn  Sn32  1  0.33013300  0.14710300  0.75000000  1
  Sn  Sn33  1  0.83013300  0.35289700  0.75000000  1
  Sn  Sn34  1  0.66986700  0.85289700  0.25000000  1
  Sn  Sn35  1  0.16986700  0.64710300  0.25000000  1
