# generated using pymatgen
data_BaSrNdSbO6
_symmetry_space_group_name_H-M   'P 1'
_cell_length_a   6.05860983
_cell_length_b   6.07196804
_cell_length_c   8.56745005
_cell_angle_alpha   90.24645975
_cell_angle_beta   90.33358434
_cell_angle_gamma   90.04529984
_symmetry_Int_Tables_number   1
_chemical_formula_structural   BaSrNdSbO6
_chemical_formula_sum   'Ba2 Sr2 Nd2 Sb2 O12'
_cell_volume   315.16829340
_cell_formula_units_Z   2
loop_
 _symmetry_equiv_pos_site_id
 _symmetry_equiv_pos_as_xyz
  1  'x, y, z'
loop_
 _atom_site_type_symbol
 _atom_site_label
 _atom_site_symmetry_multiplicity
 _atom_site_fract_x
 _atom_site_fract_y
 _atom_site_fract_z
 _atom_site_occupancy
  Ba  Ba0  1  0.50441365  0.51997675  0.24998443  1
  Ba  Ba1  1  0.49558635  0.48002325  0.75001557  1
  Sr  Sr2  1  0.99394575  0.02991630  0.25257158  1
  Sr  Sr3  1  0.00605425  0.97008370  0.74742842  1
  Nd  Nd4  1  -0.00000000  0.50000000  -0.00000000  1
  Nd  Nd5  1  0.50000000  -0.00000000  0.50000000  1
  Sb  Sb6  1  0.50000000  -0.00000000  -0.00000000  1
  Sb  Sb7  1  -0.00000000  0.50000000  0.50000000  1
  O  O8  1  0.23866992  0.19982875  0.95744075  1
  O  O9  1  0.26081213  0.70320764  0.52583790  1
  O  O10  1  0.76133008  0.80017125  0.04255925  1
  O  O11  1  0.73918787  0.29679236  0.47416210  1
  O  O12  1  0.29643995  0.74032030  0.96595494  1
  O  O13  1  0.19443212  0.23287010  0.54053377  1
  O  O14  1  0.70356005  0.25967970  0.03404506  1
  O  O15  1  0.80556788  0.76712990  0.45946623  1
  O  O16  1  0.42157363  0.99802068  0.23036096  1
  O  O17  1  0.05704677  0.46593266  0.26911546  1
  O  O18  1  0.57842637  0.00197932  0.76963904  1
  O  O19  1  0.94295323  0.53406734  0.73088454  1
