# generated using pymatgen
data_Ce(AsRh)2
_symmetry_space_group_name_H-M   'P 1'
_cell_length_a   4.30394900
_cell_length_b   4.30394900
_cell_length_c   10.02689000
_cell_angle_alpha   90.00000000
_cell_angle_beta   90.00000000
_cell_angle_gamma   90.00000000
_symmetry_Int_Tables_number   1
_chemical_formula_structural   Ce(AsRh)2
_chemical_formula_sum   'Ce2 As4 Rh4'
_cell_volume   185.73787969
_cell_formula_units_Z   2
loop_
 _symmetry_equiv_pos_site_id
 _symmetry_equiv_pos_as_xyz
  1  'x, y, z'
loop_
 _atom_site_type_symbol
 _atom_site_label
 _atom_site_symmetry_multiplicity
 _atom_site_fract_x
 _atom_site_fract_y
 _atom_site_fract_z
 _atom_site_occupancy
  Ce  Ce0  1  0.00000000  0.50000000  0.25207400  1
  Ce  Ce1  1  0.50000000  0.00000000  0.74792600  1
  As  As2  1  0.00000000  0.00000000  0.50000000  1
  As  As3  1  0.50000000  0.50000000  0.50000000  1
  As  As4  1  0.00000000  0.50000000  0.86234800  1
  As  As5  1  0.50000000  0.00000000  0.13765200  1
  Rh  Rh6  1  0.00000000  0.00000000  0.00000000  1
  Rh  Rh7  1  0.50000000  0.50000000  0.00000000  1
  Rh  Rh8  1  0.00000000  0.50000000  0.62072200  1
  Rh  Rh9  1  0.50000000  0.00000000  0.37927800  1
