# generated using pymatgen
data_Rb3B(SeO4)3
_symmetry_space_group_name_H-M   'P 1'
_cell_length_a   14.82701366
_cell_length_b   14.82701366
_cell_length_c   14.82701366
_cell_angle_alpha   149.86769180
_cell_angle_beta   116.07078048
_cell_angle_gamma   72.28095972
_symmetry_Int_Tables_number   1
_chemical_formula_structural   Rb3B(SeO4)3
_chemical_formula_sum   'Rb12 B4 Se12 O48'
_cell_volume   1448.92699039
_cell_formula_units_Z   4
loop_
 _symmetry_equiv_pos_site_id
 _symmetry_equiv_pos_as_xyz
  1  'x, y, z'
loop_
 _atom_site_type_symbol
 _atom_site_label
 _atom_site_symmetry_multiplicity
 _atom_site_fract_x
 _atom_site_fract_y
 _atom_site_fract_z
 _atom_site_occupancy
  Rb  Rb0  1  0.79470500  0.30880500  0.74939800  1
  Rb  Rb1  1  0.70529500  0.45469300  0.51410000  1
  Rb  Rb2  1  0.44059400  0.19119500  0.98590000  1
  Rb  Rb3  1  0.05940600  0.04530700  0.75060200  1
  Rb  Rb4  1  0.20529500  0.69119500  0.25060200  1
  Rb  Rb5  1  0.29470500  0.54530700  0.48590000  1
  Rb  Rb6  1  0.55940600  0.80880500  0.01410000  1
  Rb  Rb7  1  0.94059400  0.95469300  0.24939800  1
  Rb  Rb8  1  0.05884900  0.75000000  0.80884900  1
  Rb  Rb9  1  0.44115100  0.25000000  0.69115100  1
  Rb  Rb10  1  0.94115100  0.25000000  0.19115100  1
  Rb  Rb11  1  0.55884900  0.75000000  0.30884900  1
  B  B12  1  0.17002200  0.42002200  0.75000000  1
  B  B13  1  0.32997800  0.07997800  0.25000000  1
  B  B14  1  0.82997800  0.57997800  0.25000000  1
  B  B15  1  0.67002200  0.92002200  0.75000000  1
  Se  Se16  1  0.96844500  0.48033600  0.76187900  1
  Se  Se17  1  0.53155500  0.29343300  0.51189100  1
  Se  Se18  1  0.28154200  0.01966400  0.98810900  1
  Se  Se19  1  0.21845800  0.20656700  0.73812100  1
  Se  Se20  1  0.03155500  0.51966400  0.23812100  1
  Se  Se21  1  0.46844500  0.70656700  0.48810900  1
  Se  Se22  1  0.71845800  0.98033600  0.01189100  1
  Se  Se23  1  0.78154200  0.79343300  0.26187900  1
  Se  Se24  1  0.31339800  0.75000000  0.06339800  1
  Se  Se25  1  0.18660200  0.25000000  0.43660200  1
  Se  Se26  1  0.68660200  0.25000000  0.93660200  1
  Se  Se27  1  0.81339800  0.75000000  0.56339800  1
  O  O28  1  0.21837800  0.41283100  0.85264600  1
  O  O29  1  0.28162200  0.13426800  0.19445300  1
  O  O30  1  0.43981500  0.08716900  0.30554700  1
  O  O31  1  0.06018500  0.36573200  0.64735400  1
  O  O32  1  0.78162200  0.58716900  0.14735400  1
  O  O33  1  0.71837800  0.86573200  0.80554700  1
  O  O34  1  0.56018500  0.91283100  0.69445300  1
  O  O35  1  0.93981500  0.63426800  0.35264600  1
  O  O36  1  0.87669700  0.30774400  0.59509500  1
  O  O37  1  0.62330300  0.21839800  0.43104700  1
  O  O38  1  0.28735200  0.19225600  0.06895300  1
  O  O39  1  0.21264800  0.28160200  0.90490500  1
  O  O40  1  0.12330300  0.69225600  0.40490500  1
  O  O41  1  0.37669700  0.78160200  0.56895300  1
  O  O42  1  0.71264800  0.80774400  0.93104700  1
  O  O43  1  0.78735200  0.71839800  0.09509500  1
  O  O44  1  0.66123100  0.12931800  0.72869200  1
  O  O45  1  0.83876900  0.56746100  0.46808700  1
  O  O46  1  0.59937400  0.37068200  0.03191300  1
  O  O47  1  0.90062600  0.93253900  0.77130800  1
  O  O48  1  0.33876900  0.87068200  0.27130800  1
  O  O49  1  0.16123100  0.43253900  0.53191300  1
  O  O50  1  0.40062600  0.62931800  0.96808700  1
  O  O51  1  0.09937400  0.06746100  0.22869200  1
  O  O52  1  0.19249300  0.61696600  0.89901100  1
  O  O53  1  0.30750700  0.20651800  0.42447400  1
  O  O54  1  0.28204500  0.88303400  0.07552600  1
  O  O55  1  0.21795500  0.29348200  0.60098900  1
  O  O56  1  0.80750700  0.38303400  0.10098900  1
  O  O57  1  0.69249300  0.79348200  0.57552600  1
  O  O58  1  0.71795500  0.11696600  0.92447400  1
  O  O59  1  0.78204500  0.70651800  0.39901100  1
  O  O60  1  0.93329000  0.61786100  0.78793600  1
  O  O61  1  0.56671000  0.35464600  0.68457100  1
  O  O62  1  0.17007500  0.88213900  0.81542900  1
  O  O63  1  0.32992500  0.14535400  0.71206400  1
  O  O64  1  0.06671000  0.38213900  0.21206400  1
  O  O65  1  0.43329000  0.64535400  0.31542900  1
  O  O66  1  0.82992500  0.11786100  0.18457100  1
  O  O67  1  0.67007500  0.85464600  0.28793600  1
  O  O68  1  0.02173000  0.58886900  0.96865300  1
  O  O69  1  0.47827000  0.44692200  0.56713900  1
  O  O70  1  0.37978300  0.91113100  0.93286100  1
  O  O71  1  0.12021700  0.05307800  0.53134700  1
  O  O72  1  0.97827000  0.41113100  0.03134700  1
  O  O73  1  0.52173000  0.55307800  0.43286100  1
  O  O74  1  0.62021700  0.08886900  0.06713900  1
  O  O75  1  0.87978300  0.94692200  0.46865300  1
