# generated using pymatgen
data_KGdGeS4
_symmetry_space_group_name_H-M   'P 1'
_cell_length_a   6.73531300
_cell_length_b   6.57123400
_cell_length_c   8.71935641
_cell_angle_alpha   73.01470478
_cell_angle_beta   90.00000000
_cell_angle_gamma   90.00000000
_symmetry_Int_Tables_number   1
_chemical_formula_structural   KGdGeS4
_chemical_formula_sum   'K2 Gd2 Ge2 S8'
_cell_volume   369.07915917
_cell_formula_units_Z   2
loop_
 _symmetry_equiv_pos_site_id
 _symmetry_equiv_pos_as_xyz
  1  'x, y, z'
loop_
 _atom_site_type_symbol
 _atom_site_label
 _atom_site_symmetry_multiplicity
 _atom_site_fract_x
 _atom_site_fract_y
 _atom_site_fract_z
 _atom_site_occupancy
  K  K0  1  0.49036500  0.26828800  0.93362500  1
  K  K1  1  0.99036500  0.73171200  0.06637500  1
  Gd  Gd2  1  0.50671000  0.22896700  0.44905600  1
  Gd  Gd3  1  0.00671000  0.77103300  0.55094400  1
  Ge  Ge4  1  0.97396100  0.22474100  0.67811000  1
  Ge  Ge5  1  0.47396100  0.77525900  0.32189000  1
  S  S6  1  0.41297500  0.57180600  0.57098100  1
  S  S7  1  0.91297500  0.42819400  0.42901900  1
  S  S8  1  0.97176100  0.43216100  0.83615200  1
  S  S9  1  0.47176100  0.56783900  0.16384800  1
  S  S10  1  0.24269000  0.01711700  0.70498400  1
  S  S11  1  0.74269000  0.98288300  0.29501600  1
  S  S12  1  0.23453900  0.02159100  0.27980600  1
  S  S13  1  0.73453900  0.97840900  0.72019400  1
