# generated using pymatgen
data_SmAl3Ni
_symmetry_space_group_name_H-M   'P 1'
_cell_length_a   4.09130900
_cell_length_b   8.16889300
_cell_length_c   10.74108100
_cell_angle_alpha   90.00000000
_cell_angle_beta   90.00000000
_cell_angle_gamma   90.00000000
_symmetry_Int_Tables_number   1
_chemical_formula_structural   SmAl3Ni
_chemical_formula_sum   'Sm4 Al12 Ni4'
_cell_volume   358.98266755
_cell_formula_units_Z   4
loop_
 _symmetry_equiv_pos_site_id
 _symmetry_equiv_pos_as_xyz
  1  'x, y, z'
loop_
 _atom_site_type_symbol
 _atom_site_label
 _atom_site_symmetry_multiplicity
 _atom_site_fract_x
 _atom_site_fract_y
 _atom_site_fract_z
 _atom_site_occupancy
  Sm  Sm0  1  0.25000000  0.68534000  0.50925800  1
  Sm  Sm1  1  0.75000000  0.31466000  0.49074200  1
  Sm  Sm2  1  0.75000000  0.81466000  0.00925800  1
  Sm  Sm3  1  0.25000000  0.18534000  0.99074200  1
  Al  Al4  1  0.25000000  0.85666600  0.22280400  1
  Al  Al5  1  0.75000000  0.14333400  0.77719600  1
  Al  Al6  1  0.75000000  0.64333400  0.72280400  1
  Al  Al7  1  0.25000000  0.35666600  0.27719600  1
  Al  Al8  1  0.25000000  0.55380100  0.08325700  1
  Al  Al9  1  0.75000000  0.44619900  0.91674300  1
  Al  Al10  1  0.75000000  0.94619900  0.58325700  1
  Al  Al11  1  0.25000000  0.05380100  0.41674300  1
  Al  Al12  1  0.25000000  0.88514900  0.78498500  1
  Al  Al13  1  0.75000000  0.11485100  0.21501500  1
  Al  Al14  1  0.75000000  0.61485100  0.28498500  1
  Al  Al15  1  0.25000000  0.38514900  0.71501500  1
  Ni  Ni16  1  0.25000000  0.60497400  0.85606400  1
  Ni  Ni17  1  0.75000000  0.39502600  0.14393600  1
  Ni  Ni18  1  0.75000000  0.89502600  0.35606400  1
  Ni  Ni19  1  0.25000000  0.10497400  0.64393600  1
