# generated using pymatgen
data_Hf2Si4Ni3
_symmetry_space_group_name_H-M   'P 1'
_cell_length_a   7.31115473
_cell_length_b   7.31115473
_cell_length_c   6.87986500
_cell_angle_alpha   90.00000000
_cell_angle_beta   90.00000000
_cell_angle_gamma   138.46501165
_symmetry_Int_Tables_number   1
_chemical_formula_structural   Hf2Si4Ni3
_chemical_formula_sum   'Hf4 Si8 Ni6'
_cell_volume   243.84621352
_cell_formula_units_Z   2
loop_
 _symmetry_equiv_pos_site_id
 _symmetry_equiv_pos_as_xyz
  1  'x, y, z'
loop_
 _atom_site_type_symbol
 _atom_site_label
 _atom_site_symmetry_multiplicity
 _atom_site_fract_x
 _atom_site_fract_y
 _atom_site_fract_z
 _atom_site_occupancy
  Hf  Hf0  1  0.60390000  0.39610000  0.09764700  1
  Hf  Hf1  1  0.39610000  0.60390000  0.90235300  1
  Hf  Hf2  1  0.89610000  0.10390000  0.59764700  1
  Hf  Hf3  1  0.10390000  0.89610000  0.40235300  1
  Si  Si4  1  0.68123300  0.31876700  0.47721800  1
  Si  Si5  1  0.31876700  0.68123300  0.52278200  1
  Si  Si6  1  0.81876700  0.18123300  0.97721800  1
  Si  Si7  1  0.18123300  0.81876700  0.02278200  1
  Si  Si8  1  0.18855400  0.31144600  0.25000000  1
  Si  Si9  1  0.31144600  0.18855400  0.75000000  1
  Si  Si10  1  0.68855400  0.81144600  0.25000000  1
  Si  Si11  1  0.81144600  0.68855400  0.75000000  1
  Ni  Ni12  1  0.52083800  0.97916200  0.25000000  1
  Ni  Ni13  1  0.97916200  0.52083800  0.75000000  1
  Ni  Ni14  1  0.50000000  0.50000000  0.50000000  1
  Ni  Ni15  1  0.00000000  0.00000000  0.00000000  1
  Ni  Ni16  1  0.47916200  0.02083800  0.75000000  1
  Ni  Ni17  1  0.02083800  0.47916200  0.25000000  1
