# generated using pymatgen
data_Cu2PbSe2(ClO3)2
_symmetry_space_group_name_H-M   'P 1'
_cell_length_a   8.23224294
_cell_length_b   8.23224294
_cell_length_c   6.98999453
_cell_angle_alpha   89.04689437
_cell_angle_beta   89.04689437
_cell_angle_gamma   72.83619300
_symmetry_Int_Tables_number   1
_chemical_formula_structural   Cu2PbSe2(ClO3)2
_chemical_formula_sum   'Cu4 Pb2 Se4 Cl4 O12'
_cell_volume   452.51726723
_cell_formula_units_Z   2
loop_
 _symmetry_equiv_pos_site_id
 _symmetry_equiv_pos_as_xyz
  1  'x, y, z'
loop_
 _atom_site_type_symbol
 _atom_site_label
 _atom_site_symmetry_multiplicity
 _atom_site_fract_x
 _atom_site_fract_y
 _atom_site_fract_z
 _atom_site_occupancy
  Cu  Cu0  1  0.88854400  0.11145600  0.75000000  1
  Cu  Cu1  1  0.11145600  0.88854400  0.25000000  1
  Cu  Cu2  1  0.00000000  0.50000000  0.00000000  1
  Cu  Cu3  1  0.50000000  0.00000000  0.50000000  1
  Pb  Pb4  1  0.65737200  0.34262800  0.25000000  1
  Pb  Pb5  1  0.34262800  0.65737200  0.75000000  1
  Se  Se6  1  0.73180800  0.93260200  0.08829500  1
  Se  Se7  1  0.06739800  0.26819200  0.41170500  1
  Se  Se8  1  0.26819200  0.06739800  0.91170500  1
  Se  Se9  1  0.93260200  0.73180800  0.58829500  1
  Cl  Cl10  1  0.27099800  0.47663100  0.11865900  1
  Cl  Cl11  1  0.52336900  0.72900200  0.38134100  1
  Cl  Cl12  1  0.72900200  0.52336900  0.88134100  1
  Cl  Cl13  1  0.47663100  0.27099800  0.61865900  1
  O  O14  1  0.79814900  0.10616600  0.00678700  1
  O  O15  1  0.89383400  0.20185100  0.49321300  1
  O  O16  1  0.20185100  0.89383400  0.99321300  1
  O  O17  1  0.10616600  0.79814900  0.50678700  1
  O  O18  1  0.94644400  0.37497100  0.21667400  1
  O  O19  1  0.62502900  0.05355600  0.28332600  1
  O  O20  1  0.05355600  0.62502900  0.78332600  1
  O  O21  1  0.37497100  0.94644400  0.71667400  1
  O  O22  1  0.91705900  0.79841200  0.17832400  1
  O  O23  1  0.20158800  0.08294100  0.32167600  1
  O  O24  1  0.08294100  0.20158800  0.82167600  1
  O  O25  1  0.79841200  0.91705900  0.67832400  1
