# generated using pymatgen
data_EuZrS3
_symmetry_space_group_name_H-M   'P 1'
_cell_length_a   6.73833500
_cell_length_b   7.12656200
_cell_length_c   9.79036300
_cell_angle_alpha   90.00000000
_cell_angle_beta   90.00000000
_cell_angle_gamma   90.00000000
_symmetry_Int_Tables_number   1
_chemical_formula_structural   EuZrS3
_chemical_formula_sum   'Eu4 Zr4 S12'
_cell_volume   470.14460917
_cell_formula_units_Z   4
loop_
 _symmetry_equiv_pos_site_id
 _symmetry_equiv_pos_as_xyz
  1  'x, y, z'
loop_
 _atom_site_type_symbol
 _atom_site_label
 _atom_site_symmetry_multiplicity
 _atom_site_fract_x
 _atom_site_fract_y
 _atom_site_fract_z
 _atom_site_occupancy
  Eu  Eu0  1  0.47338100  0.58636900  0.25000000  1
  Eu  Eu1  1  0.02661900  0.08636900  0.25000000  1
  Eu  Eu2  1  0.52661900  0.41363100  0.75000000  1
  Eu  Eu3  1  0.97338100  0.91363100  0.75000000  1
  Zr  Zr4  1  0.00000000  0.50000000  0.00000000  1
  Zr  Zr5  1  0.50000000  0.00000000  0.50000000  1
  Zr  Zr6  1  0.00000000  0.50000000  0.50000000  1
  Zr  Zr7  1  0.50000000  0.00000000  0.00000000  1
  S  S8  1  0.89442700  0.47449200  0.25000000  1
  S  S9  1  0.60557300  0.97449200  0.25000000  1
  S  S10  1  0.10557300  0.52550800  0.75000000  1
  S  S11  1  0.39442700  0.02550800  0.75000000  1
  S  S12  1  0.68656400  0.69161500  0.94449900  1
  S  S13  1  0.81343600  0.19161500  0.55550100  1
  S  S14  1  0.31343600  0.30838500  0.44449900  1
  S  S15  1  0.18656400  0.80838500  0.05550100  1
  S  S16  1  0.31343600  0.30838500  0.05550100  1
  S  S17  1  0.18656400  0.80838500  0.44449900  1
  S  S18  1  0.68656400  0.69161500  0.55550100  1
  S  S19  1  0.81343600  0.19161500  0.94449900  1
