# generated using pymatgen
data_Na(CoO2)3
_symmetry_space_group_name_H-M   'P 1'
_cell_length_a   4.89177095
_cell_length_b   5.87911318
_cell_length_c   8.48297868
_cell_angle_alpha   90.00002327
_cell_angle_beta   90.00023924
_cell_angle_gamma   73.52319405
_symmetry_Int_Tables_number   1
_chemical_formula_structural   Na(CoO2)3
_chemical_formula_sum   'Na2 Co6 O12'
_cell_volume   233.94583218
_cell_formula_units_Z   2
loop_
 _symmetry_equiv_pos_site_id
 _symmetry_equiv_pos_as_xyz
  1  'x, y, z'
loop_
 _atom_site_type_symbol
 _atom_site_label
 _atom_site_symmetry_multiplicity
 _atom_site_fract_x
 _atom_site_fract_y
 _atom_site_fract_z
 _atom_site_occupancy
  Na  Na0  1  0.00000100  0.50000000  0.16668800  1
  Na  Na1  1  0.50000000  0.50000000  0.66668900  1
  Co  Co2  1  0.50000000  0.00000000  0.16666600  1
  Co  Co3  1  0.50000000  0.00000000  0.83384300  1
  Co  Co4  1  0.50000000  0.00000000  0.49947500  1
  Co  Co5  1  0.00000000  0.00000000  0.66666800  1
  Co  Co6  1  0.00000000  0.00000000  0.33385400  1
  Co  Co7  1  0.00000000  0.00000000  0.99946200  1
  O  O8  1  0.78030900  0.17231700  0.16666400  1
  O  O9  1  0.28030400  0.17231300  0.66666700  1
  O  O10  1  0.21969100  0.82768300  0.16666400  1
  O  O11  1  0.71969700  0.82768600  0.66666700  1
  O  O12  1  0.27220300  0.17161800  0.99928300  1
  O  O13  1  0.77220000  0.17160900  0.49928100  1
  O  O14  1  0.27220400  0.17160700  0.33404700  1
  O  O15  1  0.77220600  0.17160000  0.83405100  1
  O  O16  1  0.72779600  0.82839300  0.33404800  1
  O  O17  1  0.22779500  0.82839900  0.83405200  1
  O  O18  1  0.72779600  0.82838300  0.99928400  1
  O  O19  1  0.22779800  0.82839200  0.49928200  1
