# generated using pymatgen
data_Ti5CuBi3
_symmetry_space_group_name_H-M   'P 1'
_cell_length_a   8.38989817
_cell_length_b   8.38989817
_cell_length_c   5.59559200
_cell_angle_alpha   90.00000000
_cell_angle_beta   90.00000000
_cell_angle_gamma   120.00000134
_symmetry_Int_Tables_number   1
_chemical_formula_structural   Ti5CuBi3
_chemical_formula_sum   'Ti10 Cu2 Bi6'
_cell_volume   341.10653981
_cell_formula_units_Z   2
loop_
 _symmetry_equiv_pos_site_id
 _symmetry_equiv_pos_as_xyz
  1  'x, y, z'
loop_
 _atom_site_type_symbol
 _atom_site_label
 _atom_site_symmetry_multiplicity
 _atom_site_fract_x
 _atom_site_fract_y
 _atom_site_fract_z
 _atom_site_occupancy
  Ti  Ti0  1  0.26705000  0.00000000  0.75000000  1
  Ti  Ti1  1  0.73295000  0.00000000  0.25000000  1
  Ti  Ti2  1  0.00000000  0.26705000  0.75000000  1
  Ti  Ti3  1  0.00000000  0.73295000  0.25000000  1
  Ti  Ti4  1  0.73295000  0.73295000  0.75000000  1
  Ti  Ti5  1  0.26705000  0.26705000  0.25000000  1
  Ti  Ti6  1  0.33333300  0.66666700  0.50000000  1
  Ti  Ti7  1  0.66666700  0.33333300  0.50000000  1
  Ti  Ti8  1  0.66666700  0.33333300  0.00000000  1
  Ti  Ti9  1  0.33333300  0.66666700  0.00000000  1
  Cu  Cu10  1  0.00000000  0.00000000  0.50000000  1
  Cu  Cu11  1  0.00000000  0.00000000  0.00000000  1
  Bi  Bi12  1  0.61911200  0.00000000  0.75000000  1
  Bi  Bi13  1  0.38088800  0.00000000  0.25000000  1
  Bi  Bi14  1  0.00000000  0.61911200  0.75000000  1
  Bi  Bi15  1  0.00000000  0.38088800  0.25000000  1
  Bi  Bi16  1  0.38088800  0.38088800  0.75000000  1
  Bi  Bi17  1  0.61911200  0.61911200  0.25000000  1
