# generated using pymatgen
data_Ba2CaSi4(BO7)2
_symmetry_space_group_name_H-M   'P 1'
_cell_length_a   9.39175882
_cell_length_b   9.39175882
_cell_length_c   9.39175882
_cell_angle_alpha   107.88662579
_cell_angle_beta   107.88662579
_cell_angle_gamma   112.68913107
_symmetry_Int_Tables_number   1
_chemical_formula_structural   Ba2CaSi4(BO7)2
_chemical_formula_sum   'Ba4 Ca2 Si8 B4 O28'
_cell_volume   636.18588176
_cell_formula_units_Z   2
loop_
 _symmetry_equiv_pos_site_id
 _symmetry_equiv_pos_as_xyz
  1  'x, y, z'
loop_
 _atom_site_type_symbol
 _atom_site_label
 _atom_site_symmetry_multiplicity
 _atom_site_fract_x
 _atom_site_fract_y
 _atom_site_fract_z
 _atom_site_occupancy
  Ba  Ba0  1  0.20380000  0.79406600  0.00000000  1
  Ba  Ba1  1  0.79406600  0.20380000  0.00000000  1
  Ba  Ba2  1  0.20593400  0.20593400  0.40973400  1
  Ba  Ba3  1  0.79620000  0.79620000  0.59026600  1
  Ca  Ca4  1  0.24462400  0.24462400  0.00000000  1
  Ca  Ca5  1  0.75537600  0.75537600  0.00000000  1
  Si  Si6  1  0.75072300  0.03502700  0.31329000  1
  Si  Si7  1  0.72173700  0.43743300  0.68671000  1
  Si  Si8  1  0.27826300  0.96497300  0.71569600  1
  Si  Si9  1  0.24927700  0.56256700  0.28430400  1
  Si  Si10  1  0.96497300  0.27826300  0.71569600  1
  Si  Si11  1  0.56256700  0.24927700  0.28430400  1
  Si  Si12  1  0.43743300  0.72173700  0.68671000  1
  Si  Si13  1  0.03502700  0.75072300  0.31329000  1
  B  B14  1  0.50000000  0.66698400  0.16698400  1
  B  B15  1  0.50000000  0.33301600  0.83301600  1
  B  B16  1  0.33301600  0.50000000  0.83301600  1
  B  B17  1  0.66698400  0.50000000  0.16698400  1
  O  O18  1  0.47192400  0.65966800  0.00000000  1
  O  O19  1  0.65966800  0.47192400  0.00000000  1
  O  O20  1  0.34033200  0.34033200  0.81225600  1
  O  O21  1  0.52807600  0.52807600  0.18774400  1
  O  O22  1  0.65754100  0.84393100  0.30644900  1
  O  O23  1  0.53748200  0.35109300  0.69355100  1
  O  O24  1  0.46251800  0.15606900  0.81361100  1
  O  O25  1  0.34245900  0.64890700  0.18638900  1
  O  O26  1  0.15606900  0.46251800  0.81361100  1
  O  O27  1  0.64890700  0.34245900  0.18638900  1
  O  O28  1  0.35109300  0.53748200  0.69355100  1
  O  O29  1  0.84393100  0.65754100  0.30644900  1
  O  O30  1  0.84252700  0.04237300  0.19421200  1
  O  O31  1  0.84816100  0.64831500  0.80578800  1
  O  O32  1  0.15183900  0.95762700  0.80015400  1
  O  O33  1  0.15747300  0.35168500  0.19984600  1
  O  O34  1  0.95762700  0.15183900  0.80015400  1
  O  O35  1  0.35168500  0.15747300  0.19984600  1
  O  O36  1  0.64831500  0.84816100  0.80578800  1
  O  O37  1  0.04237300  0.84252700  0.19421200  1
  O  O38  1  0.91181000  0.17751600  0.51252400  1
  O  O39  1  0.66499300  0.39928700  0.48747600  1
  O  O40  1  0.33500700  0.82248400  0.73429400  1
  O  O41  1  0.08819000  0.60071300  0.26570600  1
  O  O42  1  0.82248400  0.33500700  0.73429400  1
  O  O43  1  0.60071300  0.08819000  0.26570600  1
  O  O44  1  0.39928700  0.66499300  0.48747600  1
  O  O45  1  0.17751600  0.91181000  0.51252400  1
