# generated using pymatgen
data_Ce2ThS3
_symmetry_space_group_name_H-M   'P 1'
_cell_length_a   4.03202828
_cell_length_b   4.03202828
_cell_length_c   9.84608000
_cell_angle_alpha   90.00000000
_cell_angle_beta   90.00000000
_cell_angle_gamma   120.00000459
_symmetry_Int_Tables_number   1
_chemical_formula_structural   Ce2ThS3
_chemical_formula_sum   'Ce2 Th1 S3'
_cell_volume   138.62485687
_cell_formula_units_Z   1
loop_
 _symmetry_equiv_pos_site_id
 _symmetry_equiv_pos_as_xyz
  1  'x, y, z'
loop_
 _atom_site_type_symbol
 _atom_site_label
 _atom_site_symmetry_multiplicity
 _atom_site_fract_x
 _atom_site_fract_y
 _atom_site_fract_z
 _atom_site_occupancy
  Ce  Ce0  1  0.33333300  0.66666700  0.66647000  1
  Ce  Ce1  1  0.66666700  0.33333300  0.33353000  1
  Th  Th2  1  0.00000000  0.00000000  0.00000000  1
  S  S3  1  0.33333300  0.66666700  0.16826000  1
  S  S4  1  0.66666700  0.33333300  0.83174000  1
  S  S5  1  0.00000000  0.00000000  0.50000000  1
