# generated using pymatgen
data_KB(S2O7)2
_symmetry_space_group_name_H-M   'P 1'
_cell_length_a   9.57949506
_cell_length_b   9.57949506
_cell_length_c   14.10173872
_cell_angle_alpha   87.42833372
_cell_angle_beta   87.42833372
_cell_angle_gamma   104.09153938
_symmetry_Int_Tables_number   1
_chemical_formula_structural   KB(S2O7)2
_chemical_formula_sum   'K4 B4 S16 O56'
_cell_volume   1251.78466584
_cell_formula_units_Z   4
loop_
 _symmetry_equiv_pos_site_id
 _symmetry_equiv_pos_as_xyz
  1  'x, y, z'
loop_
 _atom_site_type_symbol
 _atom_site_label
 _atom_site_symmetry_multiplicity
 _atom_site_fract_x
 _atom_site_fract_y
 _atom_site_fract_z
 _atom_site_occupancy
  K  K0  1  0.85119400  0.91171600  0.67210200  1
  K  K1  1  0.91171600  0.85119400  0.17210200  1
  K  K2  1  0.28155000  0.31170400  0.75104000  1
  K  K3  1  0.31170400  0.28155000  0.25104000  1
  B  B4  1  0.38692600  0.82059900  0.45624700  1
  B  B5  1  0.82059900  0.38692600  0.95624700  1
  B  B6  1  0.79479000  0.32323500  0.44472400  1
  B  B7  1  0.32323500  0.79479000  0.94472400  1
  S  S8  1  0.69226200  0.25993700  0.80249400  1
  S  S9  1  0.25993700  0.69226200  0.30249400  1
  S  S10  1  0.92504900  0.51997900  0.79121100  1
  S  S11  1  0.51997900  0.92504900  0.29121100  1
  S  S12  1  0.42174200  0.73898000  0.63450200  1
  S  S13  1  0.73898000  0.42174200  0.13450200  1
  S  S14  1  0.27030000  0.95561300  0.59329200  1
  S  S15  1  0.95561300  0.27030000  0.09329200  1
  S  S16  1  0.92941200  0.11966200  0.40266700  1
  S  S17  1  0.11966200  0.92941200  0.90266700  1
  S  S18  1  0.02468200  0.31168100  0.54832000  1
  S  S19  1  0.31168100  0.02468200  0.04832000  1
  S  S20  1  0.59780100  0.77564900  0.92888100  1
  S  S21  1  0.77564900  0.59780100  0.42888100  1
  S  S22  1  0.36778400  0.52947300  0.98844200  1
  S  S23  1  0.52947300  0.36778400  0.48844200  1
  O  O24  1  0.71838700  0.14330800  0.75086900  1
  O  O25  1  0.14330800  0.71838700  0.25086900  1
  O  O26  1  0.54991500  0.28040200  0.81505600  1
  O  O27  1  0.28040200  0.54991500  0.31505600  1
  O  O28  1  0.04518700  0.45540200  0.78816200  1
  O  O29  1  0.45540200  0.04518700  0.28816200  1
  O  O30  1  0.93448200  0.65649300  0.74388300  1
  O  O31  1  0.65649300  0.93448200  0.24388300  1
  O  O32  1  0.55496800  0.84225900  0.64535600  1
  O  O33  1  0.84225900  0.55496800  0.14535600  1
  O  O34  1  0.38244900  0.60729200  0.69135000  1
  O  O35  1  0.60729200  0.38244900  0.19135000  1
  O  O36  1  0.12086800  0.92296900  0.57441000  1
  O  O37  1  0.92296900  0.12086800  0.07441000  1
  O  O38  1  0.33476000  0.08104700  0.64162900  1
  O  O39  1  0.08104700  0.33476000  0.14162900  1
  O  O40  1  0.99818500  0.08518200  0.31787700  1
  O  O41  1  0.08518200  0.99818500  0.81787700  1
  O  O42  1  0.85519600  0.00940400  0.47147100  1
  O  O43  1  0.00940400  0.85519600  0.97147100  1
  O  O44  1  0.11804200  0.45254400  0.53735700  1
  O  O45  1  0.45254400  0.11804200  0.03735700  1
  O  O46  1  0.03175100  0.21780300  0.62916600  1
  O  O47  1  0.21780300  0.03175100  0.12916600  1
  O  O48  1  0.70376600  0.80271800  0.85170100  1
  O  O49  1  0.80271800  0.70376600  0.35170100  1
  O  O50  1  0.80491300  0.63540200  0.52399800  1
  O  O51  1  0.63540200  0.80491300  0.02399800  1
  O  O52  1  0.39628200  0.52853100  0.08692900  1
  O  O53  1  0.52853100  0.39628200  0.58692900  1
  O  O54  1  0.31019800  0.39809600  0.94426200  1
  O  O55  1  0.39809600  0.31019800  0.44426200  1
  O  O56  1  0.76744900  0.26160100  0.89787900  1
  O  O57  1  0.26160100  0.76744900  0.39787900  1
  O  O58  1  0.86250400  0.52135900  0.89522700  1
  O  O59  1  0.52135900  0.86250400  0.39522700  1
  O  O60  1  0.39921500  0.70749200  0.52818200  1
  O  O61  1  0.70749200  0.39921500  0.02818200  1
  O  O62  1  0.36733200  0.95071300  0.50332900  1
  O  O63  1  0.95071300  0.36733200  0.00332900  1
  O  O64  1  0.83661600  0.22620300  0.37555700  1
  O  O65  1  0.22620300  0.83661600  0.87555700  1
  O  O66  1  0.86407500  0.30869400  0.53621800  1
  O  O67  1  0.30869400  0.86407500  0.03621800  1
  O  O68  1  0.84057700  0.47057800  0.39961200  1
  O  O69  1  0.47057800  0.84057700  0.89961200  1
  O  O70  1  0.27604200  0.63779200  0.96291500  1
  O  O71  1  0.63779200  0.27604200  0.46291500  1
  O  O72  1  0.78831600  0.41097800  0.74472900  1
  O  O73  1  0.41097800  0.78831600  0.24472900  1
  O  O74  1  0.28751200  0.81343400  0.65830300  1
  O  O75  1  0.81343400  0.28751200  0.15830300  1
  O  O76  1  0.06291200  0.23013700  0.45193600  1
  O  O77  1  0.23013700  0.06291200  0.95193600  1
  O  O78  1  0.51965200  0.60095800  0.92453800  1
  O  O79  1  0.60095800  0.51965200  0.42453800  1
