# generated using pymatgen
data_CsCd(PO3)3
_symmetry_space_group_name_H-M   'P 1'
_cell_length_a   7.63968500
_cell_length_b   9.73414700
_cell_length_c   12.86743200
_cell_angle_alpha   90.00000000
_cell_angle_beta   90.00000000
_cell_angle_gamma   90.00000000
_symmetry_Int_Tables_number   1
_chemical_formula_structural   CsCd(PO3)3
_chemical_formula_sum   'Cs4 Cd4 P12 O36'
_cell_volume   956.89709110
_cell_formula_units_Z   4
loop_
 _symmetry_equiv_pos_site_id
 _symmetry_equiv_pos_as_xyz
  1  'x, y, z'
loop_
 _atom_site_type_symbol
 _atom_site_label
 _atom_site_symmetry_multiplicity
 _atom_site_fract_x
 _atom_site_fract_y
 _atom_site_fract_z
 _atom_site_occupancy
  Cs  Cs0  1  0.75000000  0.38593300  0.41709100  1
  Cs  Cs1  1  0.25000000  0.61406700  0.58290900  1
  Cs  Cs2  1  0.75000000  0.88593300  0.08290900  1
  Cs  Cs3  1  0.25000000  0.11406700  0.91709100  1
  Cd  Cd4  1  0.75000000  0.01429000  0.77678600  1
  Cd  Cd5  1  0.25000000  0.98571000  0.22321400  1
  Cd  Cd6  1  0.75000000  0.51429000  0.72321400  1
  Cd  Cd7  1  0.25000000  0.48571000  0.27678600  1
  P  P8  1  0.25000000  0.70407100  0.04095100  1
  P  P9  1  0.75000000  0.29592900  0.95904900  1
  P  P10  1  0.25000000  0.20407100  0.45904900  1
  P  P11  1  0.75000000  0.79592900  0.54095100  1
  P  P12  1  0.55287100  0.25261100  0.14971600  1
  P  P13  1  0.05287100  0.74738900  0.85028400  1
  P  P14  1  0.94712900  0.75261100  0.35028400  1
  P  P15  1  0.44712900  0.24738900  0.64971600  1
  P  P16  1  0.44712900  0.74738900  0.85028400  1
  P  P17  1  0.94712900  0.25261100  0.14971600  1
  P  P18  1  0.05287100  0.24738900  0.64971600  1
  P  P19  1  0.55287100  0.75261100  0.35028400  1
  O  O20  1  0.25000000  0.85384700  0.07011500  1
  O  O21  1  0.75000000  0.14615300  0.92988500  1
  O  O22  1  0.25000000  0.35384700  0.42988500  1
  O  O23  1  0.75000000  0.64615300  0.57011500  1
  O  O24  1  0.25000000  0.59421500  0.12088800  1
  O  O25  1  0.75000000  0.40578500  0.87911200  1
  O  O26  1  0.25000000  0.09421500  0.37911200  1
  O  O27  1  0.75000000  0.90578500  0.62088800  1
  O  O28  1  0.48939400  0.35861600  0.22500500  1
  O  O29  1  0.98939400  0.64138400  0.77499500  1
  O  O30  1  0.01060600  0.85861600  0.27499500  1
  O  O31  1  0.51060600  0.14138400  0.72500500  1
  O  O32  1  0.51060600  0.64138400  0.77499500  1
  O  O33  1  0.01060600  0.35861600  0.22500500  1
  O  O34  1  0.98939400  0.14138400  0.72500500  1
  O  O35  1  0.48939400  0.85861600  0.27499500  1
  O  O36  1  0.45102800  0.12240300  0.13344700  1
  O  O37  1  0.95102900  0.87759700  0.86655300  1
  O  O38  1  0.04897200  0.62240300  0.36655300  1
  O  O39  1  0.54897100  0.37759700  0.63344700  1
  O  O40  1  0.75000000  0.20635000  0.18399900  1
  O  O41  1  0.25000000  0.79365000  0.81600100  1
  O  O42  1  0.75000000  0.70635000  0.31600100  1
  O  O43  1  0.25000000  0.29365000  0.68399900  1
  O  O44  1  0.58573000  0.82514000  0.46230800  1
  O  O45  1  0.08573000  0.17486000  0.53769200  1
  O  O46  1  0.91427000  0.32514000  0.03769200  1
  O  O47  1  0.41427000  0.67486000  0.96230800  1
  O  O48  1  0.41427000  0.17486000  0.53769200  1
  O  O49  1  0.91427000  0.82514000  0.46230800  1
  O  O50  1  0.08573000  0.67486000  0.96230800  1
  O  O51  1  0.58573000  0.32514000  0.03769200  1
  O  O52  1  0.45102800  0.62240300  0.36655300  1
  O  O53  1  0.95102900  0.37759700  0.63344700  1
  O  O54  1  0.04897200  0.12240300  0.13344700  1
  O  O55  1  0.54897100  0.87759700  0.86655300  1
