# generated using pymatgen
data_KVP2O7
_symmetry_space_group_name_H-M   'P 1'
_cell_length_a   10.25862700
_cell_length_b   7.50195400
_cell_length_c   8.33943567
_cell_angle_alpha   73.11663838
_cell_angle_beta   90.00000000
_cell_angle_gamma   90.00000000
_symmetry_Int_Tables_number   1
_chemical_formula_structural   KVP2O7
_chemical_formula_sum   'K4 V4 P8 O28'
_cell_volume   614.13794134
_cell_formula_units_Z   4
loop_
 _symmetry_equiv_pos_site_id
 _symmetry_equiv_pos_as_xyz
  1  'x, y, z'
loop_
 _atom_site_type_symbol
 _atom_site_label
 _atom_site_symmetry_multiplicity
 _atom_site_fract_x
 _atom_site_fract_y
 _atom_site_fract_z
 _atom_site_occupancy
  K  K0  1  0.17656300  0.17646400  0.44123500  1
  K  K1  1  0.82343700  0.82353600  0.55876500  1
  K  K2  1  0.32343700  0.17646400  0.94123500  1
  K  K3  1  0.67656300  0.82353600  0.05876500  1
  V  V4  1  0.60048000  0.23688500  0.23988000  1
  V  V5  1  0.10048000  0.76311500  0.26012000  1
  V  V6  1  0.39952000  0.76311500  0.76012000  1
  V  V7  1  0.89952000  0.23688500  0.73988000  1
  P  P8  1  0.90129300  0.13151200  0.17119600  1
  P  P9  1  0.59870700  0.13151200  0.67119600  1
  P  P10  1  0.09870700  0.86848800  0.82880400  1
  P  P11  1  0.40129300  0.86848800  0.32880400  1
  P  P12  1  0.86367800  0.44059600  0.30799100  1
  P  P13  1  0.63632200  0.44059600  0.80799100  1
  P  P14  1  0.13632200  0.55940400  0.69200900  1
  P  P15  1  0.36367800  0.55940400  0.19200900  1
  O  O16  1  0.93826400  0.33697700  0.18634000  1
  O  O17  1  0.43826400  0.66302300  0.31366000  1
  O  O18  1  0.06173600  0.66302300  0.81366000  1
  O  O19  1  0.56173600  0.33697700  0.68634000  1
  O  O20  1  0.76428700  0.08041000  0.24660200  1
  O  O21  1  0.26428700  0.91959000  0.25339800  1
  O  O22  1  0.23571300  0.91959000  0.75339800  1
  O  O23  1  0.73571300  0.08041000  0.74660200  1
  O  O24  1  0.42372700  0.36437700  0.23509000  1
  O  O25  1  0.92372700  0.63562300  0.26491000  1
  O  O26  1  0.57627300  0.63562300  0.76491000  1
  O  O27  1  0.07627300  0.36437700  0.73509000  1
  O  O28  1  0.71915200  0.45541700  0.25865900  1
  O  O29  1  0.21915200  0.54458300  0.24134100  1
  O  O30  1  0.28084800  0.54458300  0.74134100  1
  O  O31  1  0.78084800  0.45541700  0.75865900  1
  O  O32  1  0.90555800  0.14132300  0.98790400  1
  O  O33  1  0.40555800  0.85867700  0.51209600  1
  O  O34  1  0.09444200  0.85867700  0.01209600  1
  O  O35  1  0.59444200  0.14132300  0.48790400  1
  O  O36  1  0.89232200  0.32048800  0.48618400  1
  O  O37  1  0.39232200  0.67951200  0.01381600  1
  O  O38  1  0.10767800  0.67951200  0.51381600  1
  O  O39  1  0.60767800  0.32048800  0.98618400  1
  O  O40  1  0.99796100  0.00083200  0.72134000  1
  O  O41  1  0.49796100  0.99916800  0.77866000  1
  O  O42  1  0.00203900  0.99916800  0.27866000  1
  O  O43  1  0.50203900  0.00083200  0.22134000  1
