# generated using pymatgen
data_PrP5O14
_symmetry_space_group_name_H-M   'P 1'
_cell_length_a   9.21727600
_cell_length_b   8.93033100
_cell_length_c   13.22445891
_cell_angle_alpha   89.72178348
_cell_angle_beta   90.00000000
_cell_angle_gamma   90.00000000
_symmetry_Int_Tables_number   1
_chemical_formula_structural   PrP5O14
_chemical_formula_sum   'Pr4 P20 O56'
_cell_volume   1088.53635865
_cell_formula_units_Z   4
loop_
 _symmetry_equiv_pos_site_id
 _symmetry_equiv_pos_as_xyz
  1  'x, y, z'
loop_
 _atom_site_type_symbol
 _atom_site_label
 _atom_site_symmetry_multiplicity
 _atom_site_fract_x
 _atom_site_fract_y
 _atom_site_fract_z
 _atom_site_occupancy
  Pr  Pr0  1  0.68805900  0.77577200  0.00070700  1
  Pr  Pr1  1  0.18805900  0.22422800  0.49929300  1
  Pr  Pr2  1  0.31194100  0.22422800  0.99929300  1
  Pr  Pr3  1  0.81194100  0.77577200  0.50070700  1
  P  P4  1  0.50148500  0.50376200  0.82392400  1
  P  P5  1  0.00148500  0.49623800  0.67607600  1
  P  P6  1  0.49851500  0.49623800  0.17607600  1
  P  P7  1  0.99851500  0.50376200  0.32392400  1
  P  P8  1  0.45303500  0.74226400  0.66405500  1
  P  P9  1  0.95303500  0.25773600  0.83594500  1
  P  P10  1  0.54696500  0.25773600  0.33594500  1
  P  P11  1  0.04696500  0.74226400  0.16405500  1
  P  P12  1  0.25268300  0.81473500  0.99998100  1
  P  P13  1  0.75268300  0.18526500  0.50001900  1
  P  P14  1  0.74731700  0.18526500  0.00001900  1
  P  P15  1  0.24731700  0.81473500  0.49998100  1
  P  P16  1  0.54920900  0.26802700  0.66327900  1
  P  P17  1  0.04920900  0.73197300  0.83672100  1
  P  P18  1  0.45079100  0.73197300  0.33672100  1
  P  P19  1  0.95079100  0.26802700  0.16327900  1
  P  P20  1  0.50311900  0.00467900  0.79619200  1
  P  P21  1  0.00311900  0.99532100  0.70380800  1
  P  P22  1  0.49688100  0.99532100  0.20380800  1
  P  P23  1  0.99688100  0.00467900  0.29619200  1
  O  O24  1  0.38477300  0.41854500  0.87625700  1
  O  O25  1  0.88477300  0.58145500  0.62374300  1
  O  O26  1  0.61522700  0.58145500  0.12374300  1
  O  O27  1  0.11522700  0.41854500  0.37625700  1
  O  O28  1  0.61980200  0.57945900  0.88061100  1
  O  O29  1  0.11980200  0.42054100  0.61938900  1
  O  O30  1  0.38019800  0.42054100  0.11938900  1
  O  O31  1  0.88019800  0.57945900  0.38061100  1
  O  O32  1  0.41944300  0.62473600  0.75011600  1
  O  O33  1  0.91944300  0.37526400  0.74988400  1
  O  O34  1  0.58055700  0.37526400  0.24988400  1
  O  O35  1  0.08055700  0.62473600  0.25011600  1
  O  O36  1  0.59333500  0.72490300  0.61147000  1
  O  O37  1  0.09333500  0.27509700  0.88853000  1
  O  O38  1  0.40666500  0.27509700  0.38853000  1
  O  O39  1  0.90666500  0.72490300  0.11147000  1
  O  O40  1  0.31337600  0.72077200  0.59652000  1
  O  O41  1  0.81337600  0.27922800  0.90348000  1
  O  O42  1  0.68662400  0.27922800  0.40348000  1
  O  O43  1  0.41147800  0.78586700  0.99975800  1
  O  O44  1  0.18662400  0.72077200  0.09652000  1
  O  O45  1  0.68972700  0.03141700  0.50314600  1
  O  O46  1  0.81027300  0.03141700  0.00314600  1
  O  O47  1  0.31027300  0.96858300  0.49685400  1
  O  O48  1  0.88482000  0.91512300  0.35017400  1
  O  O49  1  0.38482000  0.08487700  0.14982600  1
  O  O50  1  0.11518000  0.08487700  0.64982600  1
  O  O51  1  0.61518000  0.91512300  0.85017400  1
  O  O52  1  0.88597400  0.91291900  0.65052000  1
  O  O53  1  0.38597400  0.08708100  0.84948000  1
  O  O54  1  0.11402600  0.08708100  0.34948000  1
  O  O55  1  0.61402600  0.91291900  0.15052000  1
  O  O56  1  0.90880700  0.11985200  0.22274500  1
  O  O57  1  0.40880700  0.88014800  0.27725500  1
  O  O58  1  0.09119300  0.88014800  0.77725500  1
  O  O59  1  0.59119300  0.11985200  0.72274500  1
  O  O60  1  0.07701500  0.90057600  0.21249200  1
  O  O61  1  0.57701500  0.09942400  0.28750800  1
  O  O62  1  0.92298500  0.09942400  0.78750800  1
  O  O63  1  0.42298500  0.90057600  0.71249200  1
  O  O64  1  0.09451500  0.26918900  0.11411100  1
  O  O65  1  0.59451500  0.73081100  0.38588900  1
  O  O66  1  0.90548500  0.73081100  0.88588900  1
  O  O67  1  0.40548500  0.26918900  0.61411100  1
  O  O68  1  0.81626400  0.28799900  0.09066200  1
  O  O69  1  0.31626400  0.71200100  0.40933800  1
  O  O70  1  0.18373600  0.71200100  0.90933800  1
  O  O71  1  0.68373600  0.28799900  0.59066200  1
  O  O72  1  0.91886300  0.39968900  0.23899000  1
  O  O73  1  0.41886300  0.60031100  0.26101000  1
  O  O74  1  0.08113700  0.60031100  0.76101000  1
  O  O75  1  0.58113700  0.39968900  0.73899000  1
  O  O76  1  0.08852200  0.78586700  0.49975800  1
  O  O77  1  0.58852200  0.21413300  0.00024200  1
  O  O78  1  0.91147800  0.21413300  0.50024200  1
  O  O79  1  0.18972700  0.96858300  0.99685400  1
