# generated using pymatgen
data_CaTaAlO5
_symmetry_space_group_name_H-M   'P 1'
_cell_length_a   5.65022416
_cell_length_b   5.65022416
_cell_length_c   7.46427496
_cell_angle_alpha   75.35556090
_cell_angle_beta   75.35556090
_cell_angle_gamma   105.74746566
_symmetry_Int_Tables_number   1
_chemical_formula_structural   CaTaAlO5
_chemical_formula_sum   'Ca2 Ta2 Al2 O10'
_cell_volume   208.26319853
_cell_formula_units_Z   2
loop_
 _symmetry_equiv_pos_site_id
 _symmetry_equiv_pos_as_xyz
  1  'x, y, z'
loop_
 _atom_site_type_symbol
 _atom_site_label
 _atom_site_symmetry_multiplicity
 _atom_site_fract_x
 _atom_site_fract_y
 _atom_site_fract_z
 _atom_site_occupancy
  Ca  Ca0  1  0.33122500  0.66877500  0.25000000  1
  Ca  Ca1  1  0.66877500  0.33122500  0.75000000  1
  Ta  Ta2  1  0.00000000  0.00000000  0.50000000  1
  Ta  Ta3  1  0.00000000  0.00000000  0.00000000  1
  Al  Al4  1  0.68306400  0.31693600  0.25000000  1
  Al  Al5  1  0.31693600  0.68306400  0.75000000  1
  O  O6  1  0.07302800  0.92697200  0.25000000  1
  O  O7  1  0.92697200  0.07302800  0.75000000  1
  O  O8  1  0.30593300  0.89647700  0.88853200  1
  O  O9  1  0.10352300  0.69406700  0.61146800  1
  O  O10  1  0.69406700  0.10352300  0.11146800  1
  O  O11  1  0.89647700  0.30593300  0.38853200  1
  O  O12  1  0.74894700  0.63528800  0.09029100  1
  O  O13  1  0.36471200  0.25105300  0.40970900  1
  O  O14  1  0.25105300  0.36471200  0.90970900  1
  O  O15  1  0.63528800  0.74894700  0.59029100  1
