# generated using pymatgen
data_La2ThSe5
_symmetry_space_group_name_H-M   'P 1'
_cell_length_a   8.00081300
_cell_length_b   8.74004000
_cell_length_c   12.61000800
_cell_angle_alpha   90.00000000
_cell_angle_beta   90.00000000
_cell_angle_gamma   90.00000000
_symmetry_Int_Tables_number   1
_chemical_formula_structural   La2ThSe5
_chemical_formula_sum   'La8 Th4 Se20'
_cell_volume   881.78539690
_cell_formula_units_Z   4
loop_
 _symmetry_equiv_pos_site_id
 _symmetry_equiv_pos_as_xyz
  1  'x, y, z'
loop_
 _atom_site_type_symbol
 _atom_site_label
 _atom_site_symmetry_multiplicity
 _atom_site_fract_x
 _atom_site_fract_y
 _atom_site_fract_z
 _atom_site_occupancy
  La  La0  1  0.52736600  0.49935000  0.32208600  1
  La  La1  1  0.97263400  0.00065000  0.82208600  1
  La  La2  1  0.47263400  0.99935000  0.67791400  1
  La  La3  1  0.02736600  0.50065000  0.17791400  1
  La  La4  1  0.47263400  0.50065000  0.67791400  1
  La  La5  1  0.02736600  0.99935000  0.17791400  1
  La  La6  1  0.52736600  0.00065000  0.32208600  1
  La  La7  1  0.97263400  0.49935000  0.82208600  1
  Th  Th8  1  0.07514200  0.75000000  0.49049200  1
  Th  Th9  1  0.42485800  0.75000000  0.99049200  1
  Th  Th10  1  0.92485800  0.25000000  0.50950800  1
  Th  Th11  1  0.57514200  0.25000000  0.00950800  1
  Se  Se12  1  0.83093300  0.95644100  0.59434900  1
  Se  Se13  1  0.66906700  0.54355900  0.09434900  1
  Se  Se14  1  0.16906700  0.45644100  0.40565100  1
  Se  Se15  1  0.33093300  0.04355900  0.90565100  1
  Se  Se16  1  0.16906700  0.04355900  0.40565100  1
  Se  Se17  1  0.33093300  0.45644100  0.90565100  1
  Se  Se18  1  0.83093300  0.54355900  0.59434900  1
  Se  Se19  1  0.66906700  0.95644100  0.09434900  1
  Se  Se20  1  0.83264900  0.75000000  0.31191900  1
  Se  Se21  1  0.66735100  0.75000000  0.81191900  1
  Se  Se22  1  0.16735100  0.25000000  0.68808100  1
  Se  Se23  1  0.33264900  0.25000000  0.18808100  1
  Se  Se24  1  0.45813900  0.75000000  0.49902900  1
  Se  Se25  1  0.04186100  0.75000000  0.99902900  1
  Se  Se26  1  0.54186100  0.25000000  0.50097100  1
  Se  Se27  1  0.95813900  0.25000000  0.00097100  1
  Se  Se28  1  0.19271900  0.75000000  0.71713300  1
  Se  Se29  1  0.30728100  0.75000000  0.21713300  1
  Se  Se30  1  0.80728100  0.25000000  0.28286700  1
  Se  Se31  1  0.69271900  0.25000000  0.78286700  1
