# generated using pymatgen
data_NaCdSb
_symmetry_space_group_name_H-M   'P 1'
_cell_length_a   4.78985900
_cell_length_b   8.08628700
_cell_length_c   8.62893300
_cell_angle_alpha   90.00000000
_cell_angle_beta   90.00000000
_cell_angle_gamma   90.00000000
_symmetry_Int_Tables_number   1
_chemical_formula_structural   NaCdSb
_chemical_formula_sum   'Na4 Cd4 Sb4'
_cell_volume   334.21733925
_cell_formula_units_Z   4
loop_
 _symmetry_equiv_pos_site_id
 _symmetry_equiv_pos_as_xyz
  1  'x, y, z'
loop_
 _atom_site_type_symbol
 _atom_site_label
 _atom_site_symmetry_multiplicity
 _atom_site_fract_x
 _atom_site_fract_y
 _atom_site_fract_z
 _atom_site_occupancy
  Na  Na0  1  0.75000000  0.48482000  0.67831900  1
  Na  Na1  1  0.25000000  0.51518000  0.32168100  1
  Na  Na2  1  0.75000000  0.98482000  0.82168100  1
  Na  Na3  1  0.25000000  0.01518000  0.17831900  1
  Cd  Cd4  1  0.75000000  0.35023400  0.07642400  1
  Cd  Cd5  1  0.25000000  0.64976600  0.92357600  1
  Cd  Cd6  1  0.75000000  0.85023400  0.42357600  1
  Cd  Cd7  1  0.25000000  0.14976600  0.57642400  1
  Sb  Sb8  1  0.75000000  0.72311900  0.10615300  1
  Sb  Sb9  1  0.25000000  0.27688100  0.89384700  1
  Sb  Sb10  1  0.75000000  0.22311900  0.39384700  1
  Sb  Sb11  1  0.25000000  0.77688100  0.60615300  1
