# generated using pymatgen
data_Cs2ErCl5
_symmetry_space_group_name_H-M   'P 1'
_cell_length_a   7.54927100
_cell_length_b   9.75934300
_cell_length_c   15.54707400
_cell_angle_alpha   90.00000000
_cell_angle_beta   90.00000000
_cell_angle_gamma   90.00000000
_symmetry_Int_Tables_number   1
_chemical_formula_structural   Cs2ErCl5
_chemical_formula_sum   'Cs8 Er4 Cl20'
_cell_volume   1145.44505938
_cell_formula_units_Z   4
loop_
 _symmetry_equiv_pos_site_id
 _symmetry_equiv_pos_as_xyz
  1  'x, y, z'
loop_
 _atom_site_type_symbol
 _atom_site_label
 _atom_site_symmetry_multiplicity
 _atom_site_fract_x
 _atom_site_fract_y
 _atom_site_fract_z
 _atom_site_occupancy
  Cs  Cs0  1  0.25000000  0.66501400  0.91689500  1
  Cs  Cs1  1  0.75000000  0.33498600  0.08310500  1
  Cs  Cs2  1  0.75000000  0.83498600  0.41689500  1
  Cs  Cs3  1  0.25000000  0.16501400  0.58310500  1
  Cs  Cs4  1  0.25000000  0.97564400  0.21185700  1
  Cs  Cs5  1  0.75000000  0.02435600  0.78814300  1
  Cs  Cs6  1  0.75000000  0.52435600  0.71185700  1
  Cs  Cs7  1  0.25000000  0.47564400  0.28814300  1
  Er  Er8  1  0.25000000  0.67499500  0.56416400  1
  Er  Er9  1  0.75000000  0.32500500  0.43583600  1
  Er  Er10  1  0.75000000  0.82500500  0.06416400  1
  Er  Er11  1  0.25000000  0.17499500  0.93583600  1
  Cl  Cl12  1  0.25000000  0.52153800  0.69911300  1
  Cl  Cl13  1  0.75000000  0.47846200  0.30088700  1
  Cl  Cl14  1  0.75000000  0.97846200  0.19911300  1
  Cl  Cl15  1  0.25000000  0.02153800  0.80088700  1
  Cl  Cl16  1  0.49927400  0.83027900  0.61748400  1
  Cl  Cl17  1  0.50072600  0.16972100  0.38251600  1
  Cl  Cl18  1  0.50072600  0.66972100  0.11748400  1
  Cl  Cl19  1  0.99927400  0.16972100  0.38251600  1
  Cl  Cl20  1  0.49927400  0.33027900  0.88251600  1
  Cl  Cl21  1  0.00072600  0.83027900  0.61748400  1
  Cl  Cl22  1  0.00072600  0.33027900  0.88251600  1
  Cl  Cl23  1  0.99927400  0.66972100  0.11748400  1
  Cl  Cl24  1  0.25000000  0.78546400  0.40973800  1
  Cl  Cl25  1  0.75000000  0.21453600  0.59026200  1
  Cl  Cl26  1  0.75000000  0.71453600  0.90973800  1
  Cl  Cl27  1  0.25000000  0.28546400  0.09026200  1
  Cl  Cl28  1  0.00000000  0.50000000  0.50000000  1
  Cl  Cl29  1  0.00000000  0.00000000  0.00000000  1
  Cl  Cl30  1  0.50000000  0.50000000  0.50000000  1
  Cl  Cl31  1  0.50000000  0.00000000  0.00000000  1
