# generated using pymatgen
data_ErHfF7
_symmetry_space_group_name_H-M   'P 1'
_cell_length_a   5.65784000
_cell_length_b   6.05177985
_cell_length_c   8.20801484
_cell_angle_alpha   102.21148388
_cell_angle_beta   90.00000000
_cell_angle_gamma   90.00000000
_symmetry_Int_Tables_number   1
_chemical_formula_structural   ErHfF7
_chemical_formula_sum   'Er2 Hf2 F14'
_cell_volume   274.68344365
_cell_formula_units_Z   2
loop_
 _symmetry_equiv_pos_site_id
 _symmetry_equiv_pos_as_xyz
  1  'x, y, z'
loop_
 _atom_site_type_symbol
 _atom_site_label
 _atom_site_symmetry_multiplicity
 _atom_site_fract_x
 _atom_site_fract_y
 _atom_site_fract_z
 _atom_site_occupancy
  Er  Er0  1  0.69794400  0.65529500  0.68488300  1
  Er  Er1  1  0.19794400  0.34470500  0.31511700  1
  Hf  Hf2  1  0.70822000  0.81148000  0.22378300  1
  Hf  Hf3  1  0.20822000  0.18852000  0.77621700  1
  F  F4  1  0.88802700  0.45176200  0.47658800  1
  F  F5  1  0.38802700  0.54823800  0.52341200  1
  F  F6  1  0.42640100  0.92404300  0.76843600  1
  F  F7  1  0.92640100  0.07595700  0.23156400  1
  F  F8  1  0.94335000  0.96127500  0.76248400  1
  F  F9  1  0.44335000  0.03872500  0.23751600  1
  F  F10  1  0.99455200  0.45661600  0.78855500  1
  F  F11  1  0.49455200  0.54338400  0.21144500  1
  F  F12  1  0.70336000  0.75540500  0.97474800  1
  F  F13  1  0.20336000  0.24459500  0.02525200  1
  F  F14  1  0.71123100  0.86082400  0.47397000  1
  F  F15  1  0.21123100  0.13917600  0.52603000  1
  F  F16  1  0.50327600  0.37989600  0.78314200  1
  F  F17  1  0.00327600  0.62010400  0.21685800  1
