# generated using pymatgen
data_Cs2Th(AsO4)2
_symmetry_space_group_name_H-M   'P 1'
_cell_length_a   10.79034368
_cell_length_b   10.79034368
_cell_length_c   10.79034368
_cell_angle_alpha   139.72830911
_cell_angle_beta   139.72830911
_cell_angle_gamma   58.26605563
_symmetry_Int_Tables_number   1
_chemical_formula_structural   Cs2Th(AsO4)2
_chemical_formula_sum   'Cs4 Th2 As4 O16'
_cell_volume   520.19397262
_cell_formula_units_Z   2
loop_
 _symmetry_equiv_pos_site_id
 _symmetry_equiv_pos_as_xyz
  1  'x, y, z'
loop_
 _atom_site_type_symbol
 _atom_site_label
 _atom_site_symmetry_multiplicity
 _atom_site_fract_x
 _atom_site_fract_y
 _atom_site_fract_z
 _atom_site_occupancy
  Cs  Cs0  1  0.87500000  0.62500000  0.75000000  1
  Cs  Cs1  1  0.37500000  0.12500000  0.25000000  1
  Cs  Cs2  1  0.87500000  0.12500000  0.75000000  1
  Cs  Cs3  1  0.87500000  0.12500000  0.25000000  1
  Th  Th4  1  0.50000000  0.50000000  0.00000000  1
  Th  Th5  1  0.25000000  0.75000000  0.50000000  1
  As  As6  1  0.32583000  0.32583000  0.00000000  1
  As  As7  1  0.07583000  0.57583000  0.50000000  1
  As  As8  1  0.42417000  0.92417000  0.50000000  1
  As  As9  1  0.67417000  0.67417000  0.00000000  1
  O  O10  1  0.27083500  0.45572300  0.18488800  1
  O  O11  1  0.20572300  0.52083500  0.68488800  1
  O  O12  1  0.83594700  0.52083500  0.31511200  1
  O  O13  1  0.27083500  0.08594700  0.81511200  1
  O  O14  1  0.47916500  0.79427700  0.31511200  1
  O  O15  1  0.54427700  0.72916500  0.81511200  1
  O  O16  1  0.91405300  0.72916500  0.18488800  1
  O  O17  1  0.47916500  0.16405300  0.68488800  1
  O  O18  1  0.20593900  0.38424800  0.82169100  1
  O  O19  1  0.56255700  0.38424800  0.17830900  1
  O  O20  1  0.13424800  0.45593900  0.32169100  1
  O  O21  1  0.13424800  0.81255700  0.67830900  1
  O  O22  1  0.54406100  0.86575200  0.67830900  1
  O  O23  1  0.18744300  0.86575200  0.32169100  1
  O  O24  1  0.61575200  0.79406100  0.17830900  1
  O  O25  1  0.61575200  0.43744300  0.82169100  1
