# generated using pymatgen
data_Eu2Mn(GeO3)4
_symmetry_space_group_name_H-M   'P 1'
_cell_length_a   10.16535309
_cell_length_b   10.16535309
_cell_length_c   5.03374800
_cell_angle_alpha   90.00000000
_cell_angle_beta   90.00000000
_cell_angle_gamma   90.14932957
_symmetry_Int_Tables_number   1
_chemical_formula_structural   Eu2Mn(GeO3)4
_chemical_formula_sum   'Eu4 Mn2 Ge8 O24'
_cell_volume   520.15758004
_cell_formula_units_Z   2
loop_
 _symmetry_equiv_pos_site_id
 _symmetry_equiv_pos_as_xyz
  1  'x, y, z'
loop_
 _atom_site_type_symbol
 _atom_site_label
 _atom_site_symmetry_multiplicity
 _atom_site_fract_x
 _atom_site_fract_y
 _atom_site_fract_z
 _atom_site_occupancy
  Eu  Eu0  1  0.00000000  0.50000000  0.50000000  1
  Eu  Eu1  1  0.50000000  0.00000000  0.50000000  1
  Eu  Eu2  1  0.75000000  0.75000000  0.50000000  1
  Eu  Eu3  1  0.25000000  0.25000000  0.50000000  1
  Mn  Mn4  1  0.50000000  0.50000000  0.50000000  1
  Mn  Mn5  1  0.00000000  0.00000000  0.50000000  1
  Ge  Ge6  1  0.74392500  0.47345300  0.99238200  1
  Ge  Ge7  1  0.25607500  0.52654700  0.00761800  1
  Ge  Ge8  1  0.24392500  0.97345300  0.00761800  1
  Ge  Ge9  1  0.75607500  0.02654700  0.99238200  1
  Ge  Ge10  1  0.47345300  0.74392500  0.00761800  1
  Ge  Ge11  1  0.52654700  0.25607500  0.99238200  1
  Ge  Ge12  1  0.97345300  0.24392500  0.99238200  1
  Ge  Ge13  1  0.02654700  0.75607500  0.00761800  1
  O  O14  1  0.54984900  0.65900500  0.27227700  1
  O  O15  1  0.06538700  0.32407100  0.23595100  1
  O  O16  1  0.43461300  0.17592900  0.23595100  1
  O  O17  1  0.95015100  0.84099500  0.27227700  1
  O  O18  1  0.45015100  0.34099500  0.72772300  1
  O  O19  1  0.93461300  0.67592900  0.76404900  1
  O  O20  1  0.56538700  0.82407100  0.76404900  1
  O  O21  1  0.04984900  0.15900500  0.72772300  1
  O  O22  1  0.65900500  0.54984900  0.72772300  1
  O  O23  1  0.32407100  0.06538700  0.76404900  1
  O  O24  1  0.17592900  0.43461300  0.76404900  1
  O  O25  1  0.84099500  0.95015100  0.72772300  1
  O  O26  1  0.34099500  0.45015100  0.27227700  1
  O  O27  1  0.67592900  0.93461300  0.23595100  1
  O  O28  1  0.82407100  0.56538700  0.23595100  1
  O  O29  1  0.15900500  0.04984900  0.27227700  1
  O  O30  1  0.36975100  0.63024900  0.82774900  1
  O  O31  1  0.86816400  0.36816400  0.83519400  1
  O  O32  1  0.63183600  0.13183600  0.83519400  1
  O  O33  1  0.13024900  0.86975100  0.82774900  1
  O  O34  1  0.63024900  0.36975100  0.17225100  1
  O  O35  1  0.13183600  0.63183600  0.16480600  1
  O  O36  1  0.36816400  0.86816400  0.16480600  1
  O  O37  1  0.86975100  0.13024900  0.17225100  1
