# generated using pymatgen
data_Na2Sr3As4
_symmetry_space_group_name_H-M   'P 1'
_cell_length_a   7.56756200
_cell_length_b   8.30795100
_cell_length_c   17.79035151
_cell_angle_alpha   62.20675089
_cell_angle_beta   90.00000000
_cell_angle_gamma   90.00000000
_symmetry_Int_Tables_number   1
_chemical_formula_structural   Na2Sr3As4
_chemical_formula_sum   'Na8 Sr12 As16'
_cell_volume   989.46175785
_cell_formula_units_Z   4
loop_
 _symmetry_equiv_pos_site_id
 _symmetry_equiv_pos_as_xyz
  1  'x, y, z'
loop_
 _atom_site_type_symbol
 _atom_site_label
 _atom_site_symmetry_multiplicity
 _atom_site_fract_x
 _atom_site_fract_y
 _atom_site_fract_z
 _atom_site_occupancy
  Na  Na0  1  0.85677100  0.25920100  0.25048700  1
  Na  Na1  1  0.35677100  0.74079900  0.24951300  1
  Na  Na2  1  0.14322900  0.74079900  0.74951300  1
  Na  Na3  1  0.64322900  0.25920100  0.75048700  1
  Na  Na4  1  0.67863400  0.05153400  0.12572800  1
  Na  Na5  1  0.17863400  0.94846600  0.37427200  1
  Na  Na6  1  0.32136600  0.94846600  0.87427200  1
  Na  Na7  1  0.82136600  0.05153400  0.62572800  1
  Sr  Sr8  1  0.52259300  0.59424100  0.09938900  1
  Sr  Sr9  1  0.02259300  0.40575900  0.40061100  1
  Sr  Sr10  1  0.47690400  0.71045900  0.59981800  1
  Sr  Sr11  1  0.97690400  0.28954100  0.90018200  1
  Sr  Sr12  1  0.47740700  0.40575900  0.90061100  1
  Sr  Sr13  1  0.97740700  0.59424100  0.59938900  1
  Sr  Sr14  1  0.52309600  0.28954100  0.40018200  1
  Sr  Sr15  1  0.02309600  0.71045900  0.09981800  1
  Sr  Sr16  1  0.32114000  0.19139600  0.62777100  1
  Sr  Sr17  1  0.82114000  0.80860400  0.87222900  1
  Sr  Sr18  1  0.67886000  0.80860400  0.37222900  1
  Sr  Sr19  1  0.17886000  0.19139600  0.12777100  1
  As  As20  1  0.84973900  0.43083800  0.03671000  1
  As  As21  1  0.34973900  0.56916200  0.46329000  1
  As  As22  1  0.14802900  0.99534600  0.53616100  1
  As  As23  1  0.64802900  0.00465400  0.96383900  1
  As  As24  1  0.15026100  0.56916200  0.96329000  1
  As  As25  1  0.65026100  0.43083800  0.53671000  1
  As  As26  1  0.85197100  0.00465400  0.46383900  1
  As  As27  1  0.35197100  0.99534600  0.03616100  1
  As  As28  1  0.73930400  0.62069100  0.25061600  1
  As  As29  1  0.23930400  0.37930900  0.24938400  1
  As  As30  1  0.26069600  0.37930900  0.74938400  1
  As  As31  1  0.76069600  0.62069100  0.75061600  1
  As  As32  1  0.98009400  0.83426300  0.24981100  1
  As  As33  1  0.48009400  0.16573700  0.25018900  1
  As  As34  1  0.01990600  0.16573700  0.75018900  1
  As  As35  1  0.51990600  0.83426300  0.74981100  1
