# generated using pymatgen
data_Ba2TiS4
_symmetry_space_group_name_H-M   'P 1'
_cell_length_a   6.90665700
_cell_length_b   9.13939000
_cell_length_c   12.64034800
_cell_angle_alpha   90.00000000
_cell_angle_beta   90.00000000
_cell_angle_gamma   90.00000000
_symmetry_Int_Tables_number   1
_chemical_formula_structural   Ba2TiS4
_chemical_formula_sum   'Ba8 Ti4 S16'
_cell_volume   797.89203413
_cell_formula_units_Z   4
loop_
 _symmetry_equiv_pos_site_id
 _symmetry_equiv_pos_as_xyz
  1  'x, y, z'
loop_
 _atom_site_type_symbol
 _atom_site_label
 _atom_site_symmetry_multiplicity
 _atom_site_fract_x
 _atom_site_fract_y
 _atom_site_fract_z
 _atom_site_occupancy
  Ba  Ba0  1  0.25000000  0.13219200  0.07479600  1
  Ba  Ba1  1  0.75000000  0.86780800  0.92520400  1
  Ba  Ba2  1  0.25000000  0.63219200  0.42520400  1
  Ba  Ba3  1  0.75000000  0.36780800  0.57479600  1
  Ba  Ba4  1  0.25000000  0.47658800  0.82515200  1
  Ba  Ba5  1  0.75000000  0.52341200  0.17484800  1
  Ba  Ba6  1  0.25000000  0.97658800  0.67484800  1
  Ba  Ba7  1  0.75000000  0.02341200  0.32515200  1
  Ti  Ti8  1  0.25000000  0.22696000  0.42767300  1
  Ti  Ti9  1  0.75000000  0.77304000  0.57232700  1
  Ti  Ti10  1  0.25000000  0.72696000  0.07232700  1
  Ti  Ti11  1  0.75000000  0.27304000  0.92767300  1
  S  S12  1  0.25000000  0.30680200  0.59745800  1
  S  S13  1  0.75000000  0.69319800  0.40254200  1
  S  S14  1  0.25000000  0.80680200  0.90254200  1
  S  S15  1  0.75000000  0.19319800  0.09745800  1
  S  S16  1  0.99157500  0.83172800  0.14822400  1
  S  S17  1  0.49157500  0.16827200  0.85177600  1
  S  S18  1  0.50842500  0.33172800  0.35177600  1
  S  S19  1  0.00842500  0.66827200  0.64822400  1
  S  S20  1  0.00842500  0.16827200  0.85177600  1
  S  S21  1  0.50842500  0.83172800  0.14822400  1
  S  S22  1  0.49157500  0.66827200  0.64822400  1
  S  S23  1  0.99157500  0.33172800  0.35177600  1
  S  S24  1  0.75000000  0.01907800  0.58866600  1
  S  S25  1  0.25000000  0.98092200  0.41133400  1
  S  S26  1  0.75000000  0.51907800  0.91133400  1
  S  S27  1  0.25000000  0.48092200  0.08866600  1
