# generated using pymatgen
data_BPb2O3F
_symmetry_space_group_name_H-M   'P 1'
_cell_length_a   7.41200644
_cell_length_b   7.41200644
_cell_length_c   14.85043000
_cell_angle_alpha   90.00000000
_cell_angle_beta   90.00000000
_cell_angle_gamma   120.00000395
_symmetry_Int_Tables_number   1
_chemical_formula_structural   BPb2O3F
_chemical_formula_sum   'B6 Pb12 O18 F6'
_cell_volume   706.54726513
_cell_formula_units_Z   6
loop_
 _symmetry_equiv_pos_site_id
 _symmetry_equiv_pos_as_xyz
  1  'x, y, z'
loop_
 _atom_site_type_symbol
 _atom_site_label
 _atom_site_symmetry_multiplicity
 _atom_site_fract_x
 _atom_site_fract_y
 _atom_site_fract_z
 _atom_site_occupancy
  B  B0  1  0.36570000  0.35896400  0.25000000  1
  B  B1  1  0.64103600  0.00673600  0.25000000  1
  B  B2  1  0.99326400  0.63430000  0.25000000  1
  B  B3  1  0.63430000  0.64103600  0.75000000  1
  B  B4  1  0.35896400  0.99326400  0.75000000  1
  B  B5  1  0.00673600  0.36570000  0.75000000  1
  Pb  Pb6  1  0.32468900  0.01077100  0.10672700  1
  Pb  Pb7  1  0.98922900  0.31391800  0.10672700  1
  Pb  Pb8  1  0.68608200  0.67531100  0.10672700  1
  Pb  Pb9  1  0.67531100  0.98922900  0.60672700  1
  Pb  Pb10  1  0.01077100  0.68608200  0.60672700  1
  Pb  Pb11  1  0.31391800  0.32468900  0.60672700  1
  Pb  Pb12  1  0.67531100  0.98922900  0.89327300  1
  Pb  Pb13  1  0.01077100  0.68608200  0.89327300  1
  Pb  Pb14  1  0.31391800  0.32468900  0.89327300  1
  Pb  Pb15  1  0.32468900  0.01077100  0.39327300  1
  Pb  Pb16  1  0.98922900  0.31391800  0.39327300  1
  Pb  Pb17  1  0.68608200  0.67531100  0.39327300  1
  O  O18  1  0.54947500  0.54909300  0.25000000  1
  O  O19  1  0.45090700  0.00038300  0.25000000  1
  O  O20  1  0.99961700  0.45052500  0.25000000  1
  O  O21  1  0.45052500  0.45090700  0.75000000  1
  O  O22  1  0.54909300  0.99961700  0.75000000  1
  O  O23  1  0.00038300  0.54947500  0.75000000  1
  O  O24  1  0.27704200  0.26992300  0.16756300  1
  O  O25  1  0.73007700  0.00711900  0.16756300  1
  O  O26  1  0.99288100  0.72295800  0.16756300  1
  O  O27  1  0.72295800  0.73007700  0.66756300  1
  O  O28  1  0.26992300  0.99288100  0.66756300  1
  O  O29  1  0.00711900  0.27704200  0.66756300  1
  O  O30  1  0.72295800  0.73007700  0.83243700  1
  O  O31  1  0.26992300  0.99288100  0.83243700  1
  O  O32  1  0.00711900  0.27704200  0.83243700  1
  O  O33  1  0.27704200  0.26992300  0.33243700  1
  O  O34  1  0.73007700  0.00711900  0.33243700  1
  O  O35  1  0.99288100  0.72295800  0.33243700  1
  F  F36  1  0.66666700  0.33333300  0.05932400  1
  F  F37  1  0.33333300  0.66666700  0.55932400  1
  F  F38  1  0.33333300  0.66666700  0.94067600  1
  F  F39  1  0.66666700  0.33333300  0.44067600  1
  F  F40  1  0.00000000  0.00000000  0.00000000  1
  F  F41  1  0.00000000  0.00000000  0.50000000  1
