# generated using pymatgen
data_Ba5Li2U3O15
_symmetry_space_group_name_H-M   'P 1'
_cell_length_a   10.56149733
_cell_length_b   10.56149733
_cell_length_c   10.56149733
_cell_angle_alpha   99.64547263
_cell_angle_beta   99.64547263
_cell_angle_gamma   131.67446587
_symmetry_Int_Tables_number   1
_chemical_formula_structural   Ba5Li2U3O15
_chemical_formula_sum   'Ba10 Li4 U6 O30'
_cell_volume   802.85626394
_cell_formula_units_Z   2
loop_
 _symmetry_equiv_pos_site_id
 _symmetry_equiv_pos_as_xyz
  1  'x, y, z'
loop_
 _atom_site_type_symbol
 _atom_site_label
 _atom_site_symmetry_multiplicity
 _atom_site_fract_x
 _atom_site_fract_y
 _atom_site_fract_z
 _atom_site_occupancy
  Ba  Ba0  1  0.75000000  0.25000000  0.50000000  1
  Ba  Ba1  1  0.52579600  0.63395800  0.68234200  1
  Ba  Ba2  1  0.95161600  0.84345400  0.31765800  1
  Ba  Ba3  1  0.15654600  0.47420400  0.10816300  1
  Ba  Ba4  1  0.36604200  0.04838400  0.89183700  1
  Ba  Ba5  1  0.84345400  0.52579600  0.89183700  1
  Ba  Ba6  1  0.63395800  0.95161600  0.10816300  1
  Ba  Ba7  1  0.04838400  0.15654600  0.68234200  1
  Ba  Ba8  1  0.25000000  0.75000000  0.50000000  1
  Ba  Ba9  1  0.47420400  0.36604200  0.31765800  1
  Li  Li10  1  0.40235100  0.19723900  0.59959000  1
  Li  Li11  1  0.80276100  0.40235100  0.20511200  1
  Li  Li12  1  0.19723900  0.59764900  0.79488800  1
  Li  Li13  1  0.59764900  0.80276100  0.40041000  1
  U  U14  1  0.30111100  0.90096700  0.20207800  1
  U  U15  1  0.09903300  0.30111100  0.40014400  1
  U  U16  1  0.50000000  0.50000000  0.00000000  1
  U  U17  1  0.69888900  0.09903300  0.79792200  1
  U  U18  1  0.90096700  0.69888900  0.59985600  1
  U  U19  1  0.00000000  0.00000000  0.00000000  1
  O  O20  1  0.53635400  0.13614900  0.19799300  1
  O  O21  1  0.33836000  0.53635400  0.40020400  1
  O  O22  1  0.76190900  0.76190900  0.00000000  1
  O  O23  1  0.93815600  0.33836000  0.80200700  1
  O  O24  1  0.13614900  0.93815600  0.59979600  1
  O  O25  1  0.25333800  0.75732300  0.01066100  1
  O  O26  1  0.04805600  0.14412400  0.19218100  1
  O  O27  1  0.45209200  0.36028600  0.81237800  1
  O  O28  1  0.65461700  0.95563300  0.61025000  1
  O  O29  1  0.84880100  0.55299800  0.40179900  1
  O  O30  1  0.14412400  0.95194400  0.09606800  1
  O  O31  1  0.95563300  0.34538300  0.30101700  1
  O  O32  1  0.36028600  0.54790800  0.90819300  1
  O  O33  1  0.55299800  0.15119900  0.70419700  1
  O  O34  1  0.75732300  0.74666200  0.50398500  1
  O  O35  1  0.06184400  0.66164000  0.19799300  1
  O  O36  1  0.86385100  0.06184400  0.40020400  1
  O  O37  1  0.23809100  0.23809100  0.00000000  1
  O  O38  1  0.46364600  0.86385100  0.80200700  1
  O  O39  1  0.66164000  0.46364600  0.59979600  1
  O  O40  1  0.34538300  0.04436700  0.38975000  1
  O  O41  1  0.15119900  0.44700200  0.59820100  1
  O  O42  1  0.54790800  0.63971400  0.18762200  1
  O  O43  1  0.74666200  0.24267700  0.98933900  1
  O  O44  1  0.95194400  0.85587600  0.80781900  1
  O  O45  1  0.44700200  0.84880100  0.29580300  1
  O  O46  1  0.24267700  0.25333800  0.49601500  1
  O  O47  1  0.63971400  0.45209200  0.09180700  1
  O  O48  1  0.85587600  0.04805600  0.90393200  1
  O  O49  1  0.04436700  0.65461700  0.69898300  1
