# generated using pymatgen
data_RbCuPdSe5
_symmetry_space_group_name_H-M   'P 1'
_cell_length_a   7.42394000
_cell_length_b   6.37993700
_cell_length_c   9.30308746
_cell_angle_alpha   76.96642378
_cell_angle_beta   90.00000000
_cell_angle_gamma   90.00000000
_symmetry_Int_Tables_number   1
_chemical_formula_structural   RbCuPdSe5
_chemical_formula_sum   'Rb2 Cu2 Pd2 Se10'
_cell_volume   429.28236213
_cell_formula_units_Z   2
loop_
 _symmetry_equiv_pos_site_id
 _symmetry_equiv_pos_as_xyz
  1  'x, y, z'
loop_
 _atom_site_type_symbol
 _atom_site_label
 _atom_site_symmetry_multiplicity
 _atom_site_fract_x
 _atom_site_fract_y
 _atom_site_fract_z
 _atom_site_occupancy
  Rb  Rb0  1  0.75000000  0.74623900  0.05105200  1
  Rb  Rb1  1  0.25000000  0.25376100  0.94894800  1
  Cu  Cu2  1  0.75000000  0.88963600  0.60919400  1
  Cu  Cu3  1  0.25000000  0.11036400  0.39080600  1
  Pd  Pd4  1  0.50000000  0.50000000  0.50000000  1
  Pd  Pd5  1  0.00000000  0.50000000  0.50000000  1
  Se  Se6  1  0.25000000  0.95521600  0.65157100  1
  Se  Se7  1  0.99116100  0.31373500  0.29109800  1
  Se  Se8  1  0.75000000  0.27352900  0.63274300  1
  Se  Se9  1  0.25000000  0.72647100  0.36725700  1
  Se  Se10  1  0.50883900  0.31373500  0.29109800  1
  Se  Se11  1  0.25000000  0.70072400  0.11547100  1
  Se  Se12  1  0.75000000  0.29927600  0.88452900  1
  Se  Se13  1  0.75000000  0.04478400  0.34842900  1
  Se  Se14  1  0.00883900  0.68626500  0.70890200  1
  Se  Se15  1  0.49116100  0.68626500  0.70890200  1
