# generated using pymatgen
data_RbLaZr6FeCl18
_symmetry_space_group_name_H-M   'P 1'
_cell_length_a   9.87871959
_cell_length_b   9.87871959
_cell_length_c   18.76453300
_cell_angle_alpha   90.00000000
_cell_angle_beta   90.00000000
_cell_angle_gamma   119.99999723
_symmetry_Int_Tables_number   1
_chemical_formula_structural   RbLaZr6FeCl18
_chemical_formula_sum   'Rb2 La2 Zr12 Fe2 Cl36'
_cell_volume   1585.87780147
_cell_formula_units_Z   2
loop_
 _symmetry_equiv_pos_site_id
 _symmetry_equiv_pos_as_xyz
  1  'x, y, z'
loop_
 _atom_site_type_symbol
 _atom_site_label
 _atom_site_symmetry_multiplicity
 _atom_site_fract_x
 _atom_site_fract_y
 _atom_site_fract_z
 _atom_site_occupancy
  Rb  Rb0  1  0.33333300  0.66666700  0.75000000  1
  Rb  Rb1  1  0.66666700  0.33333300  0.25000000  1
  La  La2  1  0.66666700  0.33333300  0.75000000  1
  La  La3  1  0.33333300  0.66666700  0.25000000  1
  Zr  Zr4  1  0.82206100  0.04057800  0.57470300  1
  Zr  Zr5  1  0.17793900  0.95942200  0.42529700  1
  Zr  Zr6  1  0.95942200  0.78148300  0.57470300  1
  Zr  Zr7  1  0.82206100  0.78148300  0.92529700  1
  Zr  Zr8  1  0.04057800  0.21851700  0.42529700  1
  Zr  Zr9  1  0.17793900  0.21851700  0.07470300  1
  Zr  Zr10  1  0.21851700  0.17793900  0.57470300  1
  Zr  Zr11  1  0.95942200  0.17793900  0.92529700  1
  Zr  Zr12  1  0.78148300  0.82206100  0.42529700  1
  Zr  Zr13  1  0.04057800  0.82206100  0.07470300  1
  Zr  Zr14  1  0.21851700  0.04057800  0.92529700  1
  Zr  Zr15  1  0.78148300  0.95942200  0.07470300  1
  Fe  Fe16  1  0.00000000  0.00000000  0.50000000  1
  Fe  Fe17  1  0.00000000  0.00000000  0.00000000  1
  Cl  Cl18  1  0.27069000  0.41734000  0.50081000  1
  Cl  Cl19  1  0.72931000  0.58266000  0.49919000  1
  Cl  Cl20  1  0.58266000  0.85335000  0.50081000  1
  Cl  Cl21  1  0.27069000  0.85335000  0.99919000  1
  Cl  Cl22  1  0.41734000  0.14665000  0.49919000  1
  Cl  Cl23  1  0.72931000  0.14665000  0.00081000  1
  Cl  Cl24  1  0.14665000  0.72931000  0.50081000  1
  Cl  Cl25  1  0.58266000  0.72931000  0.99919000  1
  Cl  Cl26  1  0.85335000  0.27069000  0.49919000  1
  Cl  Cl27  1  0.41734000  0.27069000  0.00081000  1
  Cl  Cl28  1  0.14665000  0.41734000  0.99919000  1
  Cl  Cl29  1  0.85335000  0.58266000  0.00081000  1
  Cl  Cl30  1  0.04241200  0.23055600  0.65798600  1
  Cl  Cl31  1  0.95758800  0.76944400  0.34201400  1
  Cl  Cl32  1  0.76944400  0.81185600  0.65798600  1
  Cl  Cl33  1  0.04241200  0.81185600  0.84201400  1
  Cl  Cl34  1  0.23055600  0.18814400  0.34201400  1
  Cl  Cl35  1  0.95758800  0.18814400  0.15798600  1
  Cl  Cl36  1  0.18814400  0.95758800  0.65798600  1
  Cl  Cl37  1  0.76944400  0.95758800  0.84201400  1
  Cl  Cl38  1  0.81185600  0.04241200  0.34201400  1
  Cl  Cl39  1  0.23055600  0.04241200  0.15798600  1
  Cl  Cl40  1  0.18814400  0.23055600  0.84201400  1
  Cl  Cl41  1  0.81185600  0.76944400  0.15798600  1
  Cl  Cl42  1  0.62120100  0.07840100  0.66282600  1
  Cl  Cl43  1  0.37879900  0.92159900  0.33717400  1
  Cl  Cl44  1  0.92159900  0.54280000  0.66282600  1
  Cl  Cl45  1  0.62120100  0.54280000  0.83717400  1
  Cl  Cl46  1  0.07840100  0.45720000  0.33717400  1
  Cl  Cl47  1  0.37879900  0.45720000  0.16282600  1
  Cl  Cl48  1  0.45720000  0.37879900  0.66282600  1
  Cl  Cl49  1  0.92159900  0.37879900  0.83717400  1
  Cl  Cl50  1  0.54280000  0.62120100  0.33717400  1
  Cl  Cl51  1  0.07840100  0.62120100  0.16282600  1
  Cl  Cl52  1  0.45720000  0.07840100  0.83717400  1
  Cl  Cl53  1  0.54280000  0.92159900  0.16282600  1
