# generated using pymatgen
data_Cs2ZnSi5O12
_symmetry_space_group_name_H-M   'P 1'
_cell_length_a   13.88404037
_cell_length_b   13.87132447
_cell_length_c   13.99782556
_cell_angle_alpha   90.00000000
_cell_angle_beta   90.00000000
_cell_angle_gamma   90.00000000
_symmetry_Int_Tables_number   1
_chemical_formula_structural   Cs2ZnSi5O12
_chemical_formula_sum   'Cs16 Zn8 Si40 O96'
_cell_volume   2695.84162951
_cell_formula_units_Z   8
loop_
 _symmetry_equiv_pos_site_id
 _symmetry_equiv_pos_as_xyz
  1  'x, y, z'
loop_
 _atom_site_type_symbol
 _atom_site_label
 _atom_site_symmetry_multiplicity
 _atom_site_fract_x
 _atom_site_fract_y
 _atom_site_fract_z
 _atom_site_occupancy
  Cs  Cs0  1  0.64434904  0.87314421  0.64062907  1
  Cs  Cs1  1  0.35565096  0.12685579  0.35937093  1
  Cs  Cs2  1  0.35565096  0.62685579  0.14062907  1
  Cs  Cs3  1  0.14434904  0.12685579  0.85937093  1
  Cs  Cs4  1  0.64434904  0.37314421  0.85937093  1
  Cs  Cs5  1  0.85565096  0.87314421  0.14062907  1
  Cs  Cs6  1  0.85565096  0.37314421  0.35937093  1
  Cs  Cs7  1  0.14434904  0.62685579  0.64062907  1
  Cs  Cs8  1  0.89414242  0.62159472  0.89148254  1
  Cs  Cs9  1  0.10585758  0.37840528  0.10851746  1
  Cs  Cs10  1  0.10585758  0.87840528  0.39148254  1
  Cs  Cs11  1  0.39414242  0.37840528  0.60851746  1
  Cs  Cs12  1  0.89414242  0.12159472  0.60851746  1
  Cs  Cs13  1  0.60585758  0.62159472  0.39148254  1
  Cs  Cs14  1  0.60585758  0.12159472  0.10851746  1
  Cs  Cs15  1  0.39414242  0.87840528  0.89148254  1
  Zn  Zn16  1  0.66490682  0.87958392  0.92581713  1
  Zn  Zn17  1  0.33509318  0.12041608  0.07418287  1
  Zn  Zn18  1  0.33509318  0.62041608  0.42581713  1
  Zn  Zn19  1  0.16490682  0.12041608  0.57418287  1
  Zn  Zn20  1  0.66490682  0.37958392  0.57418287  1
  Zn  Zn21  1  0.83509318  0.87958392  0.42581713  1
  Zn  Zn22  1  0.83509318  0.37958392  0.07418287  1
  Zn  Zn23  1  0.16490682  0.62041608  0.92581713  1
  Si  Si24  1  0.92440566  0.83630446  0.64205526  1
  Si  Si25  1  0.07559434  0.16369554  0.35794474  1
  Si  Si26  1  0.07559434  0.66369554  0.14205526  1
  Si  Si27  1  0.42440566  0.16369554  0.85794474  1
  Si  Si28  1  0.92440566  0.33630446  0.85794474  1
  Si  Si29  1  0.57559434  0.83630446  0.14205526  1
  Si  Si30  1  0.57559434  0.33630446  0.35794474  1
  Si  Si31  1  0.42440566  0.66369554  0.64205526  1
  Si  Si32  1  0.88272973  0.91483413  0.85166807  1
  Si  Si33  1  0.11727027  0.08516587  0.14833193  1
  Si  Si34  1  0.11727027  0.58516587  0.35166807  1
  Si  Si35  1  0.38272973  0.08516587  0.64833193  1
  Si  Si36  1  0.88272973  0.41483413  0.64833193  1
  Si  Si37  1  0.61727027  0.91483413  0.35166807  1
  Si  Si38  1  0.61727027  0.41483413  0.14833193  1
  Si  Si39  1  0.38272973  0.58516587  0.85166807  1
  Si  Si40  1  0.63657665  0.59301947  0.68390292  1
  Si  Si41  1  0.36342335  0.40698053  0.31609708  1
  Si  Si42  1  0.36342335  0.90698053  0.18390292  1
  Si  Si43  1  0.13657665  0.40698053  0.81609708  1
  Si  Si44  1  0.63657665  0.09301947  0.81609708  1
  Si  Si45  1  0.86342335  0.59301947  0.18390292  1
  Si  Si46  1  0.86342335  0.09301947  0.31609708  1
  Si  Si47  1  0.13657665  0.90698053  0.68390292  1
  Si  Si48  1  0.83764478  0.62845057  0.59823547  1
  Si  Si49  1  0.16235522  0.37154943  0.40176453  1
  Si  Si50  1  0.16235522  0.87154943  0.09823547  1
  Si  Si51  1  0.33764478  0.37154943  0.90176453  1
  Si  Si52  1  0.83764478  0.12845057  0.90176453  1
  Si  Si53  1  0.66235522  0.62845057  0.09823547  1
  Si  Si54  1  0.66235522  0.12845057  0.40176453  1
  Si  Si55  1  0.33764478  0.87154943  0.59823547  1
  Si  Si56  1  0.59701704  0.65677008  0.88799629  1
  Si  Si57  1  0.40298296  0.34322992  0.11200371  1
  Si  Si58  1  0.40298296  0.84322992  0.38799629  1
  Si  Si59  1  0.09701704  0.34322992  0.61200371  1
  Si  Si60  1  0.59701704  0.15677008  0.61200371  1
  Si  Si61  1  0.90298296  0.65677008  0.38799629  1
  Si  Si62  1  0.90298296  0.15677008  0.11200371  1
  Si  Si63  1  0.09701704  0.84322992  0.88799629  1
  O  O64  1  0.88207133  0.90002260  0.55678227  1
  O  O65  1  0.11792867  0.09997740  0.44321773  1
  O  O66  1  0.11792867  0.59997740  0.05678227  1
  O  O67  1  0.38207133  0.09997740  0.94321773  1
  O  O68  1  0.88207133  0.40002260  0.94321773  1
  O  O69  1  0.61792867  0.90002260  0.05678227  1
  O  O70  1  0.61792867  0.40002260  0.44321773  1
  O  O71  1  0.38207133  0.59997740  0.55678227  1
  O  O72  1  0.62421308  0.98102567  0.83682968  1
  O  O73  1  0.37578692  0.01897433  0.16317032  1
  O  O74  1  0.37578692  0.51897433  0.33682968  1
  O  O75  1  0.12421308  0.01897433  0.66317032  1
  O  O76  1  0.62421308  0.48102567  0.66317032  1
  O  O77  1  0.87578692  0.98102567  0.33682968  1
  O  O78  1  0.87578692  0.48102567  0.16317032  1
  O  O79  1  0.12421308  0.51897433  0.83682968  1
  O  O80  1  0.99249586  0.89796349  0.89132521  1
  O  O81  1  0.00750414  0.10203651  0.10867479  1
  O  O82  1  0.00750414  0.60203651  0.39132521  1
  O  O83  1  0.49249586  0.10203651  0.60867479  1
  O  O84  1  0.99249586  0.39796349  0.60867479  1
  O  O85  1  0.50750414  0.89796349  0.39132521  1
  O  O86  1  0.50750414  0.39796349  0.10867479  1
  O  O87  1  0.49249586  0.60203651  0.89132521  1
  O  O88  1  0.72419212  0.64799042  0.62385599  1
  O  O89  1  0.27580788  0.35200958  0.37614401  1
  O  O90  1  0.27580788  0.85200958  0.12385599  1
  O  O91  1  0.22419212  0.35200958  0.87614401  1
  O  O92  1  0.72419212  0.14799042  0.87614401  1
  O  O93  1  0.77580788  0.64799042  0.12385599  1
  O  O94  1  0.77580788  0.14799042  0.37614401  1
  O  O95  1  0.22419212  0.85200958  0.62385599  1
  O  O96  1  0.87503903  0.53434611  0.65790219  1
  O  O97  1  0.12496097  0.46565389  0.34209781  1
  O  O98  1  0.12496097  0.96565389  0.15790219  1
  O  O99  1  0.37503903  0.46565389  0.84209781  1
  O  O100  1  0.87503903  0.03434611  0.84209781  1
  O  O101  1  0.62496097  0.53434611  0.15790219  1
  O  O102  1  0.62496097  0.03434611  0.34209781  1
  O  O103  1  0.37503903  0.96565389  0.65790219  1
  O  O104  1  0.66022020  0.61056872  0.79855561  1
  O  O105  1  0.33977980  0.38943128  0.20144439  1
  O  O106  1  0.33977980  0.88943128  0.29855561  1
  O  O107  1  0.16022020  0.38943128  0.70144439  1
  O  O108  1  0.66022020  0.11056872  0.70144439  1
  O  O109  1  0.83977980  0.61056872  0.29855561  1
  O  O110  1  0.83977980  0.11056872  0.20144439  1
  O  O111  1  0.16022020  0.88943128  0.79855561  1
  O  O112  1  0.87361740  0.87183902  0.74253888  1
  O  O113  1  0.12638260  0.12816098  0.25746112  1
  O  O114  1  0.12638260  0.62816098  0.24253888  1
  O  O115  1  0.37361740  0.12816098  0.75746112  1
  O  O116  1  0.87361740  0.37183902  0.75746112  1
  O  O117  1  0.62638260  0.87183902  0.24253888  1
  O  O118  1  0.62638260  0.37183902  0.25746112  1
  O  O119  1  0.37361740  0.62816098  0.74253888  1
  O  O120  1  0.58646269  0.77074529  0.88185793  1
  O  O121  1  0.41353731  0.22925471  0.11814207  1
  O  O122  1  0.41353731  0.72925471  0.38185793  1
  O  O123  1  0.08646269  0.22925471  0.61814207  1
  O  O124  1  0.58646269  0.27074529  0.61814207  1
  O  O125  1  0.91353731  0.77074529  0.38185793  1
  O  O126  1  0.91353731  0.27074529  0.11814207  1
  O  O127  1  0.08646269  0.72925471  0.88185793  1
  O  O128  1  0.54253703  0.65917016  0.65349161  1
  O  O129  1  0.45746297  0.34082984  0.34650839  1
  O  O130  1  0.45746297  0.84082984  0.15349161  1
  O  O131  1  0.04253703  0.34082984  0.84650839  1
  O  O132  1  0.54253703  0.15917016  0.84650839  1
  O  O133  1  0.95746297  0.65917016  0.15349161  1
  O  O134  1  0.95746297  0.15917016  0.34650839  1
  O  O135  1  0.04253703  0.84082984  0.65349161  1
  O  O136  1  0.90420311  0.71866166  0.63334312  1
  O  O137  1  0.09579689  0.28133834  0.36665688  1
  O  O138  1  0.09579689  0.78133834  0.13334312  1
  O  O139  1  0.40420311  0.28133834  0.86665688  1
  O  O140  1  0.90420311  0.21866166  0.86665688  1
  O  O141  1  0.59579689  0.71866166  0.13334312  1
  O  O142  1  0.59579689  0.21866166  0.36665688  1
  O  O143  1  0.40420311  0.78133834  0.63334312  1
  O  O144  1  0.80540009  0.86713338  0.92207776  1
  O  O145  1  0.19459991  0.13286662  0.07792224  1
  O  O146  1  0.19459991  0.63286662  0.42207776  1
  O  O147  1  0.30540009  0.13286662  0.57792224  1
  O  O148  1  0.80540009  0.36713338  0.57792224  1
  O  O149  1  0.69459991  0.86713338  0.42207776  1
  O  O150  1  0.69459991  0.36713338  0.07792224  1
  O  O151  1  0.30540009  0.63286662  0.92207776  1
  O  O152  1  0.65589756  0.61439935  0.98267395  1
  O  O153  1  0.34410244  0.38560065  0.01732605  1
  O  O154  1  0.34410244  0.88560065  0.48267395  1
  O  O155  1  0.15589756  0.38560065  0.51732605  1
  O  O156  1  0.65589756  0.11439935  0.51732605  1
  O  O157  1  0.84410244  0.61439935  0.48267395  1
  O  O158  1  0.84410244  0.11439935  0.01732605  1
  O  O159  1  0.15589756  0.88560065  0.98267395  1
