# generated using pymatgen
data_CsHo2Cl7
_symmetry_space_group_name_H-M   'P 1'
_cell_length_a   7.06015800
_cell_length_b   12.72105000
_cell_length_c   13.83504700
_cell_angle_alpha   90.00000000
_cell_angle_beta   90.00000000
_cell_angle_gamma   90.00000000
_symmetry_Int_Tables_number   1
_chemical_formula_structural   CsHo2Cl7
_chemical_formula_sum   'Cs4 Ho8 Cl28'
_cell_volume   1242.56185937
_cell_formula_units_Z   4
loop_
 _symmetry_equiv_pos_site_id
 _symmetry_equiv_pos_as_xyz
  1  'x, y, z'
loop_
 _atom_site_type_symbol
 _atom_site_label
 _atom_site_symmetry_multiplicity
 _atom_site_fract_x
 _atom_site_fract_y
 _atom_site_fract_z
 _atom_site_occupancy
  Cs  Cs0  1  0.25000000  0.80497100  0.04120000  1
  Cs  Cs1  1  0.75000000  0.19502900  0.95880000  1
  Cs  Cs2  1  0.75000000  0.30497100  0.45880000  1
  Cs  Cs3  1  0.25000000  0.69502900  0.54120000  1
  Ho  Ho4  1  0.25000000  0.45997700  0.23829400  1
  Ho  Ho5  1  0.75000000  0.54002300  0.76170600  1
  Ho  Ho6  1  0.75000000  0.95997700  0.26170600  1
  Ho  Ho7  1  0.25000000  0.04002300  0.73829400  1
  Ho  Ho8  1  0.25000000  0.15692300  0.25021700  1
  Ho  Ho9  1  0.75000000  0.84307700  0.74978300  1
  Ho  Ho10  1  0.75000000  0.65692300  0.24978300  1
  Ho  Ho11  1  0.25000000  0.34307700  0.75021700  1
  Cl  Cl12  1  0.01465900  0.30646600  0.17709900  1
  Cl  Cl13  1  0.98534100  0.69353400  0.82290100  1
  Cl  Cl14  1  0.98534100  0.80646600  0.32290100  1
  Cl  Cl15  1  0.51465900  0.69353400  0.82290100  1
  Cl  Cl16  1  0.01465900  0.19353400  0.67709900  1
  Cl  Cl17  1  0.48534100  0.30646600  0.17709900  1
  Cl  Cl18  1  0.48534100  0.19353400  0.67709900  1
  Cl  Cl19  1  0.51465900  0.80646600  0.32290100  1
  Cl  Cl20  1  0.00915500  0.57573900  0.12672300  1
  Cl  Cl21  1  0.99084500  0.42426100  0.87327700  1
  Cl  Cl22  1  0.99084500  0.07573900  0.37327700  1
  Cl  Cl23  1  0.50915500  0.42426100  0.87327700  1
  Cl  Cl24  1  0.00915500  0.92426100  0.62672300  1
  Cl  Cl25  1  0.49084500  0.57573900  0.12672300  1
  Cl  Cl26  1  0.49084500  0.92426100  0.62672300  1
  Cl  Cl27  1  0.50915500  0.07573900  0.37327700  1
  Cl  Cl28  1  0.01030500  0.03997000  0.13705600  1
  Cl  Cl29  1  0.98969500  0.96003000  0.86294400  1
  Cl  Cl30  1  0.98969500  0.53997000  0.36294400  1
  Cl  Cl31  1  0.51030500  0.96003000  0.86294400  1
  Cl  Cl32  1  0.01030500  0.46003000  0.63705600  1
  Cl  Cl33  1  0.48969500  0.03997000  0.13705600  1
  Cl  Cl34  1  0.48969500  0.46003000  0.63705600  1
  Cl  Cl35  1  0.51030500  0.53997000  0.36294400  1
  Cl  Cl36  1  0.25000000  0.31206800  0.38738400  1
  Cl  Cl37  1  0.75000000  0.68793200  0.61261600  1
  Cl  Cl38  1  0.75000000  0.81206800  0.11261600  1
  Cl  Cl39  1  0.25000000  0.18793200  0.88738400  1
