# generated using pymatgen
data_VAuS2
_symmetry_space_group_name_H-M   'P 1'
_cell_length_a   3.22547450
_cell_length_b   3.22547450
_cell_length_c   15.18863700
_cell_angle_alpha   90.00000000
_cell_angle_beta   90.00000000
_cell_angle_gamma   120.00001025
_symmetry_Int_Tables_number   1
_chemical_formula_structural   VAuS2
_chemical_formula_sum   'V2 Au2 S4'
_cell_volume   136.84742035
_cell_formula_units_Z   2
loop_
 _symmetry_equiv_pos_site_id
 _symmetry_equiv_pos_as_xyz
  1  'x, y, z'
loop_
 _atom_site_type_symbol
 _atom_site_label
 _atom_site_symmetry_multiplicity
 _atom_site_fract_x
 _atom_site_fract_y
 _atom_site_fract_z
 _atom_site_occupancy
  V  V0  1  0.33333300  0.66666700  0.25000000  1
  V  V1  1  0.66666700  0.33333300  0.75000000  1
  Au  Au2  1  0.00000000  0.00000000  0.00000000  1
  Au  Au3  1  0.00000000  0.00000000  0.50000000  1
  S  S4  1  0.00000000  0.00000000  0.34419600  1
  S  S5  1  0.00000000  0.00000000  0.84419600  1
  S  S6  1  0.00000000  0.00000000  0.15580400  1
  S  S7  1  0.00000000  0.00000000  0.65580400  1
