# generated using pymatgen
data_Na5(Sn5Hg)2
_symmetry_space_group_name_H-M   'P 1'
_cell_length_a   11.04122300
_cell_length_b   13.46146400
_cell_length_c   13.51961900
_cell_angle_alpha   90.00000000
_cell_angle_beta   90.00000000
_cell_angle_gamma   90.00000000
_symmetry_Int_Tables_number   1
_chemical_formula_structural   Na5(Sn5Hg)2
_chemical_formula_sum   'Na20 Sn40 Hg8'
_cell_volume   2009.43484216
_cell_formula_units_Z   4
loop_
 _symmetry_equiv_pos_site_id
 _symmetry_equiv_pos_as_xyz
  1  'x, y, z'
loop_
 _atom_site_type_symbol
 _atom_site_label
 _atom_site_symmetry_multiplicity
 _atom_site_fract_x
 _atom_site_fract_y
 _atom_site_fract_z
 _atom_site_occupancy
  Na  Na0  1  0.76211600  0.50000000  0.75000000  1
  Na  Na1  1  0.23788400  0.50000000  0.25000000  1
  Na  Na2  1  0.73788400  0.00000000  0.25000000  1
  Na  Na3  1  0.26211600  0.00000000  0.75000000  1
  Na  Na4  1  0.54244800  0.62969000  0.59577800  1
  Na  Na5  1  0.45755200  0.37031000  0.40422200  1
  Na  Na6  1  0.95755200  0.87031000  0.09577800  1
  Na  Na7  1  0.54244800  0.37031000  0.90422200  1
  Na  Na8  1  0.04244800  0.12969000  0.90422200  1
  Na  Na9  1  0.45755200  0.62969000  0.09577800  1
  Na  Na10  1  0.95755200  0.12969000  0.40422200  1
  Na  Na11  1  0.04244800  0.87031000  0.59577800  1
  Na  Na12  1  0.94598900  0.66219400  0.89278200  1
  Na  Na13  1  0.05401100  0.33780600  0.10721800  1
  Na  Na14  1  0.55401100  0.83780600  0.39278200  1
  Na  Na15  1  0.94598900  0.33780600  0.60721800  1
  Na  Na16  1  0.44598900  0.16219400  0.60721800  1
  Na  Na17  1  0.05401100  0.66219400  0.39278200  1
  Na  Na18  1  0.55401100  0.16219400  0.10721800  1
  Na  Na19  1  0.44598900  0.83780600  0.89278200  1
  Sn  Sn20  1  0.56250900  0.92061700  0.66514300  1
  Sn  Sn21  1  0.43749100  0.07938300  0.33485700  1
  Sn  Sn22  1  0.93749100  0.57938300  0.16514300  1
  Sn  Sn23  1  0.56250900  0.07938300  0.83485700  1
  Sn  Sn24  1  0.06250900  0.42061700  0.83485700  1
  Sn  Sn25  1  0.43749100  0.92061700  0.16514300  1
  Sn  Sn26  1  0.93749100  0.42061700  0.33485700  1
  Sn  Sn27  1  0.06250900  0.57938300  0.66514300  1
  Sn  Sn28  1  0.85640200  0.68396100  0.57010300  1
  Sn  Sn29  1  0.14359800  0.31603900  0.42989700  1
  Sn  Sn30  1  0.64359800  0.81603900  0.07010300  1
  Sn  Sn31  1  0.85640200  0.31603900  0.92989700  1
  Sn  Sn32  1  0.35640200  0.18396100  0.92989700  1
  Sn  Sn33  1  0.14359800  0.68396100  0.07010300  1
  Sn  Sn34  1  0.64359800  0.18396100  0.42989700  1
  Sn  Sn35  1  0.35640200  0.81603900  0.57010300  1
  Sn  Sn36  1  0.90681600  0.91680200  0.82711200  1
  Sn  Sn37  1  0.09318400  0.08319800  0.17288800  1
  Sn  Sn38  1  0.59318400  0.58319800  0.32711200  1
  Sn  Sn39  1  0.90681600  0.08319800  0.67288800  1
  Sn  Sn40  1  0.40681600  0.41680200  0.67288800  1
  Sn  Sn41  1  0.09318400  0.91680200  0.32711200  1
  Sn  Sn42  1  0.59318400  0.41680200  0.17288800  1
  Sn  Sn43  1  0.40681600  0.58319800  0.82711200  1
  Sn  Sn44  1  0.73428400  0.77329700  0.74516300  1
  Sn  Sn45  1  0.26571600  0.22670300  0.25483700  1
  Sn  Sn46  1  0.76571600  0.72670300  0.24516300  1
  Sn  Sn47  1  0.73428400  0.22670300  0.75483700  1
  Sn  Sn48  1  0.23428400  0.27329700  0.75483700  1
  Sn  Sn49  1  0.26571600  0.77329700  0.24516300  1
  Sn  Sn50  1  0.76571600  0.27329700  0.25483700  1
  Sn  Sn51  1  0.23428400  0.72670300  0.74516300  1
  Sn  Sn52  1  0.74055500  0.00122100  0.52468700  1
  Sn  Sn53  1  0.25944500  0.99877900  0.47531300  1
  Sn  Sn54  1  0.75944500  0.49877900  0.02468700  1
  Sn  Sn55  1  0.74055500  0.99877900  0.97531300  1
  Sn  Sn56  1  0.24055500  0.50122100  0.97531300  1
  Sn  Sn57  1  0.25944500  0.00122100  0.02468700  1
  Sn  Sn58  1  0.75944500  0.50122100  0.47531300  1
  Sn  Sn59  1  0.24055500  0.49877900  0.52468700  1
  Hg  Hg60  1  0.63658000  0.65211500  0.90619300  1
  Hg  Hg61  1  0.36342000  0.34788500  0.09380700  1
  Hg  Hg62  1  0.86342000  0.84788500  0.40619300  1
  Hg  Hg63  1  0.63658000  0.34788500  0.59380700  1
  Hg  Hg64  1  0.13658000  0.15211500  0.59380700  1
  Hg  Hg65  1  0.36342000  0.65211500  0.40619300  1
  Hg  Hg66  1  0.86342000  0.15211500  0.09380700  1
  Hg  Hg67  1  0.13658000  0.84788500  0.90619300  1
