# generated using pymatgen
data_Th2CrN3
_symmetry_space_group_name_H-M   'P 1'
_cell_length_a   6.96221483
_cell_length_b   6.96221483
_cell_length_c   6.96221483
_cell_angle_alpha   150.35975786
_cell_angle_beta   148.42349475
_cell_angle_gamma   43.85549339
_symmetry_Int_Tables_number   1
_chemical_formula_structural   Th2CrN3
_chemical_formula_sum   'Th2 Cr1 N3'
_cell_volume   87.14969138
_cell_formula_units_Z   1
loop_
 _symmetry_equiv_pos_site_id
 _symmetry_equiv_pos_as_xyz
  1  'x, y, z'
loop_
 _atom_site_type_symbol
 _atom_site_label
 _atom_site_symmetry_multiplicity
 _atom_site_fract_x
 _atom_site_fract_y
 _atom_site_fract_z
 _atom_site_occupancy
  Th  Th0  1  0.35449600  0.35449600  0.00000000  1
  Th  Th1  1  0.64550400  0.64550400  0.00000000  1
  Cr  Cr2  1  0.00000000  0.00000000  0.00000000  1
  N  N3  1  0.83563800  0.83563800  0.00000000  1
  N  N4  1  0.16436200  0.16436200  0.00000000  1
  N  N5  1  0.50000000  0.00000000  0.50000000  1
