# generated using pymatgen
data_KSi2HO5
_symmetry_space_group_name_H-M   'P 1'
_cell_length_a   4.81117100
_cell_length_b   8.26638200
_cell_length_c   12.66688600
_cell_angle_alpha   90.00000000
_cell_angle_beta   90.00000000
_cell_angle_gamma   90.00000000
_symmetry_Int_Tables_number   1
_chemical_formula_structural   KSi2HO5
_chemical_formula_sum   'K4 Si8 H4 O20'
_cell_volume   503.77443624
_cell_formula_units_Z   4
loop_
 _symmetry_equiv_pos_site_id
 _symmetry_equiv_pos_as_xyz
  1  'x, y, z'
loop_
 _atom_site_type_symbol
 _atom_site_label
 _atom_site_symmetry_multiplicity
 _atom_site_fract_x
 _atom_site_fract_y
 _atom_site_fract_z
 _atom_site_occupancy
  K  K0  1  0.96296600  0.25000000  0.53846100  1
  K  K1  1  0.53703400  0.25000000  0.03846100  1
  K  K2  1  0.03703400  0.75000000  0.46153900  1
  K  K3  1  0.46296600  0.75000000  0.96153900  1
  Si  Si4  1  0.47406100  0.56192000  0.68667000  1
  Si  Si5  1  0.02593900  0.93808000  0.18667000  1
  Si  Si6  1  0.52593900  0.06192000  0.31333000  1
  Si  Si7  1  0.97406100  0.43808000  0.81333000  1
  Si  Si8  1  0.52593900  0.43808000  0.31333000  1
  Si  Si9  1  0.97406100  0.06192000  0.81333000  1
  Si  Si10  1  0.47406100  0.93808000  0.68667000  1
  Si  Si11  1  0.02593900  0.56192000  0.18667000  1
  H  H12  1  0.50000000  0.00000000  0.50000000  1
  H  H13  1  0.00000000  0.50000000  0.00000000  1
  H  H14  1  0.50000000  0.50000000  0.50000000  1
  H  H15  1  0.00000000  0.00000000  0.00000000  1
  O  O16  1  0.24648300  0.55043100  0.78350900  1
  O  O17  1  0.25351700  0.94956900  0.28350900  1
  O  O18  1  0.75351700  0.05043100  0.21649100  1
  O  O19  1  0.74648300  0.44956900  0.71649100  1
  O  O20  1  0.75351700  0.44956900  0.21649100  1
  O  O21  1  0.74648300  0.05043100  0.71649100  1
  O  O22  1  0.24648300  0.94956900  0.78350900  1
  O  O23  1  0.25351700  0.55043100  0.28350900  1
  O  O24  1  0.34451900  0.50583000  0.57514500  1
  O  O25  1  0.15548100  0.99417000  0.07514500  1
  O  O26  1  0.65548100  0.00583000  0.42485500  1
  O  O27  1  0.84451900  0.49417000  0.92485500  1
  O  O28  1  0.65548100  0.49417000  0.42485500  1
  O  O29  1  0.84451900  0.00583000  0.92485500  1
  O  O30  1  0.34451900  0.99417000  0.57514500  1
  O  O31  1  0.15548100  0.50583000  0.07514500  1
  O  O32  1  0.08802300  0.25000000  0.81589200  1
  O  O33  1  0.41197700  0.25000000  0.31589200  1
  O  O34  1  0.91197700  0.75000000  0.18410800  1
  O  O35  1  0.58802300  0.75000000  0.68410800  1
