# generated using pymatgen
data_ErMn2SiC
_symmetry_space_group_name_H-M   'P 1'
_cell_length_a   5.59200630
_cell_length_b   5.59200630
_cell_length_c   6.97634100
_cell_angle_alpha   90.00000000
_cell_angle_beta   90.00000000
_cell_angle_gamma   141.60475989
_symmetry_Int_Tables_number   1
_chemical_formula_structural   ErMn2SiC
_chemical_formula_sum   'Er2 Mn4 Si2 C2'
_cell_volume   135.49161455
_cell_formula_units_Z   2
loop_
 _symmetry_equiv_pos_site_id
 _symmetry_equiv_pos_as_xyz
  1  'x, y, z'
loop_
 _atom_site_type_symbol
 _atom_site_label
 _atom_site_symmetry_multiplicity
 _atom_site_fract_x
 _atom_site_fract_y
 _atom_site_fract_z
 _atom_site_occupancy
  Er  Er0  1  0.54360300  0.45639700  0.25000000  1
  Er  Er1  1  0.45639700  0.54360300  0.75000000  1
  Mn  Mn2  1  0.83212800  0.16787200  0.06117500  1
  Mn  Mn3  1  0.16787200  0.83212800  0.93882500  1
  Mn  Mn4  1  0.16787200  0.83212800  0.56117500  1
  Mn  Mn5  1  0.83212800  0.16787200  0.43882500  1
  Si  Si6  1  0.26439200  0.73560800  0.25000000  1
  Si  Si7  1  0.73560800  0.26439200  0.75000000  1
  C  C8  1  0.00000000  0.00000000  0.00000000  1
  C  C9  1  0.00000000  0.00000000  0.50000000  1
