# generated using pymatgen
data_ErSnPd
_symmetry_space_group_name_H-M   'P 1'
_cell_length_a   7.63213766
_cell_length_b   7.63213766
_cell_length_c   3.85814200
_cell_angle_alpha   90.00000000
_cell_angle_beta   90.00000000
_cell_angle_gamma   119.99999705
_symmetry_Int_Tables_number   1
_chemical_formula_structural   ErSnPd
_chemical_formula_sum   'Er3 Sn3 Pd3'
_cell_volume   194.62617283
_cell_formula_units_Z   3
loop_
 _symmetry_equiv_pos_site_id
 _symmetry_equiv_pos_as_xyz
  1  'x, y, z'
loop_
 _atom_site_type_symbol
 _atom_site_label
 _atom_site_symmetry_multiplicity
 _atom_site_fract_x
 _atom_site_fract_y
 _atom_site_fract_z
 _atom_site_occupancy
  Er  Er0  1  0.40485900  0.40485900  0.50000000  1
  Er  Er1  1  0.59514100  0.00000000  0.50000000  1
  Er  Er2  1  0.00000000  0.59514100  0.50000000  1
  Sn  Sn3  1  0.73919400  0.73919400  0.00000000  1
  Sn  Sn4  1  0.26080600  0.00000000  0.00000000  1
  Sn  Sn5  1  0.00000000  0.26080600  0.00000000  1
  Pd  Pd6  1  0.66666700  0.33333300  0.00000000  1
  Pd  Pd7  1  0.33333300  0.66666700  0.00000000  1
  Pd  Pd8  1  0.00000000  0.00000000  0.50000000  1
