# generated using pymatgen
data_Sm2MnSbO7
_symmetry_space_group_name_H-M   'P 1'
_cell_length_a   7.41728919
_cell_length_b   7.41728919
_cell_length_c   7.41728919
_cell_angle_alpha   121.56023117
_cell_angle_beta   118.61666340
_cell_angle_gamma   89.86582571
_symmetry_Int_Tables_number   1
_chemical_formula_structural   Sm2MnSbO7
_chemical_formula_sum   'Sm4 Mn2 Sb2 O14'
_cell_volume   287.92468813
_cell_formula_units_Z   2
loop_
 _symmetry_equiv_pos_site_id
 _symmetry_equiv_pos_as_xyz
  1  'x, y, z'
loop_
 _atom_site_type_symbol
 _atom_site_label
 _atom_site_symmetry_multiplicity
 _atom_site_fract_x
 _atom_site_fract_y
 _atom_site_fract_z
 _atom_site_occupancy
  Sm  Sm0  1  0.50000000  0.50000000  0.50000000  1
  Sm  Sm1  1  0.50000000  0.00000000  0.00000000  1
  Sm  Sm2  1  0.50000000  0.50000000  0.00000000  1
  Sm  Sm3  1  0.00000000  0.50000000  0.50000000  1
  Mn  Mn4  1  0.00000000  0.00000000  0.50000000  1
  Mn  Mn5  1  0.00000000  0.50000000  0.00000000  1
  Sb  Sb6  1  0.00000000  0.00000000  0.00000000  1
  Sb  Sb7  1  0.50000000  0.00000000  0.50000000  1
  O  O8  1  0.37230900  0.62230900  0.75000000  1
  O  O9  1  0.62769100  0.37769100  0.25000000  1
  O  O10  1  0.32550400  0.07550400  0.25000000  1
  O  O11  1  0.92111200  0.67111200  0.25000000  1
  O  O12  1  0.34082600  0.67054200  0.26149300  1
  O  O13  1  0.90904900  0.07933300  0.23850700  1
  O  O14  1  0.34082600  0.07933300  0.67028400  1
  O  O15  1  0.90904900  0.67054200  0.82971600  1
  O  O16  1  0.67449600  0.92449600  0.75000000  1
  O  O17  1  0.07888800  0.32888800  0.75000000  1
  O  O18  1  0.65917400  0.32945800  0.73850700  1
  O  O19  1  0.09095100  0.92066700  0.76149300  1
  O  O20  1  0.65917400  0.92066700  0.32971600  1
  O  O21  1  0.09095100  0.32945800  0.17028400  1
