# generated using pymatgen
data_ScMn2SbO6
_symmetry_space_group_name_H-M   'P 1'
_cell_length_a   6.30059200
_cell_length_b   6.32753585
_cell_length_c   6.33480538
_cell_angle_alpha   91.09253903
_cell_angle_beta   91.06888045
_cell_angle_gamma   91.15151016
_symmetry_Int_Tables_number   1
_chemical_formula_structural   ScMn2SbO6
_chemical_formula_sum   'Sc2 Mn4 Sb2 O12'
_cell_volume   252.40839677
_cell_formula_units_Z   2
loop_
 _symmetry_equiv_pos_site_id
 _symmetry_equiv_pos_as_xyz
  1  'x, y, z'
loop_
 _atom_site_type_symbol
 _atom_site_label
 _atom_site_symmetry_multiplicity
 _atom_site_fract_x
 _atom_site_fract_y
 _atom_site_fract_z
 _atom_site_occupancy
  Sc  Sc0  1  0.94038700  0.43637100  0.24914900  1
  Sc  Sc1  1  0.25166200  0.94390200  0.43593600  1
  Mn  Mn2  1  0.43868100  0.25164900  0.94771800  1
  Mn  Mn3  1  0.05712500  0.56024100  0.75241800  1
  Mn  Mn4  1  0.74901500  0.05477600  0.56506600  1
  Mn  Mn5  1  0.56054300  0.74952500  0.05011800  1
  Sb  Sb6  1  0.99919200  0.99865600  0.99789300  1
  Sb  Sb7  1  0.49903400  0.49875800  0.49919300  1
  O  O8  1  0.19503400  0.57893600  0.41756400  1
  O  O9  1  0.41958700  0.19610100  0.56528200  1
  O  O10  1  0.58951100  0.43014700  0.20161100  1
  O  O11  1  0.80380700  0.42542400  0.56196300  1
  O  O12  1  0.55826100  0.80357000  0.42718200  1
  O  O13  1  0.42157400  0.56490800  0.79614700  1
  O  O14  1  0.96666100  0.09589600  0.30554400  1
  O  O15  1  0.29881200  0.95776800  0.10088200  1
  O  O16  1  0.08452300  0.30470200  0.96955000  1
  O  O17  1  0.05253500  0.91076400  0.69707100  1
  O  O18  1  0.69967300  0.04043600  0.90942200  1
  O  O19  1  0.91438200  0.69747000  0.05029400  1
