# generated using pymatgen
data_Tm3(Al3Ru)4
_symmetry_space_group_name_H-M   'P 1'
_cell_length_a   8.77664876
_cell_length_b   8.77664876
_cell_length_c   9.56022100
_cell_angle_alpha   90.00000000
_cell_angle_beta   90.00000000
_cell_angle_gamma   120.00000569
_symmetry_Int_Tables_number   1
_chemical_formula_structural   Tm3(Al3Ru)4
_chemical_formula_sum   'Tm6 Al24 Ru8'
_cell_volume   637.75808761
_cell_formula_units_Z   2
loop_
 _symmetry_equiv_pos_site_id
 _symmetry_equiv_pos_as_xyz
  1  'x, y, z'
loop_
 _atom_site_type_symbol
 _atom_site_label
 _atom_site_symmetry_multiplicity
 _atom_site_fract_x
 _atom_site_fract_y
 _atom_site_fract_z
 _atom_site_occupancy
  Tm  Tm0  1  0.80565600  0.19434400  0.75000000  1
  Tm  Tm1  1  0.19434400  0.80565600  0.25000000  1
  Tm  Tm2  1  0.38868800  0.19434400  0.75000000  1
  Tm  Tm3  1  0.61131200  0.80565600  0.25000000  1
  Tm  Tm4  1  0.80565600  0.61131200  0.75000000  1
  Tm  Tm5  1  0.19434400  0.38868800  0.25000000  1
  Al  Al6  1  0.66666700  0.33333300  0.98407400  1
  Al  Al7  1  0.33333300  0.66666700  0.01592600  1
  Al  Al8  1  0.33333300  0.66666700  0.48407400  1
  Al  Al9  1  0.66666700  0.33333300  0.51592600  1
  Al  Al10  1  0.83812300  0.16187700  0.42212300  1
  Al  Al11  1  0.16187700  0.83812300  0.57787700  1
  Al  Al12  1  0.32375400  0.16187700  0.42212300  1
  Al  Al13  1  0.16187700  0.83812300  0.92212300  1
  Al  Al14  1  0.67624600  0.83812300  0.57787700  1
  Al  Al15  1  0.83812300  0.16187700  0.07787700  1
  Al  Al16  1  0.83812300  0.67624600  0.42212300  1
  Al  Al17  1  0.67624600  0.83812300  0.92212300  1
  Al  Al18  1  0.16187700  0.32375400  0.57787700  1
  Al  Al19  1  0.32375400  0.16187700  0.07787700  1
  Al  Al20  1  0.16187700  0.32375400  0.92212300  1
  Al  Al21  1  0.83812300  0.67624600  0.07787700  1
  Al  Al22  1  0.43929300  0.56070700  0.75000000  1
  Al  Al23  1  0.56070700  0.43929300  0.25000000  1
  Al  Al24  1  0.12141300  0.56070700  0.75000000  1
  Al  Al25  1  0.87858700  0.43929300  0.25000000  1
  Al  Al26  1  0.43929300  0.87858700  0.75000000  1
  Al  Al27  1  0.56070700  0.12141300  0.25000000  1
  Al  Al28  1  0.00000000  0.00000000  0.75000000  1
  Al  Al29  1  0.00000000  0.00000000  0.25000000  1
  Ru  Ru30  1  0.50000000  0.50000000  0.00000000  1
  Ru  Ru31  1  0.00000000  0.50000000  0.00000000  1
  Ru  Ru32  1  0.50000000  0.50000000  0.50000000  1
  Ru  Ru33  1  0.50000000  0.00000000  0.00000000  1
  Ru  Ru34  1  0.00000000  0.50000000  0.50000000  1
  Ru  Ru35  1  0.50000000  0.00000000  0.50000000  1
  Ru  Ru36  1  0.00000000  0.00000000  0.00000000  1
  Ru  Ru37  1  0.00000000  0.00000000  0.50000000  1
