# generated using pymatgen
data_La3(ZnPd)4
_symmetry_space_group_name_H-M   'P 1'
_cell_length_a   8.44992865
_cell_length_b   8.44992865
_cell_length_c   8.44992865
_cell_angle_alpha   151.10784638
_cell_angle_beta   127.02810298
_cell_angle_gamma   61.46226960
_symmetry_Int_Tables_number   1
_chemical_formula_structural   La3(ZnPd)4
_chemical_formula_sum   'La3 Zn4 Pd4'
_cell_volume   230.79830753
_cell_formula_units_Z   1
loop_
 _symmetry_equiv_pos_site_id
 _symmetry_equiv_pos_as_xyz
  1  'x, y, z'
loop_
 _atom_site_type_symbol
 _atom_site_label
 _atom_site_symmetry_multiplicity
 _atom_site_fract_x
 _atom_site_fract_y
 _atom_site_fract_z
 _atom_site_occupancy
  La  La0  1  0.50000000  0.00000000  0.50000000  1
  La  La1  1  0.86981900  0.86981900  0.00000000  1
  La  La2  1  0.13018100  0.13018100  0.00000000  1
  Zn  Zn3  1  0.48159300  0.67298000  0.80861300  1
  Zn  Zn4  1  0.86436700  0.67298000  0.19138700  1
  Zn  Zn5  1  0.13563300  0.32702000  0.80861300  1
  Zn  Zn6  1  0.51840700  0.32702000  0.19138700  1
  Pd  Pd7  1  0.28409400  0.78409400  0.50000000  1
  Pd  Pd8  1  0.71590600  0.21590600  0.50000000  1
  Pd  Pd9  1  0.80428200  0.50000000  0.30428200  1
  Pd  Pd10  1  0.19571800  0.50000000  0.69571800  1
