# generated using pymatgen
data_TbMoBrO4
_symmetry_space_group_name_H-M   'P 1'
_cell_length_a   6.94481000
_cell_length_b   7.31622817
_cell_length_c   11.10053630
_cell_angle_alpha   105.62111680
_cell_angle_beta   107.28752539
_cell_angle_gamma   92.73718943
_symmetry_Int_Tables_number   1
_chemical_formula_structural   TbMoBrO4
_chemical_formula_sum   'Tb4 Mo4 Br4 O16'
_cell_volume   513.61400083
_cell_formula_units_Z   4
loop_
 _symmetry_equiv_pos_site_id
 _symmetry_equiv_pos_as_xyz
  1  'x, y, z'
loop_
 _atom_site_type_symbol
 _atom_site_label
 _atom_site_symmetry_multiplicity
 _atom_site_fract_x
 _atom_site_fract_y
 _atom_site_fract_z
 _atom_site_occupancy
  Tb  Tb0  1  0.64399000  0.12213600  0.73051800  1
  Tb  Tb1  1  0.35601000  0.87786400  0.26948200  1
  Tb  Tb2  1  0.39259700  0.65099600  0.76857300  1
  Tb  Tb3  1  0.60740300  0.34900400  0.23142700  1
  Mo  Mo4  1  0.73412800  0.81377900  0.13386800  1
  Mo  Mo5  1  0.26587200  0.18622100  0.86613200  1
  Mo  Mo6  1  0.77520600  0.59178600  0.62966100  1
  Mo  Mo7  1  0.22479400  0.40821400  0.37033900  1
  Br  Br8  1  0.25881300  0.98540900  0.51709900  1
  Br  Br9  1  0.74118700  0.01459100  0.48290100  1
  Br  Br10  1  0.19501600  0.71646700  0.98112700  1
  Br  Br11  1  0.80498400  0.28353300  0.01887300  1
  O  O12  1  0.67000000  0.72798000  0.95924200  1
  O  O13  1  0.33000000  0.27202000  0.04075800  1
  O  O14  1  0.00301100  0.86566800  0.20660200  1
  O  O15  1  0.99698900  0.13433200  0.79339800  1
  O  O16  1  0.62511200  0.65052200  0.20197200  1
  O  O17  1  0.37488800  0.34947800  0.79802800  1
  O  O18  1  0.39296200  0.97922300  0.81836300  1
  O  O19  1  0.60703800  0.02077700  0.18163700  1
  O  O20  1  0.04361500  0.64377300  0.67511700  1
  O  O21  1  0.95638500  0.35622700  0.32488300  1
  O  O22  1  0.70802700  0.41778800  0.70259000  1
  O  O23  1  0.29197300  0.58221200  0.29741000  1
  O  O24  1  0.67529500  0.50629900  0.45344900  1
  O  O25  1  0.32470500  0.49370100  0.54655100  1
  O  O26  1  0.65744800  0.79608600  0.70085600  1
  O  O27  1  0.34255200  0.20391400  0.29914400  1
