# generated using pymatgen
data_V2SiPb5O12
_symmetry_space_group_name_H-M   'P 1'
_cell_length_a   7.46158100
_cell_length_b   10.17016200
_cell_length_c   10.19924222
_cell_angle_alpha   60.57946912
_cell_angle_beta   90.00000000
_cell_angle_gamma   90.00000000
_symmetry_Int_Tables_number   1
_chemical_formula_structural   V2SiPb5O12
_chemical_formula_sum   'V4 Si2 Pb10 O24'
_cell_volume   674.16105583
_cell_formula_units_Z   2
loop_
 _symmetry_equiv_pos_site_id
 _symmetry_equiv_pos_as_xyz
  1  'x, y, z'
loop_
 _atom_site_type_symbol
 _atom_site_label
 _atom_site_symmetry_multiplicity
 _atom_site_fract_x
 _atom_site_fract_y
 _atom_site_fract_z
 _atom_site_occupancy
  V  V0  1  0.00000000  0.60493100  0.01643400  1
  V  V1  1  0.50000000  0.98007000  0.62516600  1
  V  V2  1  0.50000000  0.62222900  0.39434900  1
  V  V3  1  0.50000000  0.39441200  0.98418000  1
  Si  Si4  1  0.00000000  0.01766700  0.37694500  1
  Si  Si5  1  0.00000000  0.38144700  0.60008700  1
  Pb  Pb6  1  0.00000000  0.23034700  0.02690600  1
  Pb  Pb7  1  0.00000000  0.03140900  0.73291000  1
  Pb  Pb8  1  0.00000000  0.74077500  0.26144600  1
  Pb  Pb9  1  0.50000000  0.75016500  0.99736800  1
  Pb  Pb10  1  0.50000000  0.00988900  0.25261300  1
  Pb  Pb11  1  0.50000000  0.25518700  0.74310100  1
  Pb  Pb12  1  0.75234600  0.32297000  0.34435600  1
  Pb  Pb13  1  0.23231100  0.66571300  0.65702400  1
  Pb  Pb14  1  0.76768900  0.66571300  0.65702400  1
  Pb  Pb15  1  0.24765400  0.32297000  0.34435600  1
  O  O16  1  0.82355100  0.08324500  0.26357700  1
  O  O17  1  0.82339700  0.26718600  0.64655500  1
  O  O18  1  0.81543300  0.65787700  0.08283300  1
  O  O19  1  0.31696000  0.91635100  0.74386300  1
  O  O20  1  0.31550200  0.74039700  0.34510500  1
  O  O21  1  0.31663700  0.34051300  0.91816100  1
  O  O22  1  0.68304000  0.91635100  0.74386300  1
  O  O23  1  0.68449800  0.74039700  0.34510500  1
  O  O24  1  0.68336300  0.34051300  0.91816100  1
  O  O25  1  0.17644900  0.08324500  0.26357700  1
  O  O26  1  0.17660300  0.26718600  0.64655500  1
  O  O27  1  0.18456700  0.65787700  0.08283300  1
  O  O28  1  0.00000000  0.83053900  0.47800500  1
  O  O29  1  0.00000000  0.49011000  0.67837500  1
  O  O30  1  0.00000000  0.68662600  0.81993000  1
  O  O31  1  0.50000000  0.17945500  0.51887000  1
  O  O32  1  0.50000000  0.51578700  0.30239000  1
  O  O33  1  0.50000000  0.29814200  0.18286400  1
  O  O34  1  0.00000000  0.10005500  0.48389000  1
  O  O35  1  0.00000000  0.48781900  0.41297200  1
  O  O36  1  0.00000000  0.40496100  0.10585400  1
  O  O37  1  0.50000000  0.89756100  0.50818500  1
  O  O38  1  0.50000000  0.50834000  0.59290300  1
  O  O39  1  0.50000000  0.59357300  0.90131000  1
