# generated using pymatgen
data_PW4Cl11
_symmetry_space_group_name_H-M   'P 1'
_cell_length_a   8.85678955
_cell_length_b   8.85678955
_cell_length_c   11.53326812
_cell_angle_alpha   89.35029751
_cell_angle_beta   89.35029751
_cell_angle_gamma   69.40774397
_symmetry_Int_Tables_number   1
_chemical_formula_structural   PW4Cl11
_chemical_formula_sum   'P2 W8 Cl22'
_cell_volume   846.81638859
_cell_formula_units_Z   2
loop_
 _symmetry_equiv_pos_site_id
 _symmetry_equiv_pos_as_xyz
  1  'x, y, z'
loop_
 _atom_site_type_symbol
 _atom_site_label
 _atom_site_symmetry_multiplicity
 _atom_site_fract_x
 _atom_site_fract_y
 _atom_site_fract_z
 _atom_site_occupancy
  P  P0  1  0.32291800  0.32291800  0.74816600  1
  P  P1  1  0.67708200  0.67708200  0.25183400  1
  W  W2  1  0.09636600  0.35559300  0.87260300  1
  W  W3  1  0.35559300  0.09636600  0.87260300  1
  W  W4  1  0.90363400  0.64440700  0.12739700  1
  W  W5  1  0.64440700  0.90363400  0.12739700  1
  W  W6  1  0.09603300  0.35577500  0.62761100  1
  W  W7  1  0.35577500  0.09603300  0.62761100  1
  W  W8  1  0.90396700  0.64422500  0.37238900  1
  W  W9  1  0.64422500  0.90396700  0.37238900  1
  Cl  Cl10  1  0.93586700  0.24894300  0.75245400  1
  Cl  Cl11  1  0.24894300  0.93586700  0.75245400  1
  Cl  Cl12  1  0.06413300  0.75105700  0.24754600  1
  Cl  Cl13  1  0.75105700  0.06413300  0.24754600  1
  Cl  Cl14  1  0.46309000  0.46309000  0.74727500  1
  Cl  Cl15  1  0.53691000  0.53691000  0.25272500  1
  Cl  Cl16  1  0.99100800  0.60387300  0.74880500  1
  Cl  Cl17  1  0.60387300  0.99100800  0.74880500  1
  Cl  Cl18  1  0.00899200  0.39612700  0.25119500  1
  Cl  Cl19  1  0.39612700  0.00899200  0.25119500  1
  Cl  Cl20  1  0.13116200  0.13116200  0.00415700  1
  Cl  Cl21  1  0.86883800  0.86883800  0.99584300  1
  Cl  Cl22  1  0.17482500  0.51771700  0.01302300  1
  Cl  Cl23  1  0.51771700  0.17482500  0.01302300  1
  Cl  Cl24  1  0.82517500  0.48228300  0.98697700  1
  Cl  Cl25  1  0.48228300  0.82517500  0.98697700  1
  Cl  Cl26  1  0.13139100  0.13139100  0.49876900  1
  Cl  Cl27  1  0.86860900  0.86860900  0.50123100  1
  Cl  Cl28  1  0.17470800  0.51728500  0.48308600  1
  Cl  Cl29  1  0.51728500  0.17470800  0.48308600  1
  Cl  Cl30  1  0.82529200  0.48271500  0.51691400  1
  Cl  Cl31  1  0.48271500  0.82529200  0.51691400  1
