# generated using pymatgen
data_Re2P
_symmetry_space_group_name_H-M   'P 1'
_cell_length_a   2.96608800
_cell_length_b   5.57782300
_cell_length_c   10.11295600
_cell_angle_alpha   90.00000000
_cell_angle_beta   90.00000000
_cell_angle_gamma   90.00000000
_symmetry_Int_Tables_number   1
_chemical_formula_structural   Re2P
_chemical_formula_sum   'Re8 P4'
_cell_volume   167.31191818
_cell_formula_units_Z   4
loop_
 _symmetry_equiv_pos_site_id
 _symmetry_equiv_pos_as_xyz
  1  'x, y, z'
loop_
 _atom_site_type_symbol
 _atom_site_label
 _atom_site_symmetry_multiplicity
 _atom_site_fract_x
 _atom_site_fract_y
 _atom_site_fract_z
 _atom_site_occupancy
  Re  Re0  1  0.25000000  0.82469100  0.93514600  1
  Re  Re1  1  0.25000000  0.32469100  0.56485400  1
  Re  Re2  1  0.75000000  0.17530900  0.06485400  1
  Re  Re3  1  0.75000000  0.67530900  0.43514600  1
  Re  Re4  1  0.25000000  0.85332100  0.21358100  1
  Re  Re5  1  0.25000000  0.35332100  0.28641900  1
  Re  Re6  1  0.75000000  0.14667900  0.78641900  1
  Re  Re7  1  0.75000000  0.64667900  0.71358100  1
  P  P8  1  0.25000000  0.40232000  0.89817900  1
  P  P9  1  0.25000000  0.90232000  0.60182100  1
  P  P10  1  0.75000000  0.59768000  0.10182100  1
  P  P11  1  0.75000000  0.09768000  0.39817900  1
