# generated using pymatgen
data_BaLaCuS3
_symmetry_space_group_name_H-M   'P 1'
_cell_length_a   4.25783500
_cell_length_b   11.35338900
_cell_length_c   11.89310300
_cell_angle_alpha   90.00000000
_cell_angle_beta   90.00000000
_cell_angle_gamma   90.00000000
_symmetry_Int_Tables_number   1
_chemical_formula_structural   BaLaCuS3
_chemical_formula_sum   'Ba4 La4 Cu4 S12'
_cell_volume   574.92279204
_cell_formula_units_Z   4
loop_
 _symmetry_equiv_pos_site_id
 _symmetry_equiv_pos_as_xyz
  1  'x, y, z'
loop_
 _atom_site_type_symbol
 _atom_site_label
 _atom_site_symmetry_multiplicity
 _atom_site_fract_x
 _atom_site_fract_y
 _atom_site_fract_z
 _atom_site_occupancy
  Ba  Ba0  1  0.25000000  0.31665600  0.00780900  1
  Ba  Ba1  1  0.75000000  0.68334400  0.99219100  1
  Ba  Ba2  1  0.75000000  0.18334400  0.50780900  1
  Ba  Ba3  1  0.25000000  0.81665600  0.49219100  1
  La  La4  1  0.25000000  0.98961200  0.81800300  1
  La  La5  1  0.75000000  0.01038800  0.18199700  1
  La  La6  1  0.25000000  0.48961200  0.68199700  1
  La  La7  1  0.75000000  0.51038800  0.31800300  1
  Cu  Cu8  1  0.25000000  0.74788800  0.20836100  1
  Cu  Cu9  1  0.25000000  0.24788800  0.29163900  1
  Cu  Cu10  1  0.75000000  0.25211200  0.79163900  1
  Cu  Cu11  1  0.75000000  0.75211200  0.70836100  1
  S  S12  1  0.75000000  0.94879900  0.65137100  1
  S  S13  1  0.25000000  0.05120100  0.34862900  1
  S  S14  1  0.75000000  0.44879900  0.84862900  1
  S  S15  1  0.25000000  0.55120100  0.15137100  1
  S  S16  1  0.25000000  0.88939400  0.06018300  1
  S  S17  1  0.75000000  0.11060600  0.93981700  1
  S  S18  1  0.25000000  0.38939400  0.43981700  1
  S  S19  1  0.75000000  0.77487000  0.29581300  1
  S  S20  1  0.25000000  0.72513000  0.79581300  1
  S  S21  1  0.75000000  0.27487000  0.20418700  1
  S  S22  1  0.25000000  0.22513000  0.70418700  1
  S  S23  1  0.75000000  0.61060600  0.56018300  1
