# generated using pymatgen
data_Dy3(Si3Pd10)2
_symmetry_space_group_name_H-M   'P 1'
_cell_length_a   8.71954727
_cell_length_b   8.71954727
_cell_length_c   8.71954727
_cell_angle_alpha   60.00000000
_cell_angle_beta   60.00000000
_cell_angle_gamma   60.00000000
_symmetry_Int_Tables_number   1
_chemical_formula_structural   Dy3(Si3Pd10)2
_chemical_formula_sum   'Dy3 Si6 Pd20'
_cell_volume   468.77755615
_cell_formula_units_Z   1
loop_
 _symmetry_equiv_pos_site_id
 _symmetry_equiv_pos_as_xyz
  1  'x, y, z'
loop_
 _atom_site_type_symbol
 _atom_site_label
 _atom_site_symmetry_multiplicity
 _atom_site_fract_x
 _atom_site_fract_y
 _atom_site_fract_z
 _atom_site_occupancy
  Dy  Dy0  1  0.25000000  0.25000000  0.25000000  1
  Dy  Dy1  1  0.75000000  0.75000000  0.75000000  1
  Dy  Dy2  1  0.00000000  0.00000000  0.00000000  1
  Si  Si3  1  0.73254600  0.26745400  0.26745400  1
  Si  Si4  1  0.26745400  0.73254600  0.73254600  1
  Si  Si5  1  0.26745400  0.73254600  0.26745400  1
  Si  Si6  1  0.73254600  0.26745400  0.73254600  1
  Si  Si7  1  0.26745400  0.26745400  0.73254600  1
  Si  Si8  1  0.73254600  0.73254600  0.26745400  1
  Pd  Pd9  1  0.38349400  0.38349400  0.38349400  1
  Pd  Pd10  1  0.61650600  0.61650600  0.61650600  1
  Pd  Pd11  1  0.38349400  0.38349400  0.84951700  1
  Pd  Pd12  1  0.38349400  0.84951700  0.38349400  1
  Pd  Pd13  1  0.61650600  0.61650600  0.15048300  1
  Pd  Pd14  1  0.61650600  0.15048300  0.61650600  1
  Pd  Pd15  1  0.84951700  0.38349400  0.38349400  1
  Pd  Pd16  1  0.15048300  0.61650600  0.61650600  1
  Pd  Pd17  1  0.34525700  0.00000000  0.00000000  1
  Pd  Pd18  1  0.65474300  0.00000000  0.00000000  1
  Pd  Pd19  1  0.00000000  0.34525700  0.65474300  1
  Pd  Pd20  1  0.00000000  0.65474300  0.34525700  1
  Pd  Pd21  1  0.00000000  0.34525700  0.00000000  1
  Pd  Pd22  1  0.65474300  0.00000000  0.34525700  1
  Pd  Pd23  1  0.00000000  0.65474300  0.00000000  1
  Pd  Pd24  1  0.34525700  0.00000000  0.65474300  1
  Pd  Pd25  1  0.00000000  0.00000000  0.34525700  1
  Pd  Pd26  1  0.00000000  0.00000000  0.65474300  1
  Pd  Pd27  1  0.65474300  0.34525700  0.00000000  1
  Pd  Pd28  1  0.34525700  0.65474300  0.00000000  1
