# generated using pymatgen
data_Li(LuGe)4
_symmetry_space_group_name_H-M   'P 1'
_cell_length_a   7.01142900
_cell_length_b   7.58578500
_cell_length_c   14.39026600
_cell_angle_alpha   90.00000000
_cell_angle_beta   90.00000000
_cell_angle_gamma   90.00000000
_symmetry_Int_Tables_number   1
_chemical_formula_structural   Li(LuGe)4
_chemical_formula_sum   'Li4 Lu16 Ge16'
_cell_volume   765.37785415
_cell_formula_units_Z   4
loop_
 _symmetry_equiv_pos_site_id
 _symmetry_equiv_pos_as_xyz
  1  'x, y, z'
loop_
 _atom_site_type_symbol
 _atom_site_label
 _atom_site_symmetry_multiplicity
 _atom_site_fract_x
 _atom_site_fract_y
 _atom_site_fract_z
 _atom_site_occupancy
  Li  Li0  1  0.15837200  0.52128300  0.75000000  1
  Li  Li1  1  0.84162800  0.47871700  0.25000000  1
  Li  Li2  1  0.34162800  0.02128300  0.25000000  1
  Li  Li3  1  0.65837200  0.97871700  0.75000000  1
  Lu  Lu4  1  0.32816200  0.17577400  0.62773200  1
  Lu  Lu5  1  0.67183800  0.82422600  0.37226800  1
  Lu  Lu6  1  0.17183800  0.67577400  0.37226800  1
  Lu  Lu7  1  0.67183800  0.82422600  0.12773200  1
  Lu  Lu8  1  0.82816200  0.32422600  0.62773200  1
  Lu  Lu9  1  0.32816200  0.17577400  0.87226800  1
  Lu  Lu10  1  0.82816200  0.32422600  0.87226800  1
  Lu  Lu11  1  0.17183800  0.67577400  0.12773200  1
  Lu  Lu12  1  0.01408000  0.18590800  0.09637400  1
  Lu  Lu13  1  0.98592000  0.81409200  0.90362600  1
  Lu  Lu14  1  0.48592000  0.68590800  0.90362600  1
  Lu  Lu15  1  0.98592000  0.81409200  0.59637400  1
  Lu  Lu16  1  0.51408000  0.31409200  0.09637400  1
  Lu  Lu17  1  0.01408000  0.18590800  0.40362600  1
  Lu  Lu18  1  0.51408000  0.31409200  0.40362600  1
  Lu  Lu19  1  0.48592000  0.68590800  0.59637400  1
  Ge  Ge20  1  0.01634100  0.08890100  0.75000000  1
  Ge  Ge21  1  0.98365900  0.91109900  0.25000000  1
  Ge  Ge22  1  0.48365900  0.58890100  0.25000000  1
  Ge  Ge23  1  0.51634100  0.41109900  0.75000000  1
  Ge  Ge24  1  0.28584000  0.86139800  0.75000000  1
  Ge  Ge25  1  0.71416000  0.13860200  0.25000000  1
  Ge  Ge26  1  0.21416000  0.36139800  0.25000000  1
  Ge  Ge27  1  0.78584000  0.63860200  0.75000000  1
  Ge  Ge28  1  0.16894500  0.46590400  0.53763100  1
  Ge  Ge29  1  0.83105500  0.53409600  0.46236900  1
  Ge  Ge30  1  0.33105500  0.96590400  0.46236900  1
  Ge  Ge31  1  0.83105500  0.53409600  0.03763100  1
  Ge  Ge32  1  0.66894500  0.03409600  0.53763100  1
  Ge  Ge33  1  0.16894500  0.46590400  0.96236900  1
  Ge  Ge34  1  0.66894500  0.03409600  0.96236900  1
  Ge  Ge35  1  0.33105500  0.96590400  0.03763100  1
