# generated using pymatgen
data_Li5Ni9P7
_symmetry_space_group_name_H-M   'P 1'
_cell_length_a   9.05674094
_cell_length_b   9.05674094
_cell_length_c   3.60866700
_cell_angle_alpha   90.00000000
_cell_angle_beta   90.00000000
_cell_angle_gamma   120.00000686
_symmetry_Int_Tables_number   1
_chemical_formula_structural   Li5Ni9P7
_chemical_formula_sum   'Li5 Ni9 P7'
_cell_volume   256.34290425
_cell_formula_units_Z   1
loop_
 _symmetry_equiv_pos_site_id
 _symmetry_equiv_pos_as_xyz
  1  'x, y, z'
loop_
 _atom_site_type_symbol
 _atom_site_label
 _atom_site_symmetry_multiplicity
 _atom_site_fract_x
 _atom_site_fract_y
 _atom_site_fract_z
 _atom_site_occupancy
  Li  Li0  1  0.87938100  0.78169400  0.50000000  1
  Li  Li1  1  0.90231300  0.12061900  0.50000000  1
  Li  Li2  1  0.21830600  0.09768700  0.50000000  1
  Li  Li3  1  0.33333300  0.66666700  0.00000000  1
  Li  Li4  1  0.66666700  0.33333300  0.50000000  1
  Ni  Ni5  1  0.71509000  0.88069400  0.00000000  1
  Ni  Ni6  1  0.16560400  0.28491000  0.00000000  1
  Ni  Ni7  1  0.11930600  0.83439600  0.00000000  1
  Ni  Ni8  1  0.62597900  0.56916300  0.00000000  1
  Ni  Ni9  1  0.94318400  0.37402100  0.00000000  1
  Ni  Ni10  1  0.43083700  0.05681600  0.00000000  1
  Ni  Ni11  1  0.56337000  0.95170700  0.50000000  1
  Ni  Ni12  1  0.38833700  0.43663000  0.50000000  1
  Ni  Ni13  1  0.04829300  0.61166300  0.50000000  1
  P  P14  1  0.58360800  0.71030800  0.50000000  1
  P  P15  1  0.12670000  0.41639200  0.50000000  1
  P  P16  1  0.28969200  0.87330000  0.50000000  1
  P  P17  1  0.00000000  0.00000000  0.00000000  1
  P  P18  1  0.87756100  0.57854700  0.00000000  1
  P  P19  1  0.70098600  0.12243900  0.00000000  1
  P  P20  1  0.42145300  0.29901400  0.00000000  1
