# generated using pymatgen
data_Gd2Mn(GeO3)4
_symmetry_space_group_name_H-M   'P 1'
_cell_length_a   5.05589200
_cell_length_b   10.10617506
_cell_length_c   10.10617506
_cell_angle_alpha   90.68023927
_cell_angle_beta   90.00000000
_cell_angle_gamma   90.00000000
_symmetry_Int_Tables_number   1
_chemical_formula_structural   Gd2Mn(GeO3)4
_chemical_formula_sum   'Gd4 Mn2 Ge8 O24'
_cell_volume   516.34599612
_cell_formula_units_Z   2
loop_
 _symmetry_equiv_pos_site_id
 _symmetry_equiv_pos_as_xyz
  1  'x, y, z'
loop_
 _atom_site_type_symbol
 _atom_site_label
 _atom_site_symmetry_multiplicity
 _atom_site_fract_x
 _atom_site_fract_y
 _atom_site_fract_z
 _atom_site_occupancy
  Gd  Gd0  1  0.50000000  0.00000000  0.50000000  1
  Gd  Gd1  1  0.50000000  0.50000000  0.00000000  1
  Gd  Gd2  1  0.50000000  0.75000000  0.75000000  1
  Gd  Gd3  1  0.50000000  0.25000000  0.25000000  1
  Mn  Mn4  1  0.50000000  0.50000000  0.50000000  1
  Mn  Mn5  1  0.50000000  0.00000000  0.00000000  1
  Ge  Ge6  1  0.99429100  0.74607800  0.47648600  1
  Ge  Ge7  1  0.00570900  0.25392200  0.52351400  1
  Ge  Ge8  1  0.00570900  0.24607800  0.97648600  1
  Ge  Ge9  1  0.99429100  0.75392200  0.02351400  1
  Ge  Ge10  1  0.00570900  0.47648600  0.74607800  1
  Ge  Ge11  1  0.99429100  0.52351400  0.25392200  1
  Ge  Ge12  1  0.99429100  0.97648600  0.24607800  1
  Ge  Ge13  1  0.00570900  0.02351400  0.75392200  1
  O  O14  1  0.26195900  0.55999800  0.66836300  1
  O  O15  1  0.24792300  0.06241300  0.32794900  1
  O  O16  1  0.24792300  0.43758700  0.17205100  1
  O  O17  1  0.26195900  0.94000200  0.83163700  1
  O  O18  1  0.73804100  0.44000200  0.33163700  1
  O  O19  1  0.75207700  0.93758700  0.67205100  1
  O  O20  1  0.75207700  0.56241300  0.82794900  1
  O  O21  1  0.73804100  0.05999800  0.16836300  1
  O  O22  1  0.73804100  0.66836300  0.55999800  1
  O  O23  1  0.75207700  0.32794900  0.06241300  1
  O  O24  1  0.75207700  0.17205100  0.43758700  1
  O  O25  1  0.73804100  0.83163700  0.94000200  1
  O  O26  1  0.26195900  0.33163700  0.44000200  1
  O  O27  1  0.24792300  0.67205100  0.93758700  1
  O  O28  1  0.24792300  0.82794900  0.56241300  1
  O  O29  1  0.26195900  0.16836300  0.05999800  1
  O  O30  1  0.83197000  0.36886200  0.63113800  1
  O  O31  1  0.83337400  0.87174700  0.37174700  1
  O  O32  1  0.83337400  0.62825300  0.12825300  1
  O  O33  1  0.83197000  0.13113800  0.86886200  1
  O  O34  1  0.16803000  0.63113800  0.36886200  1
  O  O35  1  0.16662600  0.12825300  0.62825300  1
  O  O36  1  0.16662600  0.37174700  0.87174700  1
  O  O37  1  0.16803000  0.86886200  0.13113800  1
