# generated using pymatgen
data_Eu2Pt2O7
_symmetry_space_group_name_H-M   'P 1'
_cell_length_a   7.39028834
_cell_length_b   7.39028834
_cell_length_c   7.39028834
_cell_angle_alpha   60.00000000
_cell_angle_beta   60.00000000
_cell_angle_gamma   60.00000000
_symmetry_Int_Tables_number   1
_chemical_formula_structural   Eu2Pt2O7
_chemical_formula_sum   'Eu4 Pt4 O14'
_cell_volume   285.40997775
_cell_formula_units_Z   2
loop_
 _symmetry_equiv_pos_site_id
 _symmetry_equiv_pos_as_xyz
  1  'x, y, z'
loop_
 _atom_site_type_symbol
 _atom_site_label
 _atom_site_symmetry_multiplicity
 _atom_site_fract_x
 _atom_site_fract_y
 _atom_site_fract_z
 _atom_site_occupancy
  Eu  Eu0  1  0.62500000  0.12500000  0.12500000  1
  Eu  Eu1  1  0.12500000  0.62500000  0.12500000  1
  Eu  Eu2  1  0.12500000  0.12500000  0.62500000  1
  Eu  Eu3  1  0.12500000  0.12500000  0.12500000  1
  Pt  Pt4  1  0.12500000  0.62500000  0.62500000  1
  Pt  Pt5  1  0.62500000  0.12500000  0.62500000  1
  Pt  Pt6  1  0.62500000  0.62500000  0.12500000  1
  Pt  Pt7  1  0.62500000  0.62500000  0.62500000  1
  O  O8  1  0.25000000  0.25000000  0.25000000  1
  O  O9  1  0.00000000  0.00000000  0.00000000  1
  O  O10  1  0.70881800  0.70881800  0.29118200  1
  O  O11  1  0.29118200  0.29118200  0.70881800  1
  O  O12  1  0.70881800  0.29118200  0.70881800  1
  O  O13  1  0.29118200  0.70881800  0.29118200  1
  O  O14  1  0.29118200  0.70881800  0.70881800  1
  O  O15  1  0.70881800  0.29118200  0.29118200  1
  O  O16  1  0.54118200  0.54118200  0.95881800  1
  O  O17  1  0.95881800  0.95881800  0.54118200  1
  O  O18  1  0.54118200  0.95881800  0.54118200  1
  O  O19  1  0.95881800  0.54118200  0.95881800  1
  O  O20  1  0.95881800  0.54118200  0.54118200  1
  O  O21  1  0.54118200  0.95881800  0.95881800  1
