# generated using pymatgen
data_Rb2Zn5As4
_symmetry_space_group_name_H-M   'P 1'
_cell_length_a   6.92716449
_cell_length_b   6.92716449
_cell_length_c   11.88844400
_cell_angle_alpha   90.00000000
_cell_angle_beta   90.00000000
_cell_angle_gamma   116.86811182
_symmetry_Int_Tables_number   1
_chemical_formula_structural   Rb2Zn5As4
_chemical_formula_sum   'Rb4 Zn10 As8'
_cell_volume   508.89106165
_cell_formula_units_Z   2
loop_
 _symmetry_equiv_pos_site_id
 _symmetry_equiv_pos_as_xyz
  1  'x, y, z'
loop_
 _atom_site_type_symbol
 _atom_site_label
 _atom_site_symmetry_multiplicity
 _atom_site_fract_x
 _atom_site_fract_y
 _atom_site_fract_z
 _atom_site_occupancy
  Rb  Rb0  1  0.21681200  0.78318800  0.50000000  1
  Rb  Rb1  1  0.21681200  0.78318800  0.00000000  1
  Rb  Rb2  1  0.78318800  0.21681200  0.50000000  1
  Rb  Rb3  1  0.78318800  0.21681200  0.00000000  1
  Zn  Zn4  1  0.52598000  0.23906900  0.25000000  1
  Zn  Zn5  1  0.76093100  0.47402000  0.75000000  1
  Zn  Zn6  1  0.47402000  0.76093100  0.75000000  1
  Zn  Zn7  1  0.23906900  0.52598000  0.25000000  1
  Zn  Zn8  1  0.65374900  0.65374900  0.39146300  1
  Zn  Zn9  1  0.34625100  0.34625100  0.60853700  1
  Zn  Zn10  1  0.65374900  0.65374900  0.10853700  1
  Zn  Zn11  1  0.34625100  0.34625100  0.89146300  1
  Zn  Zn12  1  0.00904200  0.00904200  0.25000000  1
  Zn  Zn13  1  0.99095800  0.99095800  0.75000000  1
  As  As14  1  0.60209900  0.91289900  0.25000000  1
  As  As15  1  0.08710100  0.39790100  0.75000000  1
  As  As16  1  0.39790100  0.08710100  0.75000000  1
  As  As17  1  0.91289900  0.60209900  0.25000000  1
  As  As18  1  0.28237700  0.28237700  0.40009300  1
  As  As19  1  0.71762300  0.71762300  0.59990700  1
  As  As20  1  0.28237700  0.28237700  0.09990700  1
  As  As21  1  0.71762300  0.71762300  0.90009300  1
