# generated using pymatgen
data_MoRh
_symmetry_space_group_name_H-M   'P 1'
_cell_length_a   2.76199200
_cell_length_b   4.44773100
_cell_length_c   4.84785800
_cell_angle_alpha   90.00000000
_cell_angle_beta   90.00000000
_cell_angle_gamma   90.00000000
_symmetry_Int_Tables_number   1
_chemical_formula_structural   MoRh
_chemical_formula_sum   'Mo2 Rh2'
_cell_volume   59.55398398
_cell_formula_units_Z   2
loop_
 _symmetry_equiv_pos_site_id
 _symmetry_equiv_pos_as_xyz
  1  'x, y, z'
loop_
 _atom_site_type_symbol
 _atom_site_label
 _atom_site_symmetry_multiplicity
 _atom_site_fract_x
 _atom_site_fract_y
 _atom_site_fract_z
 _atom_site_occupancy
  Mo  Mo0  1  0.00000000  0.75000000  0.17093500  1
  Mo  Mo1  1  0.00000000  0.25000000  0.82906500  1
  Rh  Rh2  1  0.50000000  0.75000000  0.67380400  1
  Rh  Rh3  1  0.50000000  0.25000000  0.32619600  1
