# generated using pymatgen
data_Y2PS
_symmetry_space_group_name_H-M   'P 1'
_cell_length_a   6.88214739
_cell_length_b   6.88214739
_cell_length_c   6.88214780
_cell_angle_alpha   33.54054486
_cell_angle_beta   33.54054486
_cell_angle_gamma   33.54054832
_symmetry_Int_Tables_number   1
_chemical_formula_structural   Y2PS
_chemical_formula_sum   'Y2 P1 S1'
_cell_volume   88.63593629
_cell_formula_units_Z   1
loop_
 _symmetry_equiv_pos_site_id
 _symmetry_equiv_pos_as_xyz
  1  'x, y, z'
loop_
 _atom_site_type_symbol
 _atom_site_label
 _atom_site_symmetry_multiplicity
 _atom_site_fract_x
 _atom_site_fract_y
 _atom_site_fract_z
 _atom_site_occupancy
  Y  Y0  1  0.24699500  0.24699500  0.24699500  1
  Y  Y1  1  0.75300500  0.75300500  0.75300500  1
  P  P2  1  0.50000000  0.50000000  0.50000000  1
  S  S3  1  0.00000000  0.00000000  0.00000000  1
