# generated using pymatgen
data_Ho4CdIr
_symmetry_space_group_name_H-M   'P 1'
_cell_length_a   9.59446038
_cell_length_b   9.59446038
_cell_length_c   9.59446038
_cell_angle_alpha   60.00000000
_cell_angle_beta   60.00000000
_cell_angle_gamma   60.00000000
_symmetry_Int_Tables_number   1
_chemical_formula_structural   Ho4CdIr
_chemical_formula_sum   'Ho16 Cd4 Ir4'
_cell_volume   624.52045034
_cell_formula_units_Z   4
loop_
 _symmetry_equiv_pos_site_id
 _symmetry_equiv_pos_as_xyz
  1  'x, y, z'
loop_
 _atom_site_type_symbol
 _atom_site_label
 _atom_site_symmetry_multiplicity
 _atom_site_fract_x
 _atom_site_fract_y
 _atom_site_fract_z
 _atom_site_occupancy
  Ho  Ho0  1  0.59912900  0.59912900  0.59912900  1
  Ho  Ho1  1  0.59912900  0.59912900  0.20261400  1
  Ho  Ho2  1  0.59912900  0.20261400  0.59912900  1
  Ho  Ho3  1  0.20261400  0.59912900  0.59912900  1
  Ho  Ho4  1  0.06086400  0.43913600  0.43913600  1
  Ho  Ho5  1  0.43913600  0.06086400  0.06086400  1
  Ho  Ho6  1  0.43913600  0.06086400  0.43913600  1
  Ho  Ho7  1  0.06086400  0.43913600  0.06086400  1
  Ho  Ho8  1  0.43913600  0.43913600  0.06086400  1
  Ho  Ho9  1  0.06086400  0.06086400  0.43913600  1
  Ho  Ho10  1  0.18726100  0.81273900  0.81273900  1
  Ho  Ho11  1  0.81273900  0.18726100  0.18726100  1
  Ho  Ho12  1  0.81273900  0.18726100  0.81273900  1
  Ho  Ho13  1  0.18726100  0.81273900  0.18726100  1
  Ho  Ho14  1  0.81273900  0.81273900  0.18726100  1
  Ho  Ho15  1  0.18726100  0.18726100  0.81273900  1
  Cd  Cd16  1  0.83117300  0.83117300  0.83117300  1
  Cd  Cd17  1  0.83117300  0.83117300  0.50648000  1
  Cd  Cd18  1  0.83117300  0.50648000  0.83117300  1
  Cd  Cd19  1  0.50648000  0.83117300  0.83117300  1
  Ir  Ir20  1  0.39190900  0.39190900  0.39190900  1
  Ir  Ir21  1  0.39190900  0.39190900  0.82427400  1
  Ir  Ir22  1  0.39190900  0.82427400  0.39190900  1
  Ir  Ir23  1  0.82427400  0.39190900  0.39190900  1
