# generated using pymatgen
data_BaTbAgTe3
_symmetry_space_group_name_H-M   'P 1'
_cell_length_a   7.91766634
_cell_length_b   7.91766634
_cell_length_c   11.56613300
_cell_angle_alpha   90.00000000
_cell_angle_beta   90.00000000
_cell_angle_gamma   146.56406193
_symmetry_Int_Tables_number   1
_chemical_formula_structural   BaTbAgTe3
_chemical_formula_sum   'Ba2 Tb2 Ag2 Te6'
_cell_volume   399.51909955
_cell_formula_units_Z   2
loop_
 _symmetry_equiv_pos_site_id
 _symmetry_equiv_pos_as_xyz
  1  'x, y, z'
loop_
 _atom_site_type_symbol
 _atom_site_label
 _atom_site_symmetry_multiplicity
 _atom_site_fract_x
 _atom_site_fract_y
 _atom_site_fract_z
 _atom_site_occupancy
  Ba  Ba0  1  0.24514400  0.75485600  0.25000000  1
  Ba  Ba1  1  0.75485600  0.24514400  0.75000000  1
  Tb  Tb2  1  0.00000000  0.00000000  0.50000000  1
  Tb  Tb3  1  0.00000000  0.00000000  0.00000000  1
  Ag  Ag4  1  0.53131400  0.46868600  0.25000000  1
  Ag  Ag5  1  0.46868600  0.53131400  0.75000000  1
  Te  Te6  1  0.63874600  0.36125400  0.44838100  1
  Te  Te7  1  0.36125400  0.63874600  0.55161900  1
  Te  Te8  1  0.63874600  0.36125400  0.05161900  1
  Te  Te9  1  0.36125400  0.63874600  0.94838100  1
  Te  Te10  1  0.92043500  0.07956500  0.25000000  1
  Te  Te11  1  0.07956500  0.92043500  0.75000000  1
