# generated using pymatgen
data_Cd(AgI2)2
_symmetry_space_group_name_H-M   'P 1'
_cell_length_a   7.97838953
_cell_length_b   7.97838953
_cell_length_c   7.97838953
_cell_angle_alpha   131.29096965
_cell_angle_beta   131.29096965
_cell_angle_gamma   71.35119519
_symmetry_Int_Tables_number   1
_chemical_formula_structural   Cd(AgI2)2
_chemical_formula_sum   'Cd1 Ag2 I4'
_cell_volume   280.63205282
_cell_formula_units_Z   1
loop_
 _symmetry_equiv_pos_site_id
 _symmetry_equiv_pos_as_xyz
  1  'x, y, z'
loop_
 _atom_site_type_symbol
 _atom_site_label
 _atom_site_symmetry_multiplicity
 _atom_site_fract_x
 _atom_site_fract_y
 _atom_site_fract_z
 _atom_site_occupancy
  Cd  Cd0  1  0.00000000  0.00000000  0.00000000  1
  Ag  Ag1  1  0.75000000  0.25000000  0.50000000  1
  Ag  Ag2  1  0.25000000  0.75000000  0.50000000  1
  I  I3  1  0.86061500  0.37787700  0.00000000  1
  I  I4  1  0.37787700  0.86061500  0.00000000  1
  I  I5  1  0.13938500  0.13938500  0.51726200  1
  I  I6  1  0.62212300  0.62212300  0.48273800  1
