# generated using pymatgen
data_V2Zn3TePb3O14
_symmetry_space_group_name_H-M   'P 1'
_cell_length_a   5.27676600
_cell_length_b   8.78446729
_cell_length_c   8.78440138
_cell_angle_alpha   119.99973141
_cell_angle_beta   89.99997989
_cell_angle_gamma   90.00092620
_symmetry_Int_Tables_number   1
_chemical_formula_structural   V2Zn3TePb3O14
_chemical_formula_sum   'V2 Zn3 Te1 Pb3 O14'
_cell_volume   352.63648552
_cell_formula_units_Z   1
loop_
 _symmetry_equiv_pos_site_id
 _symmetry_equiv_pos_as_xyz
  1  'x, y, z'
loop_
 _atom_site_type_symbol
 _atom_site_label
 _atom_site_symmetry_multiplicity
 _atom_site_fract_x
 _atom_site_fract_y
 _atom_site_fract_z
 _atom_site_occupancy
  V  V0  1  0.54572000  0.66664200  0.33332000  1
  V  V1  1  0.45428400  0.33335500  0.66667600  1
  Zn  Zn2  1  0.50000100  0.24181200  0.99999400  1
  Zn  Zn3  1  0.50000200  0.00000000  0.24182200  1
  Zn  Zn4  1  0.50000000  0.75818800  0.75818300  1
  Te  Te5  1  0.00000000  0.00000100  0.00000400  1
  Pb  Pb6  1  0.99999900  0.00000100  0.60803500  1
  Pb  Pb7  1  0.00000400  0.39197300  0.39197300  1
  Pb  Pb8  1  0.99999500  0.60802700  0.99999900  1
  O  O9  1  0.22039300  0.66661200  0.33330800  1
  O  O10  1  0.77960700  0.33339000  0.66669700  1
  O  O11  1  0.78733200  0.08663300  0.87673200  1
  O  O12  1  0.78733300  0.12326100  0.20989900  1
  O  O13  1  0.78732600  0.79010000  0.91336400  1
  O  O14  1  0.21266900  0.91336700  0.79009800  1
  O  O15  1  0.21267300  0.20989500  0.12325900  1
  O  O16  1  0.21267200  0.87674000  0.08663900  1
  O  O17  1  0.66865600  0.73858600  0.54472700  1
  O  O18  1  0.66868000  0.45526100  0.19385800  1
  O  O19  1  0.66864500  0.80613000  0.26140300  1
  O  O20  1  0.33133900  0.26141400  0.80614200  1
  O  O21  1  0.33135300  0.19387100  0.45527100  1
  O  O22  1  0.33131700  0.54474000  0.73859700  1
