# generated using pymatgen
data_CsW3Cl7
_symmetry_space_group_name_H-M   'P 1'
_cell_length_a   10.23457616
_cell_length_b   10.23457616
_cell_length_c   15.20764200
_cell_angle_alpha   90.00000000
_cell_angle_beta   90.00000000
_cell_angle_gamma   120.00000105
_symmetry_Int_Tables_number   1
_chemical_formula_structural   CsW3Cl7
_chemical_formula_sum   'Cs4 W12 Cl28'
_cell_volume   1379.53343871
_cell_formula_units_Z   4
loop_
 _symmetry_equiv_pos_site_id
 _symmetry_equiv_pos_as_xyz
  1  'x, y, z'
loop_
 _atom_site_type_symbol
 _atom_site_label
 _atom_site_symmetry_multiplicity
 _atom_site_fract_x
 _atom_site_fract_y
 _atom_site_fract_z
 _atom_site_occupancy
  Cs  Cs0  1  0.00000000  0.00000000  0.99548800  1
  Cs  Cs1  1  0.00000000  0.00000000  0.49548800  1
  Cs  Cs2  1  0.66666700  0.33333300  0.71037100  1
  Cs  Cs3  1  0.33333300  0.66666700  0.21037100  1
  W  W4  1  0.48689900  0.67554200  0.78322700  1
  W  W5  1  0.18864300  0.51310100  0.78322700  1
  W  W6  1  0.81135700  0.32445800  0.28322700  1
  W  W7  1  0.32445800  0.81135700  0.78322700  1
  W  W8  1  0.67554200  0.48689900  0.28322700  1
  W  W9  1  0.51310100  0.18864300  0.28322700  1
  W  W10  1  0.47657500  0.82055700  0.64186000  1
  W  W11  1  0.34398200  0.52342500  0.64186000  1
  W  W12  1  0.65601800  0.17944300  0.14186000  1
  W  W13  1  0.17944300  0.65601800  0.64186000  1
  W  W14  1  0.82055700  0.47657500  0.14186000  1
  W  W15  1  0.52342500  0.34398200  0.14186000  1
  Cl  Cl16  1  0.62840300  0.68902300  0.64288400  1
  Cl  Cl17  1  0.06062100  0.37159700  0.64288400  1
  Cl  Cl18  1  0.93937900  0.31097700  0.14288400  1
  Cl  Cl19  1  0.31097700  0.93937900  0.64288400  1
  Cl  Cl20  1  0.68902300  0.62840300  0.14288400  1
  Cl  Cl21  1  0.37159700  0.06062100  0.14288400  1
  Cl  Cl22  1  0.98762300  0.31063400  0.86887400  1
  Cl  Cl23  1  0.32301200  0.01237700  0.86887400  1
  Cl  Cl24  1  0.67698800  0.68936600  0.36887400  1
  Cl  Cl25  1  0.68936600  0.67698800  0.86887400  1
  Cl  Cl26  1  0.31063400  0.98762300  0.36887400  1
  Cl  Cl27  1  0.01237700  0.32301200  0.36887400  1
  Cl  Cl28  1  0.66666700  0.33333300  0.01004200  1
  Cl  Cl29  1  0.33333300  0.66666700  0.51004200  1
  Cl  Cl30  1  0.66666700  0.33333300  0.41420200  1
  Cl  Cl31  1  0.33333300  0.66666700  0.91420200  1
  Cl  Cl32  1  0.60939300  0.95816000  0.78184200  1
  Cl  Cl33  1  0.34876700  0.39060700  0.78184200  1
  Cl  Cl34  1  0.65123300  0.04184000  0.28184200  1
  Cl  Cl35  1  0.04184000  0.65123300  0.78184200  1
  Cl  Cl36  1  0.95816000  0.60939300  0.28184200  1
  Cl  Cl37  1  0.39060700  0.34876700  0.28184200  1
  Cl  Cl38  1  0.66743100  0.03235300  0.55567800  1
  Cl  Cl39  1  0.36492200  0.33256900  0.55567800  1
  Cl  Cl40  1  0.63507800  0.96764700  0.05567800  1
  Cl  Cl41  1  0.96764700  0.63507800  0.55567800  1
  Cl  Cl42  1  0.03235300  0.66743100  0.05567800  1
  Cl  Cl43  1  0.33256900  0.36492200  0.05567800  1
