# generated using pymatgen
data_LiB12PC
_symmetry_space_group_name_H-M   'P 1'
_cell_length_a   7.12658813
_cell_length_b   7.12658813
_cell_length_c   7.12658813
_cell_angle_alpha   132.21526944
_cell_angle_beta   110.33698480
_cell_angle_gamma   88.88501197
_symmetry_Int_Tables_number   1
_chemical_formula_structural   LiB12PC
_chemical_formula_sum   'Li2 B24 P2 C2'
_cell_volume   239.11822622
_cell_formula_units_Z   2
loop_
 _symmetry_equiv_pos_site_id
 _symmetry_equiv_pos_as_xyz
  1  'x, y, z'
loop_
 _atom_site_type_symbol
 _atom_site_label
 _atom_site_symmetry_multiplicity
 _atom_site_fract_x
 _atom_site_fract_y
 _atom_site_fract_z
 _atom_site_occupancy
  Li  Li0  1  0.06544500  0.74825200  0.81719400  1
  Li  Li1  1  0.93105800  0.24825200  0.18280600  1
  B  B2  1  0.86610300  0.83236200  0.53374100  1
  B  B3  1  0.29862100  0.33236200  0.46625900  1
  B  B4  1  0.14318200  0.16631400  0.47686700  1
  B  B5  1  0.68944700  0.66631400  0.52313300  1
  B  B6  1  0.26959100  0.08971100  0.67988000  1
  B  B7  1  0.40983100  0.58971100  0.32012000  1
  B  B8  1  0.75222600  0.91154000  0.34068600  1
  B  B9  1  0.57085300  0.41154000  0.65931400  1
  B  B10  1  0.10520400  0.78011700  0.50844800  1
  B  B11  1  0.27166900  0.59675600  0.49155200  1
  B  B12  1  0.27166900  0.28011700  0.17491400  1
  B  B13  1  0.10520400  0.09675600  0.82508600  1
  B  B14  1  0.90130100  0.22283200  0.50284700  1
  B  B15  1  0.71998500  0.39845400  0.49715300  1
  B  B16  1  0.71998500  0.72283200  0.82153100  1
  B  B17  1  0.90130100  0.89845400  0.17846900  1
  B  B18  1  0.13402300  0.82477400  0.29552200  1
  B  B19  1  0.52925200  0.83850100  0.70447800  1
  B  B20  1  0.52925200  0.32477400  0.19075100  1
  B  B21  1  0.13402300  0.33850100  0.80924900  1
  B  B22  1  0.88262400  0.16233700  0.70492200  1
  B  B23  1  0.45741500  0.17770200  0.29507800  1
  B  B24  1  0.45741500  0.66233700  0.77971300  1
  B  B25  1  0.88262400  0.67770200  0.22028700  1
  P  P26  1  0.45850700  0.82833700  0.13017000  1
  P  P27  1  0.69816700  0.32833700  0.86983000  1
  C  C28  1  0.51752500  0.14494100  0.87258400  1
  C  C29  1  0.27235700  0.64494100  0.12741600  1
