# generated using pymatgen
data_Hf(TlSe)4
_symmetry_space_group_name_H-M   'P 1'
_cell_length_a   9.54903600
_cell_length_b   9.54927471
_cell_length_c   16.42359119
_cell_angle_alpha   104.26444849
_cell_angle_beta   104.71119274
_cell_angle_gamma   90.11934036
_symmetry_Int_Tables_number   1
_chemical_formula_structural   Hf(TlSe)4
_chemical_formula_sum   'Hf5 Tl20 Se20'
_cell_volume   1400.51069828
_cell_formula_units_Z   5
loop_
 _symmetry_equiv_pos_site_id
 _symmetry_equiv_pos_as_xyz
  1  'x, y, z'
loop_
 _atom_site_type_symbol
 _atom_site_label
 _atom_site_symmetry_multiplicity
 _atom_site_fract_x
 _atom_site_fract_y
 _atom_site_fract_z
 _atom_site_occupancy
  Hf  Hf0  1  0.98333300  0.31553500  0.40031800  1
  Hf  Hf1  1  0.01666700  0.68446500  0.59968200  1
  Hf  Hf2  1  0.82554900  0.69160400  0.80099400  1
  Hf  Hf3  1  0.17445100  0.30839600  0.19900600  1
  Hf  Hf4  1  0.00000000  0.50000000  0.00000000  1
  Tl  Tl5  1  0.95187000  0.91983000  0.19951500  1
  Tl  Tl6  1  0.04813000  0.08017000  0.80048500  1
  Tl  Tl7  1  0.78451700  0.28118200  0.59960200  1
  Tl  Tl8  1  0.21548300  0.71881800  0.40039800  1
  Tl  Tl9  1  0.77947400  0.91416400  0.40598500  1
  Tl  Tl10  1  0.22052600  0.08583600  0.59401500  1
  Tl  Tl11  1  0.77781100  0.54689900  0.20426600  1
  Tl  Tl12  1  0.22218900  0.45310100  0.79573400  1
  Tl  Tl13  1  0.62437800  0.90442300  0.61257700  1
  Tl  Tl14  1  0.37562200  0.09557700  0.38742300  1
  Tl  Tl15  1  0.61170400  0.29949000  0.80937600  1
  Tl  Tl16  1  0.38829600  0.70051000  0.19062400  1
  Tl  Tl17  1  0.58847900  0.53361400  0.40168500  1
  Tl  Tl18  1  0.41152100  0.46638600  0.59831500  1
  Tl  Tl19  1  0.42075000  0.90001800  0.79912600  1
  Tl  Tl20  1  0.57925000  0.09998200  0.20087400  1
  Tl  Tl21  1  0.39215200  0.28194500  0.00299800  1
  Tl  Tl22  1  0.60784800  0.71805500  0.99700200  1
  Tl  Tl23  1  0.22545700  0.89717700  0.99188300  1
  Tl  Tl24  1  0.77454300  0.10282300  0.00811700  1
  Se  Se25  1  0.93845700  0.95149100  0.59858900  1
  Se  Se26  1  0.06154300  0.04850900  0.40141100  1
  Se  Se27  1  0.92989700  0.60300300  0.42242200  1
  Se  Se28  1  0.07010300  0.39699700  0.57757800  1
  Se  Se29  1  0.92643600  0.76716000  0.97954800  1
  Se  Se30  1  0.07356400  0.23284000  0.02045200  1
  Se  Se31  1  0.91098800  0.42007600  0.82158500  1
  Se  Se32  1  0.08901200  0.57992400  0.17841500  1
  Se  Se33  1  0.75905800  0.96269200  0.80784200  1
  Se  Se34  1  0.24094200  0.03730800  0.19215800  1
  Se  Se35  1  0.74936900  0.61472400  0.62291900  1
  Se  Se36  1  0.25063100  0.38527600  0.37708100  1
  Se  Se37  1  0.55646800  0.61729600  0.80090700  1
  Se  Se38  1  0.44353200  0.38270400  0.19909300  1
  Se  Se39  1  0.28685500  0.75878700  0.60323200  1
  Se  Se40  1  0.71314500  0.24121300  0.39676800  1
  Se  Se41  1  0.27138100  0.57134900  0.99564800  1
  Se  Se42  1  0.72861900  0.42865100  0.00435200  1
  Se  Se43  1  0.09422900  0.73953100  0.77641900  1
  Se  Se44  1  0.90577100  0.26046900  0.22358100  1
