# generated using pymatgen
data_YRhO3
_symmetry_space_group_name_H-M   'P 1'
_cell_length_a   5.29992800
_cell_length_b   5.80563300
_cell_length_c   7.67750600
_cell_angle_alpha   90.00000000
_cell_angle_beta   90.00000000
_cell_angle_gamma   90.00000000
_symmetry_Int_Tables_number   1
_chemical_formula_structural   YRhO3
_chemical_formula_sum   'Y4 Rh4 O12'
_cell_volume   236.23253637
_cell_formula_units_Z   4
loop_
 _symmetry_equiv_pos_site_id
 _symmetry_equiv_pos_as_xyz
  1  'x, y, z'
loop_
 _atom_site_type_symbol
 _atom_site_label
 _atom_site_symmetry_multiplicity
 _atom_site_fract_x
 _atom_site_fract_y
 _atom_site_fract_z
 _atom_site_occupancy
  Y  Y0  1  0.03028000  0.41658800  0.25000000  1
  Y  Y1  1  0.96972000  0.58341200  0.75000000  1
  Y  Y2  1  0.53028000  0.08341200  0.75000000  1
  Y  Y3  1  0.46972000  0.91658800  0.25000000  1
  Rh  Rh4  1  0.00000000  0.00000000  0.00000000  1
  Rh  Rh5  1  0.50000000  0.50000000  0.00000000  1
  Rh  Rh6  1  0.00000000  0.00000000  0.50000000  1
  Rh  Rh7  1  0.50000000  0.50000000  0.50000000  1
  O  O8  1  0.32115100  0.19131100  0.06376000  1
  O  O9  1  0.67884900  0.80868900  0.93624000  1
  O  O10  1  0.82115100  0.30868900  0.93624000  1
  O  O11  1  0.67884900  0.80868900  0.56376000  1
  O  O12  1  0.17884900  0.69131100  0.06376000  1
  O  O13  1  0.32115100  0.19131100  0.43624000  1
  O  O14  1  0.17884900  0.69131100  0.43624000  1
  O  O15  1  0.82115100  0.30868900  0.56376000  1
  O  O16  1  0.63483900  0.55319500  0.25000000  1
  O  O17  1  0.36516100  0.44680500  0.75000000  1
  O  O18  1  0.13483900  0.94680500  0.75000000  1
  O  O19  1  0.86516100  0.05319500  0.25000000  1
