# generated using pymatgen
data_Mn2PO4F
_symmetry_space_group_name_H-M   'P 1'
_cell_length_a   7.56973985
_cell_length_b   7.56973985
_cell_length_c   10.24181264
_cell_angle_alpha   63.13126003
_cell_angle_beta   63.13126003
_cell_angle_gamma   51.70285447
_symmetry_Int_Tables_number   1
_chemical_formula_structural   Mn2PO4F
_chemical_formula_sum   'Mn8 P4 O16 F4'
_cell_volume   398.28288990
_cell_formula_units_Z   4
loop_
 _symmetry_equiv_pos_site_id
 _symmetry_equiv_pos_as_xyz
  1  'x, y, z'
loop_
 _atom_site_type_symbol
 _atom_site_label
 _atom_site_symmetry_multiplicity
 _atom_site_fract_x
 _atom_site_fract_y
 _atom_site_fract_z
 _atom_site_occupancy
  Mn  Mn0  1  0.21115900  0.67698800  0.99503500  1
  Mn  Mn1  1  0.32301200  0.78884100  0.50496500  1
  Mn  Mn2  1  0.78884100  0.32301200  0.00496500  1
  Mn  Mn3  1  0.67698800  0.21115900  0.49503500  1
  Mn  Mn4  1  0.05123400  0.26012300  0.64888200  1
  Mn  Mn5  1  0.73987700  0.94876600  0.85111800  1
  Mn  Mn6  1  0.94876600  0.73987700  0.35111800  1
  Mn  Mn7  1  0.26012300  0.05123400  0.14888200  1
  P  P8  1  0.22975500  0.41825300  0.80624500  1
  P  P9  1  0.58174700  0.77024500  0.69375500  1
  P  P10  1  0.77024500  0.58174700  0.19375500  1
  P  P11  1  0.41825300  0.22975500  0.30624500  1
  O  O12  1  0.77459600  0.61233800  0.58287600  1
  O  O13  1  0.38766200  0.22540400  0.91712400  1
  O  O14  1  0.22540400  0.38766200  0.41712400  1
  O  O15  1  0.61233800  0.77459600  0.08287600  1
  O  O16  1  0.93443000  0.64457500  0.18777500  1
  O  O17  1  0.35542500  0.06557000  0.31222500  1
  O  O18  1  0.06557000  0.35542500  0.81222500  1
  O  O19  1  0.64457500  0.93443000  0.68777500  1
  O  O20  1  0.62149300  0.54837500  0.35759800  1
  O  O21  1  0.45162500  0.37850700  0.14240200  1
  O  O22  1  0.37850700  0.45162500  0.64240200  1
  O  O23  1  0.54837500  0.62149300  0.85759800  1
  O  O24  1  0.91403700  0.35076100  0.14516500  1
  O  O25  1  0.64923900  0.08596300  0.35483500  1
  O  O26  1  0.08596300  0.64923900  0.85483500  1
  O  O27  1  0.35076100  0.91403700  0.64516500  1
  F  F28  1  0.08260800  0.88928300  0.39198200  1
  F  F29  1  0.11071700  0.91739200  0.10801800  1
  F  F30  1  0.91739200  0.11071700  0.60801800  1
  F  F31  1  0.88928300  0.08260800  0.89198200  1
