# generated using pymatgen
data_Tb2Hf3Si4
_symmetry_space_group_name_H-M   'P 1'
_cell_length_a   7.29778500
_cell_length_b   7.29778500
_cell_length_c   13.40847600
_cell_angle_alpha   90.00000000
_cell_angle_beta   90.00000000
_cell_angle_gamma   90.00000000
_symmetry_Int_Tables_number   1
_chemical_formula_structural   Tb2Hf3Si4
_chemical_formula_sum   'Tb8 Hf12 Si16'
_cell_volume   714.10413512
_cell_formula_units_Z   4
loop_
 _symmetry_equiv_pos_site_id
 _symmetry_equiv_pos_as_xyz
  1  'x, y, z'
loop_
 _atom_site_type_symbol
 _atom_site_label
 _atom_site_symmetry_multiplicity
 _atom_site_fract_x
 _atom_site_fract_y
 _atom_site_fract_z
 _atom_site_occupancy
  Tb  Tb0  1  0.99669600  0.34330800  0.21512400  1
  Tb  Tb1  1  0.00330400  0.65669200  0.71512400  1
  Tb  Tb2  1  0.15669200  0.49669600  0.46512400  1
  Tb  Tb3  1  0.50330400  0.84330800  0.03487600  1
  Tb  Tb4  1  0.84330800  0.50330400  0.96512400  1
  Tb  Tb5  1  0.49669600  0.15669200  0.53487600  1
  Tb  Tb6  1  0.34330800  0.99669600  0.78487600  1
  Tb  Tb7  1  0.65669200  0.00330400  0.28487600  1
  Hf  Hf8  1  0.17407700  0.17407700  0.00000000  1
  Hf  Hf9  1  0.82592300  0.82592300  0.50000000  1
  Hf  Hf10  1  0.32592300  0.67407700  0.25000000  1
  Hf  Hf11  1  0.67407700  0.32592300  0.75000000  1
  Hf  Hf12  1  0.14999900  0.99541700  0.37452300  1
  Hf  Hf13  1  0.85000100  0.00458300  0.87452300  1
  Hf  Hf14  1  0.50458300  0.64999900  0.62452300  1
  Hf  Hf15  1  0.35000100  0.49541700  0.87547700  1
  Hf  Hf16  1  0.49541700  0.35000100  0.12452300  1
  Hf  Hf17  1  0.64999900  0.50458300  0.37547700  1
  Hf  Hf18  1  0.99541700  0.14999900  0.62547700  1
  Hf  Hf19  1  0.00458300  0.85000100  0.12547700  1
  Si  Si20  1  0.36414900  0.29521000  0.31710700  1
  Si  Si21  1  0.63585100  0.70479000  0.81710700  1
  Si  Si22  1  0.20479000  0.86414900  0.56710700  1
  Si  Si23  1  0.13585100  0.79521000  0.93289300  1
  Si  Si24  1  0.79521000  0.13585100  0.06710700  1
  Si  Si25  1  0.86414900  0.20479000  0.43289300  1
  Si  Si26  1  0.29521000  0.36414900  0.68289300  1
  Si  Si27  1  0.70479000  0.63585100  0.18289300  1
  Si  Si28  1  0.29530500  0.04821700  0.18541600  1
  Si  Si29  1  0.70469500  0.95178300  0.68541600  1
  Si  Si30  1  0.45178300  0.79530500  0.43541600  1
  Si  Si31  1  0.20469500  0.54821700  0.06458400  1
  Si  Si32  1  0.54821700  0.20469500  0.93541600  1
  Si  Si33  1  0.79530500  0.45178300  0.56458400  1
  Si  Si34  1  0.04821700  0.29530500  0.81458400  1
  Si  Si35  1  0.95178300  0.70469500  0.31458400  1
