# generated using pymatgen
data_SmAsO4
_symmetry_space_group_name_H-M   'P 1'
_cell_length_a   6.08529344
_cell_length_b   6.08529344
_cell_length_c   6.08529344
_cell_angle_alpha   106.35913062
_cell_angle_beta   106.35913062
_cell_angle_gamma   115.89261237
_symmetry_Int_Tables_number   1
_chemical_formula_structural   SmAsO4
_chemical_formula_sum   'Sm2 As2 O8'
_cell_volume   171.81723568
_cell_formula_units_Z   2
loop_
 _symmetry_equiv_pos_site_id
 _symmetry_equiv_pos_as_xyz
  1  'x, y, z'
loop_
 _atom_site_type_symbol
 _atom_site_label
 _atom_site_symmetry_multiplicity
 _atom_site_fract_x
 _atom_site_fract_y
 _atom_site_fract_z
 _atom_site_occupancy
  Sm  Sm0  1  0.00000000  0.00000000  0.00000000  1
  Sm  Sm1  1  0.25000000  0.75000000  0.50000000  1
  As  As2  1  0.75000000  0.25000000  0.50000000  1
  As  As3  1  0.50000000  0.50000000  0.00000000  1
  O  O4  1  0.32695500  0.50644500  0.17949000  1
  O  O5  1  0.39746500  0.07695500  0.32051000  1
  O  O6  1  0.75644500  0.07695500  0.67949000  1
  O  O7  1  0.32695500  0.14746500  0.82051000  1
  O  O8  1  0.85253500  0.67304500  0.17949000  1
  O  O9  1  0.92304500  0.24355500  0.32051000  1
  O  O10  1  0.92304500  0.60253500  0.67949000  1
  O  O11  1  0.49355500  0.67304500  0.82051000  1
