# generated using pymatgen
data_Nd(Cd10Ni)2
_symmetry_space_group_name_H-M   'P 1'
_cell_length_a   11.17715911
_cell_length_b   11.17715911
_cell_length_c   11.17715911
_cell_angle_alpha   60.00000000
_cell_angle_beta   60.00000000
_cell_angle_gamma   60.00000000
_symmetry_Int_Tables_number   1
_chemical_formula_structural   Nd(Cd10Ni)2
_chemical_formula_sum   'Nd2 Cd40 Ni4'
_cell_volume   987.36857733
_cell_formula_units_Z   2
loop_
 _symmetry_equiv_pos_site_id
 _symmetry_equiv_pos_as_xyz
  1  'x, y, z'
loop_
 _atom_site_type_symbol
 _atom_site_label
 _atom_site_symmetry_multiplicity
 _atom_site_fract_x
 _atom_site_fract_y
 _atom_site_fract_z
 _atom_site_occupancy
  Nd  Nd0  1  0.50000000  0.50000000  0.50000000  1
  Nd  Nd1  1  0.75000000  0.75000000  0.75000000  1
  Cd  Cd2  1  0.56877000  0.30074400  0.30074400  1
  Cd  Cd3  1  0.30074400  0.56877000  0.82974300  1
  Cd  Cd4  1  0.30074400  0.82974300  0.56877000  1
  Cd  Cd5  1  0.82974300  0.30074400  0.30074400  1
  Cd  Cd6  1  0.30074400  0.30074400  0.56877000  1
  Cd  Cd7  1  0.56877000  0.82974300  0.30074400  1
  Cd  Cd8  1  0.82974300  0.56877000  0.30074400  1
  Cd  Cd9  1  0.30074400  0.30074400  0.82974300  1
  Cd  Cd10  1  0.30074400  0.56877000  0.30074400  1
  Cd  Cd11  1  0.82974300  0.30074400  0.56877000  1
  Cd  Cd12  1  0.56877000  0.30074400  0.82974300  1
  Cd  Cd13  1  0.30074400  0.82974300  0.30074400  1
  Cd  Cd14  1  0.68123000  0.94925600  0.94925600  1
  Cd  Cd15  1  0.94925600  0.68123000  0.42025700  1
  Cd  Cd16  1  0.94925600  0.42025700  0.68123000  1
  Cd  Cd17  1  0.42025700  0.94925600  0.94925600  1
  Cd  Cd18  1  0.94925600  0.94925600  0.68123000  1
  Cd  Cd19  1  0.68123000  0.42025700  0.94925600  1
  Cd  Cd20  1  0.42025700  0.68123000  0.94925600  1
  Cd  Cd21  1  0.94925600  0.94925600  0.42025700  1
  Cd  Cd22  1  0.94925600  0.68123000  0.94925600  1
  Cd  Cd23  1  0.42025700  0.94925600  0.68123000  1
  Cd  Cd24  1  0.68123000  0.94925600  0.42025700  1
  Cd  Cd25  1  0.94925600  0.42025700  0.94925600  1
  Cd  Cd26  1  0.86292500  0.86292500  0.13707500  1
  Cd  Cd27  1  0.13707500  0.13707500  0.86292500  1
  Cd  Cd28  1  0.86292500  0.13707500  0.86292500  1
  Cd  Cd29  1  0.13707500  0.86292500  0.13707500  1
  Cd  Cd30  1  0.13707500  0.86292500  0.86292500  1
  Cd  Cd31  1  0.86292500  0.13707500  0.13707500  1
  Cd  Cd32  1  0.38707500  0.38707500  0.11292500  1
  Cd  Cd33  1  0.11292500  0.11292500  0.38707500  1
  Cd  Cd34  1  0.38707500  0.11292500  0.38707500  1
  Cd  Cd35  1  0.11292500  0.38707500  0.11292500  1
  Cd  Cd36  1  0.11292500  0.38707500  0.38707500  1
  Cd  Cd37  1  0.38707500  0.11292500  0.11292500  1
  Cd  Cd38  1  0.12500000  0.62500000  0.62500000  1
  Cd  Cd39  1  0.62500000  0.12500000  0.62500000  1
  Cd  Cd40  1  0.62500000  0.62500000  0.12500000  1
  Cd  Cd41  1  0.62500000  0.62500000  0.62500000  1
  Ni  Ni42  1  0.62500000  0.12500000  0.12500000  1
  Ni  Ni43  1  0.12500000  0.62500000  0.12500000  1
  Ni  Ni44  1  0.12500000  0.12500000  0.62500000  1
  Ni  Ni45  1  0.12500000  0.12500000  0.12500000  1
