# generated using pymatgen
data_Ca3Ti3Cr2O12
_symmetry_space_group_name_H-M   'P 1'
_cell_length_a   10.93108177
_cell_length_b   10.93108177
_cell_length_c   10.93108177
_cell_angle_alpha   109.47122063
_cell_angle_beta   109.47122063
_cell_angle_gamma   109.47122063
_symmetry_Int_Tables_number   1
_chemical_formula_structural   Ca3Ti3Cr2O12
_chemical_formula_sum   'Ca12 Ti12 Cr8 O48'
_cell_volume   1005.46634374
_cell_formula_units_Z   4
loop_
 _symmetry_equiv_pos_site_id
 _symmetry_equiv_pos_as_xyz
  1  'x, y, z'
loop_
 _atom_site_type_symbol
 _atom_site_label
 _atom_site_symmetry_multiplicity
 _atom_site_fract_x
 _atom_site_fract_y
 _atom_site_fract_z
 _atom_site_occupancy
  Ca  Ca0  1  0.25000000  0.37500000  0.12500000  1
  Ca  Ca1  1  0.75000000  0.62500000  0.87500000  1
  Ca  Ca2  1  0.75000000  0.12500000  0.37500000  1
  Ca  Ca3  1  0.12500000  0.25000000  0.37500000  1
  Ca  Ca4  1  0.37500000  0.75000000  0.12500000  1
  Ca  Ca5  1  0.25000000  0.87500000  0.62500000  1
  Ca  Ca6  1  0.87500000  0.75000000  0.62500000  1
  Ca  Ca7  1  0.62500000  0.25000000  0.87500000  1
  Ca  Ca8  1  0.37500000  0.12500000  0.25000000  1
  Ca  Ca9  1  0.62500000  0.87500000  0.75000000  1
  Ca  Ca10  1  0.12500000  0.37500000  0.75000000  1
  Ca  Ca11  1  0.87500000  0.62500000  0.25000000  1
  Ti  Ti12  1  0.25000000  0.62500000  0.37500000  1
  Ti  Ti13  1  0.75000000  0.37500000  0.62500000  1
  Ti  Ti14  1  0.75000000  0.87500000  0.12500000  1
  Ti  Ti15  1  0.37500000  0.25000000  0.62500000  1
  Ti  Ti16  1  0.62500000  0.75000000  0.37500000  1
  Ti  Ti17  1  0.25000000  0.12500000  0.87500000  1
  Ti  Ti18  1  0.12500000  0.75000000  0.87500000  1
  Ti  Ti19  1  0.87500000  0.25000000  0.12500000  1
  Ti  Ti20  1  0.62500000  0.37500000  0.25000000  1
  Ti  Ti21  1  0.37500000  0.62500000  0.75000000  1
  Ti  Ti22  1  0.87500000  0.12500000  0.75000000  1
  Ti  Ti23  1  0.12500000  0.87500000  0.25000000  1
  Cr  Cr24  1  0.00000000  0.00000000  0.00000000  1
  Cr  Cr25  1  0.50000000  0.00000000  0.50000000  1
  Cr  Cr26  1  0.00000000  0.50000000  0.50000000  1
  Cr  Cr27  1  0.50000000  0.00000000  0.00000000  1
  Cr  Cr28  1  0.50000000  0.50000000  0.00000000  1
  Cr  Cr29  1  0.50000000  0.50000000  0.50000000  1
  Cr  Cr30  1  0.00000000  0.00000000  0.50000000  1
  Cr  Cr31  1  0.00000000  0.50000000  0.00000000  1
  O  O32  1  0.48227600  0.38134900  0.30101100  1
  O  O33  1  0.51772400  0.61865100  0.69898900  1
  O  O34  1  0.58033800  0.18126500  0.19898900  1
  O  O35  1  0.91966200  0.11865100  0.60092700  1
  O  O36  1  0.30101100  0.48227600  0.38134900  1
  O  O37  1  0.31873500  0.91966200  0.30101100  1
  O  O38  1  0.41966200  0.81873500  0.80101100  1
  O  O39  1  0.08033800  0.88134900  0.39907300  1
  O  O40  1  0.69898900  0.51772400  0.61865100  1
  O  O41  1  0.68126500  0.08033800  0.69898900  1
  O  O42  1  0.01772400  0.31873500  0.89907300  1
  O  O43  1  0.19898900  0.58033800  0.18126500  1
  O  O44  1  0.11865100  0.01772400  0.19898900  1
  O  O45  1  0.98227600  0.68126500  0.10092700  1
  O  O46  1  0.80101100  0.41966200  0.81873500  1
  O  O47  1  0.88134900  0.98227600  0.80101100  1
  O  O48  1  0.60092700  0.91966200  0.11865100  1
  O  O49  1  0.18126500  0.48227600  0.60092700  1
  O  O50  1  0.39907300  0.08033800  0.88134900  1
  O  O51  1  0.81873500  0.51772400  0.39907300  1
  O  O52  1  0.89907300  0.01772400  0.31873500  1
  O  O53  1  0.38134900  0.58033800  0.89907300  1
  O  O54  1  0.10092700  0.98227600  0.68126500  1
  O  O55  1  0.61865100  0.41966200  0.10092700  1
  O  O56  1  0.38134900  0.30101100  0.48227600  1
  O  O57  1  0.58033800  0.89907300  0.38134900  1
  O  O58  1  0.61865100  0.69898900  0.51772400  1
  O  O59  1  0.41966200  0.10092700  0.61865100  1
  O  O60  1  0.11865100  0.60092700  0.91966200  1
  O  O61  1  0.01772400  0.19898900  0.11865100  1
  O  O62  1  0.88134900  0.39907300  0.08033800  1
  O  O63  1  0.98227600  0.80101100  0.88134900  1
  O  O64  1  0.31873500  0.89907300  0.01772400  1
  O  O65  1  0.91966200  0.30101100  0.31873500  1
  O  O66  1  0.68126500  0.10092700  0.98227600  1
  O  O67  1  0.08033800  0.69898900  0.68126500  1
  O  O68  1  0.18126500  0.19898900  0.58033800  1
  O  O69  1  0.48227600  0.60092700  0.18126500  1
  O  O70  1  0.81873500  0.80101100  0.41966200  1
  O  O71  1  0.51772400  0.39907300  0.81873500  1
  O  O72  1  0.30101100  0.31873500  0.91966200  1
  O  O73  1  0.69898900  0.68126500  0.08033800  1
  O  O74  1  0.19898900  0.11865100  0.01772400  1
  O  O75  1  0.80101100  0.88134900  0.98227600  1
  O  O76  1  0.89907300  0.38134900  0.58033800  1
  O  O77  1  0.10092700  0.61865100  0.41966200  1
  O  O78  1  0.60092700  0.18126500  0.48227600  1
  O  O79  1  0.39907300  0.81873500  0.51772400  1
