# generated using pymatgen
data_ErBO3
_symmetry_space_group_name_H-M   'P 1'
_cell_length_a   6.52705360
_cell_length_b   6.52705360
_cell_length_c   9.57116666
_cell_angle_alpha   70.41551004
_cell_angle_beta   70.41551004
_cell_angle_gamma   60.08313820
_symmetry_Int_Tables_number   1
_chemical_formula_structural   ErBO3
_chemical_formula_sum   'Er6 B6 O18'
_cell_volume   325.85114883
_cell_formula_units_Z   6
loop_
 _symmetry_equiv_pos_site_id
 _symmetry_equiv_pos_as_xyz
  1  'x, y, z'
loop_
 _atom_site_type_symbol
 _atom_site_label
 _atom_site_symmetry_multiplicity
 _atom_site_fract_x
 _atom_site_fract_y
 _atom_site_fract_z
 _atom_site_occupancy
  Er  Er0  1  0.00000000  0.50000000  0.50000000  1
  Er  Er1  1  0.50000000  0.00000000  0.00000000  1
  Er  Er2  1  0.17030400  0.65867600  0.99936100  1
  Er  Er3  1  0.34132400  0.82969600  0.50063900  1
  Er  Er4  1  0.82969600  0.34132400  0.00063900  1
  Er  Er5  1  0.65867600  0.17030400  0.49936100  1
  B  B6  1  0.91780200  0.84100500  0.74681300  1
  B  B7  1  0.15899500  0.08219800  0.75318700  1
  B  B8  1  0.08219800  0.15899500  0.25318700  1
  B  B9  1  0.84100500  0.91780200  0.24681300  1
  B  B10  1  0.67455200  0.32544800  0.75000000  1
  B  B11  1  0.32544800  0.67455200  0.25000000  1
  O  O12  1  0.96638600  0.78208400  0.60179000  1
  O  O13  1  0.21791600  0.03361400  0.89821000  1
  O  O14  1  0.03361400  0.21791600  0.39821000  1
  O  O15  1  0.78208400  0.96638600  0.10179000  1
  O  O16  1  0.87015800  0.68354000  0.88875600  1
  O  O17  1  0.31646000  0.12984200  0.61124400  1
  O  O18  1  0.12984200  0.31646000  0.11124400  1
  O  O19  1  0.68354000  0.87015800  0.38875600  1
  O  O20  1  0.51704600  0.38603500  0.89237400  1
  O  O21  1  0.61396500  0.48295400  0.60762600  1
  O  O22  1  0.48295400  0.61396500  0.10762600  1
  O  O23  1  0.38603500  0.51704600  0.39237400  1
  O  O24  1  0.91673300  0.30158200  0.75181200  1
  O  O25  1  0.69841800  0.08326700  0.74818800  1
  O  O26  1  0.08326700  0.69841800  0.24818800  1
  O  O27  1  0.30158200  0.91673300  0.25181200  1
  O  O28  1  0.13637900  0.86362100  0.75000000  1
  O  O29  1  0.86362100  0.13637900  0.25000000  1
