# generated using pymatgen
data_Na20Zn7Sn12
_symmetry_space_group_name_H-M   'P 1'
_cell_length_a   9.46318972
_cell_length_b   9.46318972
_cell_length_c   28.08385315
_cell_angle_alpha   78.88079400
_cell_angle_beta   78.88079400
_cell_angle_gamma   59.38870319
_symmetry_Int_Tables_number   1
_chemical_formula_structural   Na20Zn7Sn12
_chemical_formula_sum   'Na40 Zn14 Sn24'
_cell_volume   2110.46957661
_cell_formula_units_Z   2
loop_
 _symmetry_equiv_pos_site_id
 _symmetry_equiv_pos_as_xyz
  1  'x, y, z'
loop_
 _atom_site_type_symbol
 _atom_site_label
 _atom_site_symmetry_multiplicity
 _atom_site_fract_x
 _atom_site_fract_y
 _atom_site_fract_z
 _atom_site_occupancy
  Na  Na0  1  0.85916600  0.09265600  0.06112900  1
  Na  Na1  1  0.14083400  0.90734400  0.93887100  1
  Na  Na2  1  0.90734400  0.14083400  0.43887100  1
  Na  Na3  1  0.09265600  0.85916600  0.56112900  1
  Na  Na4  1  0.52428300  0.90472300  0.93962200  1
  Na  Na5  1  0.47571700  0.09527700  0.06037800  1
  Na  Na6  1  0.09527700  0.47571700  0.56037800  1
  Na  Na7  1  0.90472300  0.52428300  0.43962200  1
  Na  Na8  1  0.63071900  0.06349500  0.60597200  1
  Na  Na9  1  0.36928100  0.93650500  0.39402800  1
  Na  Na10  1  0.93650500  0.36928100  0.89402800  1
  Na  Na11  1  0.06349500  0.63071900  0.10597200  1
  Na  Na12  1  0.49682500  0.68617800  0.50015200  1
  Na  Na13  1  0.50317500  0.31382200  0.49984800  1
  Na  Na14  1  0.31382200  0.50317500  0.99984800  1
  Na  Na15  1  0.68617800  0.49682500  0.00015200  1
  Na  Na16  1  0.26959000  0.70214600  0.68673400  1
  Na  Na17  1  0.73041000  0.29785400  0.31326600  1
  Na  Na18  1  0.29785400  0.73041000  0.81326600  1
  Na  Na19  1  0.70214600  0.26959000  0.18673400  1
  Na  Na20  1  0.30158600  0.10682100  0.81153200  1
  Na  Na21  1  0.69841400  0.89317900  0.18846800  1
  Na  Na22  1  0.89317900  0.69841400  0.68846800  1
  Na  Na23  1  0.10682100  0.30158600  0.31153200  1
  Na  Na24  1  0.70280300  0.16618000  0.93886300  1
  Na  Na25  1  0.29719700  0.83382000  0.06113700  1
  Na  Na26  1  0.83382000  0.29719700  0.56113700  1
  Na  Na27  1  0.16618000  0.70280300  0.43886300  1
  Na  Na28  1  0.63113000  0.68216800  0.60611400  1
  Na  Na29  1  0.36887000  0.31783200  0.39388600  1
  Na  Na30  1  0.31783200  0.36887000  0.89388600  1
  Na  Na31  1  0.68216800  0.63113000  0.10611400  1
  Na  Na32  1  0.68188400  0.73116000  0.81278400  1
  Na  Na33  1  0.31811600  0.26884000  0.18721600  1
  Na  Na34  1  0.26884000  0.31811600  0.68721600  1
  Na  Na35  1  0.73116000  0.68188400  0.31278400  1
  Na  Na36  1  0.25472200  0.05818200  0.60551000  1
  Na  Na37  1  0.74527800  0.94181800  0.39449000  1
  Na  Na38  1  0.94181800  0.74527800  0.89449000  1
  Na  Na39  1  0.05818200  0.25472200  0.10551000  1
  Zn  Zn40  1  0.60941500  0.33648900  0.66764700  1
  Zn  Zn41  1  0.39058500  0.66351100  0.33235300  1
  Zn  Zn42  1  0.66351100  0.39058500  0.83235300  1
  Zn  Zn43  1  0.33648900  0.60941500  0.16764700  1
  Zn  Zn44  1  0.63657300  0.05147900  0.72997300  1
  Zn  Zn45  1  0.36342700  0.94852100  0.27002700  1
  Zn  Zn46  1  0.94852100  0.36342700  0.77002700  1
  Zn  Zn47  1  0.05147900  0.63657300  0.22997300  1
  Zn  Zn48  1  0.50000000  0.00000000  0.50000000  1
  Zn  Zn49  1  0.00000000  0.50000000  0.00000000  1
  Zn  Zn50  1  0.11030000  0.05971700  0.73240300  1
  Zn  Zn51  1  0.88970000  0.94028300  0.26759700  1
  Zn  Zn52  1  0.94028300  0.88970000  0.76759700  1
  Zn  Zn53  1  0.05971700  0.11030000  0.23240300  1
  Sn  Sn54  1  0.65360200  0.07075800  0.83435500  1
  Sn  Sn55  1  0.34639800  0.92924200  0.16564500  1
  Sn  Sn56  1  0.92924200  0.34639800  0.66564500  1
  Sn  Sn57  1  0.07075800  0.65360200  0.33435500  1
  Sn  Sn58  1  0.91765200  0.03390200  0.66831700  1
  Sn  Sn59  1  0.08234800  0.96609800  0.33168300  1
  Sn  Sn60  1  0.96609800  0.08234800  0.83168300  1
  Sn  Sn61  1  0.03390200  0.91765200  0.16831700  1
  Sn  Sn62  1  0.41403800  0.48866500  0.59593300  1
  Sn  Sn63  1  0.58596200  0.51133500  0.40406700  1
  Sn  Sn64  1  0.51133500  0.58596200  0.90406700  1
  Sn  Sn65  1  0.48866500  0.41403800  0.09593300  1
  Sn  Sn66  1  0.81359900  0.83728300  0.51026700  1
  Sn  Sn67  1  0.18640100  0.16271700  0.48973300  1
  Sn  Sn68  1  0.16271700  0.18640100  0.98973300  1
  Sn  Sn69  1  0.83728300  0.81359900  0.01026700  1
  Sn  Sn70  1  0.45877700  0.91526600  0.70458700  1
  Sn  Sn71  1  0.54122300  0.08473400  0.29541300  1
  Sn  Sn72  1  0.08473400  0.54122300  0.79541300  1
  Sn  Sn73  1  0.91526600  0.45877700  0.20458700  1
  Sn  Sn74  1  0.45362000  0.36160800  0.76560400  1
  Sn  Sn75  1  0.54638000  0.63839200  0.23439600  1
  Sn  Sn76  1  0.63839200  0.54638000  0.73439600  1
  Sn  Sn77  1  0.36160800  0.45362000  0.26560400  1
