# generated using pymatgen
data_Rb2LaBr5
_symmetry_space_group_name_H-M   'P 1'
_cell_length_a   8.85496200
_cell_length_b   9.54470800
_cell_length_c   14.30243900
_cell_angle_alpha   90.00000000
_cell_angle_beta   90.00000000
_cell_angle_gamma   90.00000000
_symmetry_Int_Tables_number   1
_chemical_formula_structural   Rb2LaBr5
_chemical_formula_sum   'Rb8 La4 Br20'
_cell_volume   1208.81392043
_cell_formula_units_Z   4
loop_
 _symmetry_equiv_pos_site_id
 _symmetry_equiv_pos_as_xyz
  1  'x, y, z'
loop_
 _atom_site_type_symbol
 _atom_site_label
 _atom_site_symmetry_multiplicity
 _atom_site_fract_x
 _atom_site_fract_y
 _atom_site_fract_z
 _atom_site_occupancy
  Rb  Rb0  1  0.94686400  0.00487800  0.82751500  1
  Rb  Rb1  1  0.05313600  0.99512200  0.17248500  1
  Rb  Rb2  1  0.44686400  0.99512200  0.67248500  1
  Rb  Rb3  1  0.05313600  0.50487800  0.17248500  1
  Rb  Rb4  1  0.55313600  0.00487800  0.32751500  1
  Rb  Rb5  1  0.94686400  0.49512200  0.82751500  1
  Rb  Rb6  1  0.55313600  0.49512200  0.32751500  1
  Rb  Rb7  1  0.44686400  0.50487800  0.67248500  1
  La  La8  1  0.92635500  0.75000000  0.50408400  1
  La  La9  1  0.07364500  0.25000000  0.49591600  1
  La  La10  1  0.42635500  0.25000000  0.99591600  1
  La  La11  1  0.57364500  0.75000000  0.00408400  1
  Br  Br12  1  0.12181400  0.75000000  0.67443600  1
  Br  Br13  1  0.87818600  0.25000000  0.32556400  1
  Br  Br14  1  0.62181400  0.25000000  0.82556400  1
  Br  Br15  1  0.37818600  0.75000000  0.17443600  1
  Br  Br16  1  0.83948800  0.04246100  0.57450300  1
  Br  Br17  1  0.16051200  0.95753900  0.42549700  1
  Br  Br18  1  0.33948800  0.95753900  0.92549700  1
  Br  Br19  1  0.16051200  0.54246100  0.42549700  1
  Br  Br20  1  0.66051200  0.04246100  0.07450300  1
  Br  Br21  1  0.83948800  0.45753900  0.57450300  1
  Br  Br22  1  0.66051200  0.45753900  0.07450300  1
  Br  Br23  1  0.33948800  0.54246100  0.92549700  1
  Br  Br24  1  0.58556800  0.75000000  0.50877500  1
  Br  Br25  1  0.41443200  0.25000000  0.49122500  1
  Br  Br26  1  0.08556800  0.25000000  0.99122500  1
  Br  Br27  1  0.91443200  0.75000000  0.00877500  1
  Br  Br28  1  0.66007800  0.75000000  0.80160800  1
  Br  Br29  1  0.33992200  0.25000000  0.19839200  1
  Br  Br30  1  0.16007800  0.25000000  0.69839200  1
  Br  Br31  1  0.83992200  0.75000000  0.30160800  1
