# generated using pymatgen
data_Gd(BC)2
_symmetry_space_group_name_H-M   'P 1'
_cell_length_a   5.35308700
_cell_length_b   5.35308700
_cell_length_c   3.65540700
_cell_angle_alpha   90.00000000
_cell_angle_beta   90.00000000
_cell_angle_gamma   90.00000000
_symmetry_Int_Tables_number   1
_chemical_formula_structural   Gd(BC)2
_chemical_formula_sum   'Gd2 B4 C4'
_cell_volume   104.74766308
_cell_formula_units_Z   2
loop_
 _symmetry_equiv_pos_site_id
 _symmetry_equiv_pos_as_xyz
  1  'x, y, z'
loop_
 _atom_site_type_symbol
 _atom_site_label
 _atom_site_symmetry_multiplicity
 _atom_site_fract_x
 _atom_site_fract_y
 _atom_site_fract_z
 _atom_site_occupancy
  Gd  Gd0  1  0.50000000  0.50000000  0.00000000  1
  Gd  Gd1  1  0.00000000  0.00000000  0.00000000  1
  B  B2  1  0.86317800  0.36317800  0.50000000  1
  B  B3  1  0.13682200  0.63682200  0.50000000  1
  B  B4  1  0.36317800  0.13682200  0.50000000  1
  B  B5  1  0.63682200  0.86317800  0.50000000  1
  C  C6  1  0.66160100  0.16160100  0.50000000  1
  C  C7  1  0.33839900  0.83839900  0.50000000  1
  C  C8  1  0.16160100  0.33839900  0.50000000  1
  C  C9  1  0.83839900  0.66160100  0.50000000  1
