# generated using pymatgen
data_SmH3
_symmetry_space_group_name_H-M   'P 1'
_cell_length_a   6.52298326
_cell_length_b   6.52298326
_cell_length_c   6.80654000
_cell_angle_alpha   90.00000000
_cell_angle_beta   90.00000000
_cell_angle_gamma   119.99999251
_symmetry_Int_Tables_number   1
_chemical_formula_structural   SmH3
_chemical_formula_sum   'Sm6 H18'
_cell_volume   250.81274064
_cell_formula_units_Z   6
loop_
 _symmetry_equiv_pos_site_id
 _symmetry_equiv_pos_as_xyz
  1  'x, y, z'
loop_
 _atom_site_type_symbol
 _atom_site_label
 _atom_site_symmetry_multiplicity
 _atom_site_fract_x
 _atom_site_fract_y
 _atom_site_fract_z
 _atom_site_occupancy
  Sm  Sm0  1  0.66304400  0.00000000  0.75000000  1
  Sm  Sm1  1  0.33695600  0.33695600  0.75000000  1
  Sm  Sm2  1  0.00000000  0.66304400  0.75000000  1
  Sm  Sm3  1  0.66304400  0.66304400  0.25000000  1
  Sm  Sm4  1  0.00000000  0.33695600  0.25000000  1
  Sm  Sm5  1  0.33695600  0.00000000  0.25000000  1
  H  H6  1  0.32120700  0.97309300  0.90653700  1
  H  H7  1  0.65188600  0.67879300  0.90653700  1
  H  H8  1  0.02690700  0.34811400  0.90653700  1
  H  H9  1  0.32120700  0.34811400  0.40653700  1
  H  H10  1  0.02690700  0.67879300  0.40653700  1
  H  H11  1  0.65188600  0.97309300  0.40653700  1
  H  H12  1  0.67879300  0.02690700  0.09346300  1
  H  H13  1  0.34811400  0.32120700  0.09346300  1
  H  H14  1  0.97309300  0.65188600  0.09346300  1
  H  H15  1  0.67879300  0.65188600  0.59346300  1
  H  H16  1  0.97309300  0.32120700  0.59346300  1
  H  H17  1  0.34811400  0.02690700  0.59346300  1
  H  H18  1  0.00000000  0.00000000  0.75000000  1
  H  H19  1  0.00000000  0.00000000  0.25000000  1
  H  H20  1  0.66666700  0.33333300  0.82053400  1
  H  H21  1  0.66666700  0.33333300  0.32053400  1
  H  H22  1  0.33333300  0.66666700  0.17946600  1
  H  H23  1  0.33333300  0.66666700  0.67946600  1
