# generated using pymatgen
data_RbZr6CI14
_symmetry_space_group_name_H-M   'P 1'
_cell_length_a   10.96610502
_cell_length_b   10.96610502
_cell_length_c   13.14110400
_cell_angle_alpha   90.00000000
_cell_angle_beta   90.00000000
_cell_angle_gamma   94.89572883
_symmetry_Int_Tables_number   1
_chemical_formula_structural   RbZr6CI14
_chemical_formula_sum   'Rb2 Zr12 C2 I28'
_cell_volume   1574.52406533
_cell_formula_units_Z   2
loop_
 _symmetry_equiv_pos_site_id
 _symmetry_equiv_pos_as_xyz
  1  'x, y, z'
loop_
 _atom_site_type_symbol
 _atom_site_label
 _atom_site_symmetry_multiplicity
 _atom_site_fract_x
 _atom_site_fract_y
 _atom_site_fract_z
 _atom_site_occupancy
  Rb  Rb0  1  0.50000000  0.50000000  0.00000000  1
  Rb  Rb1  1  0.00000000  0.00000000  0.50000000  1
  Zr  Zr2  1  0.37231600  0.37231600  0.40569700  1
  Zr  Zr3  1  0.62768400  0.62768400  0.59430300  1
  Zr  Zr4  1  0.12768400  0.12768400  0.90569700  1
  Zr  Zr5  1  0.87231600  0.87231600  0.09430300  1
  Zr  Zr6  1  0.95913900  0.16554500  0.10594800  1
  Zr  Zr7  1  0.04086100  0.83445500  0.89405200  1
  Zr  Zr8  1  0.54086100  0.33445500  0.60594800  1
  Zr  Zr9  1  0.66554500  0.45913900  0.39405200  1
  Zr  Zr10  1  0.45913900  0.66554500  0.39405200  1
  Zr  Zr11  1  0.33445500  0.54086100  0.60594800  1
  Zr  Zr12  1  0.83445500  0.04086100  0.89405200  1
  Zr  Zr13  1  0.16554500  0.95913900  0.10594800  1
  C  C14  1  0.00000000  0.00000000  0.00000000  1
  C  C15  1  0.50000000  0.50000000  0.50000000  1
  I  I16  1  0.11365300  0.36115900  0.00618200  1
  I  I17  1  0.88634700  0.63884100  0.99381800  1
  I  I18  1  0.38634700  0.13884100  0.50618200  1
  I  I19  1  0.86115900  0.61365300  0.49381800  1
  I  I20  1  0.61365300  0.86115900  0.49381800  1
  I  I21  1  0.13884100  0.38634700  0.50618200  1
  I  I22  1  0.63884100  0.88634700  0.99381800  1
  I  I23  1  0.36115900  0.11365300  0.00618200  1
  I  I24  1  0.75111600  0.24888400  0.00000000  1
  I  I25  1  0.24888400  0.75111600  0.00000000  1
  I  I26  1  0.74888400  0.25111600  0.50000000  1
  I  I27  1  0.25111600  0.74888400  0.50000000  1
  I  I28  1  0.89837500  0.39837500  0.25000000  1
  I  I29  1  0.10162500  0.60162500  0.75000000  1
  I  I30  1  0.60162500  0.10162500  0.75000000  1
  I  I31  1  0.39837500  0.89837500  0.25000000  1
  I  I32  1  0.15314400  0.15314400  0.25918800  1
  I  I33  1  0.84685600  0.84685600  0.74081200  1
  I  I34  1  0.34685600  0.34685600  0.75918800  1
  I  I35  1  0.65314400  0.65314400  0.24081200  1
  I  I36  1  0.28913100  0.53545100  0.25297900  1
  I  I37  1  0.71086900  0.46454900  0.74702100  1
  I  I38  1  0.21086900  0.96454900  0.75297900  1
  I  I39  1  0.03545100  0.78913100  0.24702100  1
  I  I40  1  0.78913100  0.03545100  0.24702100  1
  I  I41  1  0.96454900  0.21086900  0.75297900  1
  I  I42  1  0.46454900  0.71086900  0.74702100  1
  I  I43  1  0.53545100  0.28913100  0.25297900  1
