# generated using pymatgen
data_CoRhS4
_symmetry_space_group_name_H-M   'P 1'
_cell_length_a   5.63133500
_cell_length_b   5.62757600
_cell_length_c   5.63821466
_cell_angle_alpha   89.93469870
_cell_angle_beta   90.00000000
_cell_angle_gamma   90.00000000
_symmetry_Int_Tables_number   1
_chemical_formula_structural   CoRhS4
_chemical_formula_sum   'Co2 Rh2 S8'
_cell_volume   178.67922373
_cell_formula_units_Z   2
loop_
 _symmetry_equiv_pos_site_id
 _symmetry_equiv_pos_as_xyz
  1  'x, y, z'
loop_
 _atom_site_type_symbol
 _atom_site_label
 _atom_site_symmetry_multiplicity
 _atom_site_fract_x
 _atom_site_fract_y
 _atom_site_fract_z
 _atom_site_occupancy
  Co  Co0  1  0.50000000  0.00000000  0.50000000  1
  Co  Co1  1  0.00000000  0.50000000  0.50000000  1
  Rh  Rh2  1  0.50000000  0.50000000  0.00000000  1
  Rh  Rh3  1  0.00000000  0.00000000  0.00000000  1
  S  S4  1  0.89267600  0.60778200  0.88137900  1
  S  S5  1  0.39267600  0.89221800  0.11862100  1
  S  S6  1  0.11376800  0.11324000  0.60350900  1
  S  S7  1  0.61376800  0.38676000  0.39649100  1
  S  S8  1  0.10732400  0.39221800  0.11862100  1
  S  S9  1  0.60732400  0.10778200  0.88137900  1
  S  S10  1  0.88623200  0.88676000  0.39649100  1
  S  S11  1  0.38623200  0.61324000  0.60350900  1
