# generated using pymatgen
data_Na3Nd(PO4)2
_symmetry_space_group_name_H-M   'P 1'
_cell_length_a   5.39137900
_cell_length_b   14.07503700
_cell_length_c   18.82862500
_cell_angle_alpha   90.00000000
_cell_angle_beta   90.00000000
_cell_angle_gamma   90.00000000
_symmetry_Int_Tables_number   1
_chemical_formula_structural   Na3Nd(PO4)2
_chemical_formula_sum   'Na24 Nd8 P16 O64'
_cell_volume   1428.78872289
_cell_formula_units_Z   8
loop_
 _symmetry_equiv_pos_site_id
 _symmetry_equiv_pos_as_xyz
  1  'x, y, z'
loop_
 _atom_site_type_symbol
 _atom_site_label
 _atom_site_symmetry_multiplicity
 _atom_site_fract_x
 _atom_site_fract_y
 _atom_site_fract_z
 _atom_site_occupancy
  Na  Na0  1  0.01567200  0.78359800  0.50664000  1
  Na  Na1  1  0.98432800  0.21640200  0.00664000  1
  Na  Na2  1  0.98432800  0.28359800  0.50664000  1
  Na  Na3  1  0.01567200  0.71640200  0.00664000  1
  Na  Na4  1  0.01084100  0.04808600  0.85194600  1
  Na  Na5  1  0.98915900  0.95191400  0.35194600  1
  Na  Na6  1  0.98915900  0.54808600  0.85194600  1
  Na  Na7  1  0.01084100  0.45191400  0.35194600  1
  Na  Na8  1  0.00874800  0.13814900  0.67140100  1
  Na  Na9  1  0.99125200  0.86185100  0.17140100  1
  Na  Na10  1  0.99125200  0.63814900  0.67140100  1
  Na  Na11  1  0.00874800  0.36185100  0.17140100  1
  Na  Na12  1  0.52476200  0.20241700  0.76865800  1
  Na  Na13  1  0.47523800  0.79758300  0.26865800  1
  Na  Na14  1  0.47523800  0.70241700  0.76865800  1
  Na  Na15  1  0.52476200  0.29758300  0.26865800  1
  Na  Na16  1  0.46000300  0.03257400  0.61204100  1
  Na  Na17  1  0.53999700  0.96742600  0.11204100  1
  Na  Na18  1  0.53999700  0.53257400  0.61204100  1
  Na  Na19  1  0.46000300  0.46742600  0.11204100  1
  Na  Na20  1  0.50210100  0.11519400  0.94960200  1
  Na  Na21  1  0.49789900  0.88480600  0.44960200  1
  Na  Na22  1  0.49789900  0.61519400  0.94960200  1
  Na  Na23  1  0.50210100  0.38480600  0.44960200  1
  Nd  Nd24  1  0.07218900  0.38650800  0.69723200  1
  Nd  Nd25  1  0.92781100  0.61349200  0.19723200  1
  Nd  Nd26  1  0.92781100  0.88650800  0.69723200  1
  Nd  Nd27  1  0.07218900  0.11349200  0.19723200  1
  Nd  Nd28  1  0.44392900  0.36453900  0.92520700  1
  Nd  Nd29  1  0.55607100  0.63546100  0.42520700  1
  Nd  Nd30  1  0.55607100  0.86453900  0.92520700  1
  Nd  Nd31  1  0.44392900  0.13546100  0.42520700  1
  P  P32  1  0.03149500  0.52494700  0.51939300  1
  P  P33  1  0.96850500  0.47505300  0.01939300  1
  P  P34  1  0.96850500  0.02494700  0.51939300  1
  P  P35  1  0.03149500  0.97505300  0.01939300  1
  P  P36  1  0.01346300  0.77143400  0.84701400  1
  P  P37  1  0.98653700  0.22856600  0.34701400  1
  P  P38  1  0.98653700  0.27143400  0.84701400  1
  P  P39  1  0.01346300  0.72856600  0.34701400  1
  P  P40  1  0.52500500  0.47911300  0.77605700  1
  P  P41  1  0.47499500  0.52088700  0.27605700  1
  P  P42  1  0.47499500  0.97911300  0.77605700  1
  P  P43  1  0.52500500  0.02088700  0.27605700  1
  P  P44  1  0.53974000  0.27368100  0.60347700  1
  P  P45  1  0.46026000  0.72631900  0.10347700  1
  P  P46  1  0.46026000  0.77368100  0.60347700  1
  P  P47  1  0.53974000  0.22631900  0.10347700  1
  O  O48  1  0.41646900  0.19554800  0.64904000  1
  O  O49  1  0.58353100  0.80445200  0.14904000  1
  O  O50  1  0.58353100  0.69554800  0.64904000  1
  O  O51  1  0.41646900  0.30445200  0.14904000  1
  O  O52  1  0.30685100  0.52960100  0.73703800  1
  O  O53  1  0.69314900  0.47039900  0.23703800  1
  O  O54  1  0.69314900  0.02960100  0.73703800  1
  O  O55  1  0.30685100  0.97039900  0.23703800  1
  O  O56  1  0.10031400  0.12191300  0.50512200  1
  O  O57  1  0.89968600  0.87808700  0.00512200  1
  O  O58  1  0.89968600  0.62191300  0.50512200  1
  O  O59  1  0.10031400  0.37808700  0.00512200  1
  O  O60  1  0.19782900  0.22009500  0.88860900  1
  O  O61  1  0.80217100  0.77990500  0.38860900  1
  O  O62  1  0.80217100  0.72009500  0.88860900  1
  O  O63  1  0.19782900  0.27990500  0.38860900  1
  O  O64  1  0.31525500  0.53404700  0.50210100  1
  O  O65  1  0.68474500  0.46595300  0.00210100  1
  O  O66  1  0.68474500  0.03404700  0.50210100  1
  O  O67  1  0.31525500  0.96595300  0.00210100  1
  O  O68  1  0.08751900  0.55348700  0.97302800  1
  O  O69  1  0.91248100  0.44651300  0.47302800  1
  O  O70  1  0.91248100  0.05348700  0.97302800  1
  O  O71  1  0.08751900  0.94651300  0.47302800  1
  O  O72  1  0.22643100  0.00689100  0.73971100  1
  O  O73  1  0.77356900  0.99310900  0.23971100  1
  O  O74  1  0.77356900  0.50689100  0.73971100  1
  O  O75  1  0.22643100  0.49310900  0.23971100  1
  O  O76  1  0.40411300  0.37005800  0.61605900  1
  O  O77  1  0.59588700  0.62994200  0.11605900  1
  O  O78  1  0.59588700  0.87005800  0.61605900  1
  O  O79  1  0.40411300  0.12994200  0.11605900  1
  O  O80  1  0.47920400  0.37020100  0.77360100  1
  O  O81  1  0.52079600  0.62979900  0.27360100  1
  O  O82  1  0.52079600  0.87020100  0.77360100  1
  O  O83  1  0.47920400  0.12979900  0.27360100  1
  O  O84  1  0.03474600  0.38018100  0.84938800  1
  O  O85  1  0.96525400  0.61981900  0.34938800  1
  O  O86  1  0.96525400  0.88018100  0.84938800  1
  O  O87  1  0.03474600  0.11981900  0.34938800  1
  O  O88  1  0.17948300  0.78390400  0.62410100  1
  O  O89  1  0.82051700  0.21609600  0.12410100  1
  O  O90  1  0.82051700  0.28390400  0.62410100  1
  O  O91  1  0.17948300  0.71609600  0.12410100  1
  O  O92  1  0.01016300  0.73914800  0.76792600  1
  O  O93  1  0.98983700  0.26085200  0.26792600  1
  O  O94  1  0.98983700  0.23914800  0.76792600  1
  O  O95  1  0.01016300  0.76085200  0.26792600  1
  O  O96  1  0.47071600  0.01093400  0.85541000  1
  O  O97  1  0.52928400  0.98906600  0.35541000  1
  O  O98  1  0.52928400  0.51093400  0.85541000  1
  O  O99  1  0.47071600  0.48906600  0.35541000  1
  O  O100  1  0.00442700  0.00206900  0.60006200  1
  O  O101  1  0.99557300  0.99793100  0.10006200  1
  O  O102  1  0.99557300  0.50206900  0.60006200  1
  O  O103  1  0.00442700  0.49793100  0.10006200  1
  O  O104  1  0.73343100  0.24478400  0.88126800  1
  O  O105  1  0.26656900  0.75521600  0.38126800  1
  O  O106  1  0.26656900  0.74478400  0.88126800  1
  O  O107  1  0.73343100  0.25521600  0.38126800  1
  O  O108  1  0.52774000  0.25095600  0.52226700  1
  O  O109  1  0.47226000  0.74904400  0.02226700  1
  O  O110  1  0.47226000  0.75095600  0.52226700  1
  O  O111  1  0.52774000  0.24904400  0.02226700  1
