# generated using pymatgen
data_KNaHf4(PO4)6
_symmetry_space_group_name_H-M   'P 1'
_cell_length_a   9.27322437
_cell_length_b   9.27322437
_cell_length_c   9.27322358
_cell_angle_alpha   57.02183316
_cell_angle_beta   57.02183316
_cell_angle_gamma   57.02183477
_symmetry_Int_Tables_number   1
_chemical_formula_structural   KNaHf4(PO4)6
_chemical_formula_sum   'K1 Na1 Hf4 P6 O24'
_cell_volume   525.15133604
_cell_formula_units_Z   1
loop_
 _symmetry_equiv_pos_site_id
 _symmetry_equiv_pos_as_xyz
  1  'x, y, z'
loop_
 _atom_site_type_symbol
 _atom_site_label
 _atom_site_symmetry_multiplicity
 _atom_site_fract_x
 _atom_site_fract_y
 _atom_site_fract_z
 _atom_site_occupancy
  K  K0  1  0.00000000  0.00000000  0.00000000  1
  Na  Na1  1  0.50000000  0.50000000  0.50000000  1
  Hf  Hf2  1  0.35343900  0.35343900  0.35343900  1
  Hf  Hf3  1  0.85301600  0.85301600  0.85301600  1
  Hf  Hf4  1  0.64656100  0.64656100  0.64656100  1
  Hf  Hf5  1  0.14698400  0.14698400  0.14698400  1
  P  P6  1  0.54018200  0.95686900  0.25174900  1
  P  P7  1  0.25174900  0.54018200  0.95686900  1
  P  P8  1  0.95686900  0.25174900  0.54018200  1
  P  P9  1  0.74825100  0.45981800  0.04313100  1
  P  P10  1  0.04313100  0.74825100  0.45981800  1
  P  P11  1  0.45981800  0.04313100  0.74825100  1
  O  O12  1  0.50703800  0.12005000  0.28567000  1
  O  O13  1  0.28567000  0.50703800  0.12005000  1
  O  O14  1  0.12005000  0.28567000  0.50703800  1
  O  O15  1  0.78121000  0.62469100  0.00668800  1
  O  O16  1  0.00668800  0.78121000  0.62469100  1
  O  O17  1  0.62469100  0.00668800  0.78121000  1
  O  O18  1  0.49296200  0.87995000  0.71433000  1
  O  O19  1  0.71433000  0.49296200  0.87995000  1
  O  O20  1  0.87995000  0.71433000  0.49296200  1
  O  O21  1  0.21879000  0.37530900  0.99331200  1
  O  O22  1  0.99331200  0.21879000  0.37530900  1
  O  O23  1  0.37530900  0.99331200  0.21879000  1
  O  O24  1  0.71527100  0.92951400  0.08199800  1
  O  O25  1  0.08199800  0.71527100  0.92951400  1
  O  O26  1  0.92951400  0.08199800  0.71527100  1
  O  O27  1  0.58064300  0.43252800  0.22142700  1
  O  O28  1  0.22142700  0.58064300  0.43252800  1
  O  O29  1  0.43252800  0.22142700  0.58064300  1
  O  O30  1  0.28472900  0.07048600  0.91800200  1
  O  O31  1  0.91800200  0.28472900  0.07048600  1
  O  O32  1  0.07048600  0.91800200  0.28472900  1
  O  O33  1  0.41935700  0.56747200  0.77857300  1
  O  O34  1  0.77857300  0.41935700  0.56747200  1
  O  O35  1  0.56747200  0.77857300  0.41935700  1
