# generated using pymatgen
data_U8CrSe17
_symmetry_space_group_name_H-M   'P 1'
_cell_length_a   8.19961818
_cell_length_b   8.19961818
_cell_length_c   10.85614019
_cell_angle_alpha   79.98262192
_cell_angle_beta   79.98262192
_cell_angle_gamma   64.28913270
_symmetry_Int_Tables_number   1
_chemical_formula_structural   U8CrSe17
_chemical_formula_sum   'U8 Cr1 Se17'
_cell_volume   643.60766965
_cell_formula_units_Z   1
loop_
 _symmetry_equiv_pos_site_id
 _symmetry_equiv_pos_as_xyz
  1  'x, y, z'
loop_
 _atom_site_type_symbol
 _atom_site_label
 _atom_site_symmetry_multiplicity
 _atom_site_fract_x
 _atom_site_fract_y
 _atom_site_fract_z
 _atom_site_occupancy
  U  U0  1  0.81814200  0.30223500  0.29728500  1
  U  U1  1  0.30223500  0.81814200  0.29728500  1
  U  U2  1  0.18185800  0.69776500  0.70271500  1
  U  U3  1  0.69776500  0.18185800  0.70271500  1
  U  U4  1  0.20288800  0.20288800  0.54254200  1
  U  U5  1  0.79711200  0.79711200  0.45745800  1
  U  U6  1  0.68121200  0.68121200  0.98345300  1
  U  U7  1  0.31878800  0.31878800  0.01654700  1
  Cr  Cr8  1  0.00000000  0.00000000  0.00000000  1
  Se  Se9  1  0.82059700  0.43311500  0.53486200  1
  Se  Se10  1  0.43311500  0.82059700  0.53486200  1
  Se  Se11  1  0.17940300  0.56688500  0.46513800  1
  Se  Se12  1  0.56688500  0.17940300  0.46513800  1
  Se  Se13  1  0.94522900  0.32226700  0.02681200  1
  Se  Se14  1  0.32226700  0.94522900  0.02681200  1
  Se  Se15  1  0.05477100  0.67773300  0.97318800  1
  Se  Se16  1  0.67773300  0.05477100  0.97318800  1
  Se  Se17  1  0.21308500  0.21308500  0.27709500  1
  Se  Se18  1  0.78691500  0.78691500  0.72290500  1
  Se  Se19  1  0.05846100  0.05846100  0.77338600  1
  Se  Se20  1  0.94153900  0.94153900  0.22661400  1
  Se  Se21  1  0.30022300  0.30022300  0.75630100  1
  Se  Se22  1  0.69977700  0.69977700  0.24369900  1
  Se  Se23  1  0.52157500  0.52157500  0.83156800  1
  Se  Se24  1  0.47842500  0.47842500  0.16843200  1
  Se  Se25  1  0.00000000  0.00000000  0.50000000  1
