# generated using pymatgen
data_MnMoO4
_symmetry_space_group_name_H-M   'P 1'
_cell_length_a   7.21387735
_cell_length_b   7.21387755
_cell_length_c   7.28261693
_cell_angle_alpha   78.06566277
_cell_angle_beta   78.06565963
_cell_angle_gamma   84.46450616
_symmetry_Int_Tables_number   1
_chemical_formula_structural   MnMoO4
_chemical_formula_sum   'Mn4 Mo4 O16'
_cell_volume   362.20988576
_cell_formula_units_Z   4
loop_
 _symmetry_equiv_pos_site_id
 _symmetry_equiv_pos_as_xyz
  1  'x, y, z'
loop_
 _atom_site_type_symbol
 _atom_site_label
 _atom_site_symmetry_multiplicity
 _atom_site_fract_x
 _atom_site_fract_y
 _atom_site_fract_z
 _atom_site_occupancy
  Mn  Mn0  1  0.18328600  0.81671300  0.50000000  1
  Mn  Mn1  1  0.81671400  0.18328700  0.49999900  1
  Mn  Mn2  1  0.79481300  0.79481200  0.86230100  1
  Mn  Mn3  1  0.20518700  0.20518700  0.13770000  1
  Mo  Mo4  1  0.25090200  0.74909800  0.00000000  1
  Mo  Mo5  1  0.74909700  0.25090200  0.00000000  1
  Mo  Mo6  1  0.27030700  0.27030700  0.59404200  1
  Mo  Mo7  1  0.72969200  0.72969200  0.40595900  1
  O  O8  1  0.21301900  0.51628900  0.52943200  1
  O  O9  1  0.48371000  0.78698100  0.47056800  1
  O  O10  1  0.78698100  0.48371100  0.47056800  1
  O  O11  1  0.51628900  0.21302000  0.52943100  1
  O  O12  1  0.11137200  0.80431800  0.80899500  1
  O  O13  1  0.19568100  0.88862800  0.19100600  1
  O  O14  1  0.88862800  0.19568200  0.19100600  1
  O  O15  1  0.80431800  0.11137200  0.80899500  1
  O  O16  1  0.85792800  0.85792800  0.53740100  1
  O  O17  1  0.14207100  0.14207200  0.46259800  1
  O  O18  1  0.20163000  0.20163100  0.84768700  1
  O  O19  1  0.79836900  0.79836900  0.15231200  1
  O  O20  1  0.78298900  0.49236600  0.89369700  1
  O  O21  1  0.21701100  0.50763400  0.10630400  1
  O  O22  1  0.50763300  0.21701100  0.10630400  1
  O  O23  1  0.49236700  0.78298900  0.89369700  1
