# generated using pymatgen
data_KAuF6
_symmetry_space_group_name_H-M   'P 1'
_cell_length_a   5.16986201
_cell_length_b   5.16986201
_cell_length_c   5.16986270
_cell_angle_alpha   98.67175130
_cell_angle_beta   98.67175130
_cell_angle_gamma   98.67174980
_symmetry_Int_Tables_number   1
_chemical_formula_structural   KAuF6
_chemical_formula_sum   'K1 Au1 F6'
_cell_volume   132.89094031
_cell_formula_units_Z   1
loop_
 _symmetry_equiv_pos_site_id
 _symmetry_equiv_pos_as_xyz
  1  'x, y, z'
loop_
 _atom_site_type_symbol
 _atom_site_label
 _atom_site_symmetry_multiplicity
 _atom_site_fract_x
 _atom_site_fract_y
 _atom_site_fract_z
 _atom_site_occupancy
  K  K0  1  0.50000000  0.50000000  0.50000000  1
  Au  Au1  1  0.00000000  0.00000000  0.00000000  1
  F  F2  1  0.07106600  0.72792600  0.72792600  1
  F  F3  1  0.72792600  0.07106600  0.72792600  1
  F  F4  1  0.27207400  0.27207400  0.92893400  1
  F  F5  1  0.27207400  0.92893400  0.27207400  1
  F  F6  1  0.92893400  0.27207400  0.27207400  1
  F  F7  1  0.72792600  0.72792600  0.07106600  1
