# generated using pymatgen
data_TaRe
_symmetry_space_group_name_H-M   'P 1'
_cell_length_a   2.80338206
_cell_length_b   2.80338206
_cell_length_c   4.46767100
_cell_angle_alpha   90.00000000
_cell_angle_beta   90.00000000
_cell_angle_gamma   110.42693730
_symmetry_Int_Tables_number   1
_chemical_formula_structural   TaRe
_chemical_formula_sum   'Ta1 Re1'
_cell_volume   32.90334475
_cell_formula_units_Z   1
loop_
 _symmetry_equiv_pos_site_id
 _symmetry_equiv_pos_as_xyz
  1  'x, y, z'
loop_
 _atom_site_type_symbol
 _atom_site_label
 _atom_site_symmetry_multiplicity
 _atom_site_fract_x
 _atom_site_fract_y
 _atom_site_fract_z
 _atom_site_occupancy
  Ta  Ta0  1  0.50000000  0.50000000  0.50000000  1
  Re  Re1  1  0.00000000  0.00000000  0.00000000  1
