# generated using pymatgen
data_TbS2
_symmetry_space_group_name_H-M   'P 1'
_cell_length_a   3.92306000
_cell_length_b   7.85910600
_cell_length_c   7.95020227
_cell_angle_alpha   89.87061562
_cell_angle_beta   90.00000000
_cell_angle_gamma   90.00000000
_symmetry_Int_Tables_number   1
_chemical_formula_structural   TbS2
_chemical_formula_sum   'Tb4 S8'
_cell_volume   245.11797923
_cell_formula_units_Z   4
loop_
 _symmetry_equiv_pos_site_id
 _symmetry_equiv_pos_as_xyz
  1  'x, y, z'
loop_
 _atom_site_type_symbol
 _atom_site_label
 _atom_site_symmetry_multiplicity
 _atom_site_fract_x
 _atom_site_fract_y
 _atom_site_fract_z
 _atom_site_occupancy
  Tb  Tb0  1  0.28459000  0.62885200  0.72510000  1
  Tb  Tb1  1  0.78459000  0.87114800  0.27490000  1
  Tb  Tb2  1  0.71541000  0.37114800  0.27490000  1
  Tb  Tb3  1  0.21541000  0.12885200  0.72510000  1
  S  S4  1  0.25987000  0.62520600  0.36853300  1
  S  S5  1  0.75987000  0.87479400  0.63146700  1
  S  S6  1  0.74013000  0.37479400  0.63146700  1
  S  S7  1  0.24013000  0.12520600  0.36853300  1
  S  S8  1  0.83637000  0.61096400  0.99716600  1
  S  S9  1  0.33637000  0.88903600  0.00283400  1
  S  S10  1  0.16363000  0.38903600  0.00283400  1
  S  S11  1  0.66363000  0.11096400  0.99716600  1
