# generated using pymatgen
data_Na19Zr11S30
_symmetry_space_group_name_H-M   'P 1'
_cell_length_a   11.71713481
_cell_length_b   11.71713481
_cell_length_c   11.10395175
_cell_angle_alpha   79.33417409
_cell_angle_beta   79.33417409
_cell_angle_gamma   58.75104625
_symmetry_Int_Tables_number   1
_chemical_formula_structural   Na19Zr11S30
_chemical_formula_sum   'Na19 Zr11 S30'
_cell_volume   1273.57195515
_cell_formula_units_Z   1
loop_
 _symmetry_equiv_pos_site_id
 _symmetry_equiv_pos_as_xyz
  1  'x, y, z'
loop_
 _atom_site_type_symbol
 _atom_site_label
 _atom_site_symmetry_multiplicity
 _atom_site_fract_x
 _atom_site_fract_y
 _atom_site_fract_z
 _atom_site_occupancy
  Na  Na0  1  0.73857000  0.05906700  0.30263400  1
  Na  Na1  1  0.14016100  0.46038600  0.10034100  1
  Na  Na2  1  0.34114400  0.65885600  0.50000000  1
  Na  Na3  1  0.53961400  0.85983900  0.89965900  1
  Na  Na4  1  0.94093300  0.26143000  0.69736600  1
  Na  Na5  1  0.46038600  0.14016100  0.10034100  1
  Na  Na6  1  0.85983900  0.53961400  0.89965900  1
  Na  Na7  1  0.05906700  0.73857000  0.30263400  1
  Na  Na8  1  0.26143000  0.94093300  0.69736600  1
  Na  Na9  1  0.65885600  0.34114400  0.50000000  1
  Na  Na10  1  0.39998600  0.39998600  0.30023300  1
  Na  Na11  1  0.79832700  0.79832700  0.10104100  1
  Na  Na12  1  0.00000000  0.00000000  0.50000000  1
  Na  Na13  1  0.20167300  0.20167300  0.89895900  1
  Na  Na14  1  0.60001400  0.60001400  0.69976700  1
  Na  Na15  1  0.20014200  0.20014200  0.39980100  1
  Na  Na16  1  0.40014600  0.40014600  0.79941100  1
  Na  Na17  1  0.59985400  0.59985400  0.20058900  1
  Na  Na18  1  0.79985800  0.79985800  0.60019900  1
  Zr  Zr19  1  0.66275600  0.33724400  0.00000000  1
  Zr  Zr20  1  0.06830100  0.73168300  0.80022300  1
  Zr  Zr21  1  0.26831700  0.93169900  0.19977700  1
  Zr  Zr22  1  0.46990700  0.13154200  0.60119000  1
  Zr  Zr23  1  0.86845800  0.53009300  0.39881000  1
  Zr  Zr24  1  0.73168300  0.06830100  0.80022300  1
  Zr  Zr25  1  0.13154200  0.46990700  0.60119000  1
  Zr  Zr26  1  0.33724400  0.66275600  0.00000000  1
  Zr  Zr27  1  0.53009300  0.86845800  0.39881000  1
  Zr  Zr28  1  0.93169900  0.26831700  0.19977700  1
  Zr  Zr29  1  0.00000000  0.00000000  0.00000000  1
  S  S30  1  0.51418100  0.87600800  0.16608000  1
  S  S31  1  0.92428600  0.25908800  0.96454200  1
  S  S32  1  0.11477900  0.47556800  0.36902900  1
  S  S33  1  0.31505000  0.67604200  0.76929400  1
  S  S34  1  0.71827500  0.07471000  0.56919800  1
  S  S35  1  0.47556800  0.11477900  0.36902900  1
  S  S36  1  0.87600800  0.51418100  0.16608000  1
  S  S37  1  0.07471000  0.71827500  0.56919800  1
  S  S38  1  0.25908800  0.92428600  0.96454200  1
  S  S39  1  0.67604200  0.31505000  0.76929400  1
  S  S40  1  0.68495000  0.32395800  0.23070600  1
  S  S41  1  0.07571400  0.74091200  0.03545800  1
  S  S42  1  0.28172500  0.92529000  0.43080200  1
  S  S43  1  0.48581900  0.12399200  0.83392000  1
  S  S44  1  0.88522100  0.52443200  0.63097100  1
  S  S45  1  0.74091200  0.07571400  0.03545800  1
  S  S46  1  0.12399200  0.48581900  0.83392000  1
  S  S47  1  0.32395800  0.68495000  0.23070600  1
  S  S48  1  0.52443200  0.88522100  0.63097100  1
  S  S49  1  0.92529000  0.28172500  0.43080200  1
  S  S50  1  0.81327000  0.81327000  0.84779000  1
  S  S51  1  0.21369000  0.21369000  0.64718700  1
  S  S52  1  0.41077400  0.41077400  0.04698300  1
  S  S53  1  0.61254200  0.61254200  0.44706800  1
  S  S54  1  0.00827800  0.00827800  0.23634800  1
  S  S55  1  0.38745800  0.38745800  0.55293200  1
  S  S56  1  0.78631000  0.78631000  0.35281300  1
  S  S57  1  0.99172200  0.99172200  0.76365200  1
  S  S58  1  0.18673000  0.18673000  0.15221000  1
  S  S59  1  0.58922600  0.58922600  0.95301700  1
