# generated using pymatgen
data_Sm3W(ClO2)3
_symmetry_space_group_name_H-M   'P 1'
_cell_length_a   9.27214242
_cell_length_b   9.27214242
_cell_length_c   5.36696700
_cell_angle_alpha   90.00000000
_cell_angle_beta   90.00000000
_cell_angle_gamma   120.00000297
_symmetry_Int_Tables_number   1
_chemical_formula_structural   Sm3W(ClO2)3
_chemical_formula_sum   'Sm6 W2 Cl6 O12'
_cell_volume   399.59471054
_cell_formula_units_Z   2
loop_
 _symmetry_equiv_pos_site_id
 _symmetry_equiv_pos_as_xyz
  1  'x, y, z'
loop_
 _atom_site_type_symbol
 _atom_site_label
 _atom_site_symmetry_multiplicity
 _atom_site_fract_x
 _atom_site_fract_y
 _atom_site_fract_z
 _atom_site_occupancy
  Sm  Sm0  1  0.40465000  0.09072500  0.25000000  1
  Sm  Sm1  1  0.59535000  0.90927500  0.75000000  1
  Sm  Sm2  1  0.90927500  0.31392600  0.25000000  1
  Sm  Sm3  1  0.09072500  0.68607400  0.75000000  1
  Sm  Sm4  1  0.68607400  0.59535000  0.25000000  1
  Sm  Sm5  1  0.31392600  0.40465000  0.75000000  1
  W  W6  1  0.33333300  0.66666700  0.25000000  1
  W  W7  1  0.66666700  0.33333300  0.75000000  1
  Cl  Cl8  1  0.19081300  0.23986600  0.25000000  1
  Cl  Cl9  1  0.80918700  0.76013400  0.75000000  1
  Cl  Cl10  1  0.76013400  0.95094600  0.25000000  1
  Cl  Cl11  1  0.23986600  0.04905400  0.75000000  1
  Cl  Cl12  1  0.04905400  0.80918700  0.25000000  1
  Cl  Cl13  1  0.95094600  0.19081300  0.75000000  1
  O  O14  1  0.15747600  0.52187400  0.01505200  1
  O  O15  1  0.84252400  0.47812600  0.98494800  1
  O  O16  1  0.47812600  0.63560100  0.01505200  1
  O  O17  1  0.84252400  0.47812600  0.51505200  1
  O  O18  1  0.52187400  0.36439900  0.98494800  1
  O  O19  1  0.15747600  0.52187400  0.48494800  1
  O  O20  1  0.36439900  0.84252400  0.01505200  1
  O  O21  1  0.52187400  0.36439900  0.51505200  1
  O  O22  1  0.63560100  0.15747600  0.98494800  1
  O  O23  1  0.47812600  0.63560100  0.48494800  1
  O  O24  1  0.63560100  0.15747600  0.51505200  1
  O  O25  1  0.36439900  0.84252400  0.48494800  1
