# generated using pymatgen
data_EuAu2
_symmetry_space_group_name_H-M   'P 1'
_cell_length_a   6.09820307
_cell_length_b   6.09820307
_cell_length_c   6.09820307
_cell_angle_alpha   133.09855730
_cell_angle_beta   104.91870827
_cell_angle_gamma   93.39942127
_symmetry_Int_Tables_number   1
_chemical_formula_structural   EuAu2
_chemical_formula_sum   'Eu2 Au4'
_cell_volume   150.85684932
_cell_formula_units_Z   2
loop_
 _symmetry_equiv_pos_site_id
 _symmetry_equiv_pos_as_xyz
  1  'x, y, z'
loop_
 _atom_site_type_symbol
 _atom_site_label
 _atom_site_symmetry_multiplicity
 _atom_site_fract_x
 _atom_site_fract_y
 _atom_site_fract_z
 _atom_site_occupancy
  Eu  Eu0  1  0.21039300  0.46039300  0.75000000  1
  Eu  Eu1  1  0.78960700  0.53960700  0.25000000  1
  Au  Au2  1  0.38538400  0.83690300  0.54848100  1
  Au  Au3  1  0.61461600  0.16309700  0.45151900  1
  Au  Au4  1  0.21157800  0.16309700  0.04848100  1
  Au  Au5  1  0.78842200  0.83690300  0.95151900  1
