# generated using pymatgen
data_Na6Mn(SO4)4
_symmetry_space_group_name_H-M   'P 1'
_cell_length_a   8.42120543
_cell_length_b   9.40018900
_cell_length_c   10.01120005
_cell_angle_alpha   90.00000000
_cell_angle_beta   113.69649760
_cell_angle_gamma   90.00000000
_symmetry_Int_Tables_number   1
_chemical_formula_structural   Na6Mn(SO4)4
_chemical_formula_sum   'Na12 Mn2 S8 O32'
_cell_volume   725.67826012
_cell_formula_units_Z   2
loop_
 _symmetry_equiv_pos_site_id
 _symmetry_equiv_pos_as_xyz
  1  'x, y, z'
loop_
 _atom_site_type_symbol
 _atom_site_label
 _atom_site_symmetry_multiplicity
 _atom_site_fract_x
 _atom_site_fract_y
 _atom_site_fract_z
 _atom_site_occupancy
  Na  Na0  1  0.91111000  0.84877700  0.55301800  1
  Na  Na1  1  0.08889000  0.15122300  0.44698200  1
  Na  Na2  1  0.58889000  0.34877700  0.44698200  1
  Na  Na3  1  0.41111000  0.65122300  0.55301800  1
  Na  Na4  1  0.53223600  0.98473200  0.68858200  1
  Na  Na5  1  0.46776400  0.01526800  0.31141800  1
  Na  Na6  1  0.96776400  0.48473200  0.31141800  1
  Na  Na7  1  0.03223600  0.51526800  0.68858200  1
  Na  Na8  1  0.81650700  0.36268200  0.88929800  1
  Na  Na9  1  0.18349300  0.63731800  0.11070200  1
  Na  Na10  1  0.68349300  0.86268200  0.11070200  1
  Na  Na11  1  0.31650700  0.13731800  0.88929800  1
  Mn  Mn12  1  0.00000000  0.00000000  0.00000000  1
  Mn  Mn13  1  0.50000000  0.50000000  0.00000000  1
  S  S14  1  0.77507500  0.69368000  0.85908600  1
  S  S15  1  0.22492500  0.30632000  0.14091400  1
  S  S16  1  0.72492500  0.19368000  0.14091400  1
  S  S17  1  0.27507500  0.80632000  0.85908600  1
  S  S18  1  0.65517000  0.64835300  0.33970200  1
  S  S19  1  0.34483000  0.35164700  0.66029800  1
  S  S20  1  0.84483000  0.14835300  0.66029800  1
  S  S21  1  0.15517000  0.85164700  0.33970200  1
  O  O22  1  0.84181500  0.81188500  0.96928500  1
  O  O23  1  0.15818500  0.18811500  0.03071500  1
  O  O24  1  0.65818500  0.31188500  0.03071500  1
  O  O25  1  0.34181500  0.68811500  0.96928500  1
  O  O26  1  0.92308800  0.60403800  0.86332100  1
  O  O27  1  0.07691200  0.39596200  0.13667900  1
  O  O28  1  0.57691200  0.10403800  0.13667900  1
  O  O29  1  0.42308800  0.89596200  0.86332100  1
  O  O30  1  0.00183400  0.91520900  0.35464900  1
  O  O31  1  0.99816600  0.08479100  0.64535100  1
  O  O32  1  0.49816600  0.41520900  0.64535100  1
  O  O33  1  0.50183400  0.58479100  0.35464900  1
  O  O34  1  0.67989500  0.75521400  0.71172700  1
  O  O35  1  0.32010500  0.24478600  0.28827300  1
  O  O36  1  0.82010500  0.25521400  0.28827300  1
  O  O37  1  0.17989500  0.74478600  0.71172700  1
  O  O38  1  0.65894100  0.60446700  0.90365700  1
  O  O39  1  0.34105800  0.39553300  0.09634300  1
  O  O40  1  0.84105900  0.10446700  0.09634300  1
  O  O41  1  0.15894200  0.89553300  0.90365700  1
  O  O42  1  0.81799200  0.60423900  0.46395900  1
  O  O43  1  0.18200800  0.39576100  0.53604100  1
  O  O44  1  0.68200800  0.10423900  0.53604100  1
  O  O45  1  0.31799200  0.89576100  0.46395900  1
  O  O46  1  0.32915000  0.40358400  0.79711700  1
  O  O47  1  0.67085000  0.59641600  0.20288300  1
  O  O48  1  0.17085000  0.90358400  0.20288300  1
  O  O49  1  0.82915000  0.09641600  0.79711700  1
  O  O50  1  0.85874200  0.30647500  0.66827200  1
  O  O51  1  0.14125800  0.69352500  0.33172800  1
  O  O52  1  0.64125800  0.80647500  0.33172800  1
  O  O53  1  0.35874200  0.19352500  0.66827200  1
