# generated using pymatgen
data_Lu11(Ni10C)6
_symmetry_space_group_name_H-M   'P 1'
_cell_length_a   10.68550641
_cell_length_b   10.68550641
_cell_length_c   10.68550641
_cell_angle_alpha   109.47122063
_cell_angle_beta   109.47122063
_cell_angle_gamma   109.47122063
_symmetry_Int_Tables_number   1
_chemical_formula_structural   Lu11(Ni10C)6
_chemical_formula_sum   'Lu11 Ni60 C6'
_cell_volume   939.21157508
_cell_formula_units_Z   1
loop_
 _symmetry_equiv_pos_site_id
 _symmetry_equiv_pos_as_xyz
  1  'x, y, z'
loop_
 _atom_site_type_symbol
 _atom_site_label
 _atom_site_symmetry_multiplicity
 _atom_site_fract_x
 _atom_site_fract_y
 _atom_site_fract_z
 _atom_site_occupancy
  Lu  Lu0  1  0.00000000  0.00000000  0.33686200  1
  Lu  Lu1  1  0.00000000  0.33686200  0.00000000  1
  Lu  Lu2  1  0.33686200  0.00000000  0.00000000  1
  Lu  Lu3  1  0.66313800  0.66313800  0.66313800  1
  Lu  Lu4  1  0.00000000  0.00000000  0.66313800  1
  Lu  Lu5  1  0.00000000  0.66313800  0.00000000  1
  Lu  Lu6  1  0.66313800  0.00000000  0.00000000  1
  Lu  Lu7  1  0.33686200  0.33686200  0.33686200  1
  Lu  Lu8  1  0.50000000  0.50000000  0.00000000  1
  Lu  Lu9  1  0.50000000  0.00000000  0.50000000  1
  Lu  Lu10  1  0.00000000  0.50000000  0.50000000  1
  Ni  Ni11  1  0.00000000  0.76740800  0.41937600  1
  Ni  Ni12  1  0.23259200  0.23259200  0.65196800  1
  Ni  Ni13  1  0.76740800  0.00000000  0.41937600  1
  Ni  Ni14  1  0.00000000  0.41937600  0.76740800  1
  Ni  Ni15  1  0.76740800  0.41937600  0.00000000  1
  Ni  Ni16  1  0.23259200  0.65196800  0.23259200  1
  Ni  Ni17  1  0.65196800  0.23259200  0.23259200  1
  Ni  Ni18  1  0.41937600  0.76740800  0.00000000  1
  Ni  Ni19  1  0.41937600  0.00000000  0.76740800  1
  Ni  Ni20  1  0.34803200  0.58062300  0.58062300  1
  Ni  Ni21  1  0.58062300  0.58062300  0.34803200  1
  Ni  Ni22  1  0.58062300  0.34803200  0.58062300  1
  Ni  Ni23  1  0.00000000  0.23259200  0.58062300  1
  Ni  Ni24  1  0.76740800  0.76740800  0.34803200  1
  Ni  Ni25  1  0.23259200  0.00000000  0.58062300  1
  Ni  Ni26  1  0.00000000  0.58062300  0.23259200  1
  Ni  Ni27  1  0.23259200  0.58062300  0.00000000  1
  Ni  Ni28  1  0.76740800  0.34803200  0.76740800  1
  Ni  Ni29  1  0.34803200  0.76740800  0.76740800  1
  Ni  Ni30  1  0.58062300  0.23259200  0.00000000  1
  Ni  Ni31  1  0.58062300  0.00000000  0.23259200  1
  Ni  Ni32  1  0.65196800  0.41937600  0.41937600  1
  Ni  Ni33  1  0.41937600  0.41937600  0.65196800  1
  Ni  Ni34  1  0.41937600  0.65196800  0.41937600  1
  Ni  Ni35  1  0.14860200  0.31723600  0.46583700  1
  Ni  Ni36  1  0.68276400  0.83136600  0.14860200  1
  Ni  Ni37  1  0.16863400  0.85139800  0.31723600  1
  Ni  Ni38  1  0.85139800  0.16863400  0.31723600  1
  Ni  Ni39  1  0.31723600  0.14860200  0.46583700  1
  Ni  Ni40  1  0.83136600  0.68276400  0.14860200  1
  Ni  Ni41  1  0.85139800  0.31723600  0.16863400  1
  Ni  Ni42  1  0.31723600  0.46583700  0.14860200  1
  Ni  Ni43  1  0.83136600  0.14860200  0.68276400  1
  Ni  Ni44  1  0.14860200  0.46583700  0.31723600  1
  Ni  Ni45  1  0.68276400  0.14860200  0.83136600  1
  Ni  Ni46  1  0.16863400  0.31723600  0.85139800  1
  Ni  Ni47  1  0.14860200  0.68276400  0.83136600  1
  Ni  Ni48  1  0.31723600  0.16863400  0.85139800  1
  Ni  Ni49  1  0.46583700  0.14860200  0.31723600  1
  Ni  Ni50  1  0.14860200  0.83136600  0.68276400  1
  Ni  Ni51  1  0.31723600  0.85139800  0.16863400  1
  Ni  Ni52  1  0.46583700  0.31723600  0.14860200  1
  Ni  Ni53  1  0.85139800  0.68276400  0.53416300  1
  Ni  Ni54  1  0.68276400  0.53416300  0.85139800  1
  Ni  Ni55  1  0.53416300  0.85139800  0.68276400  1
  Ni  Ni56  1  0.85139800  0.53416300  0.68276400  1
  Ni  Ni57  1  0.68276400  0.85139800  0.53416300  1
  Ni  Ni58  1  0.53416300  0.68276400  0.85139800  1
  Ni  Ni59  1  0.85539900  0.85539900  0.00000000  1
  Ni  Ni60  1  0.14460100  0.00000000  0.14460100  1
  Ni  Ni61  1  0.00000000  0.14460100  0.14460100  1
  Ni  Ni62  1  0.14460100  0.14460100  0.00000000  1
  Ni  Ni63  1  0.85539900  0.00000000  0.85539900  1
  Ni  Ni64  1  0.00000000  0.85539900  0.85539900  1
  Ni  Ni65  1  0.75000000  0.25000000  0.50000000  1
  Ni  Ni66  1  0.75000000  0.50000000  0.25000000  1
  Ni  Ni67  1  0.50000000  0.25000000  0.75000000  1
  Ni  Ni68  1  0.25000000  0.50000000  0.75000000  1
  Ni  Ni69  1  0.25000000  0.75000000  0.50000000  1
  Ni  Ni70  1  0.50000000  0.75000000  0.25000000  1
  C  C71  1  0.70624700  0.70624700  0.00000000  1
  C  C72  1  0.29375300  0.00000000  0.29375300  1
  C  C73  1  0.00000000  0.29375300  0.29375300  1
  C  C74  1  0.29375300  0.29375300  0.00000000  1
  C  C75  1  0.70624700  0.00000000  0.70624700  1
  C  C76  1  0.00000000  0.70624700  0.70624700  1
