# generated using pymatgen
data_Mg2P2O7
_symmetry_space_group_name_H-M   'P 1'
_cell_length_a   8.38708600
_cell_length_b   7.02591300
_cell_length_c   9.16979090
_cell_angle_alpha   66.27665406
_cell_angle_beta   90.00000000
_cell_angle_gamma   90.00000000
_symmetry_Int_Tables_number   1
_chemical_formula_structural   Mg2P2O7
_chemical_formula_sum   'Mg8 P8 O28'
_cell_volume   494.68762539
_cell_formula_units_Z   4
loop_
 _symmetry_equiv_pos_site_id
 _symmetry_equiv_pos_as_xyz
  1  'x, y, z'
loop_
 _atom_site_type_symbol
 _atom_site_label
 _atom_site_symmetry_multiplicity
 _atom_site_fract_x
 _atom_site_fract_y
 _atom_site_fract_z
 _atom_site_occupancy
  Mg  Mg0  1  0.44164200  0.30071600  0.82585000  1
  Mg  Mg1  1  0.55835800  0.69928400  0.17415000  1
  Mg  Mg2  1  0.94164200  0.69928400  0.67415000  1
  Mg  Mg3  1  0.05835800  0.30071600  0.32585000  1
  Mg  Mg4  1  0.57102300  0.76742300  0.61061300  1
  Mg  Mg5  1  0.42897700  0.23257700  0.38938700  1
  Mg  Mg6  1  0.07102300  0.23257700  0.88938700  1
  Mg  Mg7  1  0.92897700  0.76742300  0.11061300  1
  P  P8  1  0.76955400  0.05793000  0.75944800  1
  P  P9  1  0.23044600  0.94207000  0.24055200  1
  P  P10  1  0.26955400  0.94207000  0.74055200  1
  P  P11  1  0.73044600  0.05793000  0.25944800  1
  P  P12  1  0.22698400  0.53034200  0.53297900  1
  P  P13  1  0.77301600  0.46965800  0.46702100  1
  P  P14  1  0.72698400  0.46965800  0.96702100  1
  P  P15  1  0.27301600  0.53034200  0.03297900  1
  O  O16  1  0.16990800  0.74829300  0.39937300  1
  O  O17  1  0.83009200  0.25170700  0.60062700  1
  O  O18  1  0.66990800  0.25170700  0.10062700  1
  O  O19  1  0.33009200  0.74829300  0.89937300  1
  O  O20  1  0.76391800  0.62517100  0.54618900  1
  O  O21  1  0.23608200  0.37482900  0.45381100  1
  O  O22  1  0.26391800  0.37482900  0.95381100  1
  O  O23  1  0.73608200  0.62517100  0.04618900  1
  O  O24  1  0.26092400  0.11976600  0.79767200  1
  O  O25  1  0.73907600  0.88023400  0.20232800  1
  O  O26  1  0.76092400  0.88023400  0.70232800  1
  O  O27  1  0.23907600  0.11976600  0.29767200  1
  O  O28  1  0.38924100  0.55192800  0.60353900  1
  O  O29  1  0.61075900  0.44807200  0.39646100  1
  O  O30  1  0.88924100  0.44807200  0.89646100  1
  O  O31  1  0.11075900  0.55192800  0.10353900  1
  O  O32  1  0.90478400  0.02247400  0.88083500  1
  O  O33  1  0.09521600  0.97752600  0.11916500  1
  O  O34  1  0.40478400  0.97752600  0.61916500  1
  O  O35  1  0.59521600  0.02247400  0.38083500  1
  O  O36  1  0.09146500  0.48279400  0.65523500  1
  O  O37  1  0.90853500  0.51720600  0.34476500  1
  O  O38  1  0.59146500  0.51720600  0.84476500  1
  O  O39  1  0.40853500  0.48279400  0.15523500  1
  O  O40  1  0.61280800  0.11266500  0.81376000  1
  O  O41  1  0.38719200  0.88733500  0.18624000  1
  O  O42  1  0.11280800  0.88733500  0.68624000  1
  O  O43  1  0.88719200  0.11266500  0.31376000  1
