# generated using pymatgen
data_Sr3Tb2(BO3)4
_symmetry_space_group_name_H-M   'P 1'
_cell_length_a   7.40603200
_cell_length_b   8.72203200
_cell_length_c   16.43287100
_cell_angle_alpha   90.00000000
_cell_angle_beta   90.00000000
_cell_angle_gamma   90.00000000
_symmetry_Int_Tables_number   1
_chemical_formula_structural   Sr3Tb2(BO3)4
_chemical_formula_sum   'Sr12 Tb8 B16 O48'
_cell_volume   1061.49195234
_cell_formula_units_Z   4
loop_
 _symmetry_equiv_pos_site_id
 _symmetry_equiv_pos_as_xyz
  1  'x, y, z'
loop_
 _atom_site_type_symbol
 _atom_site_label
 _atom_site_symmetry_multiplicity
 _atom_site_fract_x
 _atom_site_fract_y
 _atom_site_fract_z
 _atom_site_occupancy
  Sr  Sr0  1  0.02923900  0.33095900  0.45774400  1
  Sr  Sr1  1  0.97076100  0.66904100  0.95774400  1
  Sr  Sr2  1  0.52923900  0.16904100  0.45774400  1
  Sr  Sr3  1  0.47076100  0.83095900  0.95774400  1
  Sr  Sr4  1  0.17933200  0.84792200  0.41388200  1
  Sr  Sr5  1  0.82066800  0.15207800  0.91388200  1
  Sr  Sr6  1  0.67933200  0.65207800  0.41388200  1
  Sr  Sr7  1  0.32066800  0.34792200  0.91388200  1
  Sr  Sr8  1  0.31579100  0.35409600  0.66417500  1
  Sr  Sr9  1  0.68420900  0.64590400  0.16417500  1
  Sr  Sr10  1  0.81579100  0.14590400  0.66417500  1
  Sr  Sr11  1  0.18420900  0.85409600  0.16417500  1
  Tb  Tb12  1  0.31741600  0.46656900  0.28937300  1
  Tb  Tb13  1  0.68258400  0.53343100  0.78937300  1
  Tb  Tb14  1  0.81741600  0.03343100  0.28937300  1
  Tb  Tb15  1  0.18258400  0.96656900  0.78937300  1
  Tb  Tb16  1  0.02764000  0.32944700  0.11989700  1
  Tb  Tb17  1  0.97236000  0.67055300  0.61989700  1
  Tb  Tb18  1  0.52764000  0.17055300  0.11989700  1
  Tb  Tb19  1  0.47236000  0.82944700  0.61989700  1
  B  B20  1  0.16971600  0.06444100  0.99869000  1
  B  B21  1  0.83028400  0.93555900  0.49869000  1
  B  B22  1  0.66971600  0.43555900  0.99869000  1
  B  B23  1  0.33028400  0.56444100  0.49869000  1
  B  B24  1  0.00690400  0.37373300  0.78552400  1
  B  B25  1  0.99309600  0.62626700  0.28552400  1
  B  B26  1  0.50690400  0.12626700  0.78552400  1
  B  B27  1  0.49309600  0.87373300  0.28552400  1
  B  B28  1  0.16114500  0.04448100  0.58625000  1
  B  B29  1  0.83885500  0.95551900  0.08625000  1
  B  B30  1  0.66114500  0.45551900  0.58625000  1
  B  B31  1  0.33885500  0.54448100  0.08625000  1
  B  B32  1  0.21304100  0.15068800  0.28651500  1
  B  B33  1  0.78695900  0.84931200  0.78651500  1
  B  B34  1  0.71304100  0.34931200  0.28651500  1
  B  B35  1  0.28695900  0.65068800  0.78651500  1
  O  O36  1  0.23866300  0.22400600  0.21234500  1
  O  O37  1  0.76133700  0.77599400  0.71234500  1
  O  O38  1  0.73866300  0.27599400  0.21234500  1
  O  O39  1  0.26133700  0.72400600  0.71234500  1
  O  O40  1  0.09519200  0.19227900  0.58391400  1
  O  O41  1  0.90480800  0.80772100  0.08391400  1
  O  O42  1  0.59519200  0.30772100  0.58391400  1
  O  O43  1  0.40480800  0.69227900  0.08391400  1
  O  O44  1  0.08773000  0.20816800  0.00259800  1
  O  O45  1  0.91227000  0.79183200  0.50259800  1
  O  O46  1  0.58773000  0.29183200  0.00259800  1
  O  O47  1  0.41227000  0.70816800  0.50259800  1
  O  O48  1  0.12525600  0.01271100  0.29209200  1
  O  O49  1  0.87474400  0.98728900  0.79209200  1
  O  O50  1  0.62525600  0.48728900  0.29209200  1
  O  O51  1  0.37474400  0.51271100  0.79209200  1
  O  O52  1  0.19716500  0.49982600  0.03643600  1
  O  O53  1  0.80283500  0.50017400  0.53643600  1
  O  O54  1  0.69716500  0.00017400  0.03643600  1
  O  O55  1  0.30283500  0.99982600  0.53643600  1
  O  O56  1  0.11105900  0.24143500  0.78295800  1
  O  O57  1  0.88894100  0.75856500  0.28295800  1
  O  O58  1  0.61105900  0.25856500  0.78295800  1
  O  O59  1  0.38894100  0.74143500  0.28295800  1
  O  O60  1  0.04820400  0.54882100  0.21440800  1
  O  O61  1  0.95179600  0.45117900  0.71440800  1
  O  O62  1  0.54820400  0.95117900  0.21440800  1
  O  O63  1  0.45179600  0.04882100  0.71440800  1
  O  O64  1  0.27155800  0.22926200  0.35445200  1
  O  O65  1  0.72844200  0.77073800  0.85445200  1
  O  O66  1  0.77155800  0.27073800  0.35445200  1
  O  O67  1  0.22844200  0.72926200  0.85445200  1
  O  O68  1  0.38288700  0.46559100  0.43764500  1
  O  O69  1  0.61711300  0.53440900  0.93764500  1
  O  O70  1  0.88288700  0.03440900  0.43764500  1
  O  O71  1  0.11711300  0.96559100  0.93764500  1
  O  O72  1  0.41022800  0.43989200  0.14214800  1
  O  O73  1  0.58977200  0.56010800  0.64214800  1
  O  O74  1  0.91022800  0.06010800  0.14214800  1
  O  O75  1  0.08977200  0.93989200  0.64214800  1
  O  O76  1  0.30680900  0.03115900  0.05357100  1
  O  O77  1  0.69319100  0.96884100  0.55357100  1
  O  O78  1  0.80680900  0.46884100  0.05357100  1
  O  O79  1  0.19319100  0.53115900  0.55357100  1
  O  O80  1  0.06087700  0.57027900  0.35838200  1
  O  O81  1  0.93912300  0.42972100  0.85838200  1
  O  O82  1  0.56087700  0.92972100  0.35838200  1
  O  O83  1  0.43912300  0.07027900  0.85838200  1
