# generated using pymatgen
data_La6Al5Fe9
_symmetry_space_group_name_H-M   'P 1'
_cell_length_a   13.31264716
_cell_length_b   13.31264716
_cell_length_c   13.31264716
_cell_angle_alpha   144.08883236
_cell_angle_beta   144.08883236
_cell_angle_gamma   51.69447767
_symmetry_Int_Tables_number   1
_chemical_formula_structural   La6Al5Fe9
_chemical_formula_sum   'La12 Al10 Fe18'
_cell_volume   807.17175185
_cell_formula_units_Z   2
loop_
 _symmetry_equiv_pos_site_id
 _symmetry_equiv_pos_as_xyz
  1  'x, y, z'
loop_
 _atom_site_type_symbol
 _atom_site_label
 _atom_site_symmetry_multiplicity
 _atom_site_fract_x
 _atom_site_fract_y
 _atom_site_fract_z
 _atom_site_occupancy
  La  La0  1  0.85724700  0.35724700  0.83634800  1
  La  La1  1  0.14275300  0.64275300  0.16365200  1
  La  La2  1  0.52089900  0.02089900  0.16365200  1
  La  La3  1  0.35724700  0.52089900  0.50000000  1
  La  La4  1  0.97910100  0.14275300  0.50000000  1
  La  La5  1  0.47910100  0.97910100  0.83634800  1
  La  La6  1  0.64275300  0.47910100  0.50000000  1
  La  La7  1  0.02089900  0.85724700  0.50000000  1
  La  La8  1  0.10655800  0.10655800  0.00000000  1
  La  La9  1  0.89344200  0.89344200  0.00000000  1
  La  La10  1  0.39344200  0.39344200  0.00000000  1
  La  La11  1  0.60655800  0.60655800  0.00000000  1
  Al  Al12  1  0.20960800  0.70960800  0.73698600  1
  Al  Al13  1  0.79039200  0.29039200  0.26301400  1
  Al  Al14  1  0.97262200  0.47262200  0.26301400  1
  Al  Al15  1  0.70960800  0.97262200  0.50000000  1
  Al  Al16  1  0.52737800  0.79039200  0.50000000  1
  Al  Al17  1  0.02737800  0.52737800  0.73698600  1
  Al  Al18  1  0.29039200  0.02737800  0.50000000  1
  Al  Al19  1  0.47262200  0.20960800  0.50000000  1
  Al  Al20  1  0.25000000  0.25000000  0.00000000  1
  Al  Al21  1  0.75000000  0.75000000  0.00000000  1
  Fe  Fe22  1  0.21044300  0.06809200  0.27853500  1
  Fe  Fe23  1  0.78955700  0.93190800  0.72146500  1
  Fe  Fe24  1  0.06809200  0.78955700  0.85765000  1
  Fe  Fe25  1  0.71044300  0.43190800  0.14235000  1
  Fe  Fe26  1  0.93190800  0.21044300  0.14235000  1
  Fe  Fe27  1  0.28955700  0.56809200  0.85765000  1
  Fe  Fe28  1  0.56809200  0.71044300  0.27853500  1
  Fe  Fe29  1  0.43190800  0.28955700  0.72146500  1
  Fe  Fe30  1  0.73143300  0.23143300  0.85235800  1
  Fe  Fe31  1  0.26856700  0.76856700  0.14764200  1
  Fe  Fe32  1  0.37907500  0.87907500  0.14764200  1
  Fe  Fe33  1  0.23143300  0.37907500  0.50000000  1
  Fe  Fe34  1  0.12092500  0.26856700  0.50000000  1
  Fe  Fe35  1  0.62092500  0.12092500  0.85235800  1
  Fe  Fe36  1  0.76856700  0.62092500  0.50000000  1
  Fe  Fe37  1  0.87907500  0.73143300  0.50000000  1
  Fe  Fe38  1  0.50000000  0.00000000  0.50000000  1
  Fe  Fe39  1  0.00000000  0.50000000  0.50000000  1
