# generated using pymatgen
data_KInAs3H7O13
_symmetry_space_group_name_H-M   'P 1'
_cell_length_a   4.92293189
_cell_length_b   8.84278200
_cell_length_c   14.30814674
_cell_angle_alpha   90.00000000
_cell_angle_beta   94.50409601
_cell_angle_gamma   90.00000000
_symmetry_Int_Tables_number   1
_chemical_formula_structural   KInAs3H7O13
_chemical_formula_sum   'K2 In2 As6 H14 O26'
_cell_volume   620.94457079
_cell_formula_units_Z   2
loop_
 _symmetry_equiv_pos_site_id
 _symmetry_equiv_pos_as_xyz
  1  'x, y, z'
loop_
 _atom_site_type_symbol
 _atom_site_label
 _atom_site_symmetry_multiplicity
 _atom_site_fract_x
 _atom_site_fract_y
 _atom_site_fract_z
 _atom_site_occupancy
  K  K0  1  0.15065100  0.00588400  0.51052800  1
  K  K1  1  0.65065100  0.99411600  0.01052800  1
  In  In2  1  0.24960000  0.22897900  0.75344000  1
  In  In3  1  0.74960000  0.77102100  0.25344000  1
  As  As4  1  0.69956000  0.34607000  0.59796800  1
  As  As5  1  0.29632300  0.64245600  0.40373900  1
  As  As6  1  0.79632300  0.35754400  0.90373900  1
  As  As7  1  0.19956000  0.65393000  0.09796800  1
  As  As8  1  0.74829000  0.95762900  0.74729300  1
  As  As9  1  0.24829000  0.04237100  0.24729300  1
  H  H10  1  0.39309700  0.33838400  0.47166000  1
  H  H11  1  0.60408400  0.67626900  0.52917400  1
  H  H12  1  0.10408400  0.32373100  0.02917400  1
  H  H13  1  0.89309700  0.66161600  0.97166000  1
  H  H14  1  0.47495000  0.77046300  0.80483300  1
  H  H15  1  0.51445200  0.23187800  0.19245200  1
  H  H16  1  0.01445200  0.76812200  0.69245200  1
  H  H17  1  0.97495000  0.22953700  0.30483300  1
  H  H18  1  0.34813300  0.58664800  0.71106800  1
  H  H19  1  0.64675900  0.41565800  0.28911100  1
  H  H20  1  0.14675900  0.58434200  0.78911100  1
  H  H21  1  0.84813300  0.41335200  0.21106800  1
  H  H22  1  0.97496000  0.49820200  0.50946200  1
  H  H23  1  0.47496000  0.50179800  0.00946200  1
  O  O24  1  0.82119100  0.51808900  0.55722200  1
  O  O25  1  0.18470200  0.47520900  0.44645500  1
  O  O26  1  0.68470200  0.52479100  0.94645500  1
  O  O27  1  0.32119100  0.48191100  0.05722200  1
  O  O28  1  0.48801000  0.05313400  0.68772500  1
  O  O29  1  0.50327700  0.94906200  0.30979000  1
  O  O30  1  0.00327700  0.05093800  0.80979000  1
  O  O31  1  0.98801000  0.94686600  0.18772500  1
  O  O32  1  0.48541800  0.39973600  0.68060300  1
  O  O33  1  0.51655700  0.59879300  0.32013400  1
  O  O34  1  0.01655700  0.40120700  0.82013400  1
  O  O35  1  0.98541800  0.60026400  0.18060300  1
  O  O36  1  0.62412900  0.83946400  0.83338600  1
  O  O37  1  0.37482000  0.15994000  0.16091400  1
  O  O38  1  0.87482000  0.84006000  0.66091400  1
  O  O39  1  0.12412900  0.16053600  0.33338600  1
  O  O40  1  0.96286500  0.22638400  0.62787200  1
  O  O41  1  0.03803800  0.76841100  0.37471100  1
  O  O42  1  0.53803800  0.23158900  0.87471100  1
  O  O43  1  0.46286500  0.77361600  0.12787200  1
  O  O44  1  0.52405500  0.25787600  0.50110500  1
  O  O45  1  0.46664200  0.74553100  0.49755000  1
  O  O46  1  0.96664200  0.25446900  0.99755000  1
  O  O47  1  0.02405500  0.74212400  0.00110500  1
  O  O48  1  0.24503700  0.65599400  0.74990500  1
  O  O49  1  0.74503700  0.34400600  0.24990500  1
