# generated using pymatgen
data_HoCd3
_symmetry_space_group_name_H-M   'P 1'
_cell_length_a   6.51580359
_cell_length_b   6.51580359
_cell_length_c   4.88082700
_cell_angle_alpha   90.00000000
_cell_angle_beta   90.00000000
_cell_angle_gamma   113.01959132
_symmetry_Int_Tables_number   1
_chemical_formula_structural   HoCd3
_chemical_formula_sum   'Ho2 Cd6'
_cell_volume   190.71831523
_cell_formula_units_Z   2
loop_
 _symmetry_equiv_pos_site_id
 _symmetry_equiv_pos_as_xyz
  1  'x, y, z'
loop_
 _atom_site_type_symbol
 _atom_site_label
 _atom_site_symmetry_multiplicity
 _atom_site_fract_x
 _atom_site_fract_y
 _atom_site_fract_z
 _atom_site_occupancy
  Ho  Ho0  1  0.63316400  0.36683600  0.75000000  1
  Ho  Ho1  1  0.36683600  0.63316400  0.25000000  1
  Cd  Cd2  1  0.17683900  0.82316100  0.75000000  1
  Cd  Cd3  1  0.82316100  0.17683900  0.25000000  1
  Cd  Cd4  1  0.68913300  0.88051800  0.75000000  1
  Cd  Cd5  1  0.31086700  0.11948200  0.25000000  1
  Cd  Cd6  1  0.88051800  0.68913300  0.25000000  1
  Cd  Cd7  1  0.11948200  0.31086700  0.75000000  1
