# generated using pymatgen
data_KYbSiS4
_symmetry_space_group_name_H-M   'P 1'
_cell_length_a   5.65791400
_cell_length_b   6.90721600
_cell_length_c   9.16616028
_cell_angle_alpha   75.68695986
_cell_angle_beta   90.00000000
_cell_angle_gamma   90.00000000
_symmetry_Int_Tables_number   1
_chemical_formula_structural   KYbSiS4
_chemical_formula_sum   'K2 Yb2 Si2 S8'
_cell_volume   347.09826862
_cell_formula_units_Z   2
loop_
 _symmetry_equiv_pos_site_id
 _symmetry_equiv_pos_as_xyz
  1  'x, y, z'
loop_
 _atom_site_type_symbol
 _atom_site_label
 _atom_site_symmetry_multiplicity
 _atom_site_fract_x
 _atom_site_fract_y
 _atom_site_fract_z
 _atom_site_occupancy
  K  K0  1  0.25000000  0.74014100  0.04209300  1
  K  K1  1  0.75000000  0.25985900  0.95790700  1
  Yb  Yb2  1  0.25000000  0.74719200  0.55606700  1
  Yb  Yb3  1  0.75000000  0.25280800  0.44393300  1
  Si  Si4  1  0.75000000  0.75354500  0.32659000  1
  Si  Si5  1  0.25000000  0.24645500  0.67341000  1
  S  S6  1  0.75000000  0.56796000  0.17793800  1
  S  S7  1  0.25000000  0.43204000  0.82206200  1
  S  S8  1  0.25000000  0.39018600  0.44329700  1
  S  S9  1  0.75000000  0.60981400  0.55670300  1
  S  S10  1  0.00935600  0.99322500  0.27973000  1
  S  S11  1  0.50935600  0.00677500  0.72027000  1
  S  S12  1  0.49064400  0.99322500  0.27973000  1
  S  S13  1  0.99064400  0.00677500  0.72027000  1
