# generated using pymatgen
data_NdZn3
_symmetry_space_group_name_H-M   'P 1'
_cell_length_a   4.53197500
_cell_length_b   6.71981900
_cell_length_c   10.34833700
_cell_angle_alpha   90.00000000
_cell_angle_beta   90.00000000
_cell_angle_gamma   90.00000000
_symmetry_Int_Tables_number   1
_chemical_formula_structural   NdZn3
_chemical_formula_sum   'Nd4 Zn12'
_cell_volume   315.14879014
_cell_formula_units_Z   4
loop_
 _symmetry_equiv_pos_site_id
 _symmetry_equiv_pos_as_xyz
  1  'x, y, z'
loop_
 _atom_site_type_symbol
 _atom_site_label
 _atom_site_symmetry_multiplicity
 _atom_site_fract_x
 _atom_site_fract_y
 _atom_site_fract_z
 _atom_site_occupancy
  Nd  Nd0  1  0.25000000  0.27840700  0.66047600  1
  Nd  Nd1  1  0.25000000  0.77840700  0.83952400  1
  Nd  Nd2  1  0.75000000  0.72159300  0.33952400  1
  Nd  Nd3  1  0.75000000  0.22159300  0.16047600  1
  Zn  Zn4  1  0.25000000  0.53571200  0.10426400  1
  Zn  Zn5  1  0.25000000  0.03571200  0.39573600  1
  Zn  Zn6  1  0.75000000  0.46428800  0.89573600  1
  Zn  Zn7  1  0.75000000  0.96428800  0.60426400  1
  Zn  Zn8  1  0.25000000  0.91591000  0.14744200  1
  Zn  Zn9  1  0.25000000  0.41591000  0.35255800  1
  Zn  Zn10  1  0.75000000  0.08409000  0.85255800  1
  Zn  Zn11  1  0.75000000  0.58409000  0.64744200  1
  Zn  Zn12  1  0.25000000  0.21642300  0.95703400  1
  Zn  Zn13  1  0.25000000  0.71642300  0.54296600  1
  Zn  Zn14  1  0.75000000  0.78357700  0.04296600  1
  Zn  Zn15  1  0.75000000  0.28357700  0.45703400  1
