# generated using pymatgen
data_LuGaNi2
_symmetry_space_group_name_H-M   'P 1'
_cell_length_a   5.13134961
_cell_length_b   5.13134961
_cell_length_c   15.84564800
_cell_angle_alpha   90.00000000
_cell_angle_beta   90.00000000
_cell_angle_gamma   119.99999491
_symmetry_Int_Tables_number   1
_chemical_formula_structural   LuGaNi2
_chemical_formula_sum   'Lu6 Ga6 Ni12'
_cell_volume   361.32987225
_cell_formula_units_Z   6
loop_
 _symmetry_equiv_pos_site_id
 _symmetry_equiv_pos_as_xyz
  1  'x, y, z'
loop_
 _atom_site_type_symbol
 _atom_site_label
 _atom_site_symmetry_multiplicity
 _atom_site_fract_x
 _atom_site_fract_y
 _atom_site_fract_z
 _atom_site_occupancy
  Lu  Lu0  1  0.33333300  0.66666700  0.54235100  1
  Lu  Lu1  1  0.66666700  0.33333300  0.45764900  1
  Lu  Lu2  1  0.66666700  0.33333300  0.04235100  1
  Lu  Lu3  1  0.33333300  0.66666700  0.95764900  1
  Lu  Lu4  1  0.33333300  0.66666700  0.75000000  1
  Lu  Lu5  1  0.66666700  0.33333300  0.25000000  1
  Ga  Ga6  1  0.00000000  0.00000000  0.25000000  1
  Ga  Ga7  1  0.00000000  0.00000000  0.75000000  1
  Ga  Ga8  1  0.33333300  0.66666700  0.25000000  1
  Ga  Ga9  1  0.66666700  0.33333300  0.75000000  1
  Ga  Ga10  1  0.00000000  0.00000000  0.00000000  1
  Ga  Ga11  1  0.00000000  0.00000000  0.50000000  1
  Ni  Ni12  1  0.16849600  0.33699100  0.12573500  1
  Ni  Ni13  1  0.83150400  0.66300900  0.87426500  1
  Ni  Ni14  1  0.66300900  0.83150400  0.12573500  1
  Ni  Ni15  1  0.83150400  0.66300900  0.62573500  1
  Ni  Ni16  1  0.33699100  0.16849600  0.87426500  1
  Ni  Ni17  1  0.16849600  0.33699100  0.37426500  1
  Ni  Ni18  1  0.16849600  0.83150400  0.12573500  1
  Ni  Ni19  1  0.33699100  0.16849600  0.62573500  1
  Ni  Ni20  1  0.83150400  0.16849600  0.87426500  1
  Ni  Ni21  1  0.66300900  0.83150400  0.37426500  1
  Ni  Ni22  1  0.83150400  0.16849600  0.62573500  1
  Ni  Ni23  1  0.16849600  0.83150400  0.37426500  1
