# generated using pymatgen
data_K2Mo2P2O11
_symmetry_space_group_name_H-M   'P 1'
_cell_length_a   10.30040000
_cell_length_b   10.03835400
_cell_length_c   10.06067308
_cell_angle_alpha   81.80227319
_cell_angle_beta   90.00000000
_cell_angle_gamma   90.00000000
_symmetry_Int_Tables_number   1
_chemical_formula_structural   K2Mo2P2O11
_chemical_formula_sum   'K8 Mo8 P8 O44'
_cell_volume   1029.63461975
_cell_formula_units_Z   4
loop_
 _symmetry_equiv_pos_site_id
 _symmetry_equiv_pos_as_xyz
  1  'x, y, z'
loop_
 _atom_site_type_symbol
 _atom_site_label
 _atom_site_symmetry_multiplicity
 _atom_site_fract_x
 _atom_site_fract_y
 _atom_site_fract_z
 _atom_site_occupancy
  K  K0  1  0.17993400  0.23187600  0.04659300  1
  K  K1  1  0.67993400  0.76812400  0.95340700  1
  K  K2  1  0.82375800  0.76431400  0.44225300  1
  K  K3  1  0.32375800  0.23568600  0.55774700  1
  K  K4  1  0.00000200  0.99961000  0.75004800  1
  K  K5  1  0.50000200  0.00039000  0.24995200  1
  K  K6  1  0.08011400  0.49750900  0.25953500  1
  K  K7  1  0.58011400  0.50249100  0.74046500  1
  Mo  Mo8  1  0.08497000  0.65208200  0.88959500  1
  Mo  Mo9  1  0.58497000  0.34791800  0.11040500  1
  Mo  Mo10  1  0.91598900  0.34738700  0.60897800  1
  Mo  Mo11  1  0.41598900  0.65261300  0.39102200  1
  Mo  Mo12  1  0.32036500  0.92703100  0.89922900  1
  Mo  Mo13  1  0.82036500  0.07296900  0.10077100  1
  Mo  Mo14  1  0.68009500  0.07222900  0.60047300  1
  Mo  Mo15  1  0.18009500  0.92777100  0.39952700  1
  P  P16  1  0.07532400  0.87268300  0.10658300  1
  P  P17  1  0.57532400  0.12731700  0.89341700  1
  P  P18  1  0.92533200  0.12796100  0.39319300  1
  P  P19  1  0.42533200  0.87203900  0.60680700  1
  P  P20  1  0.37822300  0.60710600  0.06612200  1
  P  P21  1  0.87822300  0.39289400  0.93387800  1
  P  P22  1  0.62148000  0.39245300  0.43343900  1
  P  P23  1  0.12148000  0.60754700  0.56656100  1
  O  O24  1  0.25989300  0.08054500  0.81835300  1
  O  O25  1  0.75989300  0.91945500  0.18164700  1
  O  O26  1  0.73967500  0.91847200  0.68157400  1
  O  O27  1  0.23967500  0.08152800  0.31842600  1
  O  O28  1  0.47531200  0.03336900  0.97681300  1
  O  O29  1  0.97531200  0.96663100  0.02318700  1
  O  O30  1  0.52462200  0.96686300  0.52328200  1
  O  O31  1  0.02462200  0.03313700  0.47671800  1
  O  O32  1  0.00307300  0.46589100  0.97558200  1
  O  O33  1  0.50307300  0.53410900  0.02441800  1
  O  O34  1  0.99670300  0.53381400  0.52409600  1
  O  O35  1  0.49670300  0.46618600  0.47590400  1
  O  O36  1  0.19753500  0.80427800  0.83509900  1
  O  O37  1  0.69753500  0.19572200  0.16490100  1
  O  O38  1  0.80237700  0.19593100  0.66426300  1
  O  O39  1  0.30237700  0.80406900  0.33573700  1
  O  O40  1  0.21207600  0.93431600  0.07081500  1
  O  O41  1  0.71207600  0.06568400  0.92918500  1
  O  O42  1  0.78840100  0.06705700  0.42903100  1
  O  O43  1  0.28840100  0.93294300  0.57096900  1
  O  O44  1  0.40625200  0.75886600  0.02392800  1
  O  O45  1  0.90625200  0.24113400  0.97607200  1
  O  O46  1  0.59340300  0.24075700  0.47604000  1
  O  O47  1  0.09340300  0.75924300  0.52396000  1
  O  O48  1  0.44890500  0.86999200  0.75904000  1
  O  O49  1  0.94890500  0.13000800  0.24096000  1
  O  O50  1  0.55177100  0.13034000  0.74094400  1
  O  O51  1  0.05177100  0.86966000  0.25905600  1
  O  O52  1  0.06085300  0.72602200  0.07657200  1
  O  O53  1  0.56085300  0.27397800  0.92342800  1
  O  O54  1  0.94157700  0.27484400  0.42307100  1
  O  O55  1  0.44157700  0.72515600  0.57692900  1
  O  O56  1  0.14301800  0.57377000  0.72046000  1
  O  O57  1  0.64301800  0.42623000  0.27954000  1
  O  O58  1  0.85572400  0.42631500  0.77884700  1
  O  O59  1  0.35572400  0.57368500  0.22115300  1
  O  O60  1  0.25649400  0.55698500  0.99738600  1
  O  O61  1  0.75649400  0.44301500  0.00261400  1
  O  O62  1  0.73903800  0.44259000  0.50921800  1
  O  O63  1  0.23903800  0.55741000  0.49078200  1
  O  O64  1  0.93435600  0.71490400  0.83348300  1
  O  O65  1  0.43435600  0.28509600  0.16651700  1
  O  O66  1  0.06565600  0.28444800  0.66780800  1
  O  O67  1  0.56565600  0.71555200  0.33219200  1
