# generated using pymatgen
data_PrTa7O19
_symmetry_space_group_name_H-M   'P 1'
_cell_length_a   6.29703004
_cell_length_b   6.29703004
_cell_length_c   20.15500900
_cell_angle_alpha   90.00000000
_cell_angle_beta   90.00000000
_cell_angle_gamma   120.00000047
_symmetry_Int_Tables_number   1
_chemical_formula_structural   PrTa7O19
_chemical_formula_sum   'Pr2 Ta14 O38'
_cell_volume   692.12598873
_cell_formula_units_Z   2
loop_
 _symmetry_equiv_pos_site_id
 _symmetry_equiv_pos_as_xyz
  1  'x, y, z'
loop_
 _atom_site_type_symbol
 _atom_site_label
 _atom_site_symmetry_multiplicity
 _atom_site_fract_x
 _atom_site_fract_y
 _atom_site_fract_z
 _atom_site_occupancy
  Pr  Pr0  1  0.00000000  0.00000000  0.00000000  1
  Pr  Pr1  1  0.00000000  0.00000000  0.50000000  1
  Ta  Ta2  1  0.68990800  0.02486200  0.15582500  1
  Ta  Ta3  1  0.97513800  0.66504600  0.15582500  1
  Ta  Ta4  1  0.68990800  0.02486200  0.34417500  1
  Ta  Ta5  1  0.68990800  0.66504600  0.65582500  1
  Ta  Ta6  1  0.33495400  0.31009200  0.15582500  1
  Ta  Ta7  1  0.97513800  0.66504600  0.34417500  1
  Ta  Ta8  1  0.97513800  0.31009200  0.65582500  1
  Ta  Ta9  1  0.68990800  0.66504600  0.84417500  1
  Ta  Ta10  1  0.33495400  0.31009200  0.34417500  1
  Ta  Ta11  1  0.97513800  0.31009200  0.84417500  1
  Ta  Ta12  1  0.33495400  0.02486200  0.65582500  1
  Ta  Ta13  1  0.33495400  0.02486200  0.84417500  1
  Ta  Ta14  1  0.66666700  0.33333300  0.00000000  1
  Ta  Ta15  1  0.66666700  0.33333300  0.50000000  1
  O  O16  1  0.74914100  0.04209400  0.25000000  1
  O  O17  1  0.95790600  0.70704600  0.25000000  1
  O  O18  1  0.74914100  0.70704600  0.75000000  1
  O  O19  1  0.29295400  0.25085900  0.25000000  1
  O  O20  1  0.95790600  0.25085900  0.75000000  1
  O  O21  1  0.29295400  0.04209400  0.75000000  1
  O  O22  1  0.08984900  0.42278300  0.15350700  1
  O  O23  1  0.57721700  0.66706600  0.15350700  1
  O  O24  1  0.08984900  0.42278300  0.34649300  1
  O  O25  1  0.08984900  0.66706600  0.65350700  1
  O  O26  1  0.33293400  0.91015100  0.15350700  1
  O  O27  1  0.57721700  0.66706600  0.34649300  1
  O  O28  1  0.57721700  0.91015100  0.65350700  1
  O  O29  1  0.08984900  0.66706600  0.84649300  1
  O  O30  1  0.33293400  0.91015100  0.34649300  1
  O  O31  1  0.57721700  0.91015100  0.84649300  1
  O  O32  1  0.33293400  0.42278300  0.65350700  1
  O  O33  1  0.33293400  0.42278300  0.84649300  1
  O  O34  1  0.66666700  0.33333300  0.16649800  1
  O  O35  1  0.66666700  0.33333300  0.33350200  1
  O  O36  1  0.66666700  0.33333300  0.66649800  1
  O  O37  1  0.66666700  0.33333300  0.83350200  1
  O  O38  1  0.00000000  0.00000000  0.13162700  1
  O  O39  1  0.00000000  0.00000000  0.36837300  1
  O  O40  1  0.00000000  0.00000000  0.63162700  1
  O  O41  1  0.00000000  0.00000000  0.86837300  1
  O  O42  1  0.71023200  0.09679300  0.05688900  1
  O  O43  1  0.90320700  0.61343900  0.05688900  1
  O  O44  1  0.71023200  0.09679300  0.44311100  1
  O  O45  1  0.71023200  0.61343900  0.55688900  1
  O  O46  1  0.38656100  0.28976800  0.05688900  1
  O  O47  1  0.90320700  0.61343900  0.44311100  1
  O  O48  1  0.90320700  0.28976800  0.55688900  1
  O  O49  1  0.71023200  0.61343900  0.94311100  1
  O  O50  1  0.38656100  0.28976800  0.44311100  1
  O  O51  1  0.90320700  0.28976800  0.94311100  1
  O  O52  1  0.38656100  0.09679300  0.55688900  1
  O  O53  1  0.38656100  0.09679300  0.94311100  1
