# generated using pymatgen
data_Pr(CuO2)2
_symmetry_space_group_name_H-M   'P 1'
_cell_length_a   6.42655573
_cell_length_b   6.42655573
_cell_length_c   6.42655573
_cell_angle_alpha   125.45410970
_cell_angle_beta   125.45410970
_cell_angle_gamma   80.78721644
_symmetry_Int_Tables_number   1
_chemical_formula_structural   Pr(CuO2)2
_chemical_formula_sum   'Pr2 Cu4 O8'
_cell_volume   169.78317836
_cell_formula_units_Z   2
loop_
 _symmetry_equiv_pos_site_id
 _symmetry_equiv_pos_as_xyz
  1  'x, y, z'
loop_
 _atom_site_type_symbol
 _atom_site_label
 _atom_site_symmetry_multiplicity
 _atom_site_fract_x
 _atom_site_fract_y
 _atom_site_fract_z
 _atom_site_occupancy
  Pr  Pr0  1  0.00000000  0.00000000  0.00000000  1
  Pr  Pr1  1  0.75000000  0.25000000  0.50000000  1
  Cu  Cu2  1  0.87500000  0.62500000  0.25000000  1
  Cu  Cu3  1  0.37500000  0.12500000  0.75000000  1
  Cu  Cu4  1  0.37500000  0.62500000  0.25000000  1
  Cu  Cu5  1  0.37500000  0.62500000  0.75000000  1
  O  O6  1  0.34463200  0.97991600  0.92348800  1
  O  O7  1  0.69357200  0.82885600  0.42348800  1
  O  O8  1  0.72991600  0.30642800  0.13528400  1
  O  O9  1  0.57885600  0.65536800  0.63528400  1
  O  O10  1  0.17114400  0.59463200  0.86471600  1
  O  O11  1  0.02008400  0.94357200  0.36471600  1
  O  O12  1  0.05642800  0.42114400  0.07651200  1
  O  O13  1  0.40536800  0.27008400  0.57651200  1
