# generated using pymatgen
data_SmAl2Ni
_symmetry_space_group_name_H-M   'P 1'
_cell_length_a   5.74539175
_cell_length_b   5.74539175
_cell_length_c   6.92258600
_cell_angle_alpha   90.00000000
_cell_angle_beta   90.00000000
_cell_angle_gamma   138.30889682
_symmetry_Int_Tables_number   1
_chemical_formula_structural   SmAl2Ni
_chemical_formula_sum   'Sm2 Al4 Ni2'
_cell_volume   151.98614851
_cell_formula_units_Z   2
loop_
 _symmetry_equiv_pos_site_id
 _symmetry_equiv_pos_as_xyz
  1  'x, y, z'
loop_
 _atom_site_type_symbol
 _atom_site_label
 _atom_site_symmetry_multiplicity
 _atom_site_fract_x
 _atom_site_fract_y
 _atom_site_fract_z
 _atom_site_occupancy
  Sm  Sm0  1  0.55654400  0.44345600  0.25000000  1
  Sm  Sm1  1  0.44345600  0.55654400  0.75000000  1
  Al  Al2  1  0.83395200  0.16604800  0.05616300  1
  Al  Al3  1  0.16604800  0.83395200  0.94383700  1
  Al  Al4  1  0.16604800  0.83395200  0.55616300  1
  Al  Al5  1  0.83395200  0.16604800  0.44383700  1
  Ni  Ni6  1  0.28379100  0.71620900  0.25000000  1
  Ni  Ni7  1  0.71620900  0.28379100  0.75000000  1
