# generated using pymatgen
data_Zr6Zn23Si
_symmetry_space_group_name_H-M   'P 1'
_cell_length_a   8.80267898
_cell_length_b   8.80267898
_cell_length_c   8.80267898
_cell_angle_alpha   60.00000000
_cell_angle_beta   60.00000000
_cell_angle_gamma   60.00000000
_symmetry_Int_Tables_number   1
_chemical_formula_structural   Zr6Zn23Si
_chemical_formula_sum   'Zr6 Zn23 Si1'
_cell_volume   482.31369609
_cell_formula_units_Z   1
loop_
 _symmetry_equiv_pos_site_id
 _symmetry_equiv_pos_as_xyz
  1  'x, y, z'
loop_
 _atom_site_type_symbol
 _atom_site_label
 _atom_site_symmetry_multiplicity
 _atom_site_fract_x
 _atom_site_fract_y
 _atom_site_fract_z
 _atom_site_occupancy
  Zr  Zr0  1  0.71020200  0.28979800  0.28979800  1
  Zr  Zr1  1  0.28979800  0.71020200  0.71020200  1
  Zr  Zr2  1  0.28979800  0.71020200  0.28979800  1
  Zr  Zr3  1  0.71020200  0.28979800  0.71020200  1
  Zr  Zr4  1  0.28979800  0.28979800  0.71020200  1
  Zr  Zr5  1  0.71020200  0.71020200  0.28979800  1
  Zn  Zn6  1  0.12295600  0.12295600  0.12295600  1
  Zn  Zn7  1  0.87704400  0.87704400  0.87704400  1
  Zn  Zn8  1  0.12295600  0.12295600  0.63113300  1
  Zn  Zn9  1  0.12295600  0.63113300  0.12295600  1
  Zn  Zn10  1  0.87704400  0.87704400  0.36886700  1
  Zn  Zn11  1  0.87704400  0.36886700  0.87704400  1
  Zn  Zn12  1  0.63113300  0.12295600  0.12295600  1
  Zn  Zn13  1  0.36886700  0.87704400  0.87704400  1
  Zn  Zn14  1  0.50000000  0.00000000  0.00000000  1
  Zn  Zn15  1  0.00000000  0.50000000  0.50000000  1
  Zn  Zn16  1  0.00000000  0.50000000  0.00000000  1
  Zn  Zn17  1  0.50000000  0.00000000  0.50000000  1
  Zn  Zn18  1  0.00000000  0.00000000  0.50000000  1
  Zn  Zn19  1  0.50000000  0.50000000  0.00000000  1
  Zn  Zn20  1  0.33577000  0.33577000  0.33577000  1
  Zn  Zn21  1  0.66423000  0.66423000  0.66423000  1
  Zn  Zn22  1  0.33577000  0.33577000  0.99269100  1
  Zn  Zn23  1  0.33577000  0.99269100  0.33577000  1
  Zn  Zn24  1  0.66423000  0.66423000  0.00730900  1
  Zn  Zn25  1  0.66423000  0.00730900  0.66423000  1
  Zn  Zn26  1  0.99269100  0.33577000  0.33577000  1
  Zn  Zn27  1  0.00730900  0.66423000  0.66423000  1
  Zn  Zn28  1  0.00000000  0.00000000  0.00000000  1
  Si  Si29  1  0.50000000  0.50000000  0.50000000  1
