# generated using pymatgen
data_Sr(H2O3)2
_symmetry_space_group_name_H-M   'P 1'
_cell_length_a   5.27031127
_cell_length_b   5.27031127
_cell_length_c   9.40779710
_cell_angle_alpha   77.65215905
_cell_angle_beta   77.65215905
_cell_angle_gamma   68.58966481
_symmetry_Int_Tables_number   1
_chemical_formula_structural   Sr(H2O3)2
_chemical_formula_sum   'Sr2 H8 O12'
_cell_volume   234.98811972
_cell_formula_units_Z   2
loop_
 _symmetry_equiv_pos_site_id
 _symmetry_equiv_pos_as_xyz
  1  'x, y, z'
loop_
 _atom_site_type_symbol
 _atom_site_label
 _atom_site_symmetry_multiplicity
 _atom_site_fract_x
 _atom_site_fract_y
 _atom_site_fract_z
 _atom_site_occupancy
  Sr  Sr0  1  0.90048300  0.17841200  0.72003000  1
  Sr  Sr1  1  0.17841200  0.90048300  0.22003000  1
  H  H2  1  0.14538100  0.33284500  0.94277700  1
  H  H3  1  0.45246600  0.88109900  0.85416100  1
  H  H4  1  0.56795900  0.87559100  0.68642000  1
  H  H5  1  0.87559100  0.56795900  0.18642000  1
  H  H6  1  0.33284500  0.14538100  0.44277700  1
  H  H7  1  0.88109900  0.45246600  0.35416100  1
  H  H8  1  0.35118600  0.82664700  0.50669500  1
  H  H9  1  0.82664700  0.35118600  0.00669500  1
  O  O10  1  0.01840700  0.22216900  0.97671900  1
  O  O11  1  0.86969800  0.67093400  0.59568900  1
  O  O12  1  0.67093400  0.86969800  0.09568900  1
  O  O13  1  0.22216900  0.01840700  0.47671900  1
  O  O14  1  0.44291600  0.99816400  0.75793300  1
  O  O15  1  0.02172900  0.63827200  0.70258200  1
  O  O16  1  0.63827200  0.02172900  0.20258200  1
  O  O17  1  0.99816400  0.44291600  0.25793300  1
  O  O18  1  0.51604100  0.48813600  0.51921200  1
  O  O19  1  0.45005300  0.40690300  0.91181700  1
  O  O20  1  0.40690300  0.45005300  0.41181700  1
  O  O21  1  0.48813600  0.51604100  0.01921200  1
