# generated using pymatgen
data_Ca7TlN4
_symmetry_space_group_name_H-M   'P 1'
_cell_length_a   3.61090500
_cell_length_b   11.77505300
_cell_length_c   12.12248000
_cell_angle_alpha   90.00000000
_cell_angle_beta   90.00000000
_cell_angle_gamma   90.00000000
_symmetry_Int_Tables_number   1
_chemical_formula_structural   Ca7TlN4
_chemical_formula_sum   'Ca14 Tl2 N8'
_cell_volume   515.43085089
_cell_formula_units_Z   2
loop_
 _symmetry_equiv_pos_site_id
 _symmetry_equiv_pos_as_xyz
  1  'x, y, z'
loop_
 _atom_site_type_symbol
 _atom_site_label
 _atom_site_symmetry_multiplicity
 _atom_site_fract_x
 _atom_site_fract_y
 _atom_site_fract_z
 _atom_site_occupancy
  Ca  Ca0  1  0.99898800  0.73240900  0.43520000  1
  Ca  Ca1  1  0.99898800  0.26759100  0.56480000  1
  Ca  Ca2  1  0.00101200  0.23240900  0.06480000  1
  Ca  Ca3  1  0.00101200  0.76759100  0.93520000  1
  Ca  Ca4  1  0.50004500  0.72735400  0.67913800  1
  Ca  Ca5  1  0.50004500  0.27264600  0.32086200  1
  Ca  Ca6  1  0.49995500  0.22735400  0.82086200  1
  Ca  Ca7  1  0.49995500  0.77264600  0.17913800  1
  Ca  Ca8  1  0.49996100  0.50000000  0.50000000  1
  Ca  Ca9  1  0.50003900  0.00000000  0.00000000  1
  Ca  Ca10  1  0.00106000  0.47219500  0.73112100  1
  Ca  Ca11  1  0.00106000  0.52780500  0.26887900  1
  Ca  Ca12  1  0.99894000  0.97219500  0.76887900  1
  Ca  Ca13  1  0.99894000  0.02780500  0.23112100  1
  Tl  Tl14  1  0.45427300  0.00000000  0.50000000  1
  Tl  Tl15  1  0.54572700  0.50000000  0.00000000  1
  N  N16  1  0.00005600  0.62600000  0.60486500  1
  N  N17  1  0.00005600  0.37400000  0.39513500  1
  N  N18  1  0.99994400  0.12600000  0.89513500  1
  N  N19  1  0.99994400  0.87400000  0.10486500  1
  N  N20  1  0.49977900  0.64481100  0.33592600  1
  N  N21  1  0.49977900  0.35518900  0.66407400  1
  N  N22  1  0.50022100  0.14481100  0.16407400  1
  N  N23  1  0.50022100  0.85518900  0.83592600  1
