# generated using pymatgen
data_Sm2SeOF2
_symmetry_space_group_name_H-M   'P 1'
_cell_length_a   13.73023088
_cell_length_b   13.73023088
_cell_length_c   3.84978300
_cell_angle_alpha   90.00000000
_cell_angle_beta   90.00000000
_cell_angle_gamma   120.00000426
_symmetry_Int_Tables_number   1
_chemical_formula_structural   Sm2SeOF2
_chemical_formula_sum   'Sm12 Se6 O6 F12'
_cell_volume   628.52498159
_cell_formula_units_Z   6
loop_
 _symmetry_equiv_pos_site_id
 _symmetry_equiv_pos_as_xyz
  1  'x, y, z'
loop_
 _atom_site_type_symbol
 _atom_site_label
 _atom_site_symmetry_multiplicity
 _atom_site_fract_x
 _atom_site_fract_y
 _atom_site_fract_z
 _atom_site_occupancy
  Sm  Sm0  1  0.39697100  0.88158400  0.75000000  1
  Sm  Sm1  1  0.48461400  0.60302900  0.75000000  1
  Sm  Sm2  1  0.11841600  0.51538600  0.75000000  1
  Sm  Sm3  1  0.60302900  0.11841600  0.25000000  1
  Sm  Sm4  1  0.51538600  0.39697100  0.25000000  1
  Sm  Sm5  1  0.88158400  0.48461400  0.25000000  1
  Sm  Sm6  1  0.05443700  0.76598700  0.75000000  1
  Sm  Sm7  1  0.71154900  0.94556300  0.75000000  1
  Sm  Sm8  1  0.23401300  0.28845100  0.75000000  1
  Sm  Sm9  1  0.94556300  0.23401300  0.25000000  1
  Sm  Sm10  1  0.28845100  0.05443700  0.25000000  1
  Sm  Sm11  1  0.76598700  0.71154900  0.25000000  1
  Se  Se12  1  0.71852000  0.51312400  0.75000000  1
  Se  Se13  1  0.79460300  0.28148000  0.75000000  1
  Se  Se14  1  0.48687600  0.20539700  0.75000000  1
  Se  Se15  1  0.28148000  0.48687600  0.25000000  1
  Se  Se16  1  0.20539700  0.71852000  0.25000000  1
  Se  Se17  1  0.51312400  0.79460300  0.25000000  1
  O  O18  1  0.98520600  0.57300300  0.75000000  1
  O  O19  1  0.58779700  0.01479400  0.75000000  1
  O  O20  1  0.42699700  0.41220300  0.75000000  1
  O  O21  1  0.01479400  0.42699700  0.25000000  1
  O  O22  1  0.41220300  0.98520600  0.25000000  1
  O  O23  1  0.57300300  0.58779700  0.25000000  1
  F  F24  1  0.89223800  0.79183200  0.75000000  1
  F  F25  1  0.89959300  0.10776200  0.75000000  1
  F  F26  1  0.20816800  0.10040700  0.75000000  1
  F  F27  1  0.10776200  0.20816800  0.25000000  1
  F  F28  1  0.10040700  0.89223800  0.25000000  1
  F  F29  1  0.79183200  0.89959300  0.25000000  1
  F  F30  1  0.24690500  0.93179800  0.75000000  1
  F  F31  1  0.68489300  0.75309500  0.75000000  1
  F  F32  1  0.06820200  0.31510700  0.75000000  1
  F  F33  1  0.75309500  0.06820200  0.25000000  1
  F  F34  1  0.31510700  0.24690500  0.25000000  1
  F  F35  1  0.93179800  0.68489300  0.25000000  1
