# generated using pymatgen
data_Ga2Se2O7
_symmetry_space_group_name_H-M   'P 1'
_cell_length_a   6.68654800
_cell_length_b   12.86794000
_cell_length_c   13.57105700
_cell_angle_alpha   90.00000000
_cell_angle_beta   90.00000000
_cell_angle_gamma   90.00000000
_symmetry_Int_Tables_number   1
_chemical_formula_structural   Ga2Se2O7
_chemical_formula_sum   'Ga16 Se16 O56'
_cell_volume   1167.68222275
_cell_formula_units_Z   8
loop_
 _symmetry_equiv_pos_site_id
 _symmetry_equiv_pos_as_xyz
  1  'x, y, z'
loop_
 _atom_site_type_symbol
 _atom_site_label
 _atom_site_symmetry_multiplicity
 _atom_site_fract_x
 _atom_site_fract_y
 _atom_site_fract_z
 _atom_site_occupancy
  Ga  Ga0  1  0.47670300  0.37774100  0.47309700  1
  Ga  Ga1  1  0.02329700  0.12225900  0.47309700  1
  Ga  Ga2  1  0.97670300  0.62225900  0.02690300  1
  Ga  Ga3  1  0.52329700  0.87774100  0.02690300  1
  Ga  Ga4  1  0.52329700  0.62225900  0.52690300  1
  Ga  Ga5  1  0.97670300  0.87774100  0.52690300  1
  Ga  Ga6  1  0.02329700  0.37774100  0.97309700  1
  Ga  Ga7  1  0.47670300  0.12225900  0.97309700  1
  Ga  Ga8  1  0.25000000  0.25000000  0.29660100  1
  Ga  Ga9  1  0.75000000  0.75000000  0.20339900  1
  Ga  Ga10  1  0.75000000  0.75000000  0.70339900  1
  Ga  Ga11  1  0.25000000  0.25000000  0.79660100  1
  Ga  Ga12  1  0.75000000  0.25000000  0.33113200  1
  Ga  Ga13  1  0.25000000  0.75000000  0.16886800  1
  Ga  Ga14  1  0.25000000  0.75000000  0.66886800  1
  Ga  Ga15  1  0.75000000  0.25000000  0.83113200  1
  Se  Se16  1  0.51747600  0.13410900  0.53538000  1
  Se  Se17  1  0.98252400  0.36589100  0.53538000  1
  Se  Se18  1  0.01747600  0.86589100  0.96462000  1
  Se  Se19  1  0.48252400  0.63410900  0.96462000  1
  Se  Se20  1  0.48252400  0.86589100  0.46462000  1
  Se  Se21  1  0.01747600  0.63410900  0.46462000  1
  Se  Se22  1  0.98252400  0.13410900  0.03538000  1
  Se  Se23  1  0.51747600  0.36589100  0.03538000  1
  Se  Se24  1  0.50711000  0.44765200  0.71829900  1
  Se  Se25  1  0.99289000  0.05234800  0.71829900  1
  Se  Se26  1  0.00711000  0.55234800  0.78170100  1
  Se  Se27  1  0.49289000  0.94765200  0.78170100  1
  Se  Se28  1  0.49289000  0.55234800  0.28170100  1
  Se  Se29  1  0.00711000  0.94765200  0.28170100  1
  Se  Se30  1  0.99289000  0.44765200  0.21829900  1
  Se  Se31  1  0.50711000  0.05234800  0.21829900  1
  O  O32  1  0.51170800  0.47560100  0.58931200  1
  O  O33  1  0.98829200  0.02439900  0.58931200  1
  O  O34  1  0.01170800  0.52439900  0.91068800  1
  O  O35  1  0.48829200  0.97560100  0.91068800  1
  O  O36  1  0.48829200  0.52439900  0.41068800  1
  O  O37  1  0.01170800  0.97560100  0.41068800  1
  O  O38  1  0.98829200  0.47560100  0.08931200  1
  O  O39  1  0.51170800  0.02439900  0.08931200  1
  O  O40  1  0.48728000  0.26231100  0.56455400  1
  O  O41  1  0.01272000  0.23768900  0.56455400  1
  O  O42  1  0.98728000  0.73768900  0.93544600  1
  O  O43  1  0.51272000  0.76231100  0.93544600  1
  O  O44  1  0.51272000  0.73768900  0.43544600  1
  O  O45  1  0.98728000  0.76231100  0.43544600  1
  O  O46  1  0.01272000  0.26231100  0.06455400  1
  O  O47  1  0.48728000  0.23768900  0.06455400  1
  O  O48  1  0.48462100  0.29671100  0.35239100  1
  O  O49  1  0.01537900  0.20328900  0.35239100  1
  O  O50  1  0.98462100  0.70328900  0.14760900  1
  O  O51  1  0.51537900  0.79671100  0.14760900  1
  O  O52  1  0.51537900  0.70328900  0.64760900  1
  O  O53  1  0.98462100  0.79671100  0.64760900  1
  O  O54  1  0.01537900  0.29671100  0.85239100  1
  O  O55  1  0.48462100  0.20328900  0.85239100  1
  O  O56  1  0.71158100  0.13408600  0.44650600  1
  O  O57  1  0.78841900  0.36591400  0.44650600  1
  O  O58  1  0.21158100  0.86591400  0.05349400  1
  O  O59  1  0.28841900  0.63408600  0.05349400  1
  O  O60  1  0.28841900  0.86591400  0.55349400  1
  O  O61  1  0.21158100  0.63408600  0.55349400  1
  O  O62  1  0.78841900  0.13408600  0.94650600  1
  O  O63  1  0.71158100  0.36591400  0.94650600  1
  O  O64  1  0.29336400  0.37148700  0.71965500  1
  O  O65  1  0.20663600  0.12851300  0.71965500  1
  O  O66  1  0.79336400  0.62851300  0.78034500  1
  O  O67  1  0.70663600  0.87148700  0.78034500  1
  O  O68  1  0.70663600  0.62851300  0.28034500  1
  O  O69  1  0.79336400  0.87148700  0.28034500  1
  O  O70  1  0.20663600  0.37148700  0.21965500  1
  O  O71  1  0.29336400  0.12851300  0.21965500  1
  O  O72  1  0.32004500  0.10860300  0.45526900  1
  O  O73  1  0.17995500  0.39139700  0.45526900  1
  O  O74  1  0.82004500  0.89139700  0.04473100  1
  O  O75  1  0.67995500  0.60860300  0.04473100  1
  O  O76  1  0.67995500  0.89139700  0.54473100  1
  O  O77  1  0.82004500  0.60860300  0.54473100  1
  O  O78  1  0.17995500  0.10860300  0.95526900  1
  O  O79  1  0.32004500  0.39139700  0.95526900  1
  O  O80  1  0.69965800  0.36116900  0.72954400  1
  O  O81  1  0.80034200  0.13883100  0.72954400  1
  O  O82  1  0.19965800  0.63883100  0.77045600  1
  O  O83  1  0.30034200  0.86116900  0.77045600  1
  O  O84  1  0.30034200  0.63883100  0.27045600  1
  O  O85  1  0.19965800  0.86116900  0.27045600  1
  O  O86  1  0.80034200  0.36116900  0.22954400  1
  O  O87  1  0.69965800  0.13883100  0.22954400  1
