# generated using pymatgen
data_Zr3TePb4O13
_symmetry_space_group_name_H-M   'P 1'
_cell_length_a   7.69185248
_cell_length_b   7.69185248
_cell_length_c   7.69185236
_cell_angle_alpha   59.94401344
_cell_angle_beta   59.94401344
_cell_angle_gamma   59.94400972
_symmetry_Int_Tables_number   1
_chemical_formula_structural   Zr3TePb4O13
_chemical_formula_sum   'Zr3 Te1 Pb4 O13'
_cell_volume   321.38529648
_cell_formula_units_Z   1
loop_
 _symmetry_equiv_pos_site_id
 _symmetry_equiv_pos_as_xyz
  1  'x, y, z'
loop_
 _atom_site_type_symbol
 _atom_site_label
 _atom_site_symmetry_multiplicity
 _atom_site_fract_x
 _atom_site_fract_y
 _atom_site_fract_z
 _atom_site_occupancy
  Zr  Zr0  1  0.99890600  0.50077400  0.50077400  1
  Zr  Zr1  1  0.50077400  0.50077400  0.99890600  1
  Zr  Zr2  1  0.50077400  0.99890600  0.50077400  1
  Te  Te3  1  0.50039200  0.50039200  0.50039200  1
  Pb  Pb4  1  0.50149700  0.00064000  0.00064000  1
  Pb  Pb5  1  0.00064000  0.00064000  0.50149700  1
  Pb  Pb6  1  0.00064000  0.50149700  0.00064000  1
  Pb  Pb7  1  0.99830900  0.99830900  0.99830900  1
  O  O8  1  0.16794000  0.57136500  0.16794000  1
  O  O9  1  0.56641900  0.19892200  0.56641900  1
  O  O10  1  0.16794000  0.16794000  0.57136500  1
  O  O11  1  0.56641900  0.56641900  0.19892200  1
  O  O12  1  0.57136500  0.16794000  0.16794000  1
  O  O13  1  0.19892200  0.56641900  0.56641900  1
  O  O14  1  0.82830400  0.43403300  0.82830400  1
  O  O15  1  0.43564100  0.80046700  0.43564100  1
  O  O16  1  0.82830400  0.82830400  0.43403300  1
  O  O17  1  0.43564100  0.43564100  0.80046700  1
  O  O18  1  0.43403300  0.82830400  0.82830400  1
  O  O19  1  0.80046700  0.43564100  0.43564100  1
  O  O20  1  0.87167200  0.87167200  0.87167200  1
