# generated using pymatgen
data_CeSb2Au
_symmetry_space_group_name_H-M   'P 1'
_cell_length_a   4.47390500
_cell_length_b   4.47390500
_cell_length_c   10.05328400
_cell_angle_alpha   90.00000000
_cell_angle_beta   90.00000000
_cell_angle_gamma   90.00000000
_symmetry_Int_Tables_number   1
_chemical_formula_structural   CeSb2Au
_chemical_formula_sum   'Ce2 Sb4 Au2'
_cell_volume   201.22478276
_cell_formula_units_Z   2
loop_
 _symmetry_equiv_pos_site_id
 _symmetry_equiv_pos_as_xyz
  1  'x, y, z'
loop_
 _atom_site_type_symbol
 _atom_site_label
 _atom_site_symmetry_multiplicity
 _atom_site_fract_x
 _atom_site_fract_y
 _atom_site_fract_z
 _atom_site_occupancy
  Ce  Ce0  1  0.00000000  0.50000000  0.75464800  1
  Ce  Ce1  1  0.50000000  0.00000000  0.24535200  1
  Sb  Sb2  1  0.50000000  0.50000000  0.00000000  1
  Sb  Sb3  1  0.00000000  0.00000000  0.00000000  1
  Sb  Sb4  1  0.00000000  0.50000000  0.31673000  1
  Sb  Sb5  1  0.50000000  0.00000000  0.68327000  1
  Au  Au6  1  0.50000000  0.50000000  0.50000000  1
  Au  Au7  1  0.00000000  0.00000000  0.50000000  1
