# generated using pymatgen
data_Nd3IrO7
_symmetry_space_group_name_H-M   'P 1'
_cell_length_a   6.62933732
_cell_length_b   7.60537300
_cell_length_c   12.58569303
_cell_angle_alpha   90.00000000
_cell_angle_beta   98.53685758
_cell_angle_gamma   90.00000000
_symmetry_Int_Tables_number   1
_chemical_formula_structural   Nd3IrO7
_chemical_formula_sum   'Nd12 Ir4 O28'
_cell_volume   627.52232942
_cell_formula_units_Z   4
loop_
 _symmetry_equiv_pos_site_id
 _symmetry_equiv_pos_as_xyz
  1  'x, y, z'
loop_
 _atom_site_type_symbol
 _atom_site_label
 _atom_site_symmetry_multiplicity
 _atom_site_fract_x
 _atom_site_fract_y
 _atom_site_fract_z
 _atom_site_occupancy
  Nd  Nd0  1  0.24470000  0.49840700  0.73964500  1
  Nd  Nd1  1  0.25530000  0.99840700  0.76035500  1
  Nd  Nd2  1  0.75530000  0.50159300  0.26035500  1
  Nd  Nd3  1  0.74470000  0.00159300  0.23964500  1
  Nd  Nd4  1  0.06690100  0.75055800  0.48815000  1
  Nd  Nd5  1  0.43309900  0.25055800  0.01185000  1
  Nd  Nd6  1  0.93309900  0.24944200  0.51185000  1
  Nd  Nd7  1  0.56690100  0.74944200  0.98815000  1
  Nd  Nd8  1  0.73466500  0.75630700  0.70966900  1
  Nd  Nd9  1  0.76533500  0.25630700  0.79033100  1
  Nd  Nd10  1  0.26533500  0.24369300  0.29033100  1
  Nd  Nd11  1  0.23466500  0.74369300  0.20966900  1
  Ir  Ir12  1  0.50000000  0.50000000  0.50000000  1
  Ir  Ir13  1  0.00000000  0.00000000  0.00000000  1
  Ir  Ir14  1  0.00000000  0.50000000  0.00000000  1
  Ir  Ir15  1  0.50000000  0.00000000  0.50000000  1
  O  O16  1  0.95160700  0.74882200  0.04337000  1
  O  O17  1  0.54839300  0.24882200  0.45663000  1
  O  O18  1  0.04839300  0.25117800  0.95663000  1
  O  O19  1  0.45160700  0.75117800  0.54337000  1
  O  O20  1  0.28331000  0.54399300  0.98784500  1
  O  O21  1  0.21669000  0.04399300  0.51215500  1
  O  O22  1  0.71669000  0.45600700  0.01215500  1
  O  O23  1  0.78331000  0.95600700  0.48784500  1
  O  O24  1  0.78399000  0.53591100  0.46270600  1
  O  O25  1  0.71601000  0.03591100  0.03729400  1
  O  O26  1  0.21601000  0.46408900  0.53729400  1
  O  O27  1  0.28399000  0.96408900  0.96270600  1
  O  O28  1  0.92620900  0.53744500  0.83969700  1
  O  O29  1  0.57379100  0.03744500  0.66030300  1
  O  O30  1  0.07379100  0.46255500  0.16030300  1
  O  O31  1  0.42620900  0.96255500  0.33969700  1
  O  O32  1  0.39401400  0.53735400  0.34759400  1
  O  O33  1  0.10598600  0.03735400  0.15240600  1
  O  O34  1  0.60598600  0.46264600  0.65240600  1
  O  O35  1  0.89401400  0.96264600  0.84759400  1
  O  O36  1  0.56536000  0.74072000  0.17145700  1
  O  O37  1  0.93464000  0.24072000  0.32854300  1
  O  O38  1  0.43464000  0.25928000  0.82854300  1
  O  O39  1  0.06536000  0.75928000  0.67145700  1
  O  O40  1  0.96127800  0.76124000  0.30496700  1
  O  O41  1  0.53872200  0.26124000  0.19503300  1
  O  O42  1  0.03872200  0.23876000  0.69503300  1
  O  O43  1  0.46127800  0.73876000  0.80496700  1
