# generated using pymatgen
data_NaCl3
_symmetry_space_group_name_H-M   'P 1'
_cell_length_a   6.19358200
_cell_length_b   7.84010900
_cell_length_c   8.41981600
_cell_angle_alpha   90.00000000
_cell_angle_beta   90.00000000
_cell_angle_gamma   90.00000000
_symmetry_Int_Tables_number   1
_chemical_formula_structural   NaCl3
_chemical_formula_sum   'Na4 Cl12'
_cell_volume   408.85243946
_cell_formula_units_Z   4
loop_
 _symmetry_equiv_pos_site_id
 _symmetry_equiv_pos_as_xyz
  1  'x, y, z'
loop_
 _atom_site_type_symbol
 _atom_site_label
 _atom_site_symmetry_multiplicity
 _atom_site_fract_x
 _atom_site_fract_y
 _atom_site_fract_z
 _atom_site_occupancy
  Na  Na0  1  0.25000000  0.02336900  0.83715100  1
  Na  Na1  1  0.25000000  0.47663100  0.33715100  1
  Na  Na2  1  0.75000000  0.97663100  0.16284900  1
  Na  Na3  1  0.75000000  0.52336900  0.66284900  1
  Cl  Cl4  1  0.25000000  0.33832800  0.65552700  1
  Cl  Cl5  1  0.25000000  0.16167200  0.15552700  1
  Cl  Cl6  1  0.75000000  0.66167200  0.34447300  1
  Cl  Cl7  1  0.75000000  0.83832800  0.84447300  1
  Cl  Cl8  1  0.25000000  0.77920200  0.57516900  1
  Cl  Cl9  1  0.25000000  0.72079800  0.07516900  1
  Cl  Cl10  1  0.75000000  0.22079800  0.42483100  1
  Cl  Cl11  1  0.75000000  0.27920200  0.92483100  1
  Cl  Cl12  1  0.25000000  0.53859300  0.87683400  1
  Cl  Cl13  1  0.25000000  0.96140700  0.37683400  1
  Cl  Cl14  1  0.75000000  0.46140700  0.12316600  1
  Cl  Cl15  1  0.75000000  0.03859300  0.62316600  1
