# generated using pymatgen
data_CoH2Cl2O
_symmetry_space_group_name_H-M   'P 1'
_cell_length_a   3.57466002
_cell_length_b   8.88091103
_cell_length_c   11.47533903
_cell_angle_alpha   89.99804985
_cell_angle_beta   90.00804419
_cell_angle_gamma   89.99030088
_symmetry_Int_Tables_number   1
_chemical_formula_structural   CoH2Cl2O
_chemical_formula_sum   'Co4 H8 Cl8 O4'
_cell_volume   364.29883066
_cell_formula_units_Z   4
loop_
 _symmetry_equiv_pos_site_id
 _symmetry_equiv_pos_as_xyz
  1  'x, y, z'
loop_
 _atom_site_type_symbol
 _atom_site_label
 _atom_site_symmetry_multiplicity
 _atom_site_fract_x
 _atom_site_fract_y
 _atom_site_fract_z
 _atom_site_occupancy
  Co  Co0  1  0.74995600  0.82069200  0.51869000  1
  Co  Co1  1  0.25002200  0.17930600  0.48130900  1
  Co  Co2  1  0.75000700  0.32063300  0.98130400  1
  Co  Co3  1  0.24998900  0.67936800  0.01869700  1
  H  H4  1  0.74996300  0.19109800  0.76844400  1
  H  H5  1  0.74997200  0.69112500  0.73142900  1
  H  H6  1  0.25002700  0.80890200  0.23155600  1
  H  H7  1  0.25006500  0.30887300  0.26857100  1
  H  H8  1  0.74999500  0.05489000  0.86121400  1
  H  H9  1  0.74993700  0.55485100  0.63869500  1
  H  H10  1  0.25004500  0.94511100  0.13878700  1
  H  H11  1  0.25005600  0.44514900  0.36130400  1
  Cl  Cl12  1  0.24994900  0.19411400  0.09117200  1
  Cl  Cl13  1  0.25008500  0.69406400  0.40879900  1
  Cl  Cl14  1  0.75005500  0.80588600  0.90882900  1
  Cl  Cl15  1  0.74997400  0.30593300  0.59119700  1
  Cl  Cl16  1  0.74993900  0.53425500  0.12257700  1
  Cl  Cl17  1  0.75013600  0.03433600  0.37746600  1
  Cl  Cl18  1  0.25004300  0.46574400  0.87742300  1
  Cl  Cl19  1  0.24981300  0.96567300  0.62253400  1
  O  O20  1  0.75005600  0.16491800  0.85188700  1
  O  O21  1  0.74999600  0.66479500  0.64811300  1
  O  O22  1  0.24993600  0.83508300  0.14811400  1
  O  O23  1  0.24998400  0.33520300  0.35188800  1
