# generated using pymatgen
data_Rb2CeI5
_symmetry_space_group_name_H-M   'P 1'
_cell_length_a   9.44799500
_cell_length_b   10.13265500
_cell_length_c   15.11808600
_cell_angle_alpha   90.00000000
_cell_angle_beta   90.00000000
_cell_angle_gamma   90.00000000
_symmetry_Int_Tables_number   1
_chemical_formula_structural   Rb2CeI5
_chemical_formula_sum   'Rb8 Ce4 I20'
_cell_volume   1447.30386602
_cell_formula_units_Z   4
loop_
 _symmetry_equiv_pos_site_id
 _symmetry_equiv_pos_as_xyz
  1  'x, y, z'
loop_
 _atom_site_type_symbol
 _atom_site_label
 _atom_site_symmetry_multiplicity
 _atom_site_fract_x
 _atom_site_fract_y
 _atom_site_fract_z
 _atom_site_occupancy
  Rb  Rb0  1  0.94566500  0.00410900  0.82746900  1
  Rb  Rb1  1  0.05433500  0.99589100  0.17253100  1
  Rb  Rb2  1  0.44566500  0.99589100  0.67253100  1
  Rb  Rb3  1  0.05433500  0.50410900  0.17253100  1
  Rb  Rb4  1  0.55433500  0.00410900  0.32746900  1
  Rb  Rb5  1  0.94566500  0.49589100  0.82746900  1
  Rb  Rb6  1  0.55433500  0.49589100  0.32746900  1
  Rb  Rb7  1  0.44566500  0.50410900  0.67253100  1
  Ce  Ce8  1  0.92382300  0.75000000  0.50416800  1
  Ce  Ce9  1  0.07617700  0.25000000  0.49583200  1
  Ce  Ce10  1  0.42382300  0.25000000  0.99583200  1
  Ce  Ce11  1  0.57617700  0.75000000  0.00416800  1
  I  I12  1  0.12281100  0.75000000  0.67622200  1
  I  I13  1  0.87718900  0.25000000  0.32377800  1
  I  I14  1  0.62281100  0.25000000  0.82377800  1
  I  I15  1  0.37718900  0.75000000  0.17622200  1
  I  I16  1  0.83671200  0.04451600  0.57471100  1
  I  I17  1  0.16328800  0.95548400  0.42528900  1
  I  I18  1  0.33671200  0.95548400  0.92528900  1
  I  I19  1  0.16328800  0.54451600  0.42528900  1
  I  I20  1  0.66328800  0.04451600  0.07471100  1
  I  I21  1  0.83671200  0.45548400  0.57471100  1
  I  I22  1  0.66328800  0.45548400  0.07471100  1
  I  I23  1  0.33671200  0.54451600  0.92528900  1
  I  I24  1  0.58025000  0.75000000  0.50919900  1
  I  I25  1  0.41975000  0.25000000  0.49080100  1
  I  I26  1  0.08025000  0.25000000  0.99080100  1
  I  I27  1  0.91975000  0.75000000  0.00919900  1
  I  I28  1  0.66036800  0.75000000  0.79925800  1
  I  I29  1  0.33963200  0.25000000  0.20074200  1
  I  I30  1  0.16036800  0.25000000  0.70074200  1
  I  I31  1  0.83963200  0.75000000  0.29925800  1
