# generated using pymatgen
data_Sm(NiSb)2
_symmetry_space_group_name_H-M   'P 1'
_cell_length_a   4.44156200
_cell_length_b   4.44156200
_cell_length_c   10.04940800
_cell_angle_alpha   90.00000000
_cell_angle_beta   90.00000000
_cell_angle_gamma   90.00000000
_symmetry_Int_Tables_number   1
_chemical_formula_structural   Sm(NiSb)2
_chemical_formula_sum   'Sm2 Ni4 Sb4'
_cell_volume   198.24942498
_cell_formula_units_Z   2
loop_
 _symmetry_equiv_pos_site_id
 _symmetry_equiv_pos_as_xyz
  1  'x, y, z'
loop_
 _atom_site_type_symbol
 _atom_site_label
 _atom_site_symmetry_multiplicity
 _atom_site_fract_x
 _atom_site_fract_y
 _atom_site_fract_z
 _atom_site_occupancy
  Sm  Sm0  1  0.00000000  0.50000000  0.23907900  1
  Sm  Sm1  1  0.50000000  0.00000000  0.76092100  1
  Ni  Ni2  1  0.00000000  0.00000000  0.00000000  1
  Ni  Ni3  1  0.50000000  0.50000000  0.00000000  1
  Ni  Ni4  1  0.00000000  0.50000000  0.62390800  1
  Ni  Ni5  1  0.50000000  0.00000000  0.37609200  1
  Sb  Sb6  1  0.00000000  0.00000000  0.50000000  1
  Sb  Sb7  1  0.50000000  0.50000000  0.50000000  1
  Sb  Sb8  1  0.00000000  0.50000000  0.87356900  1
  Sb  Sb9  1  0.50000000  0.00000000  0.12643100  1
