# generated using pymatgen
data_Na3Sc2(PO4)3
_symmetry_space_group_name_H-M   'P 1'
_cell_length_a   8.99237145
_cell_length_b   8.99237145
_cell_length_c   9.22010261
_cell_angle_alpha   61.55081604
_cell_angle_beta   61.55081604
_cell_angle_gamma   60.21585197
_symmetry_Int_Tables_number   1
_chemical_formula_structural   Na3Sc2(PO4)3
_chemical_formula_sum   'Na6 Sc4 P6 O24'
_cell_volume   540.12717198
_cell_formula_units_Z   2
loop_
 _symmetry_equiv_pos_site_id
 _symmetry_equiv_pos_as_xyz
  1  'x, y, z'
loop_
 _atom_site_type_symbol
 _atom_site_label
 _atom_site_symmetry_multiplicity
 _atom_site_fract_x
 _atom_site_fract_y
 _atom_site_fract_z
 _atom_site_occupancy
  Na  Na0  1  0.95938800  0.66269300  0.55995100  1
  Na  Na1  1  0.66269300  0.95938800  0.05995100  1
  Na  Na2  1  0.39604400  0.61743000  0.23552000  1
  Na  Na3  1  0.61743000  0.39604400  0.73552000  1
  Na  Na4  1  0.09701200  0.24607000  0.32125200  1
  Na  Na5  1  0.24607000  0.09701200  0.82125200  1
  Sc  Sc6  1  0.14549000  0.65154700  0.05547500  1
  Sc  Sc7  1  0.65154700  0.14549000  0.55547500  1
  Sc  Sc8  1  0.84501600  0.35060800  0.95264700  1
  Sc  Sc9  1  0.35060800  0.84501600  0.45264700  1
  P  P10  1  0.46761700  0.24792000  0.24141100  1
  P  P11  1  0.24792000  0.46761700  0.74141100  1
  P  P12  1  0.53094700  0.74993200  0.76220800  1
  P  P13  1  0.74993200  0.53094700  0.26220800  1
  P  P14  1  0.04679600  0.95777100  0.25064600  1
  P  P15  1  0.95777100  0.04679600  0.75064600  1
  O  O16  1  0.21983200  0.94235700  0.26471200  1
  O  O17  1  0.94235700  0.21983200  0.76471200  1
  O  O18  1  0.77551000  0.07720300  0.74218500  1
  O  O19  1  0.07720300  0.77551000  0.24218500  1
  O  O20  1  0.62481200  0.25933100  0.06586900  1
  O  O21  1  0.25933100  0.62481200  0.56586900  1
  O  O22  1  0.37229900  0.73904400  0.93512400  1
  O  O23  1  0.73904400  0.37229900  0.43512400  1
  O  O24  1  0.51499800  0.24813500  0.38146700  1
  O  O25  1  0.24813500  0.51499800  0.88146700  1
  O  O26  1  0.48690500  0.74255700  0.62323900  1
  O  O27  1  0.74255700  0.48690500  0.12323900  1
  O  O28  1  0.43114900  0.07468000  0.29399300  1
  O  O29  1  0.07468000  0.43114900  0.79399300  1
  O  O30  1  0.55823700  0.92879200  0.70461400  1
  O  O31  1  0.92879200  0.55823700  0.20461400  1
  O  O32  1  0.29339400  0.41391300  0.21803400  1
  O  O33  1  0.41391300  0.29339400  0.71803400  1
  O  O34  1  0.70698400  0.58649500  0.78322100  1
  O  O35  1  0.58649500  0.70698400  0.28322100  1
  O  O36  1  0.01036200  0.11650600  0.08671500  1
  O  O37  1  0.11650600  0.01036200  0.58671500  1
  O  O38  1  0.98868500  0.88633900  0.91651800  1
  O  O39  1  0.88633900  0.98868500  0.41651800  1
