# generated using pymatgen
data_Tb2Al6Si4Pt
_symmetry_space_group_name_H-M   'P 1'
_cell_length_a   17.09988550
_cell_length_b   17.09988550
_cell_length_c   17.09988523
_cell_angle_alpha   14.02392870
_cell_angle_beta   14.02392870
_cell_angle_gamma   14.02392932
_symmetry_Int_Tables_number   1
_chemical_formula_structural   Tb2Al6Si4Pt
_chemical_formula_sum   'Tb2 Al6 Si4 Pt1'
_cell_volume   255.55058542
_cell_formula_units_Z   1
loop_
 _symmetry_equiv_pos_site_id
 _symmetry_equiv_pos_as_xyz
  1  'x, y, z'
loop_
 _atom_site_type_symbol
 _atom_site_label
 _atom_site_symmetry_multiplicity
 _atom_site_fract_x
 _atom_site_fract_y
 _atom_site_fract_z
 _atom_site_occupancy
  Tb  Tb0  1  0.56593100  0.56593100  0.56593100  1
  Tb  Tb1  1  0.43406900  0.43406900  0.43406900  1
  Al  Al2  1  0.94972000  0.94972000  0.94972000  1
  Al  Al3  1  0.05028000  0.05028000  0.05028000  1
  Al  Al4  1  0.18517400  0.18517400  0.18517400  1
  Al  Al5  1  0.81482600  0.81482600  0.81482600  1
  Al  Al6  1  0.31763900  0.31763900  0.31763900  1
  Al  Al7  1  0.68236100  0.68236100  0.68236100  1
  Si  Si8  1  0.73403400  0.73403400  0.73403400  1
  Si  Si9  1  0.13517900  0.13517900  0.13517900  1
  Si  Si10  1  0.26596600  0.26596600  0.26596600  1
  Si  Si11  1  0.86482100  0.86482100  0.86482100  1
  Pt  Pt12  1  0.00000000  0.00000000  0.00000000  1
