# generated using pymatgen
data_Hf5Te4
_symmetry_space_group_name_H-M   'P 1'
_cell_length_a   7.84586605
_cell_length_b   7.84586605
_cell_length_c   7.84586605
_cell_angle_alpha   93.33236883
_cell_angle_beta   93.33236883
_cell_angle_gamma   152.09734583
_symmetry_Int_Tables_number   1
_chemical_formula_structural   Hf5Te4
_chemical_formula_sum   'Hf5 Te4'
_cell_volume   219.34983742
_cell_formula_units_Z   1
loop_
 _symmetry_equiv_pos_site_id
 _symmetry_equiv_pos_as_xyz
  1  'x, y, z'
loop_
 _atom_site_type_symbol
 _atom_site_label
 _atom_site_symmetry_multiplicity
 _atom_site_fract_x
 _atom_site_fract_y
 _atom_site_fract_z
 _atom_site_occupancy
  Hf  Hf0  1  0.31061800  0.36852900  0.67914700  1
  Hf  Hf1  1  0.63147100  0.31061800  0.94208900  1
  Hf  Hf2  1  0.36852900  0.68938200  0.05791100  1
  Hf  Hf3  1  0.68938200  0.63147100  0.32085300  1
  Hf  Hf4  1  0.00000000  0.00000000  0.00000000  1
  Te  Te5  1  0.05187400  0.28559100  0.33746400  1
  Te  Te6  1  0.71440900  0.05187400  0.76628300  1
  Te  Te7  1  0.28559100  0.94812600  0.23371700  1
  Te  Te8  1  0.94812600  0.71440900  0.66253600  1
