# generated using pymatgen
data_LuAu3
_symmetry_space_group_name_H-M   'P 1'
_cell_length_a   5.01195300
_cell_length_b   5.16251500
_cell_length_c   6.03806200
_cell_angle_alpha   90.00000000
_cell_angle_beta   90.00000000
_cell_angle_gamma   90.00000000
_symmetry_Int_Tables_number   1
_chemical_formula_structural   LuAu3
_chemical_formula_sum   'Lu2 Au6'
_cell_volume   156.23052219
_cell_formula_units_Z   2
loop_
 _symmetry_equiv_pos_site_id
 _symmetry_equiv_pos_as_xyz
  1  'x, y, z'
loop_
 _atom_site_type_symbol
 _atom_site_label
 _atom_site_symmetry_multiplicity
 _atom_site_fract_x
 _atom_site_fract_y
 _atom_site_fract_z
 _atom_site_occupancy
  Lu  Lu0  1  0.00000000  0.34564000  0.00000000  1
  Lu  Lu1  1  0.50000000  0.65436000  0.50000000  1
  Au  Au2  1  0.50000000  0.65525300  0.00000000  1
  Au  Au3  1  0.00000000  0.34474700  0.50000000  1
  Au  Au4  1  0.00000000  0.84188200  0.74762500  1
  Au  Au5  1  0.00000000  0.84188200  0.25237500  1
  Au  Au6  1  0.50000000  0.15811800  0.75237500  1
  Au  Au7  1  0.50000000  0.15811800  0.24762500  1
