# generated using pymatgen
data_RbSbWO6
_symmetry_space_group_name_H-M   'P 1'
_cell_length_a   7.37603668
_cell_length_b   7.41059220
_cell_length_c   7.29168230
_cell_angle_alpha   90.00000000
_cell_angle_beta   60.37759330
_cell_angle_gamma   120.15509453
_symmetry_Int_Tables_number   1
_chemical_formula_structural   RbSbWO6
_chemical_formula_sum   'Rb2 Sb2 W2 O12'
_cell_volume   282.77003123
_cell_formula_units_Z   2
loop_
 _symmetry_equiv_pos_site_id
 _symmetry_equiv_pos_as_xyz
  1  'x, y, z'
loop_
 _atom_site_type_symbol
 _atom_site_label
 _atom_site_symmetry_multiplicity
 _atom_site_fract_x
 _atom_site_fract_y
 _atom_site_fract_z
 _atom_site_occupancy
  Rb  Rb0  1  0.73148100  0.36113500  0.38425900  1
  Rb  Rb1  1  0.26851900  0.62965400  0.61574100  1
  Sb  Sb2  1  0.00000000  0.99583000  0.50000000  1
  Sb  Sb3  1  0.00000000  0.99583000  0.00000000  1
  W  W4  1  0.50005100  0.49579200  0.99997500  1
  W  W5  1  0.49994900  0.99574100  0.00002500  1
  O  O6  1  0.84984700  0.92078300  0.32507600  1
  O  O7  1  0.61734600  0.30448800  0.94132700  1
  O  O8  1  0.25380700  0.92910300  0.93392300  1
  O  O9  1  0.25380500  0.31637000  0.31227000  1
  O  O10  1  0.25380500  0.31637000  0.93392500  1
  O  O11  1  0.25380700  0.92910300  0.31227000  1
  O  O12  1  0.15015300  0.07093500  0.67492400  1
  O  O13  1  0.38265400  0.68714200  0.05867300  1
  O  O14  1  0.74619500  0.06256500  0.06607500  1
  O  O15  1  0.74619300  0.67529800  0.68773000  1
  O  O16  1  0.74619300  0.67529800  0.06607700  1
  O  O17  1  0.74619500  0.06256500  0.68773000  1
