# generated using pymatgen
data_Cu15Si4
_symmetry_space_group_name_H-M   'P 1'
_cell_length_a   8.40442667
_cell_length_b   8.40442667
_cell_length_c   8.40442667
_cell_angle_alpha   109.47122063
_cell_angle_beta   109.47122063
_cell_angle_gamma   109.47122063
_symmetry_Int_Tables_number   1
_chemical_formula_structural   Cu15Si4
_chemical_formula_sum   'Cu30 Si8'
_cell_volume   456.98546385
_cell_formula_units_Z   2
loop_
 _symmetry_equiv_pos_site_id
 _symmetry_equiv_pos_as_xyz
  1  'x, y, z'
loop_
 _atom_site_type_symbol
 _atom_site_label
 _atom_site_symmetry_multiplicity
 _atom_site_fract_x
 _atom_site_fract_y
 _atom_site_fract_z
 _atom_site_occupancy
  Cu  Cu0  1  0.62500000  0.37500000  0.25000000  1
  Cu  Cu1  1  0.25000000  0.62500000  0.37500000  1
  Cu  Cu2  1  0.75000000  0.87500000  0.12500000  1
  Cu  Cu3  1  0.12500000  0.75000000  0.87500000  1
  Cu  Cu4  1  0.37500000  0.25000000  0.62500000  1
  Cu  Cu5  1  0.87500000  0.12500000  0.75000000  1
  Cu  Cu6  1  0.07353300  0.27499600  0.12353900  1
  Cu  Cu7  1  0.70146300  0.05000600  0.92646700  1
  Cu  Cu8  1  0.87646100  0.44999400  0.15145700  1
  Cu  Cu9  1  0.15145700  0.87646100  0.44999400  1
  Cu  Cu10  1  0.34854300  0.79853700  0.72500400  1
  Cu  Cu11  1  0.72500400  0.34854300  0.79853700  1
  Cu  Cu12  1  0.05000600  0.92646700  0.70146300  1
  Cu  Cu13  1  0.22500400  0.29853700  0.84854300  1
  Cu  Cu14  1  0.20146300  0.42646700  0.55000600  1
  Cu  Cu15  1  0.94999400  0.37646100  0.65145700  1
  Cu  Cu16  1  0.29853700  0.84854300  0.22500400  1
  Cu  Cu17  1  0.55000600  0.20146300  0.42646700  1
  Cu  Cu18  1  0.37646100  0.65145700  0.94999400  1
  Cu  Cu19  1  0.12353900  0.07353300  0.27499600  1
  Cu  Cu20  1  0.27499600  0.12353900  0.07353300  1
  Cu  Cu21  1  0.84854300  0.22500400  0.29853700  1
  Cu  Cu22  1  0.42646700  0.55000600  0.20146300  1
  Cu  Cu23  1  0.65145700  0.94999400  0.37646100  1
  Cu  Cu24  1  0.62353900  0.77499600  0.57353300  1
  Cu  Cu25  1  0.57353300  0.62353900  0.77499600  1
  Cu  Cu26  1  0.77499600  0.57353300  0.62353900  1
  Cu  Cu27  1  0.79853700  0.72500400  0.34854300  1
  Cu  Cu28  1  0.92646700  0.70146300  0.05000600  1
  Cu  Cu29  1  0.44999400  0.15145700  0.87646100  1
  Si  Si30  1  0.41151800  0.41151800  0.41151800  1
  Si  Si31  1  0.50000000  0.00000000  0.58848200  1
  Si  Si32  1  0.58848200  0.50000000  0.00000000  1
  Si  Si33  1  0.00000000  0.58848200  0.50000000  1
  Si  Si34  1  0.08848200  0.50000000  0.00000000  1
  Si  Si35  1  0.00000000  0.08848200  0.50000000  1
  Si  Si36  1  0.50000000  0.00000000  0.08848200  1
  Si  Si37  1  0.91151800  0.91151800  0.91151800  1
