# generated using pymatgen
data_NaLiNiPO4F
_symmetry_space_group_name_H-M   'P 1'
_cell_length_a   11.29737400
_cell_length_b   5.07851900
_cell_length_c   6.84765628
_cell_angle_alpha   89.73857398
_cell_angle_beta   90.00000000
_cell_angle_gamma   90.00000000
_symmetry_Int_Tables_number   1
_chemical_formula_structural   NaLiNiPO4F
_chemical_formula_sum   'Na4 Li4 Ni4 P4 O16 F4'
_cell_volume   392.87285225
_cell_formula_units_Z   4
loop_
 _symmetry_equiv_pos_site_id
 _symmetry_equiv_pos_as_xyz
  1  'x, y, z'
loop_
 _atom_site_type_symbol
 _atom_site_label
 _atom_site_symmetry_multiplicity
 _atom_site_fract_x
 _atom_site_fract_y
 _atom_site_fract_z
 _atom_site_occupancy
  Na  Na0  1  0.33489100  0.75180400  0.49029500  1
  Na  Na1  1  0.83489100  0.74819600  0.50970500  1
  Na  Na2  1  0.66510900  0.24819600  0.50970500  1
  Na  Na3  1  0.16510900  0.25180400  0.49029500  1
  Li  Li4  1  0.41838000  0.26599000  0.25513400  1
  Li  Li5  1  0.91838000  0.23401000  0.74486600  1
  Li  Li6  1  0.58162000  0.73401000  0.74486600  1
  Li  Li7  1  0.08162000  0.76599000  0.25513400  1
  Ni  Ni8  1  0.32786900  0.73422300  0.01969300  1
  Ni  Ni9  1  0.82786900  0.76577700  0.98030700  1
  Ni  Ni10  1  0.67213100  0.26577700  0.98030700  1
  Ni  Ni11  1  0.17213100  0.23422300  0.01969300  1
  P  P12  1  0.08181000  0.72561700  0.75649200  1
  P  P13  1  0.58181000  0.77438300  0.24350800  1
  P  P14  1  0.91819000  0.27438300  0.24350800  1
  P  P15  1  0.41819000  0.22561700  0.75649200  1
  O  O16  1  0.37580300  0.26256800  0.54444400  1
  O  O17  1  0.87580300  0.23743200  0.45555600  1
  O  O18  1  0.62419700  0.73743200  0.45555600  1
  O  O19  1  0.12419700  0.76256800  0.54444400  1
  O  O20  1  0.17095200  0.86327500  0.89770600  1
  O  O21  1  0.67095200  0.63672500  0.10229400  1
  O  O22  1  0.82904800  0.13672500  0.10229400  1
  O  O23  1  0.32904800  0.36327500  0.89770600  1
  O  O24  1  0.42624400  0.92473600  0.80526400  1
  O  O25  1  0.92624400  0.57526400  0.19473600  1
  O  O26  1  0.57375600  0.07526400  0.19473600  1
  O  O27  1  0.07375600  0.42473600  0.80526400  1
  O  O28  1  0.54140700  0.35663400  0.78366700  1
  O  O29  1  0.04140700  0.14336600  0.21633300  1
  O  O30  1  0.45859300  0.64336600  0.21633300  1
  O  O31  1  0.95859300  0.85663400  0.78366700  1
  F  F32  1  0.28656300  0.03497900  0.21037700  1
  F  F33  1  0.78656300  0.46502100  0.78962300  1
  F  F34  1  0.71343700  0.96502100  0.78962300  1
  F  F35  1  0.21343700  0.53497900  0.21037700  1
