# generated using pymatgen
data_Tb2Re3Si5
_symmetry_space_group_name_H-M   'P 1'
_cell_length_a   10.99121800
_cell_length_b   10.99121800
_cell_length_c   5.57484100
_cell_angle_alpha   90.00000000
_cell_angle_beta   90.00000000
_cell_angle_gamma   90.00000000
_symmetry_Int_Tables_number   1
_chemical_formula_structural   Tb2Re3Si5
_chemical_formula_sum   'Tb8 Re12 Si20'
_cell_volume   673.47910937
_cell_formula_units_Z   4
loop_
 _symmetry_equiv_pos_site_id
 _symmetry_equiv_pos_as_xyz
  1  'x, y, z'
loop_
 _atom_site_type_symbol
 _atom_site_label
 _atom_site_symmetry_multiplicity
 _atom_site_fract_x
 _atom_site_fract_y
 _atom_site_fract_z
 _atom_site_occupancy
  Tb  Tb0  1  0.57689300  0.73767400  0.50000000  1
  Tb  Tb1  1  0.42310700  0.26232600  0.50000000  1
  Tb  Tb2  1  0.07689300  0.76232600  0.00000000  1
  Tb  Tb3  1  0.92310700  0.23767400  0.00000000  1
  Tb  Tb4  1  0.26232600  0.57689300  0.50000000  1
  Tb  Tb5  1  0.73767400  0.42310700  0.50000000  1
  Tb  Tb6  1  0.23767400  0.07689300  0.00000000  1
  Tb  Tb7  1  0.76232600  0.92310700  0.00000000  1
  Re  Re8  1  0.87558300  0.85305400  0.50000000  1
  Re  Re9  1  0.12441700  0.14694600  0.50000000  1
  Re  Re10  1  0.37558300  0.64694600  0.00000000  1
  Re  Re11  1  0.62441700  0.35305400  0.00000000  1
  Re  Re12  1  0.14694600  0.87558300  0.50000000  1
  Re  Re13  1  0.85305400  0.12441700  0.50000000  1
  Re  Re14  1  0.35305400  0.37558300  0.00000000  1
  Re  Re15  1  0.64694600  0.62441700  0.00000000  1
  Re  Re16  1  0.50000000  0.00000000  0.25000000  1
  Re  Re17  1  0.00000000  0.50000000  0.75000000  1
  Re  Re18  1  0.00000000  0.50000000  0.25000000  1
  Re  Re19  1  0.50000000  0.00000000  0.75000000  1
  Si  Si20  1  0.67298100  0.17298100  0.25000000  1
  Si  Si21  1  0.32701900  0.82701900  0.25000000  1
  Si  Si22  1  0.17298100  0.32701900  0.75000000  1
  Si  Si23  1  0.82701900  0.67298100  0.75000000  1
  Si  Si24  1  0.82701900  0.67298100  0.25000000  1
  Si  Si25  1  0.17298100  0.32701900  0.25000000  1
  Si  Si26  1  0.67298100  0.17298100  0.75000000  1
  Si  Si27  1  0.32701900  0.82701900  0.75000000  1
  Si  Si28  1  0.50000000  0.50000000  0.25340000  1
  Si  Si29  1  0.00000000  0.00000000  0.75340000  1
  Si  Si30  1  0.50000000  0.50000000  0.74660000  1
  Si  Si31  1  0.00000000  0.00000000  0.24660000  1
  Si  Si32  1  0.68496200  0.97330000  0.50000000  1
  Si  Si33  1  0.31503800  0.02670000  0.50000000  1
  Si  Si34  1  0.18496200  0.52670000  0.00000000  1
  Si  Si35  1  0.81503800  0.47330000  0.00000000  1
  Si  Si36  1  0.02670000  0.68496200  0.50000000  1
  Si  Si37  1  0.97330000  0.31503800  0.50000000  1
  Si  Si38  1  0.47330000  0.18496200  0.00000000  1
  Si  Si39  1  0.52670000  0.81503800  0.00000000  1
