# generated using pymatgen
data_K2LaTa5O15
_symmetry_space_group_name_H-M   'P 1'
_cell_length_a   12.71519500
_cell_length_b   12.71519500
_cell_length_c   3.95260500
_cell_angle_alpha   90.00000000
_cell_angle_beta   90.00000000
_cell_angle_gamma   90.00000000
_symmetry_Int_Tables_number   1
_chemical_formula_structural   K2LaTa5O15
_chemical_formula_sum   'K4 La2 Ta10 O30'
_cell_volume   639.04209282
_cell_formula_units_Z   2
loop_
 _symmetry_equiv_pos_site_id
 _symmetry_equiv_pos_as_xyz
  1  'x, y, z'
loop_
 _atom_site_type_symbol
 _atom_site_label
 _atom_site_symmetry_multiplicity
 _atom_site_fract_x
 _atom_site_fract_y
 _atom_site_fract_z
 _atom_site_occupancy
  K  K0  1  0.67096600  0.17096600  0.00000000  1
  K  K1  1  0.32903400  0.82903400  0.00000000  1
  K  K2  1  0.17096600  0.32903400  0.00000000  1
  K  K3  1  0.82903400  0.67096600  0.00000000  1
  La  La4  1  0.50000000  0.50000000  0.00000000  1
  La  La5  1  0.00000000  0.00000000  0.00000000  1
  Ta  Ta6  1  0.50000000  0.00000000  0.50000000  1
  Ta  Ta7  1  0.00000000  0.50000000  0.50000000  1
  Ta  Ta8  1  0.57524800  0.71456300  0.50000000  1
  Ta  Ta9  1  0.42475200  0.28543700  0.50000000  1
  Ta  Ta10  1  0.07524800  0.78543700  0.50000000  1
  Ta  Ta11  1  0.92475200  0.21456300  0.50000000  1
  Ta  Ta12  1  0.28543700  0.57524800  0.50000000  1
  Ta  Ta13  1  0.71456300  0.42475200  0.50000000  1
  Ta  Ta14  1  0.21456300  0.07524800  0.50000000  1
  Ta  Ta15  1  0.78543700  0.92475200  0.50000000  1
  O  O16  1  0.50000000  0.00000000  0.00000000  1
  O  O17  1  0.00000000  0.50000000  0.00000000  1
  O  O18  1  0.78502600  0.28502600  0.50000000  1
  O  O19  1  0.21497400  0.71497400  0.50000000  1
  O  O20  1  0.28502600  0.21497400  0.50000000  1
  O  O21  1  0.71497400  0.78502600  0.50000000  1
  O  O22  1  0.57539500  0.69647300  0.00000000  1
  O  O23  1  0.42460500  0.30352700  0.00000000  1
  O  O24  1  0.07539500  0.80352700  0.00000000  1
  O  O25  1  0.92460500  0.19647300  0.00000000  1
  O  O26  1  0.30352700  0.57539500  0.00000000  1
  O  O27  1  0.69647300  0.42460500  0.00000000  1
  O  O28  1  0.19647300  0.07539500  0.00000000  1
  O  O29  1  0.80352700  0.92460500  0.00000000  1
  O  O30  1  0.84294400  0.50261000  0.50000000  1
  O  O31  1  0.15705600  0.49739000  0.50000000  1
  O  O32  1  0.34294400  0.99739000  0.50000000  1
  O  O33  1  0.65705600  0.00261000  0.50000000  1
  O  O34  1  0.49739000  0.84294400  0.50000000  1
  O  O35  1  0.50261000  0.15705600  0.50000000  1
  O  O36  1  0.00261000  0.34294400  0.50000000  1
  O  O37  1  0.99739000  0.65705600  0.50000000  1
  O  O38  1  0.63279200  0.56256100  0.50000000  1
  O  O39  1  0.36720800  0.43743900  0.50000000  1
  O  O40  1  0.13279200  0.93743900  0.50000000  1
  O  O41  1  0.86720800  0.06256100  0.50000000  1
  O  O42  1  0.43743900  0.63279200  0.50000000  1
  O  O43  1  0.56256100  0.36720800  0.50000000  1
  O  O44  1  0.06256100  0.13279200  0.50000000  1
  O  O45  1  0.93743900  0.86720800  0.50000000  1
