# generated using pymatgen
data_Al21Pd8
_symmetry_space_group_name_H-M   'P 1'
_cell_length_a   10.70356197
_cell_length_b   10.70356197
_cell_length_c   10.70356197
_cell_angle_alpha   104.67800612
_cell_angle_beta   104.67800612
_cell_angle_gamma   119.55288805
_symmetry_Int_Tables_number   1
_chemical_formula_structural   Al21Pd8
_chemical_formula_sum   'Al42 Pd16'
_cell_volume   921.72759265
_cell_formula_units_Z   2
loop_
 _symmetry_equiv_pos_site_id
 _symmetry_equiv_pos_as_xyz
  1  'x, y, z'
loop_
 _atom_site_type_symbol
 _atom_site_label
 _atom_site_symmetry_multiplicity
 _atom_site_fract_x
 _atom_site_fract_y
 _atom_site_fract_z
 _atom_site_occupancy
  Al  Al0  1  0.00000000  0.00000000  0.00000000  1
  Al  Al1  1  0.25000000  0.75000000  0.50000000  1
  Al  Al2  1  0.68970300  0.54661200  0.03562200  1
  Al  Al3  1  0.79661200  0.26099000  0.35690900  1
  Al  Al4  1  0.90408100  0.43970300  0.64309100  1
  Al  Al5  1  0.51099000  0.65408100  0.96437800  1
  Al  Al6  1  0.56029700  0.20338800  0.46437800  1
  Al  Al7  1  0.45338800  0.48901000  0.14309100  1
  Al  Al8  1  0.34591900  0.31029700  0.85690900  1
  Al  Al9  1  0.73901000  0.09591900  0.53562200  1
  Al  Al10  1  0.63821200  0.80359400  0.33883400  1
  Al  Al11  1  0.05359400  0.21476000  0.66538200  1
  Al  Al12  1  0.54937800  0.38821200  0.33461800  1
  Al  Al13  1  0.46476000  0.29937800  0.66116600  1
  Al  Al14  1  0.61178800  0.94640600  0.16116600  1
  Al  Al15  1  0.19640600  0.53524000  0.83461800  1
  Al  Al16  1  0.70062200  0.36178800  0.16538200  1
  Al  Al17  1  0.78524000  0.45062200  0.83883400  1
  Al  Al18  1  0.76478700  0.75779300  0.57221000  1
  Al  Al19  1  0.00779300  0.93558400  0.49300600  1
  Al  Al20  1  0.44257700  0.51478700  0.50699400  1
  Al  Al21  1  0.18558400  0.19257700  0.42779000  1
  Al  Al22  1  0.48521300  0.99220700  0.92779000  1
  Al  Al23  1  0.24220700  0.81441600  0.00699400  1
  Al  Al24  1  0.80742300  0.23521300  0.99300600  1
  Al  Al25  1  0.06441600  0.55742300  0.07221000  1
  Al  Al26  1  0.98882500  0.76198600  0.79127300  1
  Al  Al27  1  0.01198600  0.72071300  0.27316100  1
  Al  Al28  1  0.44755200  0.73882500  0.72683900  1
  Al  Al29  1  0.97071300  0.19755200  0.20872700  1
  Al  Al30  1  0.26117500  0.98801400  0.70872700  1
  Al  Al31  1  0.23801400  0.02928700  0.22683900  1
  Al  Al32  1  0.80244800  0.01117500  0.77316100  1
  Al  Al33  1  0.27928700  0.55244800  0.29127300  1
  Al  Al34  1  0.70095400  0.67973000  0.83420900  1
  Al  Al35  1  0.92973000  0.59552100  0.47877600  1
  Al  Al36  1  0.11674500  0.45095400  0.52122400  1
  Al  Al37  1  0.84552100  0.86674500  0.16579100  1
  Al  Al38  1  0.54904600  0.07027000  0.66579100  1
  Al  Al39  1  0.32027000  0.15447900  0.02122400  1
  Al  Al40  1  0.13325500  0.29904600  0.97877600  1
  Al  Al41  1  0.40447900  0.88325500  0.33420900  1
  Pd  Pd42  1  0.53583900  0.81232300  0.53749800  1
  Pd  Pd43  1  0.06232300  0.02482400  0.77648300  1
  Pd  Pd44  1  0.24834100  0.28583900  0.22351700  1
  Pd  Pd45  1  0.27482400  0.99834100  0.46250200  1
  Pd  Pd46  1  0.71416100  0.93767700  0.96250200  1
  Pd  Pd47  1  0.18767700  0.72517600  0.72351700  1
  Pd  Pd48  1  0.00165900  0.46416100  0.27648300  1
  Pd  Pd49  1  0.97517600  0.75165900  0.03749800  1
  Pd  Pd50  1  0.49302100  0.10708500  0.18603900  1
  Pd  Pd51  1  0.35708500  0.67104700  0.11406400  1
  Pd  Pd52  1  0.55698300  0.24302100  0.88593600  1
  Pd  Pd53  1  0.92104700  0.30698300  0.81396100  1
  Pd  Pd54  1  0.75697900  0.64291500  0.31396100  1
  Pd  Pd55  1  0.89291500  0.07895300  0.38593600  1
  Pd  Pd56  1  0.69301700  0.50697900  0.61406400  1
  Pd  Pd57  1  0.32895300  0.44301700  0.68603900  1
