# generated using pymatgen
data_KBaMnO4
_symmetry_space_group_name_H-M   'P 1'
_cell_length_a   5.91411100
_cell_length_b   7.91167400
_cell_length_c   10.44420000
_cell_angle_alpha   90.00000000
_cell_angle_beta   90.00000000
_cell_angle_gamma   90.00000000
_symmetry_Int_Tables_number   1
_chemical_formula_structural   KBaMnO4
_chemical_formula_sum   'K4 Ba4 Mn4 O16'
_cell_volume   488.68953052
_cell_formula_units_Z   4
loop_
 _symmetry_equiv_pos_site_id
 _symmetry_equiv_pos_as_xyz
  1  'x, y, z'
loop_
 _atom_site_type_symbol
 _atom_site_label
 _atom_site_symmetry_multiplicity
 _atom_site_fract_x
 _atom_site_fract_y
 _atom_site_fract_z
 _atom_site_occupancy
  K  K0  1  0.75000000  0.66007700  0.08139000  1
  K  K1  1  0.75000000  0.16007700  0.41861000  1
  K  K2  1  0.25000000  0.33992300  0.91861000  1
  K  K3  1  0.25000000  0.83992300  0.58139000  1
  Ba  Ba4  1  0.75000000  0.99222200  0.80778000  1
  Ba  Ba5  1  0.75000000  0.49222200  0.69222000  1
  Ba  Ba6  1  0.25000000  0.00777800  0.19222000  1
  Ba  Ba7  1  0.25000000  0.50777800  0.30778000  1
  Mn  Mn8  1  0.75000000  0.23228400  0.08191300  1
  Mn  Mn9  1  0.75000000  0.73228400  0.41808700  1
  Mn  Mn10  1  0.25000000  0.76771600  0.91808700  1
  Mn  Mn11  1  0.25000000  0.26771600  0.58191300  1
  O  O12  1  0.75000000  0.30422700  0.92578800  1
  O  O13  1  0.75000000  0.80422700  0.57421200  1
  O  O14  1  0.25000000  0.69577300  0.07421200  1
  O  O15  1  0.25000000  0.19577300  0.42578800  1
  O  O16  1  0.98997200  0.30087500  0.15834800  1
  O  O17  1  0.51002800  0.80087500  0.34165200  1
  O  O18  1  0.48997200  0.69912500  0.84165200  1
  O  O19  1  0.01002800  0.19912500  0.65834800  1
  O  O20  1  0.01002800  0.69912500  0.84165200  1
  O  O21  1  0.48997200  0.19912500  0.65834800  1
  O  O22  1  0.51002800  0.30087500  0.15834800  1
  O  O23  1  0.98997200  0.80087500  0.34165200  1
  O  O24  1  0.75000000  0.01549000  0.07934700  1
  O  O25  1  0.75000000  0.51549000  0.42065300  1
  O  O26  1  0.25000000  0.98451000  0.92065300  1
  O  O27  1  0.25000000  0.48451000  0.57934700  1
