# generated using pymatgen
data_Ba2VN3
_symmetry_space_group_name_H-M   'P 1'
_cell_length_a   6.57357298
_cell_length_b   6.57357298
_cell_length_c   13.08797000
_cell_angle_alpha   90.00000000
_cell_angle_beta   90.00000000
_cell_angle_gamma   126.28412693
_symmetry_Int_Tables_number   1
_chemical_formula_structural   Ba2VN3
_chemical_formula_sum   'Ba8 V4 N12'
_cell_volume   455.88995247
_cell_formula_units_Z   4
loop_
 _symmetry_equiv_pos_site_id
 _symmetry_equiv_pos_as_xyz
  1  'x, y, z'
loop_
 _atom_site_type_symbol
 _atom_site_label
 _atom_site_symmetry_multiplicity
 _atom_site_fract_x
 _atom_site_fract_y
 _atom_site_fract_z
 _atom_site_occupancy
  Ba  Ba0  1  0.85836700  0.14163300  0.42176800  1
  Ba  Ba1  1  0.35836700  0.64163300  0.07823200  1
  Ba  Ba2  1  0.64163300  0.35836700  0.92176800  1
  Ba  Ba3  1  0.14163300  0.85836700  0.57823200  1
  Ba  Ba4  1  0.44369900  0.55630100  0.64506100  1
  Ba  Ba5  1  0.55630100  0.44369900  0.35493900  1
  Ba  Ba6  1  0.05630100  0.94369900  0.14506100  1
  Ba  Ba7  1  0.94369900  0.05630100  0.85493900  1
  V  V8  1  0.75628100  0.24371900  0.66762000  1
  V  V9  1  0.74371900  0.25628100  0.16762000  1
  V  V10  1  0.24371900  0.75628100  0.33238000  1
  V  V11  1  0.25628100  0.74371900  0.83238000  1
  N  N12  1  0.97570100  0.52429900  0.75000000  1
  N  N13  1  0.52429900  0.97570100  0.25000000  1
  N  N14  1  0.02429900  0.47570100  0.25000000  1
  N  N15  1  0.47570100  0.02429900  0.75000000  1
  N  N16  1  0.40498100  0.59501900  0.86647000  1
  N  N17  1  0.59501900  0.40498100  0.13353000  1
  N  N18  1  0.09501900  0.90498100  0.36647000  1
  N  N19  1  0.66684100  0.33315900  0.55720300  1
  N  N20  1  0.16684100  0.83315900  0.94279700  1
  N  N21  1  0.83315900  0.16684100  0.05720300  1
  N  N22  1  0.33315900  0.66684100  0.44279700  1
  N  N23  1  0.90498100  0.09501900  0.63353000  1
