# generated using pymatgen
data_PmGe3
_symmetry_space_group_name_H-M   'P 1'
_cell_length_a   6.20295422
_cell_length_b   6.20295422
_cell_length_c   5.12486800
_cell_angle_alpha   90.00000000
_cell_angle_beta   90.00000000
_cell_angle_gamma   120.00000238
_symmetry_Int_Tables_number   1
_chemical_formula_structural   PmGe3
_chemical_formula_sum   'Pm2 Ge6'
_cell_volume   170.76955921
_cell_formula_units_Z   2
loop_
 _symmetry_equiv_pos_site_id
 _symmetry_equiv_pos_as_xyz
  1  'x, y, z'
loop_
 _atom_site_type_symbol
 _atom_site_label
 _atom_site_symmetry_multiplicity
 _atom_site_fract_x
 _atom_site_fract_y
 _atom_site_fract_z
 _atom_site_occupancy
  Pm  Pm0  1  0.33333300  0.66666700  0.75000000  1
  Pm  Pm1  1  0.66666700  0.33333300  0.25000000  1
  Ge  Ge2  1  0.14655300  0.29310700  0.25000000  1
  Ge  Ge3  1  0.70689300  0.85344700  0.25000000  1
  Ge  Ge4  1  0.14655300  0.85344700  0.25000000  1
  Ge  Ge5  1  0.85344700  0.70689300  0.75000000  1
  Ge  Ge6  1  0.29310700  0.14655300  0.75000000  1
  Ge  Ge7  1  0.85344700  0.14655300  0.75000000  1
