# generated using pymatgen
data_Rb2PrI5
_symmetry_space_group_name_H-M   'P 1'
_cell_length_a   9.54466600
_cell_length_b   10.06918600
_cell_length_c   15.14975600
_cell_angle_alpha   90.00000000
_cell_angle_beta   90.00000000
_cell_angle_gamma   90.00000000
_symmetry_Int_Tables_number   1
_chemical_formula_structural   Rb2PrI5
_chemical_formula_sum   'Rb8 Pr4 I20'
_cell_volume   1455.99786141
_cell_formula_units_Z   4
loop_
 _symmetry_equiv_pos_site_id
 _symmetry_equiv_pos_as_xyz
  1  'x, y, z'
loop_
 _atom_site_type_symbol
 _atom_site_label
 _atom_site_symmetry_multiplicity
 _atom_site_fract_x
 _atom_site_fract_y
 _atom_site_fract_z
 _atom_site_occupancy
  Rb  Rb0  1  0.94366800  0.00315800  0.82635200  1
  Rb  Rb1  1  0.05633200  0.99684200  0.17364800  1
  Rb  Rb2  1  0.44366800  0.99684200  0.67364800  1
  Rb  Rb3  1  0.05633200  0.50315800  0.17364800  1
  Rb  Rb4  1  0.55633200  0.00315800  0.32635200  1
  Rb  Rb5  1  0.94366800  0.49684200  0.82635200  1
  Rb  Rb6  1  0.55633200  0.49684200  0.32635200  1
  Rb  Rb7  1  0.44366800  0.50315800  0.67364800  1
  Pr  Pr8  1  0.92200500  0.75000000  0.50484100  1
  Pr  Pr9  1  0.07799500  0.25000000  0.49515900  1
  Pr  Pr10  1  0.42200500  0.25000000  0.99515900  1
  Pr  Pr11  1  0.57799500  0.75000000  0.00484100  1
  I  I12  1  0.12221400  0.75000000  0.67524200  1
  I  I13  1  0.87778600  0.25000000  0.32475800  1
  I  I14  1  0.62221400  0.25000000  0.82475800  1
  I  I15  1  0.37778600  0.75000000  0.17524200  1
  I  I16  1  0.83639700  0.04488400  0.57372000  1
  I  I17  1  0.16360300  0.95511600  0.42628000  1
  I  I18  1  0.33639700  0.95511600  0.92628000  1
  I  I19  1  0.16360300  0.54488400  0.42628000  1
  I  I20  1  0.66360300  0.04488400  0.07372000  1
  I  I21  1  0.83639700  0.45511600  0.57372000  1
  I  I22  1  0.66360300  0.45511600  0.07372000  1
  I  I23  1  0.33639700  0.54488400  0.92628000  1
  I  I24  1  0.58211500  0.75000000  0.51029600  1
  I  I25  1  0.41788500  0.25000000  0.48970400  1
  I  I26  1  0.08211500  0.25000000  0.98970400  1
  I  I27  1  0.91788500  0.75000000  0.01029600  1
  I  I28  1  0.65810500  0.75000000  0.79971800  1
  I  I29  1  0.34189500  0.25000000  0.20028200  1
  I  I30  1  0.15810500  0.25000000  0.70028200  1
  I  I31  1  0.84189500  0.75000000  0.29971800  1
