# generated using pymatgen
data_DyGa2Ni
_symmetry_space_group_name_H-M   'P 1'
_cell_length_a   5.41425737
_cell_length_b   5.41425737
_cell_length_c   6.56450900
_cell_angle_alpha   90.00000000
_cell_angle_beta   90.00000000
_cell_angle_gamma   135.09751831
_symmetry_Int_Tables_number   1
_chemical_formula_structural   DyGa2Ni
_chemical_formula_sum   'Dy2 Ga4 Ni2'
_cell_volume   135.83904123
_cell_formula_units_Z   2
loop_
 _symmetry_equiv_pos_site_id
 _symmetry_equiv_pos_as_xyz
  1  'x, y, z'
loop_
 _atom_site_type_symbol
 _atom_site_label
 _atom_site_symmetry_multiplicity
 _atom_site_fract_x
 _atom_site_fract_y
 _atom_site_fract_z
 _atom_site_occupancy
  Dy  Dy0  1  0.57577800  0.42422200  0.25000000  1
  Dy  Dy1  1  0.42422200  0.57577800  0.75000000  1
  Ga  Ga2  1  0.85932700  0.14067300  0.44688900  1
  Ga  Ga3  1  0.14067300  0.85932700  0.55311100  1
  Ga  Ga4  1  0.85932700  0.14067300  0.05311100  1
  Ga  Ga5  1  0.14067300  0.85932700  0.94688900  1
  Ni  Ni6  1  0.29396300  0.70603700  0.25000000  1
  Ni  Ni7  1  0.70603700  0.29396300  0.75000000  1
