# generated using pymatgen
data_RbHSO4
_symmetry_space_group_name_H-M   'P 1'
_cell_length_a   4.68544100
_cell_length_b   14.68406400
_cell_length_c   15.14832497
_cell_angle_alpha   59.30849384
_cell_angle_beta   90.00000000
_cell_angle_gamma   90.00000000
_symmetry_Int_Tables_number   1
_chemical_formula_structural   RbHSO4
_chemical_formula_sum   'Rb8 H8 S8 O32'
_cell_volume   896.23813488
_cell_formula_units_Z   8
loop_
 _symmetry_equiv_pos_site_id
 _symmetry_equiv_pos_as_xyz
  1  'x, y, z'
loop_
 _atom_site_type_symbol
 _atom_site_label
 _atom_site_symmetry_multiplicity
 _atom_site_fract_x
 _atom_site_fract_y
 _atom_site_fract_z
 _atom_site_occupancy
  Rb  Rb0  1  0.35932700  0.87729500  0.91573700  1
  Rb  Rb1  1  0.14067300  0.87729500  0.41573700  1
  Rb  Rb2  1  0.64067300  0.12270500  0.08426300  1
  Rb  Rb3  1  0.85932700  0.12270500  0.58426300  1
  Rb  Rb4  1  0.70219600  0.62461600  0.33603800  1
  Rb  Rb5  1  0.79780400  0.62461600  0.83603800  1
  Rb  Rb6  1  0.29780400  0.37538400  0.66396200  1
  Rb  Rb7  1  0.20219600  0.37538400  0.16396200  1
  H  H8  1  0.19273600  0.62358200  0.13769000  1
  H  H9  1  0.30726400  0.62358200  0.63769000  1
  H  H10  1  0.80726400  0.37641800  0.86231000  1
  H  H11  1  0.69273600  0.37641800  0.36231000  1
  H  H12  1  0.80868000  0.87006200  0.11163800  1
  H  H13  1  0.69132000  0.87006200  0.61163800  1
  H  H14  1  0.19132000  0.12993800  0.88836200  1
  H  H15  1  0.30868000  0.12993800  0.38836200  1
  S  S16  1  0.75999900  0.62797400  0.07829400  1
  S  S17  1  0.74000100  0.62797400  0.57829400  1
  S  S18  1  0.24000100  0.37202600  0.92170600  1
  S  S19  1  0.25999900  0.37202600  0.42170600  1
  S  S20  1  0.21696200  0.87624200  0.17307900  1
  S  S21  1  0.28303800  0.87624200  0.67307900  1
  S  S22  1  0.78303800  0.12375800  0.82692100  1
  S  S23  1  0.71696200  0.12375800  0.32692100  1
  O  O24  1  0.99667400  0.59225100  0.16608700  1
  O  O25  1  0.50332600  0.59225100  0.66608700  1
  O  O26  1  0.00332600  0.40774900  0.83391300  1
  O  O27  1  0.49667400  0.40774900  0.33391300  1
  O  O28  1  0.51779400  0.66249700  0.11706900  1
  O  O29  1  0.98220600  0.66249700  0.61706900  1
  O  O30  1  0.48220600  0.33750300  0.88293100  1
  O  O31  1  0.01779400  0.33750300  0.38293100  1
  O  O32  1  0.88162200  0.71468600  0.98322200  1
  O  O33  1  0.61837800  0.71468600  0.48322200  1
  O  O34  1  0.11837800  0.28531400  0.01677800  1
  O  O35  1  0.38162200  0.28531400  0.51677800  1
  O  O36  1  0.69401200  0.53344300  0.07260600  1
  O  O37  1  0.80598800  0.53344300  0.57260600  1
  O  O38  1  0.30598800  0.46655700  0.92739400  1
  O  O39  1  0.19401200  0.46655700  0.42739400  1
  O  O40  1  0.11330400  0.96860100  0.17667400  1
  O  O41  1  0.38669600  0.96860100  0.67667400  1
  O  O42  1  0.88669600  0.03139900  0.82332600  1
  O  O43  1  0.61330400  0.03139900  0.32332600  1
  O  O44  1  0.49538700  0.89486500  0.12216800  1
  O  O45  1  0.00461300  0.89486500  0.62216800  1
  O  O46  1  0.50461300  0.10513500  0.87783200  1
  O  O47  1  0.99538700  0.10513500  0.37783200  1
  O  O48  1  0.20459000  0.77805900  0.27348400  1
  O  O49  1  0.29541000  0.77805900  0.77348400  1
  O  O50  1  0.79541000  0.22194100  0.72651600  1
  O  O51  1  0.70459000  0.22194100  0.22651600  1
  O  O52  1  0.01497700  0.86154200  0.09669200  1
  O  O53  1  0.48502300  0.86154200  0.59669200  1
  O  O54  1  0.98502300  0.13845800  0.90330800  1
  O  O55  1  0.51497700  0.13845800  0.40330800  1
