# generated using pymatgen
data_Bi2PdPt
_symmetry_space_group_name_H-M   'P 1'
_cell_length_a   4.36804394
_cell_length_b   4.36804394
_cell_length_c   5.66779700
_cell_angle_alpha   90.00000000
_cell_angle_beta   90.00000000
_cell_angle_gamma   119.99999910
_symmetry_Int_Tables_number   1
_chemical_formula_structural   Bi2PdPt
_chemical_formula_sum   'Bi2 Pd1 Pt1'
_cell_volume   93.65240179
_cell_formula_units_Z   1
loop_
 _symmetry_equiv_pos_site_id
 _symmetry_equiv_pos_as_xyz
  1  'x, y, z'
loop_
 _atom_site_type_symbol
 _atom_site_label
 _atom_site_symmetry_multiplicity
 _atom_site_fract_x
 _atom_site_fract_y
 _atom_site_fract_z
 _atom_site_occupancy
  Bi  Bi0  1  0.33333300  0.66666700  0.24229600  1
  Bi  Bi1  1  0.66666700  0.33333300  0.75770400  1
  Pd  Pd2  1  0.00000000  0.00000000  0.50000000  1
  Pt  Pt3  1  0.00000000  0.00000000  0.00000000  1
