# generated using pymatgen
data_Sc5Ge4
_symmetry_space_group_name_H-M   'P 1'
_cell_length_a   7.18964500
_cell_length_b   7.27202700
_cell_length_c   13.81743000
_cell_angle_alpha   90.00000000
_cell_angle_beta   90.00000000
_cell_angle_gamma   90.00000000
_symmetry_Int_Tables_number   1
_chemical_formula_structural   Sc5Ge4
_chemical_formula_sum   'Sc20 Ge16'
_cell_volume   722.42073512
_cell_formula_units_Z   4
loop_
 _symmetry_equiv_pos_site_id
 _symmetry_equiv_pos_as_xyz
  1  'x, y, z'
loop_
 _atom_site_type_symbol
 _atom_site_label
 _atom_site_symmetry_multiplicity
 _atom_site_fract_x
 _atom_site_fract_y
 _atom_site_fract_z
 _atom_site_occupancy
  Sc  Sc0  1  0.62127300  0.16264900  0.61874900  1
  Sc  Sc1  1  0.12127300  0.33735100  0.88125100  1
  Sc  Sc2  1  0.37872700  0.83735100  0.11874900  1
  Sc  Sc3  1  0.87872700  0.66264900  0.38125100  1
  Sc  Sc4  1  0.37872700  0.83735100  0.38125100  1
  Sc  Sc5  1  0.87872700  0.66264900  0.11874900  1
  Sc  Sc6  1  0.62127300  0.16264900  0.88125100  1
  Sc  Sc7  1  0.12127300  0.33735100  0.61874900  1
  Sc  Sc8  1  0.47281700  0.67820100  0.60011600  1
  Sc  Sc9  1  0.97281700  0.82179900  0.89988400  1
  Sc  Sc10  1  0.52718300  0.32179900  0.10011600  1
  Sc  Sc11  1  0.02718300  0.17820100  0.39988400  1
  Sc  Sc12  1  0.52718300  0.32179900  0.39988400  1
  Sc  Sc13  1  0.02718300  0.17820100  0.10011600  1
  Sc  Sc14  1  0.47281700  0.67820100  0.89988400  1
  Sc  Sc15  1  0.97281700  0.82179900  0.60011600  1
  Sc  Sc16  1  0.78951000  0.49737300  0.75000000  1
  Sc  Sc17  1  0.28951000  0.00262700  0.75000000  1
  Sc  Sc18  1  0.21049000  0.50262700  0.25000000  1
  Sc  Sc19  1  0.71049000  0.99737300  0.25000000  1
  Ge  Ge20  1  0.71831300  0.96797100  0.45648100  1
  Ge  Ge21  1  0.21831300  0.53202900  0.04351900  1
  Ge  Ge22  1  0.28168700  0.03202900  0.95648100  1
  Ge  Ge23  1  0.78168700  0.46797100  0.54351900  1
  Ge  Ge24  1  0.28168700  0.03202900  0.54351900  1
  Ge  Ge25  1  0.78168700  0.46797100  0.95648100  1
  Ge  Ge26  1  0.71831300  0.96797100  0.04351900  1
  Ge  Ge27  1  0.21831300  0.53202900  0.45648100  1
  Ge  Ge28  1  0.42128600  0.37988200  0.75000000  1
  Ge  Ge29  1  0.92128600  0.12011800  0.75000000  1
  Ge  Ge30  1  0.57871400  0.62011800  0.25000000  1
  Ge  Ge31  1  0.07871400  0.87988200  0.25000000  1
  Ge  Ge32  1  0.66521700  0.85991900  0.75000000  1
  Ge  Ge33  1  0.16521700  0.64008100  0.75000000  1
  Ge  Ge34  1  0.33478300  0.14008100  0.25000000  1
  Ge  Ge35  1  0.83478300  0.35991900  0.25000000  1
