# generated using pymatgen
data_MoCl6
_symmetry_space_group_name_H-M   'P 1'
_cell_length_a   11.17956226
_cell_length_b   11.17956226
_cell_length_c   5.89396300
_cell_angle_alpha   90.00000000
_cell_angle_beta   90.00000000
_cell_angle_gamma   120.00000156
_symmetry_Int_Tables_number   1
_chemical_formula_structural   MoCl6
_chemical_formula_sum   'Mo3 Cl18'
_cell_volume   637.95144900
_cell_formula_units_Z   3
loop_
 _symmetry_equiv_pos_site_id
 _symmetry_equiv_pos_as_xyz
  1  'x, y, z'
loop_
 _atom_site_type_symbol
 _atom_site_label
 _atom_site_symmetry_multiplicity
 _atom_site_fract_x
 _atom_site_fract_y
 _atom_site_fract_z
 _atom_site_occupancy
  Mo  Mo0  1  0.00000000  0.00000000  0.00000000  1
  Mo  Mo1  1  0.33333300  0.66666700  0.50431300  1
  Mo  Mo2  1  0.66666700  0.33333300  0.49568700  1
  Cl  Cl3  1  0.09758500  0.90241500  0.77306300  1
  Cl  Cl4  1  0.80482900  0.90241500  0.77306300  1
  Cl  Cl5  1  0.09758500  0.19517100  0.77306300  1
  Cl  Cl6  1  0.90241500  0.09758500  0.22693700  1
  Cl  Cl7  1  0.19517100  0.09758500  0.22693700  1
  Cl  Cl8  1  0.90241500  0.80482900  0.22693700  1
  Cl  Cl9  1  0.23577100  0.76422900  0.27742000  1
  Cl  Cl10  1  0.52845900  0.76422900  0.27742000  1
  Cl  Cl11  1  0.23577100  0.47154100  0.27742000  1
  Cl  Cl12  1  0.76422900  0.23577100  0.72258000  1
  Cl  Cl13  1  0.47154100  0.23577100  0.72258000  1
  Cl  Cl14  1  0.76422900  0.52845900  0.72258000  1
  Cl  Cl15  1  0.43100000  0.56900000  0.73096200  1
  Cl  Cl16  1  0.13800000  0.56900000  0.73096200  1
  Cl  Cl17  1  0.43100000  0.86200000  0.73096200  1
  Cl  Cl18  1  0.56900000  0.43100000  0.26903800  1
  Cl  Cl19  1  0.86200000  0.43100000  0.26903800  1
  Cl  Cl20  1  0.56900000  0.13800000  0.26903800  1
