# generated using pymatgen
data_Pr5(Sn5Rh2)2
_symmetry_space_group_name_H-M   'P 1'
_cell_length_a   14.27374900
_cell_length_b   14.27374900
_cell_length_c   4.65536100
_cell_angle_alpha   90.00000000
_cell_angle_beta   90.00000000
_cell_angle_gamma   90.00000000
_symmetry_Int_Tables_number   1
_chemical_formula_structural   Pr5(Sn5Rh2)2
_chemical_formula_sum   'Pr10 Sn20 Rh8'
_cell_volume   948.48283356
_cell_formula_units_Z   2
loop_
 _symmetry_equiv_pos_site_id
 _symmetry_equiv_pos_as_xyz
  1  'x, y, z'
loop_
 _atom_site_type_symbol
 _atom_site_label
 _atom_site_symmetry_multiplicity
 _atom_site_fract_x
 _atom_site_fract_y
 _atom_site_fract_z
 _atom_site_occupancy
  Pr  Pr0  1  0.50000000  0.50000000  0.00000000  1
  Pr  Pr1  1  0.00000000  0.00000000  0.00000000  1
  Pr  Pr2  1  0.67794800  0.17794800  0.50000000  1
  Pr  Pr3  1  0.32205200  0.82205200  0.50000000  1
  Pr  Pr4  1  0.17794800  0.32205200  0.50000000  1
  Pr  Pr5  1  0.82205200  0.67794800  0.50000000  1
  Pr  Pr6  1  0.88798100  0.38798100  0.50000000  1
  Pr  Pr7  1  0.11201900  0.61201900  0.50000000  1
  Pr  Pr8  1  0.38798100  0.11201900  0.50000000  1
  Pr  Pr9  1  0.61201900  0.88798100  0.50000000  1
  Sn  Sn10  1  0.56935100  0.06935100  0.00000000  1
  Sn  Sn11  1  0.43064900  0.93064900  0.00000000  1
  Sn  Sn12  1  0.06935100  0.43064900  0.00000000  1
  Sn  Sn13  1  0.93064900  0.56935100  0.00000000  1
  Sn  Sn14  1  0.65409800  0.69758700  0.00000000  1
  Sn  Sn15  1  0.34590200  0.30241300  0.00000000  1
  Sn  Sn16  1  0.15409800  0.80241300  0.00000000  1
  Sn  Sn17  1  0.84590200  0.19758700  0.00000000  1
  Sn  Sn18  1  0.30241300  0.65409800  0.00000000  1
  Sn  Sn19  1  0.69758700  0.34590200  0.00000000  1
  Sn  Sn20  1  0.19758700  0.15409800  0.00000000  1
  Sn  Sn21  1  0.80241300  0.84590200  0.00000000  1
  Sn  Sn22  1  0.66376100  0.50492700  0.50000000  1
  Sn  Sn23  1  0.33623900  0.49507300  0.50000000  1
  Sn  Sn24  1  0.16376100  0.99507300  0.50000000  1
  Sn  Sn25  1  0.83623900  0.00492700  0.50000000  1
  Sn  Sn26  1  0.49507300  0.66376100  0.50000000  1
  Sn  Sn27  1  0.50492700  0.33623900  0.50000000  1
  Sn  Sn28  1  0.00492700  0.16376100  0.50000000  1
  Sn  Sn29  1  0.99507300  0.83623900  0.50000000  1
  Rh  Rh30  1  0.74624800  0.52763800  0.00000000  1
  Rh  Rh31  1  0.25375200  0.47236200  0.00000000  1
  Rh  Rh32  1  0.24624800  0.97236200  0.00000000  1
  Rh  Rh33  1  0.75375200  0.02763800  0.00000000  1
  Rh  Rh34  1  0.47236200  0.74624800  0.00000000  1
  Rh  Rh35  1  0.52763800  0.25375200  0.00000000  1
  Rh  Rh36  1  0.02763800  0.24624800  0.00000000  1
  Rh  Rh37  1  0.97236200  0.75375200  0.00000000  1
