# generated using pymatgen
data_CsPr(NbBr3)6
_symmetry_space_group_name_H-M   'P 1'
_cell_length_a   10.00797064
_cell_length_b   10.00797064
_cell_length_c   18.69407700
_cell_angle_alpha   90.00000000
_cell_angle_beta   90.00000000
_cell_angle_gamma   120.00000423
_symmetry_Int_Tables_number   1
_chemical_formula_structural   CsPr(NbBr3)6
_chemical_formula_sum   'Cs2 Pr2 Nb12 Br36'
_cell_volume   1621.53633856
_cell_formula_units_Z   2
loop_
 _symmetry_equiv_pos_site_id
 _symmetry_equiv_pos_as_xyz
  1  'x, y, z'
loop_
 _atom_site_type_symbol
 _atom_site_label
 _atom_site_symmetry_multiplicity
 _atom_site_fract_x
 _atom_site_fract_y
 _atom_site_fract_z
 _atom_site_occupancy
  Cs  Cs0  1  0.33333300  0.66666700  0.75000000  1
  Cs  Cs1  1  0.66666700  0.33333300  0.25000000  1
  Pr  Pr2  1  0.66666700  0.33333300  0.75000000  1
  Pr  Pr3  1  0.33333300  0.66666700  0.25000000  1
  Nb  Nb4  1  0.85094800  0.03757700  0.56449400  1
  Nb  Nb5  1  0.14905200  0.96242300  0.43550600  1
  Nb  Nb6  1  0.96242300  0.81337100  0.56449400  1
  Nb  Nb7  1  0.85094800  0.81337100  0.93550600  1
  Nb  Nb8  1  0.03757700  0.18662900  0.43550600  1
  Nb  Nb9  1  0.14905200  0.18662900  0.06449400  1
  Nb  Nb10  1  0.18662900  0.14905200  0.56449400  1
  Nb  Nb11  1  0.96242300  0.14905200  0.93550600  1
  Nb  Nb12  1  0.81337100  0.85094800  0.43550600  1
  Nb  Nb13  1  0.03757700  0.85094800  0.06449400  1
  Nb  Nb14  1  0.18662900  0.03757700  0.93550600  1
  Nb  Nb15  1  0.81337100  0.96242300  0.06449400  1
  Br  Br16  1  0.63669100  0.07881700  0.65870700  1
  Br  Br17  1  0.36330900  0.92118300  0.34129300  1
  Br  Br18  1  0.92118300  0.55787500  0.65870700  1
  Br  Br19  1  0.63669100  0.55787500  0.84129300  1
  Br  Br20  1  0.07881700  0.44212500  0.34129300  1
  Br  Br21  1  0.36330900  0.44212500  0.15870700  1
  Br  Br22  1  0.44212500  0.36330900  0.65870700  1
  Br  Br23  1  0.92118300  0.36330900  0.84129300  1
  Br  Br24  1  0.55787500  0.63669100  0.34129300  1
  Br  Br25  1  0.07881700  0.63669100  0.15870700  1
  Br  Br26  1  0.44212500  0.07881700  0.84129300  1
  Br  Br27  1  0.55787500  0.92118300  0.15870700  1
  Br  Br28  1  0.04530200  0.22974800  0.65826300  1
  Br  Br29  1  0.95469800  0.77025200  0.34173700  1
  Br  Br30  1  0.77025200  0.81555400  0.65826300  1
  Br  Br31  1  0.04530200  0.81555400  0.84173700  1
  Br  Br32  1  0.22974800  0.18444600  0.34173700  1
  Br  Br33  1  0.95469800  0.18444600  0.15826300  1
  Br  Br34  1  0.18444600  0.95469800  0.65826300  1
  Br  Br35  1  0.77025200  0.95469800  0.84173700  1
  Br  Br36  1  0.81555400  0.04530200  0.34173700  1
  Br  Br37  1  0.22974800  0.04530200  0.15826300  1
  Br  Br38  1  0.18444600  0.22974800  0.84173700  1
  Br  Br39  1  0.81555400  0.77025200  0.15826300  1
  Br  Br40  1  0.27383300  0.41265300  0.50063000  1
  Br  Br41  1  0.72616700  0.58734700  0.49937000  1
  Br  Br42  1  0.58734700  0.86118000  0.50063000  1
  Br  Br43  1  0.27383300  0.86118000  0.99937000  1
  Br  Br44  1  0.41265300  0.13882000  0.49937000  1
  Br  Br45  1  0.72616700  0.13882000  0.00063000  1
  Br  Br46  1  0.13882000  0.72616700  0.50063000  1
  Br  Br47  1  0.58734700  0.72616700  0.99937000  1
  Br  Br48  1  0.86118000  0.27383300  0.49937000  1
  Br  Br49  1  0.41265300  0.27383300  0.00063000  1
  Br  Br50  1  0.13882000  0.41265300  0.99937000  1
  Br  Br51  1  0.86118000  0.58734700  0.00063000  1
