# generated using pymatgen
data_Nb8PtSe20
_symmetry_space_group_name_H-M   'P 1'
_cell_length_a   10.51182080
_cell_length_b   10.51182080
_cell_length_c   19.67295031
_cell_angle_alpha   74.60484464
_cell_angle_beta   74.60484464
_cell_angle_gamma   19.02735780
_symmetry_Int_Tables_number   1
_chemical_formula_structural   Nb8PtSe20
_chemical_formula_sum   'Nb8 Pt1 Se20'
_cell_volume   682.55288871
_cell_formula_units_Z   1
loop_
 _symmetry_equiv_pos_site_id
 _symmetry_equiv_pos_as_xyz
  1  'x, y, z'
loop_
 _atom_site_type_symbol
 _atom_site_label
 _atom_site_symmetry_multiplicity
 _atom_site_fract_x
 _atom_site_fract_y
 _atom_site_fract_z
 _atom_site_occupancy
  Nb  Nb0  1  0.07720900  0.07720900  0.09048900  1
  Nb  Nb1  1  0.92279100  0.92279100  0.90951100  1
  Nb  Nb2  1  0.33068200  0.33068200  0.81089300  1
  Nb  Nb3  1  0.66931800  0.66931800  0.18910700  1
  Nb  Nb4  1  0.26668000  0.26668000  0.28004600  1
  Nb  Nb5  1  0.73332000  0.73332000  0.71995400  1
  Nb  Nb6  1  0.15236000  0.15236000  0.55729400  1
  Nb  Nb7  1  0.84764000  0.84764000  0.44270600  1
  Pt  Pt8  1  0.50000000  0.50000000  0.00000000  1
  Se  Se9  1  0.44619600  0.44619600  0.38906400  1
  Se  Se10  1  0.55380400  0.55380400  0.61093600  1
  Se  Se11  1  0.40295400  0.40295400  0.51408800  1
  Se  Se12  1  0.59704600  0.59704600  0.48591200  1
  Se  Se13  1  0.14347500  0.14347500  0.69768800  1
  Se  Se14  1  0.85652500  0.85652500  0.30231200  1
  Se  Se15  1  0.37913200  0.37913200  0.01087500  1
  Se  Se16  1  0.62086800  0.62086800  0.98912500  1
  Se  Se17  1  0.20216900  0.20216900  0.82400100  1
  Se  Se18  1  0.79783100  0.79783100  0.17599900  1
  Se  Se19  1  0.25418000  0.25418000  0.42818400  1
  Se  Se20  1  0.74582000  0.74582000  0.57181600  1
  Se  Se21  1  0.33174000  0.33174000  0.67645800  1
  Se  Se22  1  0.66826000  0.66826000  0.32354200  1
  Se  Se23  1  0.47962500  0.47962500  0.12986300  1
  Se  Se24  1  0.52037500  0.52037500  0.87013700  1
  Se  Se25  1  0.20414100  0.20414100  0.08688800  1
  Se  Se26  1  0.79585900  0.79585900  0.91311200  1
  Se  Se27  1  0.07123500  0.07123500  0.22623200  1
  Se  Se28  1  0.92876500  0.92876500  0.77376800  1
