# generated using pymatgen
data_Er2OsC2
_symmetry_space_group_name_H-M   'P 1'
_cell_length_a   5.07605700
_cell_length_b   6.41518200
_cell_length_c   9.74209700
_cell_angle_alpha   90.00000000
_cell_angle_beta   90.00000000
_cell_angle_gamma   90.00000000
_symmetry_Int_Tables_number   1
_chemical_formula_structural   Er2OsC2
_chemical_formula_sum   'Er8 Os4 C8'
_cell_volume   317.23998565
_cell_formula_units_Z   4
loop_
 _symmetry_equiv_pos_site_id
 _symmetry_equiv_pos_as_xyz
  1  'x, y, z'
loop_
 _atom_site_type_symbol
 _atom_site_label
 _atom_site_symmetry_multiplicity
 _atom_site_fract_x
 _atom_site_fract_y
 _atom_site_fract_z
 _atom_site_occupancy
  Er  Er0  1  0.25000000  0.68411200  0.55291700  1
  Er  Er1  1  0.75000000  0.31588800  0.44708300  1
  Er  Er2  1  0.75000000  0.81588800  0.05291700  1
  Er  Er3  1  0.25000000  0.18411200  0.94708300  1
  Er  Er4  1  0.25000000  0.52546900  0.22038800  1
  Er  Er5  1  0.75000000  0.47453100  0.77961200  1
  Er  Er6  1  0.75000000  0.97453100  0.72038800  1
  Er  Er7  1  0.25000000  0.02546900  0.27961200  1
  Os  Os8  1  0.25000000  0.72614700  0.86601600  1
  Os  Os9  1  0.75000000  0.27385300  0.13398400  1
  Os  Os10  1  0.75000000  0.77385300  0.36601600  1
  Os  Os11  1  0.25000000  0.22614700  0.63398400  1
  C  C12  1  0.25000000  0.46249100  0.75841100  1
  C  C13  1  0.75000000  0.53750900  0.24158900  1
  C  C14  1  0.75000000  0.03750900  0.25841100  1
  C  C15  1  0.25000000  0.96249100  0.74158900  1
  C  C16  1  0.25000000  0.82562600  0.05540900  1
  C  C17  1  0.75000000  0.17437400  0.94459100  1
  C  C18  1  0.75000000  0.67437400  0.55540900  1
  C  C19  1  0.25000000  0.32562600  0.44459100  1
