# generated using pymatgen
data_NaNdMgWO6
_symmetry_space_group_name_H-M   'P 1'
_cell_length_a   5.58947900
_cell_length_b   5.54172200
_cell_length_c   7.94904359
_cell_angle_alpha   89.93202964
_cell_angle_beta   90.00000000
_cell_angle_gamma   90.00000000
_symmetry_Int_Tables_number   1
_chemical_formula_structural   NaNdMgWO6
_chemical_formula_sum   'Na2 Nd2 Mg2 W2 O12'
_cell_volume   246.22414473
_cell_formula_units_Z   2
loop_
 _symmetry_equiv_pos_site_id
 _symmetry_equiv_pos_as_xyz
  1  'x, y, z'
loop_
 _atom_site_type_symbol
 _atom_site_label
 _atom_site_symmetry_multiplicity
 _atom_site_fract_x
 _atom_site_fract_y
 _atom_site_fract_z
 _atom_site_occupancy
  Na  Na0  1  0.49939200  0.74708300  0.50083400  1
  Na  Na1  1  0.99939200  0.25291700  0.49916600  1
  Nd  Nd2  1  0.44332800  0.75794600  0.00091300  1
  Nd  Nd3  1  0.94332800  0.24205400  0.99908700  1
  Mg  Mg4  1  0.98120300  0.74948200  0.74287700  1
  Mg  Mg5  1  0.48120300  0.25051800  0.25712300  1
  W  W6  1  0.98500700  0.74620700  0.26255700  1
  W  W7  1  0.48500700  0.25379300  0.73744300  1
  O  O8  1  0.27297400  0.55925100  0.27956000  1
  O  O9  1  0.77297400  0.44074900  0.72044000  1
  O  O10  1  0.00495300  0.66608100  0.00605600  1
  O  O11  1  0.50495300  0.33391900  0.99394400  1
  O  O12  1  0.96447200  0.82869300  0.48871100  1
  O  O13  1  0.46447200  0.17130700  0.51128900  1
  O  O14  1  0.69757900  0.97698600  0.80608800  1
  O  O15  1  0.19757900  0.02301400  0.19391200  1
  O  O16  1  0.71798200  0.96388400  0.19381300  1
  O  O17  1  0.21798200  0.03611600  0.80618700  1
  O  O18  1  0.78471100  0.47067600  0.27627500  1
  O  O19  1  0.28471100  0.52932400  0.72372500  1
