# generated using pymatgen
data_RbV3(SeO6)2
_symmetry_space_group_name_H-M   'P 1'
_cell_length_a   7.16851243
_cell_length_b   7.16851243
_cell_length_c   12.09522600
_cell_angle_alpha   90.00000000
_cell_angle_beta   90.00000000
_cell_angle_gamma   120.00000400
_symmetry_Int_Tables_number   1
_chemical_formula_structural   RbV3(SeO6)2
_chemical_formula_sum   'Rb2 V6 Se4 O24'
_cell_volume   538.27311341
_cell_formula_units_Z   2
loop_
 _symmetry_equiv_pos_site_id
 _symmetry_equiv_pos_as_xyz
  1  'x, y, z'
loop_
 _atom_site_type_symbol
 _atom_site_label
 _atom_site_symmetry_multiplicity
 _atom_site_fract_x
 _atom_site_fract_y
 _atom_site_fract_z
 _atom_site_occupancy
  Rb  Rb0  1  0.33333300  0.66666700  0.54151200  1
  Rb  Rb1  1  0.66666700  0.33333300  0.04151200  1
  V  V2  1  0.12654200  0.33294000  0.20834200  1
  V  V3  1  0.20639800  0.87345800  0.20834200  1
  V  V4  1  0.33294000  0.20639800  0.70834200  1
  V  V5  1  0.87345800  0.66706000  0.70834200  1
  V  V6  1  0.66706000  0.79360200  0.20834200  1
  V  V7  1  0.79360200  0.12654200  0.70834200  1
  Se  Se8  1  0.00000000  0.00000000  0.42346300  1
  Se  Se9  1  0.33333300  0.66666700  0.98994900  1
  Se  Se10  1  0.66666700  0.33333300  0.48994900  1
  Se  Se11  1  0.00000000  0.00000000  0.92346300  1
  O  O12  1  0.74921800  0.87520300  0.67810300  1
  O  O13  1  0.87401500  0.74921800  0.17810300  1
  O  O14  1  0.87520300  0.12598500  0.17810300  1
  O  O15  1  0.12479700  0.87401500  0.67810300  1
  O  O16  1  0.12598500  0.25078200  0.67810300  1
  O  O17  1  0.25078200  0.12479700  0.17810300  1
  O  O18  1  0.54134300  0.08283800  0.73233500  1
  O  O19  1  0.45850500  0.54134300  0.23233500  1
  O  O20  1  0.08283800  0.54149500  0.23233500  1
  O  O21  1  0.91716200  0.45850500  0.73233500  1
  O  O22  1  0.54149500  0.45865700  0.73233500  1
  O  O23  1  0.45865700  0.91716200  0.23233500  1
  O  O24  1  0.20086200  0.78824600  0.04953800  1
  O  O25  1  0.41261600  0.20086200  0.54953800  1
  O  O26  1  0.78824600  0.58738400  0.54953800  1
  O  O27  1  0.21175400  0.41261600  0.04953800  1
  O  O28  1  0.58738400  0.79913800  0.04953800  1
  O  O29  1  0.79913800  0.21175400  0.54953800  1
  O  O30  1  0.12292600  0.86881000  0.36227700  1
  O  O31  1  0.25411600  0.12292600  0.86227700  1
  O  O32  1  0.86881000  0.74588400  0.86227700  1
  O  O33  1  0.13119000  0.25411600  0.36227700  1
  O  O34  1  0.74588400  0.87707400  0.36227700  1
  O  O35  1  0.87707400  0.13119000  0.86227700  1
