# generated using pymatgen
data_Cd4As2Br3
_symmetry_space_group_name_H-M   'P 1'
_cell_length_a   12.92812800
_cell_length_b   12.92812800
_cell_length_c   12.92812800
_cell_angle_alpha   90.00000000
_cell_angle_beta   90.00000000
_cell_angle_gamma   90.00000000
_symmetry_Int_Tables_number   1
_chemical_formula_structural   Cd4As2Br3
_chemical_formula_sum   'Cd32 As16 Br24'
_cell_volume   2160.76198253
_cell_formula_units_Z   8
loop_
 _symmetry_equiv_pos_site_id
 _symmetry_equiv_pos_as_xyz
  1  'x, y, z'
loop_
 _atom_site_type_symbol
 _atom_site_label
 _atom_site_symmetry_multiplicity
 _atom_site_fract_x
 _atom_site_fract_y
 _atom_site_fract_z
 _atom_site_occupancy
  Cd  Cd0  1  0.25083800  0.52701000  0.98752900  1
  Cd  Cd1  1  0.74916200  0.02701000  0.51247100  1
  Cd  Cd2  1  0.24916200  0.47299000  0.48752900  1
  Cd  Cd3  1  0.75083800  0.97299000  0.01247100  1
  Cd  Cd4  1  0.98752900  0.25083800  0.52701000  1
  Cd  Cd5  1  0.51247100  0.74916200  0.02701000  1
  Cd  Cd6  1  0.48752900  0.24916200  0.47299000  1
  Cd  Cd7  1  0.01247100  0.75083800  0.97299000  1
  Cd  Cd8  1  0.52701000  0.98752900  0.25083800  1
  Cd  Cd9  1  0.02701000  0.51247100  0.74916200  1
  Cd  Cd10  1  0.47299000  0.48752900  0.24916200  1
  Cd  Cd11  1  0.97299000  0.01247100  0.75083800  1
  Cd  Cd12  1  0.74916200  0.47299000  0.01247100  1
  Cd  Cd13  1  0.25083800  0.97299000  0.48752900  1
  Cd  Cd14  1  0.75083800  0.52701000  0.51247100  1
  Cd  Cd15  1  0.24916200  0.02701000  0.98752900  1
  Cd  Cd16  1  0.01247100  0.74916200  0.47299000  1
  Cd  Cd17  1  0.48752900  0.25083800  0.97299000  1
  Cd  Cd18  1  0.51247100  0.75083800  0.52701000  1
  Cd  Cd19  1  0.98752900  0.24916200  0.02701000  1
  Cd  Cd20  1  0.47299000  0.01247100  0.74916200  1
  Cd  Cd21  1  0.97299000  0.48752900  0.25083800  1
  Cd  Cd22  1  0.52701000  0.51247100  0.75083800  1
  Cd  Cd23  1  0.02701000  0.98752900  0.24916200  1
  Cd  Cd24  1  0.27990700  0.72009300  0.22009300  1
  Cd  Cd25  1  0.72009300  0.22009300  0.27990700  1
  Cd  Cd26  1  0.22009300  0.27990700  0.72009300  1
  Cd  Cd27  1  0.77990700  0.77990700  0.77990700  1
  Cd  Cd28  1  0.72009300  0.27990700  0.77990700  1
  Cd  Cd29  1  0.27990700  0.77990700  0.72009300  1
  Cd  Cd30  1  0.77990700  0.72009300  0.27990700  1
  Cd  Cd31  1  0.22009300  0.22009300  0.22009300  1
  As  As32  1  0.05445600  0.94554400  0.44554400  1
  As  As33  1  0.94554400  0.44554400  0.05445600  1
  As  As34  1  0.44554400  0.05445600  0.94554400  1
  As  As35  1  0.55445600  0.55445600  0.55445600  1
  As  As36  1  0.94554400  0.05445600  0.55445600  1
  As  As37  1  0.05445600  0.55445600  0.94554400  1
  As  As38  1  0.55445600  0.94554400  0.05445600  1
  As  As39  1  0.44554400  0.44554400  0.44554400  1
  As  As40  1  0.39601600  0.60398400  0.10398400  1
  As  As41  1  0.60398400  0.10398400  0.39601600  1
  As  As42  1  0.10398400  0.39601600  0.60398400  1
  As  As43  1  0.89601600  0.89601600  0.89601600  1
  As  As44  1  0.60398400  0.39601600  0.89601600  1
  As  As45  1  0.39601600  0.89601600  0.60398400  1
  As  As46  1  0.89601600  0.60398400  0.39601600  1
  As  As47  1  0.10398400  0.10398400  0.10398400  1
  Br  Br48  1  0.23450500  0.68557600  0.42970600  1
  Br  Br49  1  0.76549500  0.18557600  0.07029400  1
  Br  Br50  1  0.26549500  0.31442400  0.92970600  1
  Br  Br51  1  0.73450500  0.81442400  0.57029400  1
  Br  Br52  1  0.42970600  0.23450500  0.68557600  1
  Br  Br53  1  0.07029400  0.76549500  0.18557600  1
  Br  Br54  1  0.92970600  0.26549500  0.31442400  1
  Br  Br55  1  0.57029400  0.73450500  0.81442400  1
  Br  Br56  1  0.68557600  0.42970600  0.23450500  1
  Br  Br57  1  0.18557600  0.07029400  0.76549500  1
  Br  Br58  1  0.31442400  0.92970600  0.26549500  1
  Br  Br59  1  0.81442400  0.57029400  0.73450500  1
  Br  Br60  1  0.76549500  0.31442400  0.57029400  1
  Br  Br61  1  0.23450500  0.81442400  0.92970600  1
  Br  Br62  1  0.73450500  0.68557600  0.07029400  1
  Br  Br63  1  0.26549500  0.18557600  0.42970600  1
  Br  Br64  1  0.57029400  0.76549500  0.31442400  1
  Br  Br65  1  0.92970600  0.23450500  0.81442400  1
  Br  Br66  1  0.07029400  0.73450500  0.68557600  1
  Br  Br67  1  0.42970600  0.26549500  0.18557600  1
  Br  Br68  1  0.31442400  0.57029400  0.76549500  1
  Br  Br69  1  0.81442400  0.92970600  0.23450500  1
  Br  Br70  1  0.68557600  0.07029400  0.73450500  1
  Br  Br71  1  0.18557600  0.42970600  0.26549500  1
