# generated using pymatgen
data_Ga2AsRh5
_symmetry_space_group_name_H-M   'P 1'
_cell_length_a   4.07173700
_cell_length_b   5.51327300
_cell_length_c   10.29314900
_cell_angle_alpha   90.00000000
_cell_angle_beta   90.00000000
_cell_angle_gamma   90.00000000
_symmetry_Int_Tables_number   1
_chemical_formula_structural   Ga2AsRh5
_chemical_formula_sum   'Ga4 As2 Rh10'
_cell_volume   231.06676061
_cell_formula_units_Z   2
loop_
 _symmetry_equiv_pos_site_id
 _symmetry_equiv_pos_as_xyz
  1  'x, y, z'
loop_
 _atom_site_type_symbol
 _atom_site_label
 _atom_site_symmetry_multiplicity
 _atom_site_fract_x
 _atom_site_fract_y
 _atom_site_fract_z
 _atom_site_occupancy
  Ga  Ga0  1  0.50000000  0.38534800  0.35060600  1
  Ga  Ga1  1  0.50000000  0.61465200  0.64939400  1
  Ga  Ga2  1  0.50000000  0.11465200  0.85060600  1
  Ga  Ga3  1  0.50000000  0.88534800  0.14939400  1
  As  As4  1  0.00000000  0.00000000  0.50000000  1
  As  As5  1  0.00000000  0.50000000  0.00000000  1
  Rh  Rh6  1  0.50000000  0.33213600  0.10302000  1
  Rh  Rh7  1  0.50000000  0.66786400  0.89698000  1
  Rh  Rh8  1  0.50000000  0.83213600  0.39698000  1
  Rh  Rh9  1  0.50000000  0.16786400  0.60302000  1
  Rh  Rh10  1  0.00000000  0.86253000  0.72460900  1
  Rh  Rh11  1  0.00000000  0.13747000  0.27539100  1
  Rh  Rh12  1  0.00000000  0.36253000  0.77539100  1
  Rh  Rh13  1  0.00000000  0.63747000  0.22460900  1
  Rh  Rh14  1  0.00000000  0.50000000  0.50000000  1
  Rh  Rh15  1  0.00000000  0.00000000  0.00000000  1
