# generated using pymatgen
data_BaGeS3
_symmetry_space_group_name_H-M   'P 1'
_cell_length_a   5.83511500
_cell_length_b   13.55109500
_cell_length_c   15.62669048
_cell_angle_alpha   64.51074279
_cell_angle_beta   90.00000000
_cell_angle_gamma   90.00000000
_symmetry_Int_Tables_number   1
_chemical_formula_structural   BaGeS3
_chemical_formula_sum   'Ba8 Ge8 S24'
_cell_volume   1115.36727581
_cell_formula_units_Z   8
loop_
 _symmetry_equiv_pos_site_id
 _symmetry_equiv_pos_as_xyz
  1  'x, y, z'
loop_
 _atom_site_type_symbol
 _atom_site_label
 _atom_site_symmetry_multiplicity
 _atom_site_fract_x
 _atom_site_fract_y
 _atom_site_fract_z
 _atom_site_occupancy
  Ba  Ba0  1  0.74049100  0.39380700  0.13651900  1
  Ba  Ba1  1  0.24049100  0.10619300  0.86348100  1
  Ba  Ba2  1  0.25950900  0.60619300  0.86348100  1
  Ba  Ba3  1  0.75950900  0.89380700  0.13651900  1
  Ba  Ba4  1  0.24694400  0.03033700  0.36296700  1
  Ba  Ba5  1  0.74694400  0.46966300  0.63703300  1
  Ba  Ba6  1  0.75305600  0.96966300  0.63703300  1
  Ba  Ba7  1  0.25305600  0.53033700  0.36296700  1
  Ge  Ge8  1  0.84073500  0.26662400  0.42537400  1
  Ge  Ge9  1  0.34073500  0.23337600  0.57462600  1
  Ge  Ge10  1  0.15926500  0.73337600  0.57462600  1
  Ge  Ge11  1  0.65926500  0.76662400  0.42537400  1
  Ge  Ge12  1  0.15545100  0.19313300  0.07493700  1
  Ge  Ge13  1  0.65545100  0.30686700  0.92506300  1
  Ge  Ge14  1  0.84454900  0.80686700  0.92506300  1
  Ge  Ge15  1  0.34454900  0.69313300  0.07493700  1
  S  S16  1  0.75673400  0.43256700  0.32160400  1
  S  S17  1  0.25673400  0.06743300  0.67839600  1
  S  S18  1  0.24326600  0.56743300  0.67839600  1
  S  S19  1  0.74326600  0.93256700  0.32160400  1
  S  S20  1  0.23516700  0.26140900  0.42466500  1
  S  S21  1  0.73516700  0.23859100  0.57533500  1
  S  S22  1  0.76483300  0.73859100  0.57533500  1
  S  S23  1  0.26483300  0.76140900  0.42466500  1
  S  S24  1  0.74987100  0.12458800  0.40011700  1
  S  S25  1  0.24987100  0.37541200  0.59988300  1
  S  S26  1  0.25012900  0.87541200  0.59988300  1
  S  S27  1  0.75012900  0.62458800  0.40011700  1
  S  S28  1  0.23745100  0.25561000  0.17912400  1
  S  S29  1  0.73745100  0.24439000  0.82087600  1
  S  S30  1  0.76254900  0.74439000  0.82087600  1
  S  S31  1  0.26254900  0.75561000  0.17912400  1
  S  S32  1  0.76076600  0.18639700  0.07493000  1
  S  S33  1  0.26076600  0.31360300  0.92507000  1
  S  S34  1  0.23923400  0.81360300  0.92507000  1
  S  S35  1  0.73923400  0.68639700  0.07493000  1
  S  S36  1  0.24835900  0.02615400  0.10056800  1
  S  S37  1  0.74835900  0.47384600  0.89943200  1
  S  S38  1  0.75164100  0.97384600  0.89943200  1
  S  S39  1  0.25164100  0.52615400  0.10056800  1
