# generated using pymatgen
data_Ba3GaAs3
_symmetry_space_group_name_H-M   'P 1'
_cell_length_a   6.87407500
_cell_length_b   13.59061000
_cell_length_c   20.23640200
_cell_angle_alpha   90.00000000
_cell_angle_beta   90.00000000
_cell_angle_gamma   90.00000000
_symmetry_Int_Tables_number   1
_chemical_formula_structural   Ba3GaAs3
_chemical_formula_sum   'Ba24 Ga8 As24'
_cell_volume   1890.54280260
_cell_formula_units_Z   8
loop_
 _symmetry_equiv_pos_site_id
 _symmetry_equiv_pos_as_xyz
  1  'x, y, z'
loop_
 _atom_site_type_symbol
 _atom_site_label
 _atom_site_symmetry_multiplicity
 _atom_site_fract_x
 _atom_site_fract_y
 _atom_site_fract_z
 _atom_site_occupancy
  Ba  Ba0  1  0.22548400  0.51125800  0.57483300  1
  Ba  Ba1  1  0.27451600  0.01125800  0.92516700  1
  Ba  Ba2  1  0.77451600  0.48874200  0.07483300  1
  Ba  Ba3  1  0.72548400  0.98874200  0.42516700  1
  Ba  Ba4  1  0.77451600  0.48874200  0.42516700  1
  Ba  Ba5  1  0.72548400  0.98874200  0.07483300  1
  Ba  Ba6  1  0.22548400  0.51125800  0.92516700  1
  Ba  Ba7  1  0.27451600  0.01125800  0.57483300  1
  Ba  Ba8  1  0.18834100  0.76598700  0.07418500  1
  Ba  Ba9  1  0.31165900  0.26598700  0.42581500  1
  Ba  Ba10  1  0.81165900  0.23401300  0.57418500  1
  Ba  Ba11  1  0.68834100  0.73401300  0.92581500  1
  Ba  Ba12  1  0.81165900  0.23401300  0.92581500  1
  Ba  Ba13  1  0.68834100  0.73401300  0.57418500  1
  Ba  Ba14  1  0.18834100  0.76598700  0.42581500  1
  Ba  Ba15  1  0.31165900  0.26598700  0.07418500  1
  Ba  Ba16  1  0.81391300  0.76848400  0.25000000  1
  Ba  Ba17  1  0.68608700  0.26848400  0.25000000  1
  Ba  Ba18  1  0.18608700  0.23151600  0.75000000  1
  Ba  Ba19  1  0.31391300  0.73151600  0.75000000  1
  Ba  Ba20  1  0.33682500  0.97920400  0.25000000  1
  Ba  Ba21  1  0.16317500  0.47920400  0.25000000  1
  Ba  Ba22  1  0.66317500  0.02079600  0.75000000  1
  Ba  Ba23  1  0.83682500  0.52079600  0.75000000  1
  Ga  Ga24  1  0.48297100  0.62736400  0.16506200  1
  Ga  Ga25  1  0.01702900  0.12736400  0.33493800  1
  Ga  Ga26  1  0.51702900  0.37263600  0.66506200  1
  Ga  Ga27  1  0.98297100  0.87263600  0.83493800  1
  Ga  Ga28  1  0.51702900  0.37263600  0.83493800  1
  Ga  Ga29  1  0.98297100  0.87263600  0.66506200  1
  Ga  Ga30  1  0.48297100  0.62736400  0.33493800  1
  Ga  Ga31  1  0.01702900  0.12736400  0.16506200  1
  As  As32  1  0.29372000  0.72924100  0.25000000  1
  As  As33  1  0.20628000  0.22924100  0.25000000  1
  As  As34  1  0.70628000  0.27075900  0.75000000  1
  As  As35  1  0.79372000  0.77075900  0.75000000  1
  As  As36  1  0.67416300  0.52241600  0.25000000  1
  As  As37  1  0.82583700  0.02241600  0.25000000  1
  As  As38  1  0.32583700  0.47758400  0.75000000  1
  As  As39  1  0.17416300  0.97758400  0.75000000  1
  As  As40  1  0.27358300  0.51651700  0.09153500  1
  As  As41  1  0.22641700  0.01651700  0.40846500  1
  As  As42  1  0.72641700  0.48348300  0.59153500  1
  As  As43  1  0.77358300  0.98348300  0.90846500  1
  As  As44  1  0.72641700  0.48348300  0.90846500  1
  As  As45  1  0.77358300  0.98348300  0.59153500  1
  As  As46  1  0.27358300  0.51651700  0.40846500  1
  As  As47  1  0.22641700  0.01651700  0.09153500  1
  As  As48  1  0.19229600  0.75956300  0.59251300  1
  As  As49  1  0.30770400  0.25956300  0.90748700  1
  As  As50  1  0.80770400  0.24043700  0.09251300  1
  As  As51  1  0.69229600  0.74043700  0.40748700  1
  As  As52  1  0.80770400  0.24043700  0.40748700  1
  As  As53  1  0.69229600  0.74043700  0.09251300  1
  As  As54  1  0.19229600  0.75956300  0.90748700  1
  As  As55  1  0.30770400  0.25956300  0.59251300  1
