# generated using pymatgen
data_KBaLaWO6
_symmetry_space_group_name_H-M   'P 1'
_cell_length_a   8.65483667
_cell_length_b   8.65348938
_cell_length_c   8.66682506
_cell_angle_alpha   90.00000000
_cell_angle_beta   90.00000000
_cell_angle_gamma   90.00000000
_symmetry_Int_Tables_number   1
_chemical_formula_structural   KBaLaWO6
_chemical_formula_sum   'K4 Ba4 La4 W4 O24'
_cell_volume   649.09785194
_cell_formula_units_Z   4
loop_
 _symmetry_equiv_pos_site_id
 _symmetry_equiv_pos_as_xyz
  1  'x, y, z'
loop_
 _atom_site_type_symbol
 _atom_site_label
 _atom_site_symmetry_multiplicity
 _atom_site_fract_x
 _atom_site_fract_y
 _atom_site_fract_z
 _atom_site_occupancy
  K  K0  1  0.00000000  0.50000000  0.50000000  1
  K  K1  1  0.50000000  0.00000000  0.50000000  1
  K  K2  1  0.50000000  0.00000000  -0.00000000  1
  K  K3  1  0.00000000  0.50000000  0.00000000  1
  Ba  Ba4  1  0.50000000  0.50000000  0.00000000  1
  Ba  Ba5  1  0.00000000  0.00000000  0.50000000  1
  Ba  Ba6  1  -0.00000000  0.00000000  -0.00000000  1
  Ba  Ba7  1  0.50000000  0.50000000  0.50000000  1
  La  La8  1  0.75000000  0.75000000  0.75000000  1
  La  La9  1  0.25000000  0.25000000  0.75000000  1
  La  La10  1  0.25000000  0.75000000  0.25000000  1
  La  La11  1  0.75000000  0.25000000  0.25000000  1
  W  W12  1  0.25000000  0.25000000  0.25000000  1
  W  W13  1  0.75000000  0.75000000  0.25000000  1
  W  W14  1  0.75000000  0.25000000  0.75000000  1
  W  W15  1  0.25000000  0.75000000  0.75000000  1
  O  O16  1  0.02449309  0.22345924  0.26683506  1
  O  O17  1  0.97550691  0.77654076  0.26683506  1
  O  O18  1  0.97550691  0.22345924  0.73316494  1
  O  O19  1  0.02449309  0.77654076  0.73316494  1
  O  O20  1  0.26301708  0.02526173  0.22704899  1
  O  O21  1  0.26301708  0.97473827  0.77295101  1
  O  O22  1  0.73698292  0.97473827  0.22704899  1
  O  O23  1  0.73698292  0.02526173  0.77295101  1
  O  O24  1  0.23093632  0.27041679  0.02541245  1
  O  O25  1  0.76906368  0.27041679  0.97458755  1
  O  O26  1  0.23093632  0.72958321  0.97458755  1
  O  O27  1  0.76906368  0.72958321  0.02541245  1
  O  O28  1  0.47550691  0.27654076  0.23316494  1
  O  O29  1  0.52449309  0.72345924  0.23316494  1
  O  O30  1  0.52449309  0.27654076  0.76683506  1
  O  O31  1  0.47550691  0.72345924  0.76683506  1
  O  O32  1  0.23698292  0.47473827  0.27295101  1
  O  O33  1  0.23698292  0.52526173  0.72704899  1
  O  O34  1  0.76301708  0.52526173  0.27295101  1
  O  O35  1  0.76301708  0.47473827  0.72704899  1
  O  O36  1  0.26906368  0.22958321  0.47458755  1
  O  O37  1  0.73093632  0.22958321  0.52541245  1
  O  O38  1  0.26906368  0.77041679  0.52541245  1
  O  O39  1  0.73093632  0.77041679  0.47458755  1
