# generated using pymatgen
data_KNbN2
_symmetry_space_group_name_H-M   'P 1'
_cell_length_a   5.97472900
_cell_length_b   11.95337500
_cell_length_c   16.82529500
_cell_angle_alpha   90.00000000
_cell_angle_beta   90.00000000
_cell_angle_gamma   90.00000000
_symmetry_Int_Tables_number   1
_chemical_formula_structural   KNbN2
_chemical_formula_sum   'K16 Nb16 N32'
_cell_volume   1201.63188394
_cell_formula_units_Z   16
loop_
 _symmetry_equiv_pos_site_id
 _symmetry_equiv_pos_as_xyz
  1  'x, y, z'
loop_
 _atom_site_type_symbol
 _atom_site_label
 _atom_site_symmetry_multiplicity
 _atom_site_fract_x
 _atom_site_fract_y
 _atom_site_fract_z
 _atom_site_occupancy
  K  K0  1  0.26359900  0.00123200  0.44045800  1
  K  K1  1  0.76359900  0.49876800  0.55954200  1
  K  K2  1  0.73640100  0.50123200  0.05954200  1
  K  K3  1  0.23640100  0.99876800  0.94045800  1
  K  K4  1  0.73640100  0.99876800  0.55954200  1
  K  K5  1  0.23640100  0.50123200  0.44045800  1
  K  K6  1  0.26359900  0.49876800  0.94045800  1
  K  K7  1  0.76359900  0.00123200  0.05954200  1
  K  K8  1  0.27647000  0.26272800  0.31558600  1
  K  K9  1  0.77647000  0.23727200  0.68441400  1
  K  K10  1  0.72353000  0.76272800  0.18441400  1
  K  K11  1  0.22353000  0.73727200  0.81558600  1
  K  K12  1  0.72353000  0.73727200  0.68441400  1
  K  K13  1  0.22353000  0.76272800  0.31558600  1
  K  K14  1  0.27647000  0.23727200  0.81558600  1
  K  K15  1  0.77647000  0.26272800  0.18441400  1
  Nb  Nb16  1  0.76705600  0.01100000  0.31034400  1
  Nb  Nb17  1  0.26705600  0.48900000  0.68965600  1
  Nb  Nb18  1  0.23294400  0.51100000  0.18965600  1
  Nb  Nb19  1  0.73294400  0.98900000  0.81034400  1
  Nb  Nb20  1  0.23294400  0.98900000  0.68965600  1
  Nb  Nb21  1  0.73294400  0.51100000  0.31034400  1
  Nb  Nb22  1  0.76705600  0.48900000  0.81034400  1
  Nb  Nb23  1  0.26705600  0.01100000  0.18965600  1
  Nb  Nb24  1  0.76120800  0.26581600  0.43512000  1
  Nb  Nb25  1  0.26120800  0.23418400  0.56488000  1
  Nb  Nb26  1  0.23879200  0.76581600  0.06488000  1
  Nb  Nb27  1  0.73879200  0.73418400  0.93512000  1
  Nb  Nb28  1  0.23879200  0.73418400  0.56488000  1
  Nb  Nb29  1  0.73879200  0.76581600  0.43512000  1
  Nb  Nb30  1  0.76120800  0.23418400  0.93512000  1
  Nb  Nb31  1  0.26120800  0.26581600  0.06488000  1
  N  N32  1  0.03929000  0.29843500  0.49244200  1
  N  N33  1  0.53929000  0.20156500  0.50755800  1
  N  N34  1  0.96071000  0.79843500  0.00755800  1
  N  N35  1  0.46071000  0.70156500  0.99244200  1
  N  N36  1  0.96071000  0.70156500  0.50755800  1
  N  N37  1  0.46071000  0.79843500  0.49244200  1
  N  N38  1  0.03929000  0.20156500  0.99244200  1
  N  N39  1  0.53929000  0.29843500  0.00755800  1
  N  N40  1  0.64404500  0.40770500  0.39534300  1
  N  N41  1  0.14404500  0.09229500  0.60465700  1
  N  N42  1  0.35595500  0.90770500  0.10465700  1
  N  N43  1  0.85595500  0.59229500  0.89534300  1
  N  N44  1  0.35595500  0.59229500  0.60465700  1
  N  N45  1  0.85595500  0.90770500  0.39534300  1
  N  N46  1  0.64404500  0.09229500  0.89534300  1
  N  N47  1  0.14404500  0.40770500  0.10465700  1
  N  N48  1  0.81540200  0.16552200  0.34489700  1
  N  N49  1  0.31540200  0.33447800  0.65510300  1
  N  N50  1  0.18459800  0.66552200  0.15510300  1
  N  N51  1  0.68459800  0.83447800  0.84489700  1
  N  N52  1  0.18459800  0.83447800  0.65510300  1
  N  N53  1  0.68459800  0.66552200  0.34489700  1
  N  N54  1  0.81540200  0.33447800  0.84489700  1
  N  N55  1  0.31540200  0.16552200  0.15510300  1
  N  N56  1  0.54845300  0.48390900  0.21627600  1
  N  N57  1  0.04845300  0.01609100  0.78372400  1
  N  N58  1  0.45154700  0.98390900  0.28372400  1
  N  N59  1  0.95154700  0.51609100  0.71627600  1
  N  N60  1  0.45154700  0.51609100  0.78372400  1
  N  N61  1  0.95154700  0.98390900  0.21627600  1
  N  N62  1  0.54845300  0.01609100  0.71627600  1
  N  N63  1  0.04845300  0.48390900  0.28372400  1
