# generated using pymatgen
data_Ba2MnV2HO9
_symmetry_space_group_name_H-M   'P 1'
_cell_length_a   6.33034400
_cell_length_b   8.00093267
_cell_length_c   9.16364235
_cell_angle_alpha   111.92460299
_cell_angle_beta   90.00000000
_cell_angle_gamma   90.00000000
_symmetry_Int_Tables_number   1
_chemical_formula_structural   Ba2MnV2HO9
_chemical_formula_sum   'Ba4 Mn2 V4 H2 O18'
_cell_volume   430.55871162
_cell_formula_units_Z   2
loop_
 _symmetry_equiv_pos_site_id
 _symmetry_equiv_pos_as_xyz
  1  'x, y, z'
loop_
 _atom_site_type_symbol
 _atom_site_label
 _atom_site_symmetry_multiplicity
 _atom_site_fract_x
 _atom_site_fract_y
 _atom_site_fract_z
 _atom_site_occupancy
  Ba  Ba0  1  0.75000000  0.32348400  0.41112800  1
  Ba  Ba1  1  0.25000000  0.67651600  0.58887200  1
  Ba  Ba2  1  0.75000000  0.73055600  0.23939000  1
  Ba  Ba3  1  0.25000000  0.26944400  0.76061000  1
  Mn  Mn4  1  0.50000000  0.00000000  0.00000000  1
  Mn  Mn5  1  0.00000000  0.00000000  0.00000000  1
  V  V6  1  0.25000000  0.04708000  0.33103400  1
  V  V7  1  0.75000000  0.95292000  0.66896600  1
  V  V8  1  0.75000000  0.55253100  0.82542000  1
  V  V9  1  0.25000000  0.44746900  0.17458000  1
  H  H10  1  0.75000000  0.25634600  0.01340000  1
  H  H11  1  0.25000000  0.74365400  0.98660000  1
  O  O12  1  0.48768800  0.00304800  0.21445400  1
  O  O13  1  0.98768800  0.99695200  0.78554600  1
  O  O14  1  0.51231200  0.99695200  0.78554600  1
  O  O15  1  0.01231200  0.00304800  0.21445400  1
  O  O16  1  0.53052000  0.49475200  0.70294800  1
  O  O17  1  0.03052000  0.50524800  0.29705200  1
  O  O18  1  0.46948000  0.50524800  0.29705200  1
  O  O19  1  0.96948000  0.49475200  0.70294800  1
  O  O20  1  0.75000000  0.78756300  0.94806300  1
  O  O21  1  0.25000000  0.21243700  0.05193700  1
  O  O22  1  0.25000000  0.26750600  0.45373700  1
  O  O23  1  0.75000000  0.73249400  0.54626300  1
  O  O24  1  0.75000000  0.16317800  0.06309500  1
  O  O25  1  0.25000000  0.83682200  0.93690500  1
  O  O26  1  0.25000000  0.92398200  0.44668100  1
  O  O27  1  0.75000000  0.07601800  0.55331900  1
  O  O28  1  0.75000000  0.43354300  0.94854900  1
  O  O29  1  0.25000000  0.56645700  0.05145100  1
