# generated using pymatgen
data_Tb2Cl3
_symmetry_space_group_name_H-M   'P 1'
_cell_length_a   8.09090197
_cell_length_b   8.09090197
_cell_length_c   10.35876834
_cell_angle_alpha   61.66198708
_cell_angle_beta   61.66198708
_cell_angle_gamma   27.80865880
_symmetry_Int_Tables_number   1
_chemical_formula_structural   Tb2Cl3
_chemical_formula_sum   'Tb4 Cl6'
_cell_volume   275.94983364
_cell_formula_units_Z   2
loop_
 _symmetry_equiv_pos_site_id
 _symmetry_equiv_pos_as_xyz
  1  'x, y, z'
loop_
 _atom_site_type_symbol
 _atom_site_label
 _atom_site_symmetry_multiplicity
 _atom_site_fract_x
 _atom_site_fract_y
 _atom_site_fract_z
 _atom_site_occupancy
  Tb  Tb0  1  0.91404400  0.91404400  0.45042300  1
  Tb  Tb1  1  0.08595600  0.08595600  0.54957700  1
  Tb  Tb2  1  0.63778500  0.63778500  0.20905500  1
  Tb  Tb3  1  0.36221500  0.36221500  0.79094500  1
  Cl  Cl4  1  0.83907400  0.83907400  0.00739400  1
  Cl  Cl5  1  0.16092600  0.16092600  0.99260600  1
  Cl  Cl6  1  0.72453100  0.72453100  0.38292000  1
  Cl  Cl7  1  0.27546900  0.27546900  0.61708000  1
  Cl  Cl8  1  0.45551000  0.45551000  0.23750800  1
  Cl  Cl9  1  0.54449000  0.54449000  0.76249200  1
