# generated using pymatgen
data_AgPd
_symmetry_space_group_name_H-M   'P 1'
_cell_length_a   4.94659920
_cell_length_b   4.94659920
_cell_length_c   4.94659972
_cell_angle_alpha   33.74332763
_cell_angle_beta   33.74332763
_cell_angle_gamma   33.74331977
_symmetry_Int_Tables_number   1
_chemical_formula_structural   AgPd
_chemical_formula_sum   'Ag1 Pd1'
_cell_volume   33.27536346
_cell_formula_units_Z   1
loop_
 _symmetry_equiv_pos_site_id
 _symmetry_equiv_pos_as_xyz
  1  'x, y, z'
loop_
 _atom_site_type_symbol
 _atom_site_label
 _atom_site_symmetry_multiplicity
 _atom_site_fract_x
 _atom_site_fract_y
 _atom_site_fract_z
 _atom_site_occupancy
  Ag  Ag0  1  0.00000000  0.00000000  0.00000000  1
  Pd  Pd1  1  0.50000000  0.50000000  0.50000000  1
