# generated using pymatgen
data_NbTlV2O8
_symmetry_space_group_name_H-M   'P 1'
_cell_length_a   5.70382200
_cell_length_b   9.19728000
_cell_length_c   15.31273200
_cell_angle_alpha   90.00000000
_cell_angle_beta   90.00000000
_cell_angle_gamma   90.00000000
_symmetry_Int_Tables_number   1
_chemical_formula_structural   NbTlV2O8
_chemical_formula_sum   'Nb4 Tl4 V8 O32'
_cell_volume   803.30053070
_cell_formula_units_Z   4
loop_
 _symmetry_equiv_pos_site_id
 _symmetry_equiv_pos_as_xyz
  1  'x, y, z'
loop_
 _atom_site_type_symbol
 _atom_site_label
 _atom_site_symmetry_multiplicity
 _atom_site_fract_x
 _atom_site_fract_y
 _atom_site_fract_z
 _atom_site_occupancy
  Nb  Nb0  1  0.25000000  0.99459300  0.65967800  1
  Nb  Nb1  1  0.25000000  0.50540700  0.15967800  1
  Nb  Nb2  1  0.75000000  0.00540700  0.34032200  1
  Nb  Nb3  1  0.75000000  0.49459300  0.84032200  1
  Tl  Tl4  1  0.25000000  0.43593100  0.59581100  1
  Tl  Tl5  1  0.25000000  0.06406900  0.09581100  1
  Tl  Tl6  1  0.75000000  0.56406900  0.40418900  1
  Tl  Tl7  1  0.75000000  0.93593100  0.90418900  1
  V  V8  1  0.25000000  0.24557100  0.83830200  1
  V  V9  1  0.25000000  0.25442900  0.33830200  1
  V  V10  1  0.75000000  0.75442900  0.16169800  1
  V  V11  1  0.75000000  0.74557100  0.66169800  1
  V  V12  1  0.25000000  0.81825700  0.43869000  1
  V  V13  1  0.25000000  0.68174300  0.93869000  1
  V  V14  1  0.75000000  0.18174300  0.56131000  1
  V  V15  1  0.75000000  0.31825700  0.06131000  1
  O  O16  1  0.99815300  0.34851600  0.81062200  1
  O  O17  1  0.50184700  0.15148400  0.31062200  1
  O  O18  1  0.49815300  0.65148400  0.18937800  1
  O  O19  1  0.00184700  0.84851600  0.68937800  1
  O  O20  1  0.00184700  0.65148400  0.18937800  1
  O  O21  1  0.49815300  0.84851600  0.68937800  1
  O  O22  1  0.50184700  0.34851600  0.81062200  1
  O  O23  1  0.99815300  0.15148400  0.31062200  1
  O  O24  1  0.99582200  0.86155600  0.37652700  1
  O  O25  1  0.50417800  0.63844400  0.87652700  1
  O  O26  1  0.49582200  0.13844400  0.62347300  1
  O  O27  1  0.00417800  0.36155600  0.12347300  1
  O  O28  1  0.00417800  0.13844400  0.62347300  1
  O  O29  1  0.49582200  0.36155600  0.12347300  1
  O  O30  1  0.50417800  0.86155600  0.37652700  1
  O  O31  1  0.99582200  0.63844400  0.87652700  1
  O  O32  1  0.25000000  0.07724400  0.77958100  1
  O  O33  1  0.25000000  0.42275600  0.27958100  1
  O  O34  1  0.75000000  0.92275600  0.22041900  1
  O  O35  1  0.75000000  0.57724400  0.72041900  1
  O  O36  1  0.25000000  0.91644000  0.53660800  1
  O  O37  1  0.25000000  0.58356000  0.03660800  1
  O  O38  1  0.75000000  0.08356000  0.46339200  1
  O  O39  1  0.75000000  0.41644000  0.96339200  1
  O  O40  1  0.25000000  0.21249800  0.94434200  1
  O  O41  1  0.25000000  0.28750200  0.44434200  1
  O  O42  1  0.75000000  0.78750200  0.05565800  1
  O  O43  1  0.75000000  0.71249800  0.55565800  1
  O  O44  1  0.25000000  0.63935800  0.45815700  1
  O  O45  1  0.25000000  0.86064200  0.95815700  1
  O  O46  1  0.75000000  0.36064200  0.54184300  1
  O  O47  1  0.75000000  0.13935800  0.04184300  1
