# generated using pymatgen
data_CeH14Cl3O7
_symmetry_space_group_name_H-M   'P 1'
_cell_length_a   8.13637900
_cell_length_b   8.26756633
_cell_length_c   9.37760226
_cell_angle_alpha   70.36879081
_cell_angle_beta   75.03139098
_cell_angle_gamma   81.43641257
_symmetry_Int_Tables_number   1
_chemical_formula_structural   CeH14Cl3O7
_chemical_formula_sum   'Ce2 H28 Cl6 O14'
_cell_volume   572.64623910
_cell_formula_units_Z   2
loop_
 _symmetry_equiv_pos_site_id
 _symmetry_equiv_pos_as_xyz
  1  'x, y, z'
loop_
 _atom_site_type_symbol
 _atom_site_label
 _atom_site_symmetry_multiplicity
 _atom_site_fract_x
 _atom_site_fract_y
 _atom_site_fract_z
 _atom_site_occupancy
  Ce  Ce0  1  0.21394300  0.69371300  0.81969800  1
  Ce  Ce1  1  0.77814700  0.32903800  0.16620800  1
  H  H2  1  0.50803900  0.80165200  0.54004800  1
  H  H3  1  0.36367900  0.86269500  0.44564700  1
  H  H4  1  0.64462400  0.16152800  0.53347600  1
  H  H5  1  0.61709200  0.02745200  0.45896800  1
  H  H6  1  0.48439000  0.35903800  0.73979400  1
  H  H7  1  0.53976200  0.53420600  0.61723200  1
  H  H8  1  0.49704900  0.63030900  0.25908900  1
  H  H9  1  0.43788600  0.44281500  0.36365100  1
  H  H10  1  0.12793500  0.48798300  0.61017500  1
  H  H11  1  0.99974400  0.65472600  0.59168500  1
  H  H12  1  0.98524300  0.36523000  0.39987800  1
  H  H13  1  0.84392700  0.52225900  0.38414700  1
  H  H14  1  0.92444900  0.97947400  0.70378000  1
  H  H15  1  0.09826600  0.04874400  0.59382900  1
  H  H16  1  0.02402800  0.01960100  0.23384800  1
  H  H17  1  0.92457000  0.00337900  0.40163400  1
  H  H18  1  0.61123600  0.63067300  0.83356100  1
  H  H19  1  0.56492600  0.81632200  0.84973900  1
  H  H20  1  0.39333900  0.32746800  0.13884300  1
  H  H21  1  0.46755300  0.13888400  0.15259400  1
  H  H22  1  0.23802300  0.71582100  0.15827800  1
  H  H23  1  0.16780500  0.53597200  0.18205300  1
  H  H24  1  0.88555400  0.44765700  0.80062800  1
  H  H25  1  0.74765200  0.31015300  0.83941200  1
  H  H26  1  0.21866100  0.08625300  0.80761900  1
  H  H27  1  0.27491600  0.98051200  0.96383700  1
  H  H28  1  0.76664200  0.92252300  0.20225600  1
  H  H29  1  0.81988200  0.99195400  0.02223700  1
  Cl  Cl30  1  0.14642500  0.34259700  0.00656200  1
  Cl  Cl31  1  0.85269200  0.69325900  0.98975500  1
  Cl  Cl32  1  0.67400200  0.12176300  0.76071400  1
  Cl  Cl33  1  0.37689500  0.88785400  0.20500600  1
  Cl  Cl34  1  0.76952400  0.73657800  0.46877700  1
  Cl  Cl35  1  0.20642900  0.30441800  0.50233700  1
  O  O36  1  0.38551000  0.84185400  0.55027100  1
  O  O37  1  0.63241700  0.14977300  0.43446300  1
  O  O38  1  0.44486600  0.48162500  0.70154500  1
  O  O39  1  0.53567400  0.50617000  0.28943600  1
  O  O40  1  0.06679000  0.57450900  0.66342900  1
  O  O41  1  0.88844500  0.41975500  0.34989600  1
  O  O42  1  0.04132300  0.94105900  0.65735300  1
  O  O43  1  0.98203700  0.08673400  0.30597200  1
  O  O44  1  0.51988700  0.72327300  0.83094400  1
  O  O45  1  0.50032600  0.25570900  0.13637800  1
  O  O46  1  0.21814900  0.63857200  0.10416600  1
  O  O47  1  0.78069000  0.39888900  0.87523300  1
  O  O48  1  0.21974000  0.97188500  0.88494900  1
  O  O49  1  0.80781600  0.02499100  0.11590100  1
