# generated using pymatgen
data_Sr2Mg(BO3)2
_symmetry_space_group_name_H-M   'P 1'
_cell_length_a   5.25210341
_cell_length_b   5.25210341
_cell_length_c   6.19853982
_cell_angle_alpha   65.29687358
_cell_angle_beta   65.29687358
_cell_angle_gamma   59.26786887
_symmetry_Int_Tables_number   1
_chemical_formula_structural   Sr2Mg(BO3)2
_chemical_formula_sum   'Sr2 Mg1 B2 O6'
_cell_volume   128.86925008
_cell_formula_units_Z   1
loop_
 _symmetry_equiv_pos_site_id
 _symmetry_equiv_pos_as_xyz
  1  'x, y, z'
loop_
 _atom_site_type_symbol
 _atom_site_label
 _atom_site_symmetry_multiplicity
 _atom_site_fract_x
 _atom_site_fract_y
 _atom_site_fract_z
 _atom_site_occupancy
  Sr  Sr0  1  0.70931900  0.70931900  0.81473700  1
  Sr  Sr1  1  0.29068100  0.29068100  0.18526300  1
  Mg  Mg2  1  0.50000000  0.50000000  0.50000000  1
  B  B3  1  0.93764800  0.93764800  0.26448000  1
  B  B4  1  0.06235200  0.06235200  0.73552000  1
  O  O5  1  0.76869800  0.76869800  0.33871300  1
  O  O6  1  0.20658900  0.74456200  0.76828100  1
  O  O7  1  0.25543800  0.79341100  0.23171900  1
  O  O8  1  0.79341100  0.25543800  0.23171900  1
  O  O9  1  0.74456200  0.20658900  0.76828100  1
  O  O10  1  0.23130200  0.23130200  0.66128700  1
