# generated using pymatgen
data_Ba3Ge2(B3O8)2
_symmetry_space_group_name_H-M   'P 1'
_cell_length_a   5.16632800
_cell_length_b   7.72346533
_cell_length_c   8.72196968
_cell_angle_alpha   102.59771721
_cell_angle_beta   102.61893745
_cell_angle_gamma   88.16508559
_symmetry_Int_Tables_number   1
_chemical_formula_structural   Ba3Ge2(B3O8)2
_chemical_formula_sum   'Ba3 Ge2 B6 O16'
_cell_volume   331.39623843
_cell_formula_units_Z   1
loop_
 _symmetry_equiv_pos_site_id
 _symmetry_equiv_pos_as_xyz
  1  'x, y, z'
loop_
 _atom_site_type_symbol
 _atom_site_label
 _atom_site_symmetry_multiplicity
 _atom_site_fract_x
 _atom_site_fract_y
 _atom_site_fract_z
 _atom_site_occupancy
  Ba  Ba0  1  0.50000000  0.50000000  0.00000000  1
  Ba  Ba1  1  0.61798300  0.07949100  0.25985300  1
  Ba  Ba2  1  0.38201700  0.92050900  0.74014700  1
  Ge  Ge3  1  0.23010200  0.32950700  0.55841900  1
  Ge  Ge4  1  0.76989800  0.67049300  0.44158100  1
  B  B5  1  0.81011700  0.25611600  0.70500200  1
  B  B6  1  0.18988300  0.74388400  0.29499800  1
  B  B7  1  0.97044400  0.59120800  0.75284200  1
  B  B8  1  0.02955600  0.40879200  0.24715800  1
  B  B9  1  0.03759700  0.19621000  0.97294900  1
  B  B10  1  0.96240300  0.80379000  0.02705100  1
  O  O11  1  0.96270600  0.20151200  0.57507500  1
  O  O12  1  0.03729400  0.79848800  0.42492500  1
  O  O13  1  0.21035800  0.54401300  0.67864600  1
  O  O14  1  0.78964200  0.45598700  0.32135400  1
  O  O15  1  0.52011600  0.21584700  0.62551100  1
  O  O16  1  0.47988400  0.78415300  0.37448900  1
  O  O17  1  0.76970300  0.67750000  0.64448800  1
  O  O18  1  0.23029700  0.32250000  0.35551200  1
  O  O19  1  0.86495300  0.43939000  0.79495100  1
  O  O20  1  0.13504700  0.56061000  0.20504900  1
  O  O21  1  0.30297400  0.17771600  0.99409300  1
  O  O22  1  0.69702600  0.82228400  0.00590700  1
  O  O23  1  0.91338900  0.27525000  0.09826300  1
  O  O24  1  0.08661100  0.72475000  0.90173700  1
  O  O25  1  0.86845700  0.13490000  0.82008200  1
  O  O26  1  0.13154300  0.86510000  0.17991800  1
