# generated using pymatgen
data_SmSiOs2C
_symmetry_space_group_name_H-M   'P 1'
_cell_length_a   5.89801876
_cell_length_b   5.89801876
_cell_length_c   7.18278100
_cell_angle_alpha   90.00000000
_cell_angle_beta   90.00000000
_cell_angle_gamma   141.05094890
_symmetry_Int_Tables_number   1
_chemical_formula_structural   SmSiOs2C
_chemical_formula_sum   'Sm2 Si2 Os4 C2'
_cell_volume   157.07222437
_cell_formula_units_Z   2
loop_
 _symmetry_equiv_pos_site_id
 _symmetry_equiv_pos_as_xyz
  1  'x, y, z'
loop_
 _atom_site_type_symbol
 _atom_site_label
 _atom_site_symmetry_multiplicity
 _atom_site_fract_x
 _atom_site_fract_y
 _atom_site_fract_z
 _atom_site_occupancy
  Sm  Sm0  1  0.54747000  0.45253000  0.25000000  1
  Sm  Sm1  1  0.45253000  0.54747000  0.75000000  1
  Si  Si2  1  0.26855500  0.73144500  0.25000000  1
  Si  Si3  1  0.73144500  0.26855500  0.75000000  1
  Os  Os4  1  0.83415300  0.16584700  0.05967500  1
  Os  Os5  1  0.16584700  0.83415300  0.94032500  1
  Os  Os6  1  0.16584700  0.83415300  0.55967500  1
  Os  Os7  1  0.83415300  0.16584700  0.44032500  1
  C  C8  1  0.00000000  0.00000000  0.00000000  1
  C  C9  1  0.00000000  0.00000000  0.50000000  1
