# generated using pymatgen
data_Ca20(CdGa3)3
_symmetry_space_group_name_H-M   'P 1'
_cell_length_a   8.10272400
_cell_length_b   8.10272400
_cell_length_c   14.73862300
_cell_angle_alpha   90.00000000
_cell_angle_beta   90.00000000
_cell_angle_gamma   90.00000000
_symmetry_Int_Tables_number   1
_chemical_formula_structural   Ca20(CdGa3)3
_chemical_formula_sum   'Ca20 Cd3 Ga9'
_cell_volume   967.65156214
_cell_formula_units_Z   1
loop_
 _symmetry_equiv_pos_site_id
 _symmetry_equiv_pos_as_xyz
  1  'x, y, z'
loop_
 _atom_site_type_symbol
 _atom_site_label
 _atom_site_symmetry_multiplicity
 _atom_site_fract_x
 _atom_site_fract_y
 _atom_site_fract_z
 _atom_site_occupancy
  Ca  Ca0  1  0.68066200  0.16614100  0.10603700  1
  Ca  Ca1  1  0.17116300  0.67156700  0.60940600  1
  Ca  Ca2  1  0.31933800  0.83385900  0.10603700  1
  Ca  Ca3  1  0.82883700  0.32843300  0.60940600  1
  Ca  Ca4  1  0.83385900  0.68066200  0.10603700  1
  Ca  Ca5  1  0.32843300  0.17116300  0.60940600  1
  Ca  Ca6  1  0.16614100  0.31933800  0.10603700  1
  Ca  Ca7  1  0.67156700  0.82883700  0.60940600  1
  Ca  Ca8  1  0.83385900  0.31933800  0.89396300  1
  Ca  Ca9  1  0.32843300  0.82883700  0.39059400  1
  Ca  Ca10  1  0.16614100  0.68066200  0.89396300  1
  Ca  Ca11  1  0.67156700  0.17116300  0.39059400  1
  Ca  Ca12  1  0.68066200  0.83385900  0.89396300  1
  Ca  Ca13  1  0.17116300  0.32843300  0.39059400  1
  Ca  Ca14  1  0.31933800  0.16614100  0.89396300  1
  Ca  Ca15  1  0.82883700  0.67156700  0.39059400  1
  Ca  Ca16  1  0.50000000  0.50000000  0.75349400  1
  Ca  Ca17  1  0.00000000  0.00000000  0.24724200  1
  Ca  Ca18  1  0.00000000  0.00000000  0.75275800  1
  Ca  Ca19  1  0.50000000  0.50000000  0.24650600  1
  Cd  Cd20  1  0.50000000  0.50000000  0.50000000  1
  Cd  Cd21  1  0.50000000  0.50000000  0.00000000  1
  Cd  Cd22  1  0.00000000  0.00000000  0.50000000  1
  Ga  Ga23  1  0.61282000  0.11501100  0.75123400  1
  Ga  Ga24  1  0.11501100  0.61282000  0.24876600  1
  Ga  Ga25  1  0.88498900  0.38718000  0.24876600  1
  Ga  Ga26  1  0.38718000  0.88498900  0.75123400  1
  Ga  Ga27  1  0.88498900  0.61282000  0.75123400  1
  Ga  Ga28  1  0.38718000  0.11501100  0.24876600  1
  Ga  Ga29  1  0.11501100  0.38718000  0.75123400  1
  Ga  Ga30  1  0.61282000  0.88498900  0.24876600  1
  Ga  Ga31  1  0.00000000  0.00000000  0.00000000  1
