# generated using pymatgen
data_Er2B6Os
_symmetry_space_group_name_H-M   'P 1'
_cell_length_a   3.63734100
_cell_length_b   9.11342800
_cell_length_c   11.48448300
_cell_angle_alpha   90.00000000
_cell_angle_beta   90.00000000
_cell_angle_gamma   90.00000000
_symmetry_Int_Tables_number   1
_chemical_formula_structural   Er2B6Os
_chemical_formula_sum   'Er8 B24 Os4'
_cell_volume   380.69505359
_cell_formula_units_Z   4
loop_
 _symmetry_equiv_pos_site_id
 _symmetry_equiv_pos_as_xyz
  1  'x, y, z'
loop_
 _atom_site_type_symbol
 _atom_site_label
 _atom_site_symmetry_multiplicity
 _atom_site_fract_x
 _atom_site_fract_y
 _atom_site_fract_z
 _atom_site_occupancy
  Er  Er0  1  0.00000000  0.32149200  0.41383100  1
  Er  Er1  1  0.00000000  0.67850800  0.58616900  1
  Er  Er2  1  0.00000000  0.82149200  0.08616900  1
  Er  Er3  1  0.00000000  0.17850800  0.91383100  1
  Er  Er4  1  0.00000000  0.94530500  0.37329900  1
  Er  Er5  1  0.00000000  0.05469500  0.62670100  1
  Er  Er6  1  0.00000000  0.44530500  0.12670100  1
  Er  Er7  1  0.00000000  0.55469500  0.87329900  1
  B  B8  1  0.50000000  0.55421200  0.43361500  1
  B  B9  1  0.50000000  0.44578800  0.56638500  1
  B  B10  1  0.50000000  0.05421200  0.06638500  1
  B  B11  1  0.50000000  0.94578800  0.93361500  1
  B  B12  1  0.50000000  0.74921800  0.42085200  1
  B  B13  1  0.50000000  0.25078200  0.57914800  1
  B  B14  1  0.50000000  0.24921800  0.07914800  1
  B  B15  1  0.50000000  0.75078200  0.92085200  1
  B  B16  1  0.50000000  0.79233900  0.26709200  1
  B  B17  1  0.50000000  0.20766100  0.73290800  1
  B  B18  1  0.50000000  0.29233900  0.23290800  1
  B  B19  1  0.50000000  0.70766100  0.76709200  1
  B  B20  1  0.50000000  0.63269200  0.18574700  1
  B  B21  1  0.50000000  0.36730800  0.81425300  1
  B  B22  1  0.50000000  0.13269200  0.31425300  1
  B  B23  1  0.50000000  0.86730800  0.68574700  1
  B  B24  1  0.50000000  0.98401000  0.21282800  1
  B  B25  1  0.50000000  0.01599000  0.78717200  1
  B  B26  1  0.50000000  0.48401000  0.28717200  1
  B  B27  1  0.50000000  0.51599000  0.71282800  1
  B  B28  1  0.50000000  0.60974000  0.03063400  1
  B  B29  1  0.50000000  0.39026000  0.96936600  1
  B  B30  1  0.50000000  0.10974000  0.46936600  1
  B  B31  1  0.50000000  0.89026000  0.53063400  1
  Os  Os32  1  0.00000000  0.63840800  0.32160800  1
  Os  Os33  1  0.00000000  0.36159200  0.67839200  1
  Os  Os34  1  0.00000000  0.13840800  0.17839200  1
  Os  Os35  1  0.00000000  0.86159200  0.82160800  1
