# generated using pymatgen
data_BaNp(HO2)3
_symmetry_space_group_name_H-M   'P 1'
_cell_length_a   6.90513100
_cell_length_b   7.08294883
_cell_length_c   7.44457494
_cell_angle_alpha   89.43092379
_cell_angle_beta   114.50021212
_cell_angle_gamma   113.45430484
_symmetry_Int_Tables_number   1
_chemical_formula_structural   BaNp(HO2)3
_chemical_formula_sum   'Ba2 Np2 H6 O12'
_cell_volume   298.65192076
_cell_formula_units_Z   2
loop_
 _symmetry_equiv_pos_site_id
 _symmetry_equiv_pos_as_xyz
  1  'x, y, z'
loop_
 _atom_site_type_symbol
 _atom_site_label
 _atom_site_symmetry_multiplicity
 _atom_site_fract_x
 _atom_site_fract_y
 _atom_site_fract_z
 _atom_site_occupancy
  Ba  Ba0  1  0.29199300  0.95851900  0.66830000  1
  Ba  Ba1  1  0.70800700  0.04148100  0.33170000  1
  Np  Np2  1  0.00000000  0.00000000  0.00000000  1
  Np  Np3  1  0.50000000  0.50000000  0.50000000  1
  H  H4  1  0.77008000  0.54773700  0.93883900  1
  H  H5  1  0.22992000  0.45226300  0.06116100  1
  H  H6  1  0.01598300  0.54394600  0.79520100  1
  H  H7  1  0.98401700  0.45605400  0.20479900  1
  H  H8  1  0.17392600  0.46368300  0.73633400  1
  H  H9  1  0.82607400  0.53631700  0.26366600  1
  O  O10  1  0.71218600  0.01050100  0.95853400  1
  O  O11  1  0.28781400  0.98949900  0.04146600  1
  O  O12  1  0.96529100  0.06035300  0.74259000  1
  O  O13  1  0.03470900  0.93964700  0.25741000  1
  O  O14  1  0.74285600  0.65648000  0.42241300  1
  O  O15  1  0.25714400  0.34352000  0.57758700  1
  O  O16  1  0.57907400  0.26774700  0.52360600  1
  O  O17  1  0.42092600  0.73225300  0.47639400  1
  O  O18  1  0.79132100  0.63651000  0.83853500  1
  O  O19  1  0.20867900  0.36349000  0.16146500  1
  O  O20  1  0.17910500  0.57162800  0.82382900  1
  O  O21  1  0.82089500  0.42837200  0.17617100  1
