# generated using pymatgen
data_P3Pb5BrO12
_symmetry_space_group_name_H-M   'P 1'
_cell_length_a   10.20287617
_cell_length_b   10.20287617
_cell_length_c   7.43388500
_cell_angle_alpha   90.00000000
_cell_angle_beta   90.00000000
_cell_angle_gamma   120.00000108
_symmetry_Int_Tables_number   1
_chemical_formula_structural   P3Pb5BrO12
_chemical_formula_sum   'P6 Pb10 Br2 O24'
_cell_volume   670.18036021
_cell_formula_units_Z   2
loop_
 _symmetry_equiv_pos_site_id
 _symmetry_equiv_pos_as_xyz
  1  'x, y, z'
loop_
 _atom_site_type_symbol
 _atom_site_label
 _atom_site_symmetry_multiplicity
 _atom_site_fract_x
 _atom_site_fract_y
 _atom_site_fract_z
 _atom_site_occupancy
  P  P0  1  0.96461900  0.58964800  0.74992300  1
  P  P1  1  0.41035200  0.37497000  0.74992300  1
  P  P2  1  0.62503000  0.03538100  0.74992300  1
  P  P3  1  0.03538100  0.41035200  0.24992300  1
  P  P4  1  0.58964800  0.62503000  0.24992300  1
  P  P5  1  0.37497000  0.96461900  0.24992300  1
  Pb  Pb6  1  0.74645000  0.73808200  0.74930000  1
  Pb  Pb7  1  0.26191800  0.00836700  0.74930000  1
  Pb  Pb8  1  0.99163300  0.25355000  0.74930000  1
  Pb  Pb9  1  0.25355000  0.26191800  0.24930000  1
  Pb  Pb10  1  0.73808200  0.99163300  0.24930000  1
  Pb  Pb11  1  0.00836700  0.74645000  0.24930000  1
  Pb  Pb12  1  0.33333300  0.66666700  0.50371900  1
  Pb  Pb13  1  0.66666700  0.33333300  0.00371900  1
  Pb  Pb14  1  0.66666700  0.33333300  0.49618100  1
  Pb  Pb15  1  0.33333300  0.66666700  0.99618100  1
  Br  Br16  1  0.00000000  0.00000000  0.99039500  1
  Br  Br17  1  0.00000000  0.00000000  0.49039500  1
  O  O18  1  0.90866500  0.63770600  0.58075800  1
  O  O19  1  0.36229400  0.27096000  0.58075800  1
  O  O20  1  0.72904000  0.09133500  0.58075800  1
  O  O21  1  0.09133500  0.36229400  0.08075800  1
  O  O22  1  0.63770600  0.72904000  0.08075800  1
  O  O23  1  0.27096000  0.90866500  0.08075800  1
  O  O24  1  0.09179400  0.36274700  0.41896300  1
  O  O25  1  0.63725300  0.72904700  0.41896300  1
  O  O26  1  0.27095300  0.90820600  0.41896300  1
  O  O27  1  0.90820600  0.63725300  0.91896300  1
  O  O28  1  0.36274700  0.27095300  0.91896300  1
  O  O29  1  0.72904700  0.09179400  0.91896300  1
  O  O30  1  0.87861200  0.41038800  0.74990400  1
  O  O31  1  0.58961200  0.46822400  0.74990400  1
  O  O32  1  0.53177600  0.12138800  0.74990400  1
  O  O33  1  0.12138800  0.58961200  0.24990400  1
  O  O34  1  0.41038800  0.53177600  0.24990400  1
  O  O35  1  0.46822400  0.87861200  0.24990400  1
  O  O36  1  0.13841800  0.65424300  0.75005900  1
  O  O37  1  0.34575700  0.48417500  0.75005900  1
  O  O38  1  0.51582500  0.86158200  0.75005900  1
  O  O39  1  0.86158200  0.34575700  0.25005900  1
  O  O40  1  0.65424300  0.51582500  0.25005900  1
  O  O41  1  0.48417500  0.13841800  0.25005900  1
