# generated using pymatgen
data_SmSiPt3
_symmetry_space_group_name_H-M   'P 1'
_cell_length_a   4.09536400
_cell_length_b   4.09536400
_cell_length_c   5.50974400
_cell_angle_alpha   90.00000000
_cell_angle_beta   90.00000000
_cell_angle_gamma   90.00000000
_symmetry_Int_Tables_number   1
_chemical_formula_structural   SmSiPt3
_chemical_formula_sum   'Sm1 Si1 Pt3'
_cell_volume   92.40946104
_cell_formula_units_Z   1
loop_
 _symmetry_equiv_pos_site_id
 _symmetry_equiv_pos_as_xyz
  1  'x, y, z'
loop_
 _atom_site_type_symbol
 _atom_site_label
 _atom_site_symmetry_multiplicity
 _atom_site_fract_x
 _atom_site_fract_y
 _atom_site_fract_z
 _atom_site_occupancy
  Sm  Sm0  1  0.50000000  0.50000000  0.68546700  1
  Si  Si1  1  0.00000000  0.00000000  0.97101400  1
  Pt  Pt2  1  0.50000000  0.00000000  0.19849300  1
  Pt  Pt3  1  0.00000000  0.50000000  0.19849300  1
  Pt  Pt4  1  0.00000000  0.00000000  0.55473300  1
