# generated using pymatgen
data_Al2(MoO4)3
_symmetry_space_group_name_H-M   'P 1'
_cell_length_a   9.17901000
_cell_length_b   9.26421900
_cell_length_c   12.79893200
_cell_angle_alpha   90.00000000
_cell_angle_beta   90.00000000
_cell_angle_gamma   90.00000000
_symmetry_Int_Tables_number   1
_chemical_formula_structural   Al2(MoO4)3
_chemical_formula_sum   'Al8 Mo12 O48'
_cell_volume   1088.37457436
_cell_formula_units_Z   4
loop_
 _symmetry_equiv_pos_site_id
 _symmetry_equiv_pos_as_xyz
  1  'x, y, z'
loop_
 _atom_site_type_symbol
 _atom_site_label
 _atom_site_symmetry_multiplicity
 _atom_site_fract_x
 _atom_site_fract_y
 _atom_site_fract_z
 _atom_site_occupancy
  Al  Al0  1  0.24986200  0.46594000  0.38129600  1
  Al  Al1  1  0.24986200  0.03406000  0.61870500  1
  Al  Al2  1  0.25013800  0.96594000  0.11870500  1
  Al  Al3  1  0.25013800  0.53406000  0.88129500  1
  Al  Al4  1  0.75013800  0.53406000  0.61870500  1
  Al  Al5  1  0.75013800  0.96594000  0.38129600  1
  Al  Al6  1  0.74986200  0.03406000  0.88129500  1
  Al  Al7  1  0.74986200  0.46594000  0.11870500  1
  Mo  Mo8  1  0.02632200  0.75000000  0.50000000  1
  Mo  Mo9  1  0.52632100  0.75000000  0.00000000  1
  Mo  Mo10  1  0.97367900  0.25000000  0.50000000  1
  Mo  Mo11  1  0.47367800  0.25000000  0.00000000  1
  Mo  Mo12  1  0.39467200  0.11645900  0.35515400  1
  Mo  Mo13  1  0.39467200  0.38354100  0.64484500  1
  Mo  Mo14  1  0.10532800  0.61645900  0.14484500  1
  Mo  Mo15  1  0.10532800  0.88354100  0.85515500  1
  Mo  Mo16  1  0.60532800  0.88354100  0.64484500  1
  Mo  Mo17  1  0.60532800  0.61645900  0.35515400  1
  Mo  Mo18  1  0.89467200  0.38354100  0.85515500  1
  Mo  Mo19  1  0.89467200  0.11645900  0.14484500  1
  O  O20  1  0.85963100  0.30441600  0.16753200  1
  O  O21  1  0.85963100  0.19558400  0.83246800  1
  O  O22  1  0.64036900  0.80441600  0.33246900  1
  O  O23  1  0.64036900  0.69558400  0.66753200  1
  O  O24  1  0.14036900  0.69558400  0.83246800  1
  O  O25  1  0.14036900  0.80441600  0.16753200  1
  O  O26  1  0.35963100  0.19558400  0.66753200  1
  O  O27  1  0.35963100  0.30441600  0.33246900  1
  O  O28  1  0.81692900  0.06864000  0.02161900  1
  O  O29  1  0.81692900  0.43136000  0.97838100  1
  O  O30  1  0.68307100  0.56863900  0.47838100  1
  O  O31  1  0.68307100  0.93136000  0.52161900  1
  O  O32  1  0.18307100  0.93136000  0.97838100  1
  O  O33  1  0.18307100  0.56863900  0.02161900  1
  O  O34  1  0.31692900  0.43136000  0.52161900  1
  O  O35  1  0.31692900  0.06864000  0.47838100  1
  O  O36  1  0.41279800  0.65974300  0.90653300  1
  O  O37  1  0.58720200  0.15974300  0.90653300  1
  O  O38  1  0.91279800  0.84025700  0.40653400  1
  O  O39  1  0.91279800  0.65974300  0.59346700  1
  O  O40  1  0.08777600  0.08962600  0.14039900  1
  O  O41  1  0.08777600  0.41037400  0.85960100  1
  O  O42  1  0.41222400  0.58962600  0.35960100  1
  O  O43  1  0.41222400  0.91037300  0.64039900  1
  O  O44  1  0.91222500  0.91037300  0.85960100  1
  O  O45  1  0.91222500  0.58962600  0.14039900  1
  O  O46  1  0.58777600  0.41037400  0.64039900  1
  O  O47  1  0.58777600  0.08962600  0.35960100  1
  O  O48  1  0.36181400  0.12292700  0.06763100  1
  O  O49  1  0.36181400  0.37707300  0.93237000  1
  O  O50  1  0.13818500  0.62292700  0.43236900  1
  O  O51  1  0.13818500  0.87707300  0.56763000  1
  O  O52  1  0.63818500  0.87707300  0.93237000  1
  O  O53  1  0.63818500  0.62292700  0.06763100  1
  O  O54  1  0.86181400  0.37707300  0.56763000  1
  O  O55  1  0.86181400  0.12292700  0.43236900  1
  O  O56  1  0.31578600  0.00579800  0.25528200  1
  O  O57  1  0.31578600  0.49420200  0.74471800  1
  O  O58  1  0.18421400  0.50579800  0.24471800  1
  O  O59  1  0.18421400  0.99420200  0.75528200  1
  O  O60  1  0.68421400  0.99420200  0.74471800  1
  O  O61  1  0.68421400  0.50579800  0.25528200  1
  O  O62  1  0.81578700  0.49420200  0.75528200  1
  O  O63  1  0.81578700  0.00579800  0.24471800  1
  O  O64  1  0.08720200  0.34025700  0.40653400  1
  O  O65  1  0.08720200  0.15974300  0.59346700  1
  O  O66  1  0.41279800  0.84025700  0.09346700  1
  O  O67  1  0.58720200  0.34025700  0.09346700  1
