# generated using pymatgen
data_Cr4GaCuS8
_symmetry_space_group_name_H-M   'P 1'
_cell_length_a   7.06155581
_cell_length_b   7.06155581
_cell_length_c   7.06155581
_cell_angle_alpha   60.00000000
_cell_angle_beta   60.00000000
_cell_angle_gamma   60.00000000
_symmetry_Int_Tables_number   1
_chemical_formula_structural   Cr4GaCuS8
_chemical_formula_sum   'Cr4 Ga1 Cu1 S8'
_cell_volume   248.99245656
_cell_formula_units_Z   1
loop_
 _symmetry_equiv_pos_site_id
 _symmetry_equiv_pos_as_xyz
  1  'x, y, z'
loop_
 _atom_site_type_symbol
 _atom_site_label
 _atom_site_symmetry_multiplicity
 _atom_site_fract_x
 _atom_site_fract_y
 _atom_site_fract_z
 _atom_site_occupancy
  Cr  Cr0  1  0.63636500  0.12121200  0.12121200  1
  Cr  Cr1  1  0.12121200  0.63636500  0.12121200  1
  Cr  Cr2  1  0.12121200  0.12121200  0.63636500  1
  Cr  Cr3  1  0.12121200  0.12121200  0.12121200  1
  Ga  Ga4  1  0.50000000  0.50000000  0.50000000  1
  Cu  Cu5  1  0.75000000  0.75000000  0.75000000  1
  S  S6  1  0.34886400  0.88371200  0.88371200  1
  S  S7  1  0.88371200  0.34886400  0.88371200  1
  S  S8  1  0.88371200  0.88371200  0.34886400  1
  S  S9  1  0.88371200  0.88371200  0.88371200  1
  S  S10  1  0.90343000  0.36552300  0.36552300  1
  S  S11  1  0.36552300  0.90343000  0.36552300  1
  S  S12  1  0.36552300  0.36552300  0.90343000  1
  S  S13  1  0.36552300  0.36552300  0.36552300  1
