# generated using pymatgen
data_Mg149Nb
_symmetry_space_group_name_H-M   'P 1'
_cell_length_a   15.93737087
_cell_length_b   15.93737451
_cell_length_c   15.60343729
_cell_angle_alpha   90.00004062
_cell_angle_beta   89.99996138
_cell_angle_gamma   120.00087709
_symmetry_Int_Tables_number   1
_chemical_formula_structural   Mg149Nb
_chemical_formula_sum   'Mg149 Nb1'
_cell_volume   3432.26277584
_cell_formula_units_Z   1
loop_
 _symmetry_equiv_pos_site_id
 _symmetry_equiv_pos_as_xyz
  1  'x, y, z'
loop_
 _atom_site_type_symbol
 _atom_site_label
 _atom_site_symmetry_multiplicity
 _atom_site_fract_x
 _atom_site_fract_y
 _atom_site_fract_z
 _atom_site_occupancy
  Mg  Mg0  1  0.60250603  0.00037145  0.00000062  1
  Mg  Mg1  1  0.39786423  0.00037024  0.00000046  1
  Mg  Mg2  1  0.19441858  0.19455521  0.00000145  1
  Mg  Mg3  1  0.00013137  0.19455167  0.99999804  1
  Mg  Mg4  1  0.59972705  0.19945500  0.99999762  1
  Mg  Mg5  1  0.39987687  0.19993527  0.99999979  1
  Mg  Mg6  1  0.80005867  0.19993690  0.99999917  1
  Mg  Mg7  1  0.39786379  0.39749186  0.99999924  1
  Mg  Mg8  1  0.99962764  0.39748973  0.99999926  1
  Mg  Mg9  1  0.19967452  0.39935006  0.99999939  1
  Mg  Mg10  1  0.80054591  0.40027576  0.99999634  1
  Mg  Mg11  1  0.59972624  0.40027417  -0.00000052  1
  Mg  Mg12  1  0.19977205  0.59988596  0.00000094  1
  Mg  Mg13  1  0.40011134  0.59988725  0.00000200  1
  Mg  Mg14  1  0.80006538  0.60012618  0.00000137  1
  Mg  Mg15  1  0.60250794  0.60213628  0.00000039  1
  Mg  Mg16  1  0.99963044  0.60213535  0.00000033  1
  Mg  Mg17  1  0.19967715  0.80032571  -0.00000047  1
  Mg  Mg18  1  0.60064853  0.80032613  0.99999870  1
  Mg  Mg19  1  0.40011149  0.80022561  0.00000031  1
  Mg  Mg20  1  0.00013588  0.80558310  0.00000182  1
  Mg  Mg21  1  0.80545037  0.80558124  -0.00000174  1
  Mg  Mg22  1  0.19442092  0.99986790  0.00000064  1
  Mg  Mg23  1  0.80545064  0.99986795  0.00000067  1
  Mg  Mg24  1  0.06496162  0.12992089  0.16163202  1
  Mg  Mg25  1  0.87007981  0.93504076  0.16163292  1
  Mg  Mg26  1  0.06496040  0.93504002  0.16163250  1
  Mg  Mg27  1  0.26696336  0.13348151  0.16589104  1
  Mg  Mg28  1  0.86651818  0.13348028  0.16588824  1
  Mg  Mg29  1  0.86652385  0.73304341  0.16589062  1
  Mg  Mg30  1  0.06660353  0.53330262  0.16638202  1
  Mg  Mg31  1  0.46669707  0.53330374  0.16638223  1
  Mg  Mg32  1  0.46669604  0.93339306  0.16638214  1
  Mg  Mg33  1  0.26608900  0.33319635  0.16643325  1
  Mg  Mg34  1  0.06710989  0.33320082  0.16643300  1
  Mg  Mg35  1  0.66679927  0.73390818  0.16643174  1
  Mg  Mg36  1  0.06711166  0.73391188  0.16643275  1
  Mg  Mg37  1  0.66679688  0.93288717  0.16643143  1
  Mg  Mg38  1  0.26608923  0.93289072  0.16643228  1
  Mg  Mg39  1  0.66666688  0.33333436  0.16644775  1
  Mg  Mg40  1  0.66690892  0.13332042  0.16671419  1
  Mg  Mg41  1  0.46641420  0.13332095  0.16671240  1
  Mg  Mg42  1  0.46641458  0.33309318  0.16671240  1
  Mg  Mg43  1  0.86668041  0.33309217  0.16671410  1
  Mg  Mg44  1  0.86668177  0.53358861  0.16671411  1
  Mg  Mg45  1  0.66690680  0.53359009  0.16671459  1
  Mg  Mg46  1  0.26681366  0.53363049  0.16680985  1
  Mg  Mg47  1  0.46637298  0.73318761  0.16680847  1
  Mg  Mg48  1  0.26681395  0.73318710  0.16680857  1
  Mg  Mg49  1  0.19920217  0.19950336  0.33148782  1
  Mg  Mg50  1  0.00029688  0.19950263  0.33148895  1
  Mg  Mg51  1  0.00029698  0.80079456  0.33148886  1
  Mg  Mg52  1  0.80049782  0.80079513  0.33148963  1
  Mg  Mg53  1  0.19920610  0.99970572  0.33148789  1
  Mg  Mg54  1  0.80049674  0.99970091  0.33148501  1
  Mg  Mg55  1  0.60027076  0.99996113  0.33308793  1
  Mg  Mg56  1  0.39968973  0.99996236  0.33308946  1
  Mg  Mg57  1  0.00003762  0.39972975  0.33308742  1
  Mg  Mg58  1  0.39969397  0.39972838  0.33309031  1
  Mg  Mg59  1  0.60027217  0.60031012  0.33308966  1
  Mg  Mg60  1  0.00003739  0.60030715  0.33308860  1
  Mg  Mg61  1  0.59989281  0.19978780  0.33315293  1
  Mg  Mg62  1  0.59989539  0.40010743  0.33315224  1
  Mg  Mg63  1  0.80020997  0.40010452  0.33315412  1
  Mg  Mg64  1  0.99999933  -0.00000219  0.33358117  1
  Mg  Mg65  1  0.39979667  0.19989897  0.33346511  1
  Mg  Mg66  1  0.80010262  0.19989898  0.33346848  1
  Mg  Mg67  1  0.80010153  0.60019900  0.33347015  1
  Mg  Mg68  1  0.20015023  0.40030282  0.33371558  1
  Mg  Mg69  1  0.59969750  0.79985022  0.33371851  1
  Mg  Mg70  1  0.20015172  0.79985130  0.33371707  1
  Mg  Mg71  1  0.40002239  0.59997834  0.33358085  1
  Mg  Mg72  1  0.19995762  0.59997824  0.33358182  1
  Mg  Mg73  1  0.40001943  0.80004084  0.33358145  1
  Mg  Mg74  1  0.26627418  0.13313937  0.50000058  1
  Mg  Mg75  1  0.86686375  0.13313419  0.50000024  1
  Mg  Mg76  1  0.06665402  0.13331835  0.49999926  1
  Mg  Mg77  1  0.46692644  0.13399142  0.50000203  1
  Mg  Mg78  1  0.66706394  0.13399209  0.49999984  1
  Mg  Mg79  1  0.26651125  0.33284259  0.49999999  1
  Mg  Mg80  1  0.06632813  0.33283771  0.50000002  1
  Mg  Mg81  1  0.46692726  0.33293507  0.49999863  1
  Mg  Mg82  1  0.86600853  0.33293742  0.50000110  1
  Mg  Mg83  1  0.66666658  0.33333138  0.49999967  1
  Mg  Mg84  1  0.66706419  0.53307142  0.50000144  1
  Mg  Mg85  1  0.86601290  0.53307324  0.50000157  1
  Mg  Mg86  1  0.46718757  0.53281190  0.50000169  1
  Mg  Mg87  1  0.06562296  0.53281266  0.49999915  1
  Mg  Mg88  1  0.26646909  0.53293341  0.49999949  1
  Mg  Mg89  1  0.06633123  0.73349082  0.49999947  1
  Mg  Mg90  1  0.66715993  0.73348730  0.49999967  1
  Mg  Mg91  1  0.46706928  0.73353276  0.50000151  1
  Mg  Mg92  1  0.26646442  0.73353356  0.50000145  1
  Mg  Mg93  1  0.86686490  0.73373082  0.50000072  1
  Mg  Mg94  1  0.86668468  0.93334334  0.50000343  1
  Mg  Mg95  1  0.06665959  0.93333863  0.49999970  1
  Mg  Mg96  1  0.26650955  0.93367218  0.50000077  1
  Mg  Mg97  1  0.66715982  0.93366764  0.49999940  1
  Mg  Mg98  1  0.46718741  0.93437705  0.50000144  1
  Mg  Mg99  1  0.40001917  0.59997455  0.66642002  1
  Mg  Mg100  1  0.19995812  0.59998044  0.66641993  1
  Mg  Mg101  1  0.40002182  0.80004275  0.66641733  1
  Mg  Mg102  1  0.20015303  0.40030297  0.66628247  1
  Mg  Mg103  1  0.59969583  0.79985003  0.66628332  1
  Mg  Mg104  1  0.20015257  0.79984924  0.66628573  1
  Mg  Mg105  1  0.39979444  0.19989798  0.66653055  1
  Mg  Mg106  1  0.80010272  0.19990237  0.66653240  1
  Mg  Mg107  1  0.80010213  0.60020006  0.66653228  1
  Mg  Mg108  1  0.99999862  0.99999802  0.66641497  1
  Mg  Mg109  1  0.59989346  0.19978680  0.66684412  1
  Mg  Mg110  1  0.59989592  0.40010613  0.66684480  1
  Mg  Mg111  1  0.80021166  0.40010665  0.66684636  1
  Mg  Mg112  1  0.60027206  0.99996410  0.66691053  1
  Mg  Mg113  1  0.39969365  0.99996462  0.66691074  1
  Mg  Mg114  1  0.00003453  0.39972572  0.66690977  1
  Mg  Mg115  1  0.39969454  0.39973165  0.66691129  1
  Mg  Mg116  1  0.60027024  0.60030642  0.66690970  1
  Mg  Mg117  1  0.00003603  0.60030536  0.66691265  1
  Mg  Mg118  1  0.19920450  0.19950032  0.66850949  1
  Mg  Mg119  1  0.00029746  0.19949975  0.66851432  1
  Mg  Mg120  1  0.00029416  0.80079600  0.66851102  1
  Mg  Mg121  1  0.80049729  0.80079251  0.66851189  1
  Mg  Mg122  1  0.19920820  0.99970605  0.66851239  1
  Mg  Mg123  1  0.80049629  0.99970324  0.66851065  1
  Mg  Mg124  1  0.26681749  0.53362990  0.83319016  1
  Mg  Mg125  1  0.46637155  0.73318568  0.83319092  1
  Mg  Mg126  1  0.26681349  0.73318627  0.83319119  1
  Mg  Mg127  1  0.66690643  0.13331670  0.83328720  1
  Mg  Mg128  1  0.46641235  0.13331851  0.83328586  1
  Mg  Mg129  1  0.46641375  0.33309543  0.83328809  1
  Mg  Mg130  1  0.86668241  0.33309700  0.83328614  1
  Mg  Mg131  1  0.86668261  0.53358983  0.83328355  1
  Mg  Mg132  1  0.66690741  0.53358703  0.83328452  1
  Mg  Mg133  1  0.66666675  0.33333336  0.83355254  1
  Mg  Mg134  1  0.26609060  0.33319917  0.83356783  1
  Mg  Mg135  1  0.06711043  0.33320354  0.83356980  1
  Mg  Mg136  1  0.66679812  0.73390893  0.83356593  1
  Mg  Mg137  1  0.06710759  0.73390498  0.83356617  1
  Mg  Mg138  1  0.66679736  0.93288986  0.83356469  1
  Mg  Mg139  1  0.26609311  0.93288905  0.83356848  1
  Mg  Mg140  1  0.06660602  0.53330391  0.83361819  1
  Mg  Mg141  1  0.46669531  0.53329956  0.83361811  1
  Mg  Mg142  1  0.46669489  0.93339258  0.83361930  1
  Mg  Mg143  1  0.26695979  0.13348202  0.83410822  1
  Mg  Mg144  1  0.86651871  0.13347756  0.83410656  1
  Mg  Mg145  1  0.86652148  0.73303964  0.83410649  1
  Mg  Mg146  1  0.06496059  0.12991986  0.83836446  1
  Mg  Mg147  1  0.87008041  0.93504091  0.83836594  1
  Mg  Mg148  1  0.06496430  0.93504368  0.83836631  1
  Nb  Nb149  1  0.99998550  0.99999014  0.00000591  1
