# generated using pymatgen
data_KZn2P2HO8
_symmetry_space_group_name_H-M   'P 1'
_cell_length_a   5.28926600
_cell_length_b   8.92623444
_cell_length_c   9.56361526
_cell_angle_alpha   96.74917062
_cell_angle_beta   101.62475917
_cell_angle_gamma   107.15175911
_symmetry_Int_Tables_number   1
_chemical_formula_structural   KZn2P2HO8
_chemical_formula_sum   'K2 Zn4 P4 H2 O16'
_cell_volume   414.97720306
_cell_formula_units_Z   2
loop_
 _symmetry_equiv_pos_site_id
 _symmetry_equiv_pos_as_xyz
  1  'x, y, z'
loop_
 _atom_site_type_symbol
 _atom_site_label
 _atom_site_symmetry_multiplicity
 _atom_site_fract_x
 _atom_site_fract_y
 _atom_site_fract_z
 _atom_site_occupancy
  K  K0  1  0.40412600  0.69500600  0.67926300  1
  K  K1  1  0.59587400  0.30499400  0.32073700  1
  Zn  Zn2  1  0.22068400  0.61398800  0.23686900  1
  Zn  Zn3  1  0.77931600  0.38601200  0.76313100  1
  Zn  Zn4  1  0.68450700  0.88542400  0.10890800  1
  Zn  Zn5  1  0.31549300  0.11457600  0.89109200  1
  P  P6  1  0.08719000  0.75547100  0.94554600  1
  P  P7  1  0.91281000  0.24452900  0.05445400  1
  P  P8  1  0.84589300  0.74934800  0.39550200  1
  P  P9  1  0.15410700  0.25065200  0.60449800  1
  H  H10  1  0.96690000  0.91633000  0.60847400  1
  H  H11  1  0.03310000  0.08367000  0.39152600  1
  O  O12  1  0.96606100  0.40417300  0.15374200  1
  O  O13  1  0.03393900  0.59582700  0.84625800  1
  O  O14  1  0.28352400  0.76343200  0.09789100  1
  O  O15  1  0.71647600  0.23656800  0.90210900  1
  O  O16  1  0.74333300  0.11267100  0.12237100  1
  O  O17  1  0.25666700  0.88732900  0.87762900  1
  O  O18  1  0.81804100  0.77815300  0.96552200  1
  O  O19  1  0.18195900  0.22184700  0.03447800  1
  O  O20  1  0.58450000  0.60698200  0.32925300  1
  O  O21  1  0.41550000  0.39301800  0.67074700  1
  O  O22  1  0.85224800  0.89289100  0.31740100  1
  O  O23  1  0.14775200  0.10710900  0.68259900  1
  O  O24  1  0.10049600  0.69791300  0.40203200  1
  O  O25  1  0.89950400  0.30208700  0.59796800  1
  O  O26  1  0.84316000  0.80473200  0.56053800  1
  O  O27  1  0.15684000  0.19526800  0.43946200  1
