# generated using pymatgen
data_NaMn8O16
_symmetry_space_group_name_H-M   'P 1'
_cell_length_a   5.90848208
_cell_length_b   9.91286010
_cell_length_c   9.99517394
_cell_angle_alpha   89.50397111
_cell_angle_beta   90.01893023
_cell_angle_gamma   90.00082485
_symmetry_Int_Tables_number   1
_chemical_formula_structural   NaMn8O16
_chemical_formula_sum   'Na2 Mn16 O32'
_cell_volume   585.39492983
_cell_formula_units_Z   2
loop_
 _symmetry_equiv_pos_site_id
 _symmetry_equiv_pos_as_xyz
  1  'x, y, z'
loop_
 _atom_site_type_symbol
 _atom_site_label
 _atom_site_symmetry_multiplicity
 _atom_site_fract_x
 _atom_site_fract_y
 _atom_site_fract_z
 _atom_site_occupancy
  Na  Na0  1  0.24949900  0.49278100  0.50123100  1
  Na  Na1  1  0.50089700  0.99275600  0.00125600  1
  Mn  Mn2  1  0.49968700  0.34150800  0.83562000  1
  Mn  Mn3  1  0.99826000  0.34050400  0.83588800  1
  Mn  Mn4  1  0.50178500  0.82551700  0.65027600  1
  Mn  Mn5  1  0.00015500  0.82523100  0.65121500  1
  Mn  Mn6  1  0.00018700  0.16023400  0.35063400  1
  Mn  Mn7  1  0.50156000  0.15981200  0.35137300  1
  Mn  Mn8  1  0.99809000  0.64544800  0.16625400  1
  Mn  Mn9  1  0.49972000  0.64410000  0.16659700  1
  Mn  Mn10  1  0.75117900  0.84069600  0.33529800  1
  Mn  Mn11  1  0.24991000  0.84192600  0.33550500  1
  Mn  Mn12  1  0.74953500  0.32462000  0.15104400  1
  Mn  Mn13  1  0.24856400  0.32489900  0.14999300  1
  Mn  Mn14  1  0.74928200  0.66083400  0.85075600  1
  Mn  Mn15  1  0.24893500  0.66031200  0.85169800  1
  Mn  Mn16  1  0.75162300  0.14500900  0.66635700  1
  Mn  Mn17  1  0.25057700  0.14403400  0.66637600  1
  O  O18  1  0.74784100  0.66485500  0.04363900  1
  O  O19  1  0.24927200  0.66439500  0.04418600  1
  O  O20  1  0.75107700  0.03535600  0.34013300  1
  O  O21  1  0.25099500  0.03578700  0.33962400  1
  O  O22  1  0.75137600  0.95026000  0.66173100  1
  O  O23  1  0.25117500  0.94982400  0.66240600  1
  O  O24  1  0.74789900  0.32077500  0.95818900  1
  O  O25  1  0.24921700  0.32121000  0.95767300  1
  O  O26  1  0.00182200  0.16395300  0.54362300  1
  O  O27  1  0.50095800  0.16337200  0.54395300  1
  O  O28  1  0.99847600  0.53516600  0.84038800  1
  O  O29  1  0.49880600  0.53552200  0.83959800  1
  O  O30  1  0.49900600  0.45009800  0.16228600  1
  O  O31  1  0.99848500  0.45056100  0.16131000  1
  O  O32  1  0.50079200  0.82216200  0.45778000  1
  O  O33  1  0.00142800  0.82155300  0.45816100  1
  O  O34  1  0.49958900  0.84118400  0.20470300  1
  O  O35  1  0.00025200  0.84113600  0.20778500  1
  O  O36  1  0.99981700  0.19463200  0.15863200  1
  O  O37  1  0.50066500  0.19142100  0.15756000  1
  O  O38  1  0.00033200  0.14534200  0.79440500  1
  O  O39  1  0.49944200  0.14490900  0.79741900  1
  O  O40  1  0.50063700  0.79352900  0.84442900  1
  O  O41  1  0.00013100  0.79055100  0.84339100  1
  O  O42  1  0.74978900  0.33937000  0.70703700  1
  O  O43  1  0.25084700  0.34005100  0.70409500  1
  O  O44  1  0.74989000  0.69522900  0.65823600  1
  O  O45  1  0.24978200  0.69258500  0.65720700  1
  O  O46  1  0.74981300  0.64691200  0.29518800  1
  O  O47  1  0.25094600  0.64607200  0.29794300  1
  O  O48  1  0.74996800  0.28989300  0.34385100  1
  O  O49  1  0.25002600  0.29232100  0.34475100  1
