# generated using pymatgen
data_AlVO4
_symmetry_space_group_name_H-M   'P 1'
_cell_length_a   6.62787200
_cell_length_b   7.85185484
_cell_length_c   9.28064760
_cell_angle_alpha   96.13774643
_cell_angle_beta   107.34086833
_cell_angle_gamma   101.51242060
_symmetry_Int_Tables_number   1
_chemical_formula_structural   AlVO4
_chemical_formula_sum   'Al6 V6 O24'
_cell_volume   444.54125520
_cell_formula_units_Z   6
loop_
 _symmetry_equiv_pos_site_id
 _symmetry_equiv_pos_as_xyz
  1  'x, y, z'
loop_
 _atom_site_type_symbol
 _atom_site_label
 _atom_site_symmetry_multiplicity
 _atom_site_fract_x
 _atom_site_fract_y
 _atom_site_fract_z
 _atom_site_occupancy
  Al  Al0  1  0.74857300  0.69899300  0.40762800  1
  Al  Al1  1  0.25142700  0.30100700  0.59237200  1
  Al  Al2  1  0.46066700  0.88164600  0.20947200  1
  Al  Al3  1  0.53933300  0.11835400  0.79052800  1
  Al  Al4  1  0.96286700  0.30666300  0.00737100  1
  Al  Al5  1  0.03713300  0.69333700  0.99262900  1
  V  V6  1  0.00300500  0.99550500  0.25535600  1
  V  V7  1  0.99699500  0.00449500  0.74464400  1
  V  V8  1  0.19501700  0.60063100  0.34275400  1
  V  V9  1  0.80498300  0.39936900  0.65724600  1
  V  V10  1  0.51638600  0.29906500  0.12459800  1
  V  V11  1  0.48361400  0.70093500  0.87540200  1
  O  O12  1  0.04943600  0.85025400  0.85434400  1
  O  O13  1  0.95056400  0.14974600  0.14565600  1
  O  O14  1  0.84367400  0.13348000  0.82523600  1
  O  O15  1  0.15632600  0.86652000  0.17476400  1
  O  O16  1  0.95082400  0.47829700  0.85887600  1
  O  O17  1  0.04917600  0.52170300  0.14112400  1
  O  O18  1  0.74927900  0.70434200  0.96848200  1
  O  O19  1  0.25072100  0.29565800  0.03151800  1
  O  O20  1  0.64607200  0.27176500  0.97615000  1
  O  O21  1  0.35392800  0.72823500  0.02385000  1
  O  O22  1  0.47848600  0.88438300  0.78576000  1
  O  O23  1  0.52151400  0.11561700  0.21424000  1
  O  O24  1  0.64195100  0.49052700  0.25463000  1
  O  O25  1  0.35804900  0.50947300  0.74537000  1
  O  O26  1  0.25645700  0.43581500  0.43630400  1
  O  O27  1  0.74354300  0.56418500  0.56369600  1
  O  O28  1  0.03986000  0.70234800  0.42291600  1
  O  O29  1  0.96014000  0.29765200  0.57708400  1
  O  O30  1  0.16043000  0.10015800  0.43243400  1
  O  O31  1  0.83957000  0.89984200  0.56756600  1
  O  O32  1  0.45740200  0.74212300  0.35977900  1
  O  O33  1  0.54259800  0.25787700  0.64022100  1
  O  O34  1  0.75000200  0.86458900  0.26412400  1
  O  O35  1  0.24999800  0.13541100  0.73587600  1
