# generated using pymatgen
data_Cu2PO4
_symmetry_space_group_name_H-M   'P 1'
_cell_length_a   6.05083600
_cell_length_b   6.34097261
_cell_length_c   9.39529059
_cell_angle_alpha   73.92303000
_cell_angle_beta   84.27762943
_cell_angle_gamma   79.37482460
_symmetry_Int_Tables_number   1
_chemical_formula_structural   Cu2PO4
_chemical_formula_sum   'Cu8 P4 O16'
_cell_volume   339.99119104
_cell_formula_units_Z   4
loop_
 _symmetry_equiv_pos_site_id
 _symmetry_equiv_pos_as_xyz
  1  'x, y, z'
loop_
 _atom_site_type_symbol
 _atom_site_label
 _atom_site_symmetry_multiplicity
 _atom_site_fract_x
 _atom_site_fract_y
 _atom_site_fract_z
 _atom_site_occupancy
  Cu  Cu0  1  0.80757300  0.67398900  0.02957800  1
  Cu  Cu1  1  0.19242700  0.32601100  0.97042200  1
  Cu  Cu2  1  0.97525600  0.89272000  0.26960200  1
  Cu  Cu3  1  0.02474400  0.10728000  0.73039800  1
  Cu  Cu4  1  0.44918900  0.61604100  0.36577100  1
  Cu  Cu5  1  0.55081100  0.38395900  0.63422900  1
  Cu  Cu6  1  0.56849100  0.81053000  0.65491400  1
  Cu  Cu7  1  0.43150900  0.18947000  0.34508600  1
  P  P8  1  0.12524600  0.70048900  0.61526000  1
  P  P9  1  0.87475400  0.29951100  0.38474000  1
  P  P10  1  0.28833300  0.80476500  0.00156100  1
  P  P11  1  0.71166700  0.19523500  0.99843900  1
  O  O12  1  0.80541500  0.95243300  0.09122000  1
  O  O13  1  0.19458500  0.04756700  0.90878000  1
  O  O14  1  0.75414600  0.53524000  0.30233800  1
  O  O15  1  0.24585400  0.46476000  0.69766200  1
  O  O16  1  0.13346700  0.64676300  0.97799600  1
  O  O17  1  0.86653300  0.35323700  0.02200400  1
  O  O18  1  0.15284400  0.71691900  0.44424700  1
  O  O19  1  0.84715600  0.28308100  0.55575300  1
  O  O20  1  0.88033500  0.74503600  0.66844200  1
  O  O21  1  0.11966500  0.25496400  0.33155800  1
  O  O22  1  0.52596600  0.73879200  0.93916600  1
  O  O23  1  0.47403400  0.26120800  0.06083400  1
  O  O24  1  0.27763400  0.80176000  0.16790800  1
  O  O25  1  0.72236600  0.19824000  0.83209200  1
  O  O26  1  0.24961800  0.88351300  0.64415900  1
  O  O27  1  0.75038200  0.11648700  0.35584100  1
