# generated using pymatgen
data_TbHSO5
_symmetry_space_group_name_H-M   'P 1'
_cell_length_a   8.07615159
_cell_length_b   8.26677665
_cell_length_c   10.99300700
_cell_angle_alpha   90.00000000
_cell_angle_beta   90.00000000
_cell_angle_gamma   93.97978889
_symmetry_Int_Tables_number   1
_chemical_formula_structural   TbHSO5
_chemical_formula_sum   'Tb8 H8 S8 O40'
_cell_volume   732.16446315
_cell_formula_units_Z   8
loop_
 _symmetry_equiv_pos_site_id
 _symmetry_equiv_pos_as_xyz
  1  'x, y, z'
loop_
 _atom_site_type_symbol
 _atom_site_label
 _atom_site_symmetry_multiplicity
 _atom_site_fract_x
 _atom_site_fract_y
 _atom_site_fract_z
 _atom_site_occupancy
  Tb  Tb0  1  0.83833300  0.62585200  0.06103900  1
  Tb  Tb1  1  0.33833300  0.12585200  0.43896100  1
  Tb  Tb2  1  0.16166700  0.37414800  0.93896100  1
  Tb  Tb3  1  0.66166700  0.87414800  0.56103900  1
  Tb  Tb4  1  0.81112400  0.09013700  0.07474000  1
  Tb  Tb5  1  0.31112400  0.59013700  0.42526000  1
  Tb  Tb6  1  0.18887600  0.90986300  0.92526000  1
  Tb  Tb7  1  0.68887600  0.40986300  0.57474000  1
  H  H8  1  0.84153400  0.87098700  0.87618400  1
  H  H9  1  0.34153400  0.37098700  0.62381600  1
  H  H10  1  0.15846600  0.12901300  0.12381600  1
  H  H11  1  0.65846600  0.62901300  0.37618400  1
  H  H12  1  0.18857900  0.64765100  0.09141200  1
  H  H13  1  0.68857900  0.14765100  0.40858800  1
  H  H14  1  0.81142100  0.35234900  0.90858800  1
  H  H15  1  0.31142100  0.85234900  0.59141200  1
  S  S16  1  0.95776300  0.36559300  0.30954100  1
  S  S17  1  0.45776300  0.86559300  0.19045900  1
  S  S18  1  0.04223700  0.63440700  0.69045900  1
  S  S19  1  0.54223700  0.13440700  0.80954100  1
  S  S20  1  0.50017500  0.36571600  0.17185500  1
  S  S21  1  0.00017500  0.86571600  0.32814500  1
  S  S22  1  0.49982500  0.63428400  0.82814500  1
  S  S23  1  0.99982500  0.13428400  0.67185500  1
  O  O24  1  0.35699500  0.40134400  0.09470200  1
  O  O25  1  0.85699500  0.90134400  0.40529800  1
  O  O26  1  0.64300500  0.59865600  0.90529800  1
  O  O27  1  0.14300500  0.09865600  0.59470200  1
  O  O28  1  0.57287300  0.21760600  0.12882800  1
  O  O29  1  0.07287300  0.71760600  0.37117200  1
  O  O30  1  0.42712700  0.78239400  0.87117200  1
  O  O31  1  0.92712700  0.28239400  0.62882800  1
  O  O32  1  0.62839800  0.50231400  0.17211000  1
  O  O33  1  0.12839800  0.00231400  0.32789000  1
  O  O34  1  0.37160200  0.49768600  0.82789000  1
  O  O35  1  0.87160200  0.99768600  0.67211000  1
  O  O36  1  0.43949300  0.34458500  0.30107300  1
  O  O37  1  0.93949300  0.84458500  0.19892700  1
  O  O38  1  0.56050700  0.65541500  0.69892700  1
  O  O39  1  0.06050700  0.15541500  0.80107300  1
  O  O40  1  0.83871500  0.42953700  0.39671700  1
  O  O41  1  0.33871600  0.92953700  0.10328300  1
  O  O42  1  0.16128400  0.57046300  0.60328300  1
  O  O43  1  0.66128500  0.07046300  0.89671700  1
  O  O44  1  0.12078200  0.35019400  0.37216500  1
  O  O45  1  0.62078200  0.85019400  0.12783500  1
  O  O46  1  0.87921800  0.64980600  0.62783500  1
  O  O47  1  0.37921800  0.14980600  0.87216500  1
  O  O48  1  0.98666600  0.47735800  0.20507200  1
  O  O49  1  0.48666600  0.97735800  0.29492800  1
  O  O50  1  0.01333400  0.52264200  0.79492800  1
  O  O51  1  0.51333400  0.02264200  0.70507200  1
  O  O52  1  0.88720400  0.20617100  0.26390400  1
  O  O53  1  0.38720400  0.70617100  0.23609600  1
  O  O54  1  0.11279600  0.79382900  0.73609600  1
  O  O55  1  0.61279600  0.29382900  0.76390400  1
  O  O56  1  0.90054700  0.86881500  0.95371100  1
  O  O57  1  0.40054700  0.36881500  0.54628900  1
  O  O58  1  0.09945300  0.13118500  0.04628900  1
  O  O59  1  0.59945300  0.63118500  0.45371100  1
  O  O60  1  0.12783500  0.64384200  0.01405900  1
  O  O61  1  0.62783500  0.14384200  0.48594100  1
  O  O62  1  0.87216500  0.35615800  0.98594100  1
  O  O63  1  0.37216500  0.85615800  0.51405900  1
