# generated using pymatgen
data_Ba6La2Fe4O15
_symmetry_space_group_name_H-M   'P 1'
_cell_length_a   12.02677000
_cell_length_b   12.02677000
_cell_length_c   7.22852666
_cell_angle_alpha   89.83295829
_cell_angle_beta   89.83295829
_cell_angle_gamma   119.66774604
_symmetry_Int_Tables_number   1
_chemical_formula_structural   Ba6La2Fe4O15
_chemical_formula_sum   'Ba12 La4 Fe8 O30'
_cell_volume   908.48012071
_cell_formula_units_Z   2
loop_
 _symmetry_equiv_pos_site_id
 _symmetry_equiv_pos_as_xyz
  1  'x, y, z'
loop_
 _atom_site_type_symbol
 _atom_site_label
 _atom_site_symmetry_multiplicity
 _atom_site_fract_x
 _atom_site_fract_y
 _atom_site_fract_z
 _atom_site_occupancy
  Ba  Ba0  1  0.33493100  0.66901100  0.02441600  1
  Ba  Ba1  1  0.66901100  0.33493100  0.52441600  1
  Ba  Ba2  1  0.82699100  0.65183000  0.83709400  1
  Ba  Ba3  1  0.34695300  0.17127400  0.83902700  1
  Ba  Ba4  1  0.82402900  0.17265100  0.83726400  1
  Ba  Ba5  1  0.17127400  0.34695300  0.33902700  1
  Ba  Ba6  1  0.65183000  0.82699100  0.33709400  1
  Ba  Ba7  1  0.17265100  0.82402900  0.33726400  1
  Ba  Ba8  1  0.52165900  0.04510600  0.17201400  1
  Ba  Ba9  1  0.04510600  0.52165900  0.67201400  1
  Ba  Ba10  1  0.99990800  0.00060400  0.50419400  1
  Ba  Ba11  1  0.00060400  0.99990800  0.00419400  1
  La  La12  1  0.95757100  0.47856800  0.16896900  1
  La  La13  1  0.51978700  0.47900700  0.16293500  1
  La  La14  1  0.47856800  0.95757100  0.66896900  1
  La  La15  1  0.47900700  0.51978700  0.66293500  1
  Fe  Fe16  1  0.17559500  0.81904000  0.83682800  1
  Fe  Fe17  1  0.18056500  0.35765600  0.84326300  1
  Fe  Fe18  1  0.64442100  0.81807000  0.83299300  1
  Fe  Fe19  1  0.81904000  0.17559500  0.33682800  1
  Fe  Fe20  1  0.81807000  0.64442100  0.33299300  1
  Fe  Fe21  1  0.35765600  0.18056600  0.34326300  1
  Fe  Fe22  1  0.66336500  0.33284400  0.97672600  1
  Fe  Fe23  1  0.33284400  0.66336500  0.47672600  1
  O  O24  1  0.09773400  0.19468100  0.73970400  1
  O  O25  1  0.81001500  0.89958200  0.73692700  1
  O  O26  1  0.09059700  0.89898800  0.73519500  1
  O  O27  1  0.89958200  0.81001500  0.23692700  1
  O  O28  1  0.19468100  0.09773400  0.23970400  1
  O  O29  1  0.89898800  0.09059700  0.23519500  1
  O  O30  1  0.75937500  0.25827100  0.16026800  1
  O  O31  1  0.74744500  0.50406900  0.15707600  1
  O  O32  1  0.49600000  0.25976500  0.16103700  1
  O  O33  1  0.25827100  0.75937500  0.66026800  1
  O  O34  1  0.25976500  0.49600000  0.66103700  1
  O  O35  1  0.50406900  0.74744500  0.65707600  1
  O  O36  1  0.93453000  0.32456200  0.46150100  1
  O  O37  1  0.66617500  0.60367300  0.47228800  1
  O  O38  1  0.39143200  0.06908900  0.49188000  1
  O  O39  1  0.93156400  0.60715000  0.45752600  1
  O  O40  1  0.67532900  0.06529100  0.49100300  1
  O  O41  1  0.39593500  0.33230500  0.47676200  1
  O  O42  1  0.06529100  0.67532900  0.99100300  1
  O  O43  1  0.33230500  0.39593500  0.97676200  1
  O  O44  1  0.60715000  0.93156400  0.95752600  1
  O  O45  1  0.06908900  0.39143200  0.99188000  1
  O  O46  1  0.32456200  0.93453000  0.96150100  1
  O  O47  1  0.60367300  0.66617500  0.97228800  1
  O  O48  1  0.41737200  0.58177500  0.33268600  1
  O  O49  1  0.41453000  0.82356900  0.34085500  1
  O  O50  1  0.17345800  0.58430400  0.32476900  1
  O  O51  1  0.58177500  0.41737200  0.83268600  1
  O  O52  1  0.58430400  0.17345800  0.82476900  1
  O  O53  1  0.82356900  0.41453000  0.84085500  1
