# generated using pymatgen
data_MnNiO3
_symmetry_space_group_name_H-M   'P 1'
_cell_length_a   4.98288234
_cell_length_b   5.42331487
_cell_length_c   4.98297684
_cell_angle_alpha   89.99919399
_cell_angle_beta   59.99969404
_cell_angle_gamma   117.34921666
_symmetry_Int_Tables_number   1
_chemical_formula_structural   MnNiO3
_chemical_formula_sum   'Mn2 Ni2 O6'
_cell_volume   98.85532101
_cell_formula_units_Z   2
loop_
 _symmetry_equiv_pos_site_id
 _symmetry_equiv_pos_as_xyz
  1  'x, y, z'
loop_
 _atom_site_type_symbol
 _atom_site_label
 _atom_site_symmetry_multiplicity
 _atom_site_fract_x
 _atom_site_fract_y
 _atom_site_fract_z
 _atom_site_occupancy
  Mn  Mn0  1  0.31369200  0.47053700  0.84315300  1
  Mn  Mn1  1  0.68630800  0.52946200  0.15684800  1
  Ni  Ni2  1  0.71381700  0.07075900  0.64310000  1
  Ni  Ni3  1  0.28618300  0.92924100  0.35690000  1
  O  O4  1  0.17569900  0.73450500  0.05002400  1
  O  O5  1  0.50880300  0.73450200  0.44115100  1
  O  O6  1  0.78455200  0.73447700  0.77427300  1
  O  O7  1  0.82430200  0.26549600  0.94997600  1
  O  O8  1  0.49119700  0.26549800  0.55884800  1
  O  O9  1  0.21544800  0.26552300  0.22572600  1
