# generated using pymatgen
data_UF3
_symmetry_space_group_name_H-M   'P 1'
_cell_length_a   7.20166042
_cell_length_b   7.20166042
_cell_length_c   7.39865500
_cell_angle_alpha   90.00000000
_cell_angle_beta   90.00000000
_cell_angle_gamma   120.00000390
_symmetry_Int_Tables_number   1
_chemical_formula_structural   UF3
_chemical_formula_sum   'U6 F18'
_cell_volume   332.31402469
_cell_formula_units_Z   6
loop_
 _symmetry_equiv_pos_site_id
 _symmetry_equiv_pos_as_xyz
  1  'x, y, z'
loop_
 _atom_site_type_symbol
 _atom_site_label
 _atom_site_symmetry_multiplicity
 _atom_site_fract_x
 _atom_site_fract_y
 _atom_site_fract_z
 _atom_site_occupancy
  U  U0  1  0.32639700  0.00000000  0.75154300  1
  U  U1  1  0.32639700  0.32639700  0.25154300  1
  U  U2  1  0.00000000  0.67360300  0.25154300  1
  U  U3  1  0.00000000  0.32639700  0.75154300  1
  U  U4  1  0.67360300  0.67360300  0.75154300  1
  U  U5  1  0.67360300  0.00000000  0.25154300  1
  F  F6  1  0.62320200  0.00000000  0.91684600  1
  F  F7  1  0.62320200  0.62320200  0.41684600  1
  F  F8  1  0.00000000  0.37679800  0.41684600  1
  F  F9  1  0.00000000  0.62320200  0.91684600  1
  F  F10  1  0.37679800  0.37679800  0.91684600  1
  F  F11  1  0.37679800  0.00000000  0.41684600  1
  F  F12  1  0.00000000  0.00000000  0.32036900  1
  F  F13  1  0.00000000  0.00000000  0.82036900  1
  F  F14  1  0.33333300  0.66666700  0.20285000  1
  F  F15  1  0.66666700  0.33333300  0.70285000  1
  F  F16  1  0.33333300  0.66666700  0.70285000  1
  F  F17  1  0.66666700  0.33333300  0.20285000  1
  F  F18  1  0.27884200  0.00000000  0.07828800  1
  F  F19  1  0.27884200  0.27884200  0.57828800  1
  F  F20  1  0.00000000  0.72115800  0.57828800  1
  F  F21  1  0.00000000  0.27884200  0.07828800  1
  F  F22  1  0.72115800  0.72115800  0.07828800  1
  F  F23  1  0.72115800  0.00000000  0.57828800  1
