# generated using pymatgen
data_Cs3NpH8O9
_symmetry_space_group_name_H-M   'P 1'
_cell_length_a   8.30667609
_cell_length_b   8.76680261
_cell_length_c   8.76680261
_cell_angle_alpha   84.28987938
_cell_angle_beta   86.46780671
_cell_angle_gamma   86.46780671
_symmetry_Int_Tables_number   1
_chemical_formula_structural   Cs3NpH8O9
_chemical_formula_sum   'Cs6 Np2 H16 O18'
_cell_volume   633.06006583
_cell_formula_units_Z   2
loop_
 _symmetry_equiv_pos_site_id
 _symmetry_equiv_pos_as_xyz
  1  'x, y, z'
loop_
 _atom_site_type_symbol
 _atom_site_label
 _atom_site_symmetry_multiplicity
 _atom_site_fract_x
 _atom_site_fract_y
 _atom_site_fract_z
 _atom_site_occupancy
  Cs  Cs0  1  0.55042000  0.61115500  0.78536300  1
  Cs  Cs1  1  0.94958000  0.21463700  0.38884500  1
  Cs  Cs2  1  0.44958000  0.38884500  0.21463700  1
  Cs  Cs3  1  0.05042000  0.78536300  0.61115500  1
  Cs  Cs4  1  0.25000000  0.93064000  0.06936000  1
  Cs  Cs5  1  0.75000000  0.06936000  0.93064000  1
  Np  Np6  1  0.00000000  0.50000000  0.00000000  1
  Np  Np7  1  0.50000000  0.00000000  0.50000000  1
  H  H8  1  0.91981100  0.44184700  0.68961600  1
  H  H9  1  0.58018900  0.31038400  0.55815300  1
  H  H10  1  0.08018900  0.55815300  0.31038400  1
  H  H11  1  0.41981100  0.68961600  0.44184700  1
  H  H12  1  0.18912600  0.08259700  0.71346900  1
  H  H13  1  0.31087400  0.28653100  0.91740300  1
  H  H14  1  0.81087400  0.91740300  0.28653100  1
  H  H15  1  0.68912600  0.71346900  0.08259700  1
  H  H16  1  0.06298500  0.22411800  0.74780800  1
  H  H17  1  0.43701500  0.25219200  0.77588200  1
  H  H18  1  0.93701500  0.77588200  0.25219200  1
  H  H19  1  0.56298500  0.74780800  0.22411800  1
  H  H20  1  0.16364700  0.45092400  0.61058300  1
  H  H21  1  0.33635400  0.38941700  0.54907600  1
  H  H22  1  0.83635300  0.54907600  0.38941700  1
  H  H23  1  0.66364700  0.61058300  0.45092400  1
  O  O24  1  0.88142100  0.68513700  0.92735000  1
  O  O25  1  0.61857900  0.07265000  0.31486300  1
  O  O26  1  0.11857900  0.31486300  0.07265000  1
  O  O27  1  0.38142100  0.92735000  0.68513700  1
  O  O28  1  0.19879200  0.59564200  0.95550600  1
  O  O29  1  0.30120800  0.04449400  0.40435800  1
  O  O30  1  0.80120800  0.40435800  0.04449400  1
  O  O31  1  0.69879200  0.95550600  0.59564200  1
  O  O32  1  0.01764800  0.41379100  0.74452000  1
  O  O33  1  0.48235200  0.25548000  0.58620900  1
  O  O34  1  0.98235200  0.58620900  0.25548000  1
  O  O35  1  0.51764800  0.74452000  0.41379100  1
  O  O36  1  0.07674300  0.10905800  0.74644600  1
  O  O37  1  0.42325700  0.25355400  0.89094200  1
  O  O38  1  0.92325700  0.89094200  0.25355400  1
  O  O39  1  0.57674300  0.74644600  0.10905800  1
  O  O40  1  0.25000000  0.47350300  0.52649700  1
  O  O41  1  0.75000000  0.52649700  0.47350300  1
