# generated using pymatgen
data_Rb3ErV2O8
_symmetry_space_group_name_H-M   'P 1'
_cell_length_a   6.06881169
_cell_length_b   6.06881169
_cell_length_c   7.92986600
_cell_angle_alpha   90.00000000
_cell_angle_beta   90.00000000
_cell_angle_gamma   119.99999657
_symmetry_Int_Tables_number   1
_chemical_formula_structural   Rb3ErV2O8
_chemical_formula_sum   'Rb3 Er1 V2 O8'
_cell_volume   252.93202354
_cell_formula_units_Z   1
loop_
 _symmetry_equiv_pos_site_id
 _symmetry_equiv_pos_as_xyz
  1  'x, y, z'
loop_
 _atom_site_type_symbol
 _atom_site_label
 _atom_site_symmetry_multiplicity
 _atom_site_fract_x
 _atom_site_fract_y
 _atom_site_fract_z
 _atom_site_occupancy
  Rb  Rb0  1  0.66666700  0.33333300  0.30418100  1
  Rb  Rb1  1  0.33333300  0.66666700  0.69581900  1
  Rb  Rb2  1  0.00000000  0.00000000  0.00000000  1
  Er  Er3  1  0.00000000  0.00000000  0.50000000  1
  V  V4  1  0.66666700  0.33333300  0.74157800  1
  V  V5  1  0.33333300  0.66666700  0.25842200  1
  O  O6  1  0.66666700  0.33333300  0.95387800  1
  O  O7  1  0.33333300  0.66666700  0.04612200  1
  O  O8  1  0.82536400  0.65072900  0.66621800  1
  O  O9  1  0.17463600  0.34927100  0.33378200  1
  O  O10  1  0.82536400  0.17463600  0.66621800  1
  O  O11  1  0.17463600  0.82536400  0.33378200  1
  O  O12  1  0.34927100  0.17463600  0.66621800  1
  O  O13  1  0.65072900  0.82536400  0.33378200  1
