# generated using pymatgen
data_Tb4(Al8Pd3)3
_symmetry_space_group_name_H-M   'P 1'
_cell_length_a   7.49210100
_cell_length_b   7.53738940
_cell_length_c   13.26683491
_cell_angle_alpha   84.85477739
_cell_angle_beta   100.58624715
_cell_angle_gamma   119.56661632
_symmetry_Int_Tables_number   1
_chemical_formula_structural   Tb4(Al8Pd3)3
_chemical_formula_sum   'Tb4 Al24 Pd9'
_cell_volume   640.54076743
_cell_formula_units_Z   1
loop_
 _symmetry_equiv_pos_site_id
 _symmetry_equiv_pos_as_xyz
  1  'x, y, z'
loop_
 _atom_site_type_symbol
 _atom_site_label
 _atom_site_symmetry_multiplicity
 _atom_site_fract_x
 _atom_site_fract_y
 _atom_site_fract_z
 _atom_site_occupancy
  Tb  Tb0  1  0.43717200  0.83027800  0.80892200  1
  Tb  Tb1  1  0.56282800  0.16972200  0.19107800  1
  Tb  Tb2  1  0.76880800  0.50228300  0.80880100  1
  Tb  Tb3  1  0.23119200  0.49771700  0.19119900  1
  Al  Al4  1  0.48047400  0.16630900  0.94498800  1
  Al  Al5  1  0.51952600  0.83369100  0.05501200  1
  Al  Al6  1  0.02091500  0.16670800  0.56002800  1
  Al  Al7  1  0.97908500  0.83329200  0.43997200  1
  Al  Al8  1  0.35487700  0.83334400  0.55816700  1
  Al  Al9  1  0.64512300  0.16665600  0.44183300  1
  Al  Al10  1  0.61899900  0.83487300  0.32951100  1
  Al  Al11  1  0.38100100  0.16512700  0.67048900  1
  Al  Al12  1  0.05668200  0.49362500  0.67021500  1
  Al  Al13  1  0.94331800  0.50637500  0.32978500  1
  Al  Al14  1  0.73157500  0.84016500  0.66923600  1
  Al  Al15  1  0.26842500  0.15983500  0.33076400  1
  Al  Al16  1  0.14695300  0.49899500  0.94553200  1
  Al  Al17  1  0.85304700  0.50100500  0.05446800  1
  Al  Al18  1  0.81767400  0.83333800  0.95405200  1
  Al  Al19  1  0.18232600  0.16666200  0.04594800  1
  Al  Al20  1  0.31287700  0.50029600  0.44120300  1
  Al  Al21  1  0.68712300  0.49970400  0.55879700  1
  Al  Al22  1  0.10313900  0.83624900  0.18336100  1
  Al  Al23  1  0.89686100  0.16375100  0.81663900  1
  Al  Al24  1  0.30708800  0.36887200  0.81531700  1
  Al  Al25  1  0.69291200  0.63112800  0.18468300  1
  Al  Al26  1  0.10358200  0.95899900  0.81594400  1
  Al  Al27  1  0.89641800  0.04100100  0.18405600  1
  Pd  Pd28  1  0.38711600  0.50646300  0.63771800  1
  Pd  Pd29  1  0.61288400  0.49353700  0.36228200  1
  Pd  Pd30  1  0.17183300  0.82909600  0.99938300  1
  Pd  Pd31  1  0.82816700  0.17090400  0.00061700  1
  Pd  Pd32  1  0.29420400  0.83345100  0.36184900  1
  Pd  Pd33  1  0.70579600  0.16654900  0.63815100  1
  Pd  Pd34  1  0.04789800  0.82662000  0.63676600  1
  Pd  Pd35  1  0.95210200  0.17338000  0.36323400  1
  Pd  Pd36  1  0.50000000  0.50000000  0.00000000  1
