# generated using pymatgen
data_Ta20Pd9S50
_symmetry_space_group_name_H-M   'P 1'
_cell_length_a   10.39476813
_cell_length_b   10.39476813
_cell_length_c   15.47384393
_cell_angle_alpha   80.89684758
_cell_angle_beta   80.89684758
_cell_angle_gamma   105.28304405
_symmetry_Int_Tables_number   1
_chemical_formula_structural   Ta20Pd9S50
_chemical_formula_sum   'Ta20 Pd9 S50'
_cell_volume   1557.05282453
_cell_formula_units_Z   1
loop_
 _symmetry_equiv_pos_site_id
 _symmetry_equiv_pos_as_xyz
  1  'x, y, z'
loop_
 _atom_site_type_symbol
 _atom_site_label
 _atom_site_symmetry_multiplicity
 _atom_site_fract_x
 _atom_site_fract_y
 _atom_site_fract_z
 _atom_site_occupancy
  Ta  Ta0  1  0.65077300  0.65077300  0.62241800  1
  Ta  Ta1  1  0.85152200  0.45034300  0.62363500  1
  Ta  Ta2  1  0.05048800  0.25159200  0.62309700  1
  Ta  Ta3  1  0.25159200  0.05048800  0.62309700  1
  Ta  Ta4  1  0.45034300  0.85152200  0.62363500  1
  Ta  Ta5  1  0.54965700  0.14847800  0.37636500  1
  Ta  Ta6  1  0.74840800  0.94951200  0.37690300  1
  Ta  Ta7  1  0.94951200  0.74840800  0.37690300  1
  Ta  Ta8  1  0.14847800  0.54965700  0.37636500  1
  Ta  Ta9  1  0.34922700  0.34922700  0.37758200  1
  Ta  Ta10  1  0.67601100  0.47385200  0.81664000  1
  Ta  Ta11  1  0.87545200  0.27467300  0.81753300  1
  Ta  Ta12  1  0.07525400  0.07525400  0.81731600  1
  Ta  Ta13  1  0.27467300  0.87545200  0.81753300  1
  Ta  Ta14  1  0.47385200  0.67601100  0.81664000  1
  Ta  Ta15  1  0.52614800  0.32398900  0.18336000  1
  Ta  Ta16  1  0.72532700  0.12454800  0.18246700  1
  Ta  Ta17  1  0.92474600  0.92474600  0.18268400  1
  Ta  Ta18  1  0.12454800  0.72532700  0.18246700  1
  Ta  Ta19  1  0.32398900  0.52614800  0.18336000  1
  Pd  Pd20  1  0.90002000  0.09998000  0.00000000  1
  Pd  Pd21  1  0.09998000  0.90002000  0.00000000  1
  Pd  Pd22  1  0.30012900  0.69987100  0.00000000  1
  Pd  Pd23  1  0.50000000  0.50000000  0.00000000  1
  Pd  Pd24  1  0.69987100  0.30012900  0.00000000  1
  Pd  Pd25  1  0.09982200  0.90017800  0.50000000  1
  Pd  Pd26  1  0.69557900  0.30442100  0.50000000  1
  Pd  Pd27  1  0.30442100  0.69557900  0.50000000  1
  Pd  Pd28  1  0.90017800  0.09982200  0.50000000  1
  S  S29  1  0.44760600  0.04722200  0.69583700  1
  S  S30  1  0.64829200  0.84680000  0.69504300  1
  S  S31  1  0.84680000  0.64829200  0.69504300  1
  S  S32  1  0.04722200  0.44760600  0.69583700  1
  S  S33  1  0.24754900  0.24754900  0.69536200  1
  S  S34  1  0.75245100  0.75245100  0.30463800  1
  S  S35  1  0.95277800  0.55239400  0.30416300  1
  S  S36  1  0.15320000  0.35170800  0.30495700  1
  S  S37  1  0.35170800  0.15320000  0.30495700  1
  S  S38  1  0.55239400  0.95277800  0.30416300  1
  S  S39  1  0.44875400  0.24795400  0.50329000  1
  S  S40  1  0.65079600  0.05571300  0.50522200  1
  S  S41  1  0.84904300  0.84904300  0.50439600  1
  S  S42  1  0.05571300  0.65079600  0.50522200  1
  S  S43  1  0.24795400  0.44875400  0.50329000  1
  S  S44  1  0.75204600  0.55124600  0.49671000  1
  S  S45  1  0.94428700  0.34920400  0.49477800  1
  S  S46  1  0.15095700  0.15095700  0.49560400  1
  S  S47  1  0.34920400  0.94428700  0.49477800  1
  S  S48  1  0.55124600  0.75204600  0.49671000  1
  S  S49  1  0.62835300  0.22820700  0.87400500  1
  S  S50  1  0.82829100  0.02799700  0.87429200  1
  S  S51  1  0.02799700  0.82829100  0.87429200  1
  S  S52  1  0.22820700  0.62835300  0.87400500  1
  S  S53  1  0.42969000  0.42969000  0.87335300  1
  S  S54  1  0.57031000  0.57031000  0.12664700  1
  S  S55  1  0.77179300  0.37164700  0.12599500  1
  S  S56  1  0.97200300  0.17170900  0.12570800  1
  S  S57  1  0.17170900  0.97200300  0.12570800  1
  S  S58  1  0.37164700  0.77179300  0.12599500  1
  S  S59  1  0.60181800  0.40348000  0.68225800  1
  S  S60  1  0.80260700  0.20274800  0.68470500  1
  S  S61  1  0.00345200  0.00345200  0.68407800  1
  S  S62  1  0.20274800  0.80260700  0.68470500  1
  S  S63  1  0.40348000  0.60181800  0.68225800  1
  S  S64  1  0.59652000  0.39818200  0.31774200  1
  S  S65  1  0.79725200  0.19739300  0.31529500  1
  S  S66  1  0.99654800  0.99654800  0.31592200  1
  S  S67  1  0.19739300  0.79725200  0.31529500  1
  S  S68  1  0.39818200  0.59652000  0.31774200  1
  S  S69  1  0.26963000  0.06990600  0.89019500  1
  S  S70  1  0.46933500  0.86947500  0.88997600  1
  S  S71  1  0.66831700  0.66831700  0.88921900  1
  S  S72  1  0.86947500  0.46933500  0.88997600  1
  S  S73  1  0.06990600  0.26963000  0.89019500  1
  S  S74  1  0.93009400  0.73037000  0.10980500  1
  S  S75  1  0.13052500  0.53066500  0.11002400  1
  S  S76  1  0.33168300  0.33168300  0.11078100  1
  S  S77  1  0.53066500  0.13052500  0.11002400  1
  S  S78  1  0.73037000  0.93009400  0.10980500  1
