# generated using pymatgen
data_Y4Fe28BC
_symmetry_space_group_name_H-M   'P 1'
_cell_length_a   8.73566082
_cell_length_b   8.73566082
_cell_length_c   11.83898600
_cell_angle_alpha   90.00000000
_cell_angle_beta   90.00000000
_cell_angle_gamma   90.00447084
_symmetry_Int_Tables_number   1
_chemical_formula_structural   Y4Fe28BC
_chemical_formula_sum   'Y8 Fe56 B2 C2'
_cell_volume   903.45397368
_cell_formula_units_Z   2
loop_
 _symmetry_equiv_pos_site_id
 _symmetry_equiv_pos_as_xyz
  1  'x, y, z'
loop_
 _atom_site_type_symbol
 _atom_site_label
 _atom_site_symmetry_multiplicity
 _atom_site_fract_x
 _atom_site_fract_y
 _atom_site_fract_z
 _atom_site_occupancy
  Y  Y0  1  0.23382500  0.23382500  0.50000000  1
  Y  Y1  1  0.76617500  0.76617500  0.50000000  1
  Y  Y2  1  0.73932200  0.26067800  0.00000000  1
  Y  Y3  1  0.26067800  0.73932200  0.00000000  1
  Y  Y4  1  0.35761400  0.64238600  0.50000000  1
  Y  Y5  1  0.64238600  0.35761400  0.50000000  1
  Y  Y6  1  0.85759500  0.85759500  0.00000000  1
  Y  Y7  1  0.14240500  0.14240500  0.00000000  1
  Fe  Fe8  1  0.50000000  0.50000000  0.10807100  1
  Fe  Fe9  1  0.00000000  0.00000000  0.61583400  1
  Fe  Fe10  1  0.50000000  0.50000000  0.89192900  1
  Fe  Fe11  1  0.00000000  0.00000000  0.38416600  1
  Fe  Fe12  1  0.40248000  0.40248000  0.29498700  1
  Fe  Fe13  1  0.59752000  0.59752000  0.29498700  1
  Fe  Fe14  1  0.90289300  0.09710700  0.79984600  1
  Fe  Fe15  1  0.09710700  0.90289300  0.79984600  1
  Fe  Fe16  1  0.59752000  0.59752000  0.70501300  1
  Fe  Fe17  1  0.40248000  0.40248000  0.70501300  1
  Fe  Fe18  1  0.09710700  0.90289300  0.20015400  1
  Fe  Fe19  1  0.90289300  0.09710700  0.20015400  1
  Fe  Fe20  1  0.18363700  0.18363700  0.25305000  1
  Fe  Fe21  1  0.81636300  0.81636300  0.25305000  1
  Fe  Fe22  1  0.68238400  0.31761600  0.75539700  1
  Fe  Fe23  1  0.31761600  0.68238400  0.75539700  1
  Fe  Fe24  1  0.81636300  0.81636300  0.74695000  1
  Fe  Fe25  1  0.18363700  0.18363700  0.74695000  1
  Fe  Fe26  1  0.31761600  0.68238400  0.24460300  1
  Fe  Fe27  1  0.68238400  0.31761600  0.24460300  1
  Fe  Fe28  1  0.50000000  0.00000000  0.50000000  1
  Fe  Fe29  1  0.00000000  0.50000000  0.00000000  1
  Fe  Fe30  1  0.00000000  0.50000000  0.50000000  1
  Fe  Fe31  1  0.50000000  0.00000000  0.00000000  1
  Fe  Fe32  1  0.27591400  0.93406300  0.37349000  1
  Fe  Fe33  1  0.72408600  0.06593700  0.37349000  1
  Fe  Fe34  1  0.77449600  0.56570600  0.87986000  1
  Fe  Fe35  1  0.22550400  0.43429400  0.87986000  1
  Fe  Fe36  1  0.72408600  0.06593700  0.62651000  1
  Fe  Fe37  1  0.27591400  0.93406300  0.62651000  1
  Fe  Fe38  1  0.22550400  0.43429400  0.12014000  1
  Fe  Fe39  1  0.77449600  0.56570600  0.12014000  1
  Fe  Fe40  1  0.06593700  0.72408600  0.37349000  1
  Fe  Fe41  1  0.93406300  0.27591400  0.37349000  1
  Fe  Fe42  1  0.43429400  0.22550400  0.87986000  1
  Fe  Fe43  1  0.56570600  0.77449600  0.87986000  1
  Fe  Fe44  1  0.93406300  0.27591400  0.62651000  1
  Fe  Fe45  1  0.06593700  0.72408600  0.62651000  1
  Fe  Fe46  1  0.56570600  0.77449600  0.12014000  1
  Fe  Fe47  1  0.43429400  0.22550400  0.12014000  1
  Fe  Fe48  1  0.46274900  0.14192200  0.32391100  1
  Fe  Fe49  1  0.53725100  0.85807800  0.32391100  1
  Fe  Fe50  1  0.96321400  0.35935800  0.82523900  1
  Fe  Fe51  1  0.03678600  0.64064200  0.82523900  1
  Fe  Fe52  1  0.53725100  0.85807800  0.67608900  1
  Fe  Fe53  1  0.46274900  0.14192200  0.67608900  1
  Fe  Fe54  1  0.03678600  0.64064200  0.17476100  1
  Fe  Fe55  1  0.96321400  0.35935800  0.17476100  1
  Fe  Fe56  1  0.85807800  0.53725100  0.32391100  1
  Fe  Fe57  1  0.14192200  0.46274900  0.32391100  1
  Fe  Fe58  1  0.64064200  0.03678600  0.82523900  1
  Fe  Fe59  1  0.35935800  0.96321400  0.82523900  1
  Fe  Fe60  1  0.14192200  0.46274900  0.67608900  1
  Fe  Fe61  1  0.85807800  0.53725100  0.67608900  1
  Fe  Fe62  1  0.35935800  0.96321400  0.17476100  1
  Fe  Fe63  1  0.64064200  0.03678600  0.17476100  1
  B  B64  1  0.12686400  0.87313600  0.50000000  1
  B  B65  1  0.87313600  0.12686400  0.50000000  1
  C  C66  1  0.62742400  0.62742400  0.00000000  1
  C  C67  1  0.37257600  0.37257600  0.00000000  1
