# generated using pymatgen
data_CsGa(SO4)2
_symmetry_space_group_name_H-M   'P 1'
_cell_length_a   4.92670775
_cell_length_b   4.92670775
_cell_length_c   8.83042000
_cell_angle_alpha   90.00000000
_cell_angle_beta   90.00000000
_cell_angle_gamma   119.99999669
_symmetry_Int_Tables_number   1
_chemical_formula_structural   CsGa(SO4)2
_chemical_formula_sum   'Cs1 Ga1 S2 O8'
_cell_volume   185.62035926
_cell_formula_units_Z   1
loop_
 _symmetry_equiv_pos_site_id
 _symmetry_equiv_pos_as_xyz
  1  'x, y, z'
loop_
 _atom_site_type_symbol
 _atom_site_label
 _atom_site_symmetry_multiplicity
 _atom_site_fract_x
 _atom_site_fract_y
 _atom_site_fract_z
 _atom_site_occupancy
  Cs  Cs0  1  0.00000000  0.00000000  0.50000000  1
  Ga  Ga1  1  0.00000000  0.00000000  0.00000000  1
  S  S2  1  0.33333300  0.66666700  0.19931200  1
  S  S3  1  0.66666700  0.33333300  0.80068800  1
  O  O4  1  0.08854900  0.35051400  0.14346400  1
  O  O5  1  0.64948600  0.73803500  0.14346400  1
  O  O6  1  0.35051400  0.08854900  0.85653600  1
  O  O7  1  0.26196500  0.91145100  0.14346400  1
  O  O8  1  0.73803500  0.64948600  0.85653600  1
  O  O9  1  0.91145100  0.26196500  0.85653600  1
  O  O10  1  0.33333300  0.66666700  0.36457500  1
  O  O11  1  0.66666700  0.33333300  0.63542500  1
