# generated using pymatgen
data_Cs3ScCl6
_symmetry_space_group_name_H-M   'P 1'
_cell_length_a   13.97398315
_cell_length_b   13.97398315
_cell_length_c   13.13380349
_cell_angle_alpha   80.44536318
_cell_angle_beta   80.44536318
_cell_angle_gamma   34.73097427
_symmetry_Int_Tables_number   1
_chemical_formula_structural   Cs3ScCl6
_chemical_formula_sum   'Cs12 Sc4 Cl24'
_cell_volume   1438.88494681
_cell_formula_units_Z   4
loop_
 _symmetry_equiv_pos_site_id
 _symmetry_equiv_pos_as_xyz
  1  'x, y, z'
loop_
 _atom_site_type_symbol
 _atom_site_label
 _atom_site_symmetry_multiplicity
 _atom_site_fract_x
 _atom_site_fract_y
 _atom_site_fract_z
 _atom_site_occupancy
  Cs  Cs0  1  0.02728300  0.64610800  0.80144200  1
  Cs  Cs1  1  0.35389200  0.97271700  0.69855800  1
  Cs  Cs2  1  0.97271700  0.35389200  0.19855800  1
  Cs  Cs3  1  0.64610800  0.02728300  0.30144200  1
  Cs  Cs4  1  0.83887300  0.46735500  0.85560300  1
  Cs  Cs5  1  0.53264500  0.16112700  0.64439700  1
  Cs  Cs6  1  0.16112700  0.53264500  0.14439700  1
  Cs  Cs7  1  0.46735500  0.83887300  0.35560300  1
  Cs  Cs8  1  0.80406800  0.29717600  0.56528500  1
  Cs  Cs9  1  0.70282400  0.19593200  0.93471500  1
  Cs  Cs10  1  0.19593200  0.70282400  0.43471500  1
  Cs  Cs11  1  0.29717600  0.80406800  0.06528500  1
  Sc  Sc12  1  0.22183200  0.77816800  0.75000000  1
  Sc  Sc13  1  0.77816800  0.22183200  0.25000000  1
  Sc  Sc14  1  0.00000000  0.50000000  0.50000000  1
  Sc  Sc15  1  0.50000000  0.00000000  0.00000000  1
  Cl  Cl16  1  0.94668200  0.94580200  0.19178700  1
  Cl  Cl17  1  0.05419800  0.05331800  0.30821300  1
  Cl  Cl18  1  0.05331800  0.05419800  0.80821300  1
  Cl  Cl19  1  0.94580200  0.94668200  0.69178700  1
  Cl  Cl20  1  0.38199900  0.50988300  0.68708100  1
  Cl  Cl21  1  0.49011700  0.61800100  0.81291900  1
  Cl  Cl22  1  0.61800100  0.49011700  0.31291900  1
  Cl  Cl23  1  0.50988300  0.38199900  0.18708100  1
  Cl  Cl24  1  0.16717800  0.72205600  0.92369600  1
  Cl  Cl25  1  0.27794400  0.83282200  0.57630400  1
  Cl  Cl26  1  0.83282200  0.27794400  0.07630400  1
  Cl  Cl27  1  0.72205600  0.16717800  0.42369600  1
  Cl  Cl28  1  0.86338100  0.76658800  0.53619000  1
  Cl  Cl29  1  0.23341200  0.13661900  0.96381000  1
  Cl  Cl30  1  0.13661900  0.23341200  0.46381000  1
  Cl  Cl31  1  0.76658800  0.86338100  0.03619000  1
  Cl  Cl32  1  0.12835500  0.37123900  0.67389800  1
  Cl  Cl33  1  0.62876100  0.87164500  0.82610200  1
  Cl  Cl34  1  0.87164500  0.62876100  0.32610200  1
  Cl  Cl35  1  0.37123900  0.12835500  0.17389800  1
  Cl  Cl36  1  0.74518600  0.60941400  0.57686000  1
  Cl  Cl37  1  0.39058600  0.25481400  0.92314000  1
  Cl  Cl38  1  0.25481400  0.39058600  0.42314000  1
  Cl  Cl39  1  0.60941400  0.74518600  0.07686000  1
