# generated using pymatgen
data_RbPrP3HO10
_symmetry_space_group_name_H-M   'P 1'
_cell_length_a   7.19470700
_cell_length_b   7.65664468
_cell_length_c   8.85388332
_cell_angle_alpha   73.91879071
_cell_angle_beta   74.22907524
_cell_angle_gamma   83.03100270
_symmetry_Int_Tables_number   1
_chemical_formula_structural   RbPrP3HO10
_chemical_formula_sum   'Rb2 Pr2 P6 H2 O20'
_cell_volume   450.45013781
_cell_formula_units_Z   2
loop_
 _symmetry_equiv_pos_site_id
 _symmetry_equiv_pos_as_xyz
  1  'x, y, z'
loop_
 _atom_site_type_symbol
 _atom_site_label
 _atom_site_symmetry_multiplicity
 _atom_site_fract_x
 _atom_site_fract_y
 _atom_site_fract_z
 _atom_site_occupancy
  Rb  Rb0  1  0.71214100  0.68079200  0.02757500  1
  Rb  Rb1  1  0.28785900  0.31920800  0.97242500  1
  Pr  Pr2  1  0.26978500  0.36602000  0.49058000  1
  Pr  Pr3  1  0.73021500  0.63398000  0.50942000  1
  P  P4  1  0.18182100  0.70951900  0.64705100  1
  P  P5  1  0.81817900  0.29048100  0.35294900  1
  P  P6  1  0.36579500  0.96598000  0.34949300  1
  P  P7  1  0.63420500  0.03402000  0.65050700  1
  P  P8  1  0.16824600  0.77508500  0.18481400  1
  P  P9  1  0.83175400  0.22491500  0.81518600  1
  H  H10  1  0.18470000  0.82453600  0.92030300  1
  H  H11  1  0.81530000  0.17546400  0.07969700  1
  O  O12  1  0.04140300  0.64830500  0.56988400  1
  O  O13  1  0.95859700  0.35169500  0.43011600  1
  O  O14  1  0.24205600  0.91498500  0.53671400  1
  O  O15  1  0.75794400  0.08501500  0.46328600  1
  O  O16  1  0.54369300  0.84209600  0.32703000  1
  O  O17  1  0.45630700  0.15790400  0.67297000  1
  O  O18  1  0.23413100  0.87241900  0.99838900  1
  O  O19  1  0.76586900  0.12758100  0.00161100  1
  O  O20  1  0.95240800  0.75357200  0.24378100  1
  O  O21  1  0.04759200  0.24642800  0.75621900  1
  O  O22  1  0.38545600  0.16897300  0.30717800  1
  O  O23  1  0.61454400  0.83102700  0.69282200  1
  O  O24  1  0.29490800  0.60511800  0.23155500  1
  O  O25  1  0.70509200  0.39488200  0.76844500  1
  O  O26  1  0.36558100  0.58138000  0.62110000  1
  O  O27  1  0.63441900  0.41862000  0.37890000  1
  O  O28  1  0.22027200  0.93772900  0.25067300  1
  O  O29  1  0.77972800  0.06227100  0.74932700  1
  O  O30  1  0.10265400  0.72643100  0.81873900  1
  O  O31  1  0.89734600  0.27356900  0.18126100  1
