# generated using pymatgen
data_Nd2FeSbO7
_symmetry_space_group_name_H-M   'P 1'
_cell_length_a   7.45942667
_cell_length_b   7.45942667
_cell_length_c   7.45942667
_cell_angle_alpha   120.27430201
_cell_angle_beta   119.64465149
_cell_angle_gamma   90.07106655
_symmetry_Int_Tables_number   1
_chemical_formula_structural   Nd2FeSbO7
_chemical_formula_sum   'Nd4 Fe2 Sb2 O14'
_cell_volume   293.66389147
_cell_formula_units_Z   2
loop_
 _symmetry_equiv_pos_site_id
 _symmetry_equiv_pos_as_xyz
  1  'x, y, z'
loop_
 _atom_site_type_symbol
 _atom_site_label
 _atom_site_symmetry_multiplicity
 _atom_site_fract_x
 _atom_site_fract_y
 _atom_site_fract_z
 _atom_site_occupancy
  Nd  Nd0  1  0.00000000  0.00000000  0.50000000  1
  Nd  Nd1  1  0.00000000  0.50000000  0.00000000  1
  Nd  Nd2  1  0.00000000  0.00000000  0.00000000  1
  Nd  Nd3  1  0.50000000  0.00000000  0.50000000  1
  Fe  Fe4  1  0.50000000  0.50000000  0.50000000  1
  Fe  Fe5  1  0.50000000  0.00000000  0.00000000  1
  Sb  Sb6  1  0.50000000  0.50000000  0.00000000  1
  Sb  Sb7  1  0.00000000  0.50000000  0.50000000  1
  O  O8  1  0.12383300  0.87383300  0.25000000  1
  O  O9  1  0.87616700  0.12616700  0.75000000  1
  O  O10  1  0.41660600  0.16660600  0.25000000  1
  O  O11  1  0.82707600  0.57707600  0.25000000  1
  O  O12  1  0.41531200  0.57518100  0.23999100  1
  O  O13  1  0.83518900  0.17532100  0.26000900  1
  O  O14  1  0.41531200  0.17532100  0.84013100  1
  O  O15  1  0.83518900  0.57518100  0.65986900  1
  O  O16  1  0.58339400  0.83339400  0.75000000  1
  O  O17  1  0.17292400  0.42292400  0.75000000  1
  O  O18  1  0.58468800  0.42481900  0.76000900  1
  O  O19  1  0.16481100  0.82467900  0.73999100  1
  O  O20  1  0.58468800  0.82467900  0.15986900  1
  O  O21  1  0.16481100  0.42481900  0.34013100  1
