# generated using pymatgen
data_BeAgPO4
_symmetry_space_group_name_H-M   'P 1'
_cell_length_a   7.99686500
_cell_length_b   8.32969900
_cell_length_c   16.80049630
_cell_angle_alpha   60.47489277
_cell_angle_beta   90.00000000
_cell_angle_gamma   90.00000000
_symmetry_Int_Tables_number   1
_chemical_formula_structural   BeAgPO4
_chemical_formula_sum   'Be12 Ag12 P12 O48'
_cell_volume   973.77861472
_cell_formula_units_Z   12
loop_
 _symmetry_equiv_pos_site_id
 _symmetry_equiv_pos_as_xyz
  1  'x, y, z'
loop_
 _atom_site_type_symbol
 _atom_site_label
 _atom_site_symmetry_multiplicity
 _atom_site_fract_x
 _atom_site_fract_y
 _atom_site_fract_z
 _atom_site_occupancy
  Be  Be0  1  0.17305400  0.98509900  0.41860100  1
  Be  Be1  1  0.82909600  0.65753700  0.90884900  1
  Be  Be2  1  0.32909600  0.34246300  0.59115100  1
  Be  Be3  1  0.17090400  0.34246300  0.09115100  1
  Be  Be4  1  0.67090400  0.65753700  0.40884900  1
  Be  Be5  1  0.82694600  0.01490100  0.58139900  1
  Be  Be6  1  0.32694600  0.98509900  0.91860100  1
  Be  Be7  1  0.67305400  0.01490100  0.08139900  1
  Be  Be8  1  0.82573700  0.32034700  0.75803400  1
  Be  Be9  1  0.32573700  0.67965300  0.74196600  1
  Be  Be10  1  0.17426300  0.67965300  0.24196600  1
  Be  Be11  1  0.67426300  0.32034700  0.25803400  1
  Ag  Ag12  1  0.98571100  0.27726600  0.93545400  1
  Ag  Ag13  1  0.48571100  0.72273400  0.56454600  1
  Ag  Ag14  1  0.01428900  0.72273400  0.06454600  1
  Ag  Ag15  1  0.51428900  0.27726600  0.43545400  1
  Ag  Ag16  1  0.51954900  0.36432500  0.91436700  1
  Ag  Ag17  1  0.01954900  0.63567500  0.58563300  1
  Ag  Ag18  1  0.48045100  0.63567500  0.08563300  1
  Ag  Ag19  1  0.98045100  0.36432500  0.41436700  1
  Ag  Ag20  1  0.99313800  0.99815300  0.75212400  1
  Ag  Ag21  1  0.49313800  0.00184700  0.74787600  1
  Ag  Ag22  1  0.00686200  0.00184700  0.24787600  1
  Ag  Ag23  1  0.50686200  0.99815300  0.25212400  1
  P  P24  1  0.70535400  0.34053700  0.58953800  1
  P  P25  1  0.20535400  0.65946300  0.91046200  1
  P  P26  1  0.29464600  0.65946300  0.41046200  1
  P  P27  1  0.79464600  0.34053700  0.08953800  1
  P  P28  1  0.70354900  0.97784800  0.91764500  1
  P  P29  1  0.20354900  0.02215200  0.58235500  1
  P  P30  1  0.29645100  0.02215200  0.08235500  1
  P  P31  1  0.79645100  0.97784800  0.41764500  1
  P  P32  1  0.70779500  0.67978300  0.73805800  1
  P  P33  1  0.20779500  0.32021700  0.76194200  1
  P  P34  1  0.29220500  0.32021700  0.26194200  1
  P  P35  1  0.79220500  0.67978300  0.23805800  1
  O  O36  1  0.52420500  0.38209100  0.60641300  1
  O  O37  1  0.32490500  0.61546300  0.85078600  1
  O  O38  1  0.17509500  0.61546300  0.35078600  1
  O  O39  1  0.67509500  0.38453700  0.14921400  1
  O  O40  1  0.82152800  0.81137500  0.94281200  1
  O  O41  1  0.32152800  0.18862500  0.55718800  1
  O  O42  1  0.17847200  0.18862500  0.05718800  1
  O  O43  1  0.67847200  0.81137500  0.44281200  1
  O  O44  1  0.74589300  0.46169000  0.98712100  1
  O  O45  1  0.32159700  0.20547500  0.84589300  1
  O  O46  1  0.17840300  0.20547500  0.34589300  1
  O  O47  1  0.67840300  0.79452500  0.15410700  1
  O  O48  1  0.97788100  0.72028100  0.20542800  1
  O  O49  1  0.47788100  0.27971900  0.29457200  1
  O  O50  1  0.02211900  0.27971900  0.79457200  1
  O  O51  1  0.52211900  0.72028100  0.70542800  1
  O  O52  1  0.97962300  0.90788000  0.43319500  1
  O  O53  1  0.82490500  0.38453700  0.64921400  1
  O  O54  1  0.47962300  0.09212000  0.06680500  1
  O  O55  1  0.02037700  0.09212000  0.56680500  1
  O  O56  1  0.52037700  0.90788000  0.93319500  1
  O  O57  1  0.97579500  0.38209100  0.10641300  1
  O  O58  1  0.47579500  0.61790900  0.39358700  1
  O  O59  1  0.02420500  0.61790900  0.89358700  1
  O  O60  1  0.76801200  0.74047300  0.31124900  1
  O  O61  1  0.26801200  0.25952700  0.18875100  1
  O  O62  1  0.23198800  0.25952700  0.68875100  1
  O  O63  1  0.73198800  0.74047300  0.81124900  1
  O  O64  1  0.77336200  0.12371800  0.31559600  1
  O  O65  1  0.27336200  0.87628200  0.18440400  1
  O  O66  1  0.22663800  0.87628200  0.68440400  1
  O  O67  1  0.72663800  0.12371800  0.81559600  1
  O  O68  1  0.78064300  0.13300600  0.11787000  1
  O  O69  1  0.28064300  0.86699400  0.38213000  1
  O  O70  1  0.21935700  0.86699400  0.88213000  1
  O  O71  1  0.71935700  0.13300600  0.61787000  1
  O  O72  1  0.75463100  0.47196500  0.28100400  1
  O  O73  1  0.25463100  0.52803500  0.21899600  1
  O  O74  1  0.24536900  0.52803500  0.71899600  1
  O  O75  1  0.74536900  0.47196500  0.78100400  1
  O  O76  1  0.75361500  0.06156800  0.47992800  1
  O  O77  1  0.25361500  0.93843200  0.02007200  1
  O  O78  1  0.24638500  0.93843200  0.52007200  1
  O  O79  1  0.74638500  0.06156800  0.97992800  1
  O  O80  1  0.75410700  0.46169000  0.48712100  1
  O  O81  1  0.25410700  0.53831000  0.01287900  1
  O  O82  1  0.24589300  0.53831000  0.51287900  1
  O  O83  1  0.82159700  0.79452500  0.65410700  1
