# generated using pymatgen
data_Y3Si6N11
_symmetry_space_group_name_H-M   'P 1'
_cell_length_a   9.97061900
_cell_length_b   9.97061900
_cell_length_c   4.89119200
_cell_angle_alpha   90.00000000
_cell_angle_beta   90.00000000
_cell_angle_gamma   90.00000000
_symmetry_Int_Tables_number   1
_chemical_formula_structural   Y3Si6N11
_chemical_formula_sum   'Y6 Si12 N22'
_cell_volume   486.24926005
_cell_formula_units_Z   2
loop_
 _symmetry_equiv_pos_site_id
 _symmetry_equiv_pos_as_xyz
  1  'x, y, z'
loop_
 _atom_site_type_symbol
 _atom_site_label
 _atom_site_symmetry_multiplicity
 _atom_site_fract_x
 _atom_site_fract_y
 _atom_site_fract_z
 _atom_site_occupancy
  Y  Y0  1  0.31707700  0.81707700  0.98505400  1
  Y  Y1  1  0.68292300  0.18292300  0.98505400  1
  Y  Y2  1  0.18292300  0.31707700  0.98505400  1
  Y  Y3  1  0.81707700  0.68292300  0.98505400  1
  Y  Y4  1  0.50000000  0.50000000  0.97429400  1
  Y  Y5  1  0.00000000  0.00000000  0.97429400  1
  Si  Si6  1  0.41958200  0.29219900  0.53259100  1
  Si  Si7  1  0.58041800  0.70780100  0.53259100  1
  Si  Si8  1  0.08041800  0.79219900  0.53259100  1
  Si  Si9  1  0.91958200  0.20780100  0.53259100  1
  Si  Si10  1  0.29219900  0.58041800  0.53259100  1
  Si  Si11  1  0.70780100  0.41958200  0.53259100  1
  Si  Si12  1  0.79219900  0.91958200  0.53259100  1
  Si  Si13  1  0.20780100  0.08041800  0.53259100  1
  Si  Si14  1  0.88080900  0.38080900  0.04522900  1
  Si  Si15  1  0.11919100  0.61919100  0.04522900  1
  Si  Si16  1  0.61919100  0.88080900  0.04522900  1
  Si  Si17  1  0.38080900  0.11919100  0.04522900  1
  N  N18  1  0.31867200  0.42133100  0.65482000  1
  N  N19  1  0.68132800  0.57866900  0.65482000  1
  N  N20  1  0.18132800  0.92133100  0.65482000  1
  N  N21  1  0.81867200  0.07866900  0.65482000  1
  N  N22  1  0.42133100  0.68132800  0.65482000  1
  N  N23  1  0.57866900  0.31867200  0.65482000  1
  N  N24  1  0.92133100  0.81867200  0.65482000  1
  N  N25  1  0.07866900  0.18132800  0.65482000  1
  N  N26  1  0.42036500  0.27679400  0.17863100  1
  N  N27  1  0.57963500  0.72320600  0.17863100  1
  N  N28  1  0.07963500  0.77679400  0.17863100  1
  N  N29  1  0.92036500  0.22320600  0.17863100  1
  N  N30  1  0.27679400  0.57963500  0.17863100  1
  N  N31  1  0.72320600  0.42036500  0.17863100  1
  N  N32  1  0.77679400  0.92036500  0.17863100  1
  N  N33  1  0.22320600  0.07963500  0.17863100  1
  N  N34  1  0.84661100  0.34661100  0.69783100  1
  N  N35  1  0.15338900  0.65338900  0.69783100  1
  N  N36  1  0.65338900  0.84661100  0.69783100  1
  N  N37  1  0.34661100  0.15338900  0.69783100  1
  N  N38  1  0.50000000  0.00000000  0.07385000  1
  N  N39  1  0.00000000  0.50000000  0.07385000  1
