# generated using pymatgen
data_K2CuP2O7
_symmetry_space_group_name_H-M   'P 1'
_cell_length_a   8.17020400
_cell_length_b   8.17020400
_cell_length_c   5.55085700
_cell_angle_alpha   90.00000000
_cell_angle_beta   90.00000000
_cell_angle_gamma   90.00000000
_symmetry_Int_Tables_number   1
_chemical_formula_structural   K2CuP2O7
_chemical_formula_sum   'K4 Cu2 P4 O14'
_cell_volume   370.53210204
_cell_formula_units_Z   2
loop_
 _symmetry_equiv_pos_site_id
 _symmetry_equiv_pos_as_xyz
  1  'x, y, z'
loop_
 _atom_site_type_symbol
 _atom_site_label
 _atom_site_symmetry_multiplicity
 _atom_site_fract_x
 _atom_site_fract_y
 _atom_site_fract_z
 _atom_site_occupancy
  K  K0  1  0.33414600  0.83414600  0.49149500  1
  K  K1  1  0.16585400  0.33414600  0.50850500  1
  K  K2  1  0.66585400  0.16585400  0.49149500  1
  K  K3  1  0.83414600  0.66585400  0.50850500  1
  Cu  Cu4  1  0.50000000  0.50000000  0.00000000  1
  Cu  Cu5  1  0.00000000  0.00000000  0.00000000  1
  P  P6  1  0.36630000  0.13370000  0.97879400  1
  P  P7  1  0.13370000  0.63370000  0.02120600  1
  P  P8  1  0.63370000  0.86630000  0.97879400  1
  P  P9  1  0.86630000  0.36630000  0.02120600  1
  O  O10  1  0.50000000  0.00000000  0.87573200  1
  O  O11  1  0.00000000  0.50000000  0.12426800  1
  O  O12  1  0.57778200  0.70534900  0.85718700  1
  O  O13  1  0.92221800  0.20534900  0.14281300  1
  O  O14  1  0.42221800  0.29465100  0.85718700  1
  O  O15  1  0.07778200  0.79465100  0.14281300  1
  O  O16  1  0.70534900  0.42221800  0.14281300  1
  O  O17  1  0.79465100  0.92221800  0.85718700  1
  O  O18  1  0.29465100  0.57778200  0.14281300  1
  O  O19  1  0.20534900  0.07778200  0.85718700  1
  O  O20  1  0.36501700  0.13498300  0.25018400  1
  O  O21  1  0.13498300  0.63498300  0.74981600  1
  O  O22  1  0.63498300  0.86501700  0.25018400  1
  O  O23  1  0.86501700  0.36501700  0.74981600  1
