# generated using pymatgen
data_K2Na2Nd4Nb2O13
_symmetry_space_group_name_H-M   'P 1'
_cell_length_a   12.64859375
_cell_length_b   12.64859375
_cell_length_c   11.44575254
_cell_angle_alpha   64.17094314
_cell_angle_beta   64.17094314
_cell_angle_gamma   26.43322742
_symmetry_Int_Tables_number   1
_chemical_formula_structural   K2Na2Nd4Nb2O13
_chemical_formula_sum   'K4 Na4 Nd8 Nb4 O26'
_cell_volume   728.96205362
_cell_formula_units_Z   2
loop_
 _symmetry_equiv_pos_site_id
 _symmetry_equiv_pos_as_xyz
  1  'x, y, z'
loop_
 _atom_site_type_symbol
 _atom_site_label
 _atom_site_symmetry_multiplicity
 _atom_site_fract_x
 _atom_site_fract_y
 _atom_site_fract_z
 _atom_site_occupancy
  K  K0  1  0.79922600  0.69953000  0.36688700  1
  K  K1  1  0.30047000  0.20077400  0.13311300  1
  K  K2  1  0.20077400  0.30047000  0.63311300  1
  K  K3  1  0.69953000  0.79922600  0.86688700  1
  Na  Na4  1  0.87571900  0.80557300  0.02427100  1
  Na  Na5  1  0.19442700  0.12428100  0.47572900  1
  Na  Na6  1  0.12428100  0.19442700  0.97572900  1
  Na  Na7  1  0.80557300  0.87571900  0.52427100  1
  Nd  Nd8  1  0.60846800  0.51876000  0.54915000  1
  Nd  Nd9  1  0.48124000  0.39153200  0.95085000  1
  Nd  Nd10  1  0.39153200  0.48124000  0.45085000  1
  Nd  Nd11  1  0.51876000  0.60846800  0.04915000  1
  Nd  Nd12  1  0.97326500  0.89984100  0.17332900  1
  Nd  Nd13  1  0.10015900  0.02673500  0.32667100  1
  Nd  Nd14  1  0.02673500  0.10015900  0.82667100  1
  Nd  Nd15  1  0.89984100  0.97326500  0.67332900  1
  Nb  Nb16  1  0.68459600  0.61967500  0.21589700  1
  Nb  Nb17  1  0.38032500  0.31540400  0.28410300  1
  Nb  Nb18  1  0.31540400  0.38032500  0.78410300  1
  Nb  Nb19  1  0.61967500  0.68459600  0.71589700  1
  O  O20  1  0.90342100  0.36230000  0.35850000  1
  O  O21  1  0.63770000  0.09657900  0.14150000  1
  O  O22  1  0.09657900  0.63770000  0.64150000  1
  O  O23  1  0.36230000  0.90342100  0.85850000  1
  O  O24  1  0.86061500  0.41058700  0.62268000  1
  O  O25  1  0.58941300  0.13938500  0.87732000  1
  O  O26  1  0.13938500  0.58941300  0.37732000  1
  O  O27  1  0.41058700  0.86061500  0.12268000  1
  O  O28  1  0.17655300  0.56045800  0.14007200  1
  O  O29  1  0.43954200  0.82344700  0.35992800  1
  O  O30  1  0.82344700  0.43954200  0.85992800  1
  O  O31  1  0.56045800  0.17655300  0.64007200  1
  O  O32  1  0.79825600  0.67395600  0.12262600  1
  O  O33  1  0.32604400  0.20174400  0.37737400  1
  O  O34  1  0.20174400  0.32604400  0.87737400  1
  O  O35  1  0.67395600  0.79825600  0.62262600  1
  O  O36  1  0.24090800  0.75909200  0.25000000  1
  O  O37  1  0.75909200  0.24090800  0.75000000  1
  O  O38  1  0.37353000  0.83327600  0.65741100  1
  O  O39  1  0.16672400  0.62647000  0.84258900  1
  O  O40  1  0.62647000  0.16672400  0.34258900  1
  O  O41  1  0.83327600  0.37353000  0.15741100  1
  O  O42  1  0.75052100  0.24695500  0.47714000  1
  O  O43  1  0.75304500  0.24947900  0.02286000  1
  O  O44  1  0.24947900  0.75304500  0.52286000  1
  O  O45  1  0.24695500  0.75052100  0.97714000  1
