# generated using pymatgen
data_Y2Fe2O7
_symmetry_space_group_name_H-M   'P 1'
_cell_length_a   7.17375653
_cell_length_b   7.17371474
_cell_length_c   7.17381905
_cell_angle_alpha   59.98914351
_cell_angle_beta   59.98765469
_cell_angle_gamma   59.98941770
_symmetry_Int_Tables_number   1
_chemical_formula_structural   Y2Fe2O7
_chemical_formula_sum   'Y4 Fe4 O14'
_cell_volume   260.98482065
_cell_formula_units_Z   2
loop_
 _symmetry_equiv_pos_site_id
 _symmetry_equiv_pos_as_xyz
  1  'x, y, z'
loop_
 _atom_site_type_symbol
 _atom_site_label
 _atom_site_symmetry_multiplicity
 _atom_site_fract_x
 _atom_site_fract_y
 _atom_site_fract_z
 _atom_site_occupancy
  Y  Y0  1  0.50000000  0.00000100  0.50000400  1
  Y  Y1  1  0.99999900  0.49999900  0.49999700  1
  Y  Y2  1  0.49999900  0.50000400  0.00000000  1
  Y  Y3  1  0.50000300  0.50000000  0.49999800  1
  Fe  Fe4  1  0.00000000  0.50000000  0.00000200  1
  Fe  Fe5  1  0.49999800  0.00000200  0.99999900  1
  Fe  Fe6  1  0.00000200  0.99999700  0.50000000  1
  Fe  Fe7  1  0.99999600  0.00000300  0.00000200  1
  O  O8  1  0.62497400  0.62500200  0.62495900  1
  O  O9  1  0.37502400  0.37499900  0.37504200  1
  O  O10  1  0.33323200  0.91677900  0.91675300  1
  O  O11  1  0.08323600  0.66673000  0.66675000  1
  O  O12  1  0.91676100  0.33325700  0.91673800  1
  O  O13  1  0.91676900  0.91677600  0.33321300  1
  O  O14  1  0.33326600  0.33325900  0.91674800  1
  O  O15  1  0.33327700  0.91678000  0.33325200  1
  O  O16  1  0.91676300  0.33326300  0.33325500  1
  O  O17  1  0.66673300  0.66674200  0.08325200  1
  O  O18  1  0.08323600  0.08322300  0.66678600  1
  O  O19  1  0.66676400  0.08321900  0.08324900  1
  O  O20  1  0.66672900  0.08322400  0.66674400  1
  O  O21  1  0.08324100  0.66674500  0.08325800  1
