# generated using pymatgen
data_GdPS4
_symmetry_space_group_name_H-M   'P 1'
_cell_length_a   12.27734368
_cell_length_b   12.27734368
_cell_length_c   12.27734368
_cell_angle_alpha   127.77617069
_cell_angle_beta   127.77617069
_cell_angle_gamma   76.98790418
_symmetry_Int_Tables_number   1
_chemical_formula_structural   GdPS4
_chemical_formula_sum   'Gd8 P8 S32'
_cell_volume   1122.29731592
_cell_formula_units_Z   8
loop_
 _symmetry_equiv_pos_site_id
 _symmetry_equiv_pos_as_xyz
  1  'x, y, z'
loop_
 _atom_site_type_symbol
 _atom_site_label
 _atom_site_symmetry_multiplicity
 _atom_site_fract_x
 _atom_site_fract_y
 _atom_site_fract_z
 _atom_site_occupancy
  Gd  Gd0  1  0.25000000  0.25000000  0.00000000  1
  Gd  Gd1  1  0.75000000  0.75000000  0.00000000  1
  Gd  Gd2  1  0.50000000  0.00000000  0.50000000  1
  Gd  Gd3  1  0.00000000  0.50000000  0.50000000  1
  Gd  Gd4  1  0.00000000  0.00000000  0.00000000  1
  Gd  Gd5  1  0.50000000  0.50000000  0.00000000  1
  Gd  Gd6  1  0.25000000  0.75000000  0.50000000  1
  Gd  Gd7  1  0.75000000  0.25000000  0.50000000  1
  P  P8  1  0.16255200  0.87500000  0.78755200  1
  P  P9  1  0.66255200  0.87500000  0.28755200  1
  P  P10  1  0.12500000  0.91255200  0.28755200  1
  P  P11  1  0.62500000  0.33744800  0.21244800  1
  P  P12  1  0.58744800  0.37500000  0.71244800  1
  P  P13  1  0.08744800  0.37500000  0.21244800  1
  P  P14  1  0.12500000  0.41255200  0.78755200  1
  P  P15  1  0.62500000  0.83744800  0.71244800  1
  S  S16  1  0.54027500  0.35475000  0.32149100  1
  S  S17  1  0.04027500  0.71878500  0.18552500  1
  S  S18  1  0.60475000  0.29027500  0.82149100  1
  S  S19  1  0.10475000  0.28325900  0.31447500  1
  S  S20  1  0.20972500  0.89525000  0.17850900  1
  S  S21  1  0.70972500  0.53121500  0.31447500  1
  S  S22  1  0.14525000  0.95972500  0.67850900  1
  S  S23  1  0.64525000  0.96674100  0.18552500  1
  S  S24  1  0.53325900  0.85475000  0.81447500  1
  S  S25  1  0.03325900  0.21878500  0.67850900  1
  S  S26  1  0.96878500  0.79027500  0.68552500  1
  S  S27  1  0.46878500  0.78325900  0.17850900  1
  S  S28  1  0.21674100  0.39525000  0.68552500  1
  S  S29  1  0.71674100  0.03121500  0.82149100  1
  S  S30  1  0.78121500  0.45972500  0.81447500  1
  S  S31  1  0.28121500  0.46674100  0.32149100  1
  S  S32  1  0.46130000  0.23427300  0.95153000  1
  S  S33  1  0.96130000  0.00976900  0.22702600  1
  S  S34  1  0.48427300  0.21130000  0.45153000  1
  S  S35  1  0.98427300  0.53274300  0.27297400  1
  S  S36  1  0.28870000  0.01572700  0.54847000  1
  S  S37  1  0.78870000  0.24023100  0.27297400  1
  S  S38  1  0.26572700  0.03870000  0.04847000  1
  S  S39  1  0.76572700  0.71725700  0.22702600  1
  S  S40  1  0.78274300  0.73427300  0.77297400  1
  S  S41  1  0.28274300  0.50976900  0.04847000  1
  S  S42  1  0.25976900  0.71130000  0.72702600  1
  S  S43  1  0.75976900  0.03274300  0.54847000  1
  S  S44  1  0.96725700  0.51572700  0.72702600  1
  S  S45  1  0.46725700  0.74023100  0.45153000  1
  S  S46  1  0.49023100  0.53870000  0.77297400  1
  S  S47  1  0.99023100  0.21725700  0.95153000  1
