# generated using pymatgen
data_Sc6Ga16Ir7
_symmetry_space_group_name_H-M   'P 1'
_cell_length_a   8.83912751
_cell_length_b   8.83912751
_cell_length_c   8.83912751
_cell_angle_alpha   60.00000000
_cell_angle_beta   60.00000000
_cell_angle_gamma   60.00000000
_symmetry_Int_Tables_number   1
_chemical_formula_structural   Sc6Ga16Ir7
_chemical_formula_sum   'Sc6 Ga16 Ir7'
_cell_volume   488.32976723
_cell_formula_units_Z   1
loop_
 _symmetry_equiv_pos_site_id
 _symmetry_equiv_pos_as_xyz
  1  'x, y, z'
loop_
 _atom_site_type_symbol
 _atom_site_label
 _atom_site_symmetry_multiplicity
 _atom_site_fract_x
 _atom_site_fract_y
 _atom_site_fract_z
 _atom_site_occupancy
  Sc  Sc0  1  0.71230600  0.71230600  0.28769400  1
  Sc  Sc1  1  0.28769400  0.71230600  0.28769400  1
  Sc  Sc2  1  0.71230600  0.28769400  0.28769400  1
  Sc  Sc3  1  0.28769400  0.28769400  0.71230600  1
  Sc  Sc4  1  0.71230600  0.28769400  0.71230600  1
  Sc  Sc5  1  0.28769400  0.71230600  0.71230600  1
  Ga  Ga6  1  0.87788400  0.87788400  0.36634800  1
  Ga  Ga7  1  0.87788400  0.36634800  0.87788400  1
  Ga  Ga8  1  0.36634800  0.87788400  0.87788400  1
  Ga  Ga9  1  0.87788400  0.87788400  0.87788400  1
  Ga  Ga10  1  0.12211600  0.12211600  0.63365200  1
  Ga  Ga11  1  0.12211600  0.63365200  0.12211600  1
  Ga  Ga12  1  0.63365200  0.12211600  0.12211600  1
  Ga  Ga13  1  0.12211600  0.12211600  0.12211600  1
  Ga  Ga14  1  0.65778100  0.65778100  0.02665700  1
  Ga  Ga15  1  0.65778100  0.02665700  0.65778100  1
  Ga  Ga16  1  0.02665700  0.65778100  0.65778100  1
  Ga  Ga17  1  0.65778100  0.65778100  0.65778100  1
  Ga  Ga18  1  0.34221900  0.34221900  0.97334300  1
  Ga  Ga19  1  0.34221900  0.97334300  0.34221900  1
  Ga  Ga20  1  0.97334300  0.34221900  0.34221900  1
  Ga  Ga21  1  0.34221900  0.34221900  0.34221900  1
  Ir  Ir22  1  0.00000000  0.00000000  0.00000000  1
  Ir  Ir23  1  0.00000000  0.00000000  0.50000000  1
  Ir  Ir24  1  0.50000000  0.00000000  0.50000000  1
  Ir  Ir25  1  0.00000000  0.50000000  0.50000000  1
  Ir  Ir26  1  0.50000000  0.50000000  0.00000000  1
  Ir  Ir27  1  0.00000000  0.50000000  0.00000000  1
  Ir  Ir28  1  0.50000000  0.00000000  0.00000000  1
