# generated using pymatgen
data_Ti4S24Cl6O
_symmetry_space_group_name_H-M   'P 1'
_cell_length_a   9.66376030
_cell_length_b   28.79859035
_cell_length_c   14.13436205
_cell_angle_alpha   90.00000000
_cell_angle_beta   90.00000000
_cell_angle_gamma   90.00000000
_symmetry_Int_Tables_number   1
_chemical_formula_structural   Ti4S24Cl6O
_chemical_formula_sum   'Ti16 S96 Cl24 O4'
_cell_volume   3933.63075550
_cell_formula_units_Z   4
loop_
 _symmetry_equiv_pos_site_id
 _symmetry_equiv_pos_as_xyz
  1  'x, y, z'
loop_
 _atom_site_type_symbol
 _atom_site_label
 _atom_site_symmetry_multiplicity
 _atom_site_fract_x
 _atom_site_fract_y
 _atom_site_fract_z
 _atom_site_occupancy
  Ti  Ti0  1  0.51015601  0.55340065  0.72480935  1
  Ti  Ti1  1  0.48984399  0.44659935  0.27519065  1
  Ti  Ti2  1  0.98984399  0.94659935  0.22480935  1
  Ti  Ti3  1  0.51015601  0.44659935  0.77519065  1
  Ti  Ti4  1  0.01015601  0.05340065  0.77519065  1
  Ti  Ti5  1  0.48984399  0.55340065  0.22480935  1
  Ti  Ti6  1  0.98984399  0.05340065  0.27519065  1
  Ti  Ti7  1  0.01015601  0.94659935  0.72480935  1
  Ti  Ti8  1  0.74482436  0.97153177  0.84500263  1
  Ti  Ti9  1  0.25517564  0.02846823  0.15499737  1
  Ti  Ti10  1  0.75517564  0.52846823  0.34500263  1
  Ti  Ti11  1  0.74482436  0.02846823  0.65499737  1
  Ti  Ti12  1  0.24482436  0.47153177  0.65499737  1
  Ti  Ti13  1  0.25517564  0.97153177  0.34500263  1
  Ti  Ti14  1  0.75517564  0.47153177  0.15499737  1
  Ti  Ti15  1  0.24482436  0.52846823  0.84500263  1
  S  S16  1  0.95286206  0.65787325  0.82818878  1
  S  S17  1  0.04713794  0.34212675  0.17181122  1
  S  S18  1  0.54713794  0.84212675  0.32818878  1
  S  S19  1  0.95286206  0.34212675  0.67181122  1
  S  S20  1  0.45286206  0.15787325  0.67181122  1
  S  S21  1  0.04713794  0.65787325  0.32818878  1
  S  S22  1  0.54713794  0.15787325  0.17181122  1
  S  S23  1  0.45286206  0.84212675  0.82818878  1
  S  S24  1  0.82502039  0.62844403  0.92813323  1
  S  S25  1  0.17497961  0.37155597  0.07186677  1
  S  S26  1  0.67497961  0.87155597  0.42813323  1
  S  S27  1  0.82502039  0.37155597  0.57186677  1
  S  S28  1  0.32502039  0.12844403  0.57186677  1
  S  S29  1  0.17497961  0.62844403  0.42813323  1
  S  S30  1  0.67497961  0.12844403  0.07186677  1
  S  S31  1  0.32502039  0.87155597  0.92813323  1
  S  S32  1  0.94636168  0.91774632  0.87905435  1
  S  S33  1  0.05363832  0.08225368  0.12094565  1
  S  S34  1  0.55363832  0.58225368  0.37905435  1
  S  S35  1  0.94636168  0.08225368  0.62094565  1
  S  S36  1  0.44636168  0.41774632  0.62094565  1
  S  S37  1  0.05363832  0.91774632  0.37905435  1
  S  S38  1  0.55363832  0.41774632  0.12094565  1
  S  S39  1  0.44636168  0.58225368  0.87905435  1
  S  S40  1  0.86643507  0.71919106  0.78121335  1
  S  S41  1  0.13356493  0.28080894  0.21878665  1
  S  S42  1  0.63356493  0.78080894  0.28121335  1
  S  S43  1  0.86643507  0.28080894  0.71878665  1
  S  S44  1  0.36643507  0.21919106  0.71878665  1
  S  S45  1  0.13356493  0.71919106  0.28121335  1
  S  S46  1  0.63356493  0.21919106  0.21878665  1
  S  S47  1  0.36643507  0.78080894  0.78121335  1
  S  S48  1  0.59898920  0.85535986  0.56043932  1
  S  S49  1  0.40101080  0.14464014  0.43956068  1
  S  S50  1  0.90101080  0.64464014  0.06043932  1
  S  S51  1  0.59898920  0.14464014  0.93956068  1
  S  S52  1  0.09898920  0.35535986  0.93956068  1
  S  S53  1  0.40101080  0.85535986  0.06043932  1
  S  S54  1  0.90101080  0.35535986  0.43956068  1
  S  S55  1  0.09898920  0.64464014  0.56043932  1
  S  S56  1  0.57650739  0.96806638  0.71843984  1
  S  S57  1  0.42349261  0.03193362  0.28156016  1
  S  S58  1  0.92349261  0.53193362  0.21843984  1
  S  S59  1  0.57650739  0.03193362  0.78156016  1
  S  S60  1  0.07650739  0.46806638  0.78156016  1
  S  S61  1  0.42349261  0.96806638  0.21843984  1
  S  S62  1  0.92349261  0.46806638  0.28156016  1
  S  S63  1  0.07650739  0.53193362  0.71843984  1
  S  S64  1  0.59597413  0.73916487  0.58569543  1
  S  S65  1  0.40402587  0.26083513  0.41430457  1
  S  S66  1  0.90402587  0.76083513  0.08569543  1
  S  S67  1  0.59597413  0.26083513  0.91430457  1
  S  S68  1  0.09597413  0.23916487  0.91430457  1
  S  S69  1  0.40402587  0.73916487  0.08569543  1
  S  S70  1  0.90402587  0.23916487  0.41430457  1
  S  S71  1  0.09597413  0.76083513  0.58569543  1
  S  S72  1  0.67701095  0.51097287  0.81882454  1
  S  S73  1  0.32298905  0.48902713  0.18117546  1
  S  S74  1  0.82298905  0.98902713  0.31882454  1
  S  S75  1  0.67701095  0.48902713  0.68117546  1
  S  S76  1  0.17701095  0.01097287  0.68117546  1
  S  S77  1  0.32298905  0.51097287  0.31882454  1
  S  S78  1  0.82298905  0.01097287  0.18117546  1
  S  S79  1  0.17701095  0.98902713  0.81882454  1
  S  S80  1  0.80803372  0.89728351  0.77786764  1
  S  S81  1  0.19196628  0.10271649  0.22213236  1
  S  S82  1  0.69196628  0.60271649  0.27786764  1
  S  S83  1  0.80803372  0.10271649  0.72213236  1
  S  S84  1  0.30803372  0.39728351  0.72213236  1
  S  S85  1  0.19196628  0.89728351  0.27786764  1
  S  S86  1  0.69196628  0.39728351  0.22213236  1
  S  S87  1  0.30803372  0.60271649  0.77786764  1
  S  S88  1  0.82778305  0.79190110  0.96522512  1
  S  S89  1  0.17221695  0.20809890  0.03477488  1
  S  S90  1  0.67221695  0.70809890  0.46522512  1
  S  S91  1  0.82778305  0.20809890  0.53477488  1
  S  S92  1  0.32778305  0.29190110  0.53477488  1
  S  S93  1  0.17221695  0.79190110  0.46522512  1
  S  S94  1  0.67221695  0.29190110  0.03477488  1
  S  S95  1  0.32778305  0.70809890  0.96522512  1
  S  S96  1  0.70632294  0.79900857  0.61264138  1
  S  S97  1  0.29367706  0.20099143  0.38735862  1
  S  S98  1  0.79367706  0.70099143  0.11264138  1
  S  S99  1  0.70632294  0.20099143  0.88735862  1
  S  S100  1  0.20632294  0.29900857  0.88735862  1
  S  S101  1  0.29367706  0.79900857  0.11264138  1
  S  S102  1  0.79367706  0.29900857  0.38735862  1
  S  S103  1  0.20632294  0.70099143  0.61264138  1
  S  S104  1  0.95332235  0.77430601  0.85295397  1
  S  S105  1  0.04667765  0.22569399  0.14704603  1
  S  S106  1  0.54667765  0.72569399  0.35295397  1
  S  S107  1  0.95332235  0.22569399  0.64704603  1
  S  S108  1  0.45332235  0.27430601  0.64704603  1
  S  S109  1  0.04667765  0.77430601  0.35295397  1
  S  S110  1  0.54667765  0.27430601  0.14704603  1
  S  S111  1  0.45332235  0.72569399  0.85295397  1
  Cl  Cl112  1  0.62406518  0.95145638  0.97279817  1
  Cl  Cl113  1  0.37593482  0.04854362  0.02720183  1
  Cl  Cl114  1  0.87593482  0.54854362  0.47279817  1
  Cl  Cl115  1  0.62406518  0.04854362  0.52720183  1
  Cl  Cl116  1  0.12406518  0.45145638  0.52720183  1
  Cl  Cl117  1  0.37593482  0.95145638  0.47279817  1
  Cl  Cl118  1  0.87593482  0.45145638  0.02720183  1
  Cl  Cl119  1  0.12406518  0.54854362  0.97279817  1
  Cl  Cl120  1  0.87495666  0.96244667  0.57126692  1
  Cl  Cl121  1  0.12504334  0.03755333  0.42873308  1
  Cl  Cl122  1  0.62504334  0.53755333  0.07126692  1
  Cl  Cl123  1  0.87495666  0.03755333  0.92873308  1
  Cl  Cl124  1  0.37495666  0.46244667  0.92873308  1
  Cl  Cl125  1  0.12504334  0.96244667  0.07126692  1
  Cl  Cl126  1  0.62504334  0.46244667  0.42873308  1
  Cl  Cl127  1  0.37495666  0.53755333  0.57126692  1
  Cl  Cl128  1  0.63740659  0.61134093  0.66636815  1
  Cl  Cl129  1  0.36259341  0.38865907  0.33363185  1
  Cl  Cl130  1  0.86259341  0.88865907  0.16636815  1
  Cl  Cl131  1  0.63740659  0.38865907  0.83363185  1
  Cl  Cl132  1  0.13740659  0.11134093  0.83363185  1
  Cl  Cl133  1  0.36259341  0.61134093  0.16636815  1
  Cl  Cl134  1  0.86259341  0.11134093  0.33363185  1
  Cl  Cl135  1  0.13740659  0.88865907  0.66636815  1
  O  O136  1  0.87726511  0.00000000  0.75000000  1
  O  O137  1  0.12273489  0.00000000  0.25000000  1
  O  O138  1  0.62273489  0.50000000  0.25000000  1
  O  O139  1  0.37726511  0.50000000  0.75000000  1
