# generated using pymatgen
data_Cr2Rh2C
_symmetry_space_group_name_H-M   'P 1'
_cell_length_a   8.90136458
_cell_length_b   8.90136458
_cell_length_c   8.90136434
_cell_angle_alpha   17.84213521
_cell_angle_beta   17.84213521
_cell_angle_gamma   17.84213423
_symmetry_Int_Tables_number   1
_chemical_formula_structural   Cr2Rh2C
_chemical_formula_sum   'Cr2 Rh2 C1'
_cell_volume   57.80424582
_cell_formula_units_Z   1
loop_
 _symmetry_equiv_pos_site_id
 _symmetry_equiv_pos_as_xyz
  1  'x, y, z'
loop_
 _atom_site_type_symbol
 _atom_site_label
 _atom_site_symmetry_multiplicity
 _atom_site_fract_x
 _atom_site_fract_y
 _atom_site_fract_z
 _atom_site_occupancy
  Cr  Cr0  1  0.37718400  0.37718400  0.37718400  1
  Cr  Cr1  1  0.62281600  0.62281600  0.62281600  1
  Rh  Rh2  1  0.87808100  0.87808100  0.87808100  1
  Rh  Rh3  1  0.12191900  0.12191900  0.12191900  1
  C  C4  1  0.00000000  0.00000000  0.00000000  1
