# generated using pymatgen
data_V4Ni2N
_symmetry_space_group_name_H-M   'P 1'
_cell_length_a   7.66785038
_cell_length_b   7.66785038
_cell_length_c   7.66785038
_cell_angle_alpha   60.00000000
_cell_angle_beta   60.00000000
_cell_angle_gamma   60.00000000
_symmetry_Int_Tables_number   1
_chemical_formula_structural   V4Ni2N
_chemical_formula_sum   'V16 Ni8 N4'
_cell_volume   318.79088263
_cell_formula_units_Z   4
loop_
 _symmetry_equiv_pos_site_id
 _symmetry_equiv_pos_as_xyz
  1  'x, y, z'
loop_
 _atom_site_type_symbol
 _atom_site_label
 _atom_site_symmetry_multiplicity
 _atom_site_fract_x
 _atom_site_fract_y
 _atom_site_fract_z
 _atom_site_occupancy
  V  V0  1  0.12500000  0.62500000  0.62500000  1
  V  V1  1  0.62500000  0.12500000  0.62500000  1
  V  V2  1  0.62500000  0.62500000  0.12500000  1
  V  V3  1  0.62500000  0.62500000  0.62500000  1
  V  V4  1  0.81957800  0.81957800  0.18042200  1
  V  V5  1  0.18042200  0.18042200  0.81957800  1
  V  V6  1  0.81957800  0.18042200  0.81957800  1
  V  V7  1  0.18042200  0.81957800  0.18042200  1
  V  V8  1  0.18042200  0.81957800  0.81957800  1
  V  V9  1  0.81957800  0.18042200  0.18042200  1
  V  V10  1  0.43042200  0.43042200  0.06957800  1
  V  V11  1  0.06957800  0.06957800  0.43042200  1
  V  V12  1  0.43042200  0.06957800  0.43042200  1
  V  V13  1  0.06957800  0.43042200  0.06957800  1
  V  V14  1  0.06957800  0.43042200  0.43042200  1
  V  V15  1  0.43042200  0.06957800  0.06957800  1
  Ni  Ni16  1  0.74530000  0.41823300  0.41823300  1
  Ni  Ni17  1  0.41823300  0.74530000  0.41823300  1
  Ni  Ni18  1  0.41823300  0.41823300  0.74530000  1
  Ni  Ni19  1  0.41823300  0.41823300  0.41823300  1
  Ni  Ni20  1  0.50470000  0.83176700  0.83176700  1
  Ni  Ni21  1  0.83176700  0.50470000  0.83176700  1
  Ni  Ni22  1  0.83176700  0.83176700  0.50470000  1
  Ni  Ni23  1  0.83176700  0.83176700  0.83176700  1
  N  N24  1  0.62500000  0.12500000  0.12500000  1
  N  N25  1  0.12500000  0.62500000  0.12500000  1
  N  N26  1  0.12500000  0.12500000  0.62500000  1
  N  N27  1  0.12500000  0.12500000  0.12500000  1
