# generated using pymatgen
data_Sm3Rh2
_symmetry_space_group_name_H-M   'P 1'
_cell_length_a   7.53740010
_cell_length_b   7.53740010
_cell_length_c   7.53739933
_cell_angle_alpha   71.46316464
_cell_angle_beta   71.46316464
_cell_angle_gamma   71.46316643
_symmetry_Int_Tables_number   1
_chemical_formula_structural   Sm3Rh2
_chemical_formula_sum   'Sm9 Rh6'
_cell_volume   373.57045535
_cell_formula_units_Z   3
loop_
 _symmetry_equiv_pos_site_id
 _symmetry_equiv_pos_as_xyz
  1  'x, y, z'
loop_
 _atom_site_type_symbol
 _atom_site_label
 _atom_site_symmetry_multiplicity
 _atom_site_fract_x
 _atom_site_fract_y
 _atom_site_fract_z
 _atom_site_occupancy
  Sm  Sm0  1  0.33822100  0.83435500  0.10806900  1
  Sm  Sm1  1  0.10806900  0.33822100  0.83435500  1
  Sm  Sm2  1  0.83435500  0.10806900  0.33822100  1
  Sm  Sm3  1  0.16564500  0.89193100  0.66177900  1
  Sm  Sm4  1  0.89193100  0.66177900  0.16564500  1
  Sm  Sm5  1  0.66177900  0.16564500  0.89193100  1
  Sm  Sm6  1  0.29689000  0.29689000  0.29689000  1
  Sm  Sm7  1  0.70311000  0.70311000  0.70311000  1
  Sm  Sm8  1  0.50000000  0.50000000  0.50000000  1
  Rh  Rh9  1  0.45551700  0.09032400  0.66385100  1
  Rh  Rh10  1  0.09032400  0.66385100  0.45551700  1
  Rh  Rh11  1  0.66385100  0.45551700  0.09032400  1
  Rh  Rh12  1  0.54448300  0.90967600  0.33614900  1
  Rh  Rh13  1  0.90967600  0.33614900  0.54448300  1
  Rh  Rh14  1  0.33614900  0.54448300  0.90967600  1
