# generated using pymatgen
data_Ce3PI3
_symmetry_space_group_name_H-M   'P 1'
_cell_length_a   10.56653010
_cell_length_b   10.56653010
_cell_length_c   10.56653010
_cell_angle_alpha   109.47122063
_cell_angle_beta   109.47122063
_cell_angle_gamma   109.47122063
_symmetry_Int_Tables_number   1
_chemical_formula_structural   Ce3PI3
_chemical_formula_sum   'Ce12 P4 I12'
_cell_volume   908.18702568
_cell_formula_units_Z   4
loop_
 _symmetry_equiv_pos_site_id
 _symmetry_equiv_pos_as_xyz
  1  'x, y, z'
loop_
 _atom_site_type_symbol
 _atom_site_label
 _atom_site_symmetry_multiplicity
 _atom_site_fract_x
 _atom_site_fract_y
 _atom_site_fract_z
 _atom_site_occupancy
  Ce  Ce0  1  0.46533700  0.48266900  0.23266900  1
  Ce  Ce1  1  0.75000000  0.23266900  0.26733100  1
  Ce  Ce2  1  0.75000000  0.01733100  0.48266900  1
  Ce  Ce3  1  0.23266900  0.46533700  0.48266900  1
  Ce  Ce4  1  0.26733100  0.75000000  0.23266900  1
  Ce  Ce5  1  0.03466300  0.26733100  0.01733100  1
  Ce  Ce6  1  0.01733100  0.03466300  0.26733100  1
  Ce  Ce7  1  0.48266900  0.75000000  0.01733100  1
  Ce  Ce8  1  0.48266900  0.23266900  0.46533700  1
  Ce  Ce9  1  0.01733100  0.48266900  0.75000000  1
  Ce  Ce10  1  0.26733100  0.01733100  0.03466300  1
  Ce  Ce11  1  0.23266900  0.26733100  0.75000000  1
  P  P12  1  0.25000000  0.25000000  0.25000000  1
  P  P13  1  0.50000000  0.00000000  0.25000000  1
  P  P14  1  0.00000000  0.25000000  0.50000000  1
  P  P15  1  0.25000000  0.50000000  0.00000000  1
  I  I16  1  0.25000000  0.76030900  0.73969100  1
  I  I17  1  0.52061800  0.51030900  0.76030900  1
  I  I18  1  0.97938200  0.73969100  0.98969100  1
  I  I19  1  0.73969100  0.25000000  0.76030900  1
  I  I20  1  0.98969100  0.97938200  0.73969100  1
  I  I21  1  0.25000000  0.98969100  0.51030900  1
  I  I22  1  0.76030900  0.52061800  0.51030900  1
  I  I23  1  0.51030900  0.25000000  0.98969100  1
  I  I24  1  0.76030900  0.73969100  0.25000000  1
  I  I25  1  0.73969100  0.98969100  0.97938200  1
  I  I26  1  0.98969100  0.51030900  0.25000000  1
  I  I27  1  0.51030900  0.76030900  0.52061800  1
