# generated using pymatgen
data_CsVSO6
_symmetry_space_group_name_H-M   'P 1'
_cell_length_a   6.69102600
_cell_length_b   10.87124100
_cell_length_c   17.87611400
_cell_angle_alpha   90.00000000
_cell_angle_beta   90.00000000
_cell_angle_gamma   90.00000000
_symmetry_Int_Tables_number   1
_chemical_formula_structural   CsVSO6
_chemical_formula_sum   'Cs8 V8 S8 O48'
_cell_volume   1300.30417386
_cell_formula_units_Z   8
loop_
 _symmetry_equiv_pos_site_id
 _symmetry_equiv_pos_as_xyz
  1  'x, y, z'
loop_
 _atom_site_type_symbol
 _atom_site_label
 _atom_site_symmetry_multiplicity
 _atom_site_fract_x
 _atom_site_fract_y
 _atom_site_fract_z
 _atom_site_occupancy
  Cs  Cs0  1  0.74955600  0.47879300  0.41084700  1
  Cs  Cs1  1  0.25044400  0.97879300  0.08915300  1
  Cs  Cs2  1  0.24955600  0.47879300  0.08915300  1
  Cs  Cs3  1  0.25044400  0.52120700  0.58915300  1
  Cs  Cs4  1  0.24955600  0.02120700  0.58915300  1
  Cs  Cs5  1  0.75044400  0.97879300  0.41084700  1
  Cs  Cs6  1  0.74955600  0.02120700  0.91084700  1
  Cs  Cs7  1  0.75044400  0.52120700  0.91084700  1
  V  V8  1  0.99451900  0.72420000  0.24824100  1
  V  V9  1  0.49451900  0.72420000  0.25175900  1
  V  V10  1  0.00548100  0.27580000  0.75175900  1
  V  V11  1  0.49451900  0.77580000  0.75175900  1
  V  V12  1  0.50548100  0.22420000  0.24824100  1
  V  V13  1  0.99451900  0.77580000  0.74824100  1
  V  V14  1  0.50548100  0.27580000  0.74824100  1
  V  V15  1  0.00548100  0.22420000  0.25175900  1
  S  S16  1  0.26145500  0.22068600  0.40301000  1
  S  S17  1  0.23854500  0.77931400  0.90301000  1
  S  S18  1  0.73854500  0.77931400  0.59699000  1
  S  S19  1  0.76145500  0.22068600  0.09699000  1
  S  S20  1  0.76145500  0.27931400  0.59699000  1
  S  S21  1  0.73854500  0.72068600  0.09699000  1
  S  S22  1  0.23854500  0.72068600  0.40301000  1
  S  S23  1  0.26145500  0.27931400  0.90301000  1
  O  O24  1  0.42281200  0.73968400  0.85704000  1
  O  O25  1  0.75711800  0.28148200  0.27308400  1
  O  O26  1  0.74288200  0.71851800  0.77308400  1
  O  O27  1  0.23354400  0.70633000  0.97072000  1
  O  O28  1  0.94526500  0.24460300  0.64444600  1
  O  O29  1  0.26645600  0.29367000  0.47072000  1
  O  O30  1  0.25711800  0.21851800  0.72691600  1
  O  O31  1  0.73354400  0.79367000  0.02928000  1
  O  O32  1  0.25728200  0.08769400  0.41394700  1
  O  O33  1  0.73354400  0.70633000  0.52928000  1
  O  O34  1  0.50260300  0.42480500  0.74677500  1
  O  O35  1  0.24288200  0.78148200  0.22691600  1
  O  O36  1  0.92281200  0.73968400  0.64296000  1
  O  O37  1  0.00260300  0.42480500  0.75322500  1
  O  O38  1  0.05473500  0.75539700  0.35555400  1
  O  O39  1  0.50260300  0.07519500  0.24677500  1
  O  O40  1  0.07718800  0.26031600  0.35704000  1
  O  O41  1  0.74271800  0.58769400  0.08605300  1
  O  O42  1  0.24288200  0.71851800  0.72691600  1
  O  O43  1  0.74288200  0.78148200  0.27308400  1
  O  O44  1  0.57718800  0.23968400  0.64296000  1
  O  O45  1  0.00260300  0.07519500  0.25322500  1
  O  O46  1  0.44526500  0.24460300  0.85555400  1
  O  O47  1  0.26645600  0.20633000  0.97072000  1
  O  O48  1  0.07718800  0.23968400  0.85704000  1
  O  O49  1  0.23354400  0.79367000  0.47072000  1
  O  O50  1  0.92281200  0.76031600  0.14296000  1
  O  O51  1  0.75728200  0.41230600  0.58605300  1
  O  O52  1  0.55473500  0.75539700  0.14444600  1
  O  O53  1  0.25728200  0.41230600  0.91394700  1
  O  O54  1  0.76645600  0.20633000  0.52928000  1
  O  O55  1  0.94526500  0.25539700  0.14444600  1
  O  O56  1  0.49739700  0.92480500  0.75322500  1
  O  O57  1  0.74271800  0.91230600  0.58605300  1
  O  O58  1  0.99739700  0.92480500  0.74677500  1
  O  O59  1  0.42281200  0.76031600  0.35704000  1
  O  O60  1  0.99739700  0.57519500  0.24677500  1
  O  O61  1  0.24271800  0.91230600  0.91394700  1
  O  O62  1  0.75728200  0.08769400  0.08605300  1
  O  O63  1  0.44526500  0.25539700  0.35555400  1
  O  O64  1  0.25711800  0.28148200  0.22691600  1
  O  O65  1  0.55473500  0.74460300  0.64444600  1
  O  O66  1  0.05473500  0.74460300  0.85555400  1
  O  O67  1  0.75711800  0.21851800  0.77308400  1
  O  O68  1  0.57718800  0.26031600  0.14296000  1
  O  O69  1  0.76645600  0.29367000  0.02928000  1
  O  O70  1  0.24271800  0.58769400  0.41394700  1
  O  O71  1  0.49739700  0.57519500  0.25322500  1
