# generated using pymatgen
data_LiMnPO4
_symmetry_space_group_name_H-M   'P 1'
_cell_length_a   4.79202900
_cell_length_b   10.59418400
_cell_length_c   6.17859100
_cell_angle_alpha   90.00009504
_cell_angle_beta   90.00006369
_cell_angle_gamma   90.00004555
_symmetry_Int_Tables_number   1
_chemical_formula_structural   LiMnPO4
_chemical_formula_sum   'Li4 Mn4 P4 O16'
_cell_volume   313.67246481
_cell_formula_units_Z   4
loop_
 _symmetry_equiv_pos_site_id
 _symmetry_equiv_pos_as_xyz
  1  'x, y, z'
loop_
 _atom_site_type_symbol
 _atom_site_label
 _atom_site_symmetry_multiplicity
 _atom_site_fract_x
 _atom_site_fract_y
 _atom_site_fract_z
 _atom_site_occupancy
  Li  Li0  1  0.00000000  0.00000200  0.99999900  1
  Li  Li1  1  0.49999800  0.50000200  0.50000100  1
  Li  Li2  1  0.00000000  0.00000200  0.50000200  1
  Li  Li3  1  0.49999800  0.50000200  0.00000000  1
  Mn  Mn4  1  0.97254900  0.28116300  0.25003000  1
  Mn  Mn5  1  0.52746800  0.78114300  0.25001200  1
  Mn  Mn6  1  0.02742000  0.71882900  0.74997000  1
  Mn  Mn7  1  0.47258000  0.21882400  0.74996300  1
  P  P8  1  0.58955900  0.90790100  0.75000000  1
  P  P9  1  0.91044000  0.40790100  0.74999900  1
  P  P10  1  0.41044300  0.09210200  0.25000400  1
  P  P11  1  0.08955700  0.59210200  0.25000100  1
  O  O12  1  0.26865200  0.90341500  0.75000000  1
  O  O13  1  0.23134700  0.40341700  0.75000100  1
  O  O14  1  0.73134800  0.09658800  0.25000200  1
  O  O15  1  0.76865100  0.59658600  0.25000100  1
  O  O16  1  0.78997500  0.54435000  0.75000100  1
  O  O17  1  0.71002100  0.04435000  0.75000100  1
  O  O18  1  0.21002300  0.45565300  0.25000100  1
  O  O19  1  0.28997700  0.95565300  0.25000100  1
  O  O20  1  0.72252600  0.83891800  0.95054300  1
  O  O21  1  0.77747200  0.33891800  0.54945800  1
  O  O22  1  0.27747500  0.16108600  0.45054500  1
  O  O23  1  0.22252400  0.66108600  0.04945900  1
  O  O24  1  0.27747400  0.16108500  0.04945800  1
  O  O25  1  0.22252400  0.66108500  0.45054400  1
  O  O26  1  0.72252800  0.83891800  0.54945900  1
  O  O27  1  0.77747200  0.33891800  0.95054500  1
