# generated using pymatgen
data_NpB3O8
_symmetry_space_group_name_H-M   'P 1'
_cell_length_a   12.81353000
_cell_length_b   8.74390100
_cell_length_c   5.62763700
_cell_angle_alpha   90.00000000
_cell_angle_beta   90.00000000
_cell_angle_gamma   90.00000000
_symmetry_Int_Tables_number   1
_chemical_formula_structural   NpB3O8
_chemical_formula_sum   'Np4 B12 O32'
_cell_volume   630.52178762
_cell_formula_units_Z   4
loop_
 _symmetry_equiv_pos_site_id
 _symmetry_equiv_pos_as_xyz
  1  'x, y, z'
loop_
 _atom_site_type_symbol
 _atom_site_label
 _atom_site_symmetry_multiplicity
 _atom_site_fract_x
 _atom_site_fract_y
 _atom_site_fract_z
 _atom_site_occupancy
  Np  Np0  1  0.87171900  0.55014900  0.54349400  1
  Np  Np1  1  0.12828100  0.44985100  0.04349400  1
  Np  Np2  1  0.62828100  0.55014900  0.04349400  1
  Np  Np3  1  0.37171900  0.44985100  0.54349400  1
  B  B4  1  0.91419600  0.05159300  0.97995000  1
  B  B5  1  0.08580400  0.94840700  0.47995000  1
  B  B6  1  0.58580400  0.05159300  0.47995000  1
  B  B7  1  0.41419600  0.94840700  0.97995000  1
  B  B8  1  0.08405400  0.76771200  0.79679700  1
  B  B9  1  0.91594600  0.23228800  0.29679700  1
  B  B10  1  0.41594600  0.76771200  0.29679700  1
  B  B11  1  0.58405400  0.23228800  0.79679700  1
  B  B12  1  0.91502600  0.87365200  0.65283500  1
  B  B13  1  0.08497400  0.12634800  0.15283500  1
  B  B14  1  0.58497400  0.87365200  0.15283500  1
  B  B15  1  0.41502600  0.12634800  0.65283500  1
  O  O16  1  0.13990200  0.85524800  0.64214100  1
  O  O17  1  0.86009800  0.14475200  0.14214100  1
  O  O18  1  0.36009800  0.85524800  0.14214100  1
  O  O19  1  0.63990200  0.14475200  0.64214100  1
  O  O20  1  0.96880000  0.56440900  0.30614000  1
  O  O21  1  0.03120000  0.43559100  0.80614000  1
  O  O22  1  0.53120000  0.56440900  0.80614000  1
  O  O23  1  0.46880000  0.43559100  0.30614000  1
  O  O24  1  0.97810500  0.95309300  0.48279900  1
  O  O25  1  0.02189500  0.04690700  0.98279900  1
  O  O26  1  0.52189500  0.95309300  0.98279900  1
  O  O27  1  0.47810500  0.04690700  0.48279900  1
  O  O28  1  0.86067300  0.96651000  0.81937100  1
  O  O29  1  0.13932700  0.03349000  0.31937100  1
  O  O30  1  0.63932700  0.96651000  0.31937100  1
  O  O31  1  0.36067300  0.03349000  0.81937100  1
  O  O32  1  0.78292600  0.52169200  0.80015800  1
  O  O33  1  0.21707400  0.47830800  0.30015800  1
  O  O34  1  0.71707400  0.52169200  0.30015800  1
  O  O35  1  0.28292600  0.47830800  0.80015800  1
  O  O36  1  0.83620800  0.76929300  0.52169400  1
  O  O37  1  0.16379200  0.23070700  0.02169400  1
  O  O38  1  0.66379200  0.76929300  0.02169400  1
  O  O39  1  0.33620800  0.23070700  0.52169400  1
  O  O40  1  0.86719900  0.31953000  0.47337000  1
  O  O41  1  0.13280100  0.68047000  0.97337000  1
  O  O42  1  0.63280100  0.31953000  0.97337000  1
  O  O43  1  0.36719900  0.68047000  0.47337000  1
  O  O44  1  0.97724900  0.74723900  0.77335200  1
  O  O45  1  0.02275100  0.25276100  0.27335200  1
  O  O46  1  0.52275100  0.74723900  0.27335200  1
  O  O47  1  0.47724900  0.25276100  0.77335200  1
