# generated using pymatgen
data_LaSiP3
_symmetry_space_group_name_H-M   'P 1'
_cell_length_a   5.78509200
_cell_length_b   5.97680300
_cell_length_c   25.58578000
_cell_angle_alpha   90.00000000
_cell_angle_beta   90.00000000
_cell_angle_gamma   90.00000000
_symmetry_Int_Tables_number   1
_chemical_formula_structural   LaSiP3
_chemical_formula_sum   'La8 Si8 P24'
_cell_volume   884.66301788
_cell_formula_units_Z   8
loop_
 _symmetry_equiv_pos_site_id
 _symmetry_equiv_pos_as_xyz
  1  'x, y, z'
loop_
 _atom_site_type_symbol
 _atom_site_label
 _atom_site_symmetry_multiplicity
 _atom_site_fract_x
 _atom_site_fract_y
 _atom_site_fract_z
 _atom_site_occupancy
  La  La0  1  0.74875700  0.98163000  0.09038200  1
  La  La1  1  0.24875700  0.01837000  0.90961800  1
  La  La2  1  0.24875700  0.51837000  0.59038200  1
  La  La3  1  0.74875700  0.48163000  0.40961800  1
  La  La4  1  0.24827300  0.48041500  0.09880000  1
  La  La5  1  0.74827300  0.51958500  0.90120000  1
  La  La6  1  0.74827300  0.01958500  0.59880000  1
  La  La7  1  0.24827300  0.98041500  0.40120000  1
  Si  Si8  1  0.32979000  0.06511400  0.20597100  1
  Si  Si9  1  0.82979000  0.93488600  0.79402900  1
  Si  Si10  1  0.82979000  0.43488600  0.70597100  1
  Si  Si11  1  0.32979000  0.56511400  0.29402900  1
  Si  Si12  1  0.82715500  0.38709300  0.20872100  1
  Si  Si13  1  0.32715500  0.61290700  0.79127900  1
  Si  Si14  1  0.32715500  0.11290700  0.70872100  1
  Si  Si15  1  0.82715500  0.88709300  0.29127900  1
  P  P16  1  0.74643100  0.48634900  0.12749900  1
  P  P17  1  0.24643100  0.51365100  0.87250100  1
  P  P18  1  0.24643100  0.01365100  0.62749900  1
  P  P19  1  0.74643100  0.98634900  0.37250100  1
  P  P20  1  0.24637800  0.97832000  0.12416500  1
  P  P21  1  0.74637800  0.02168000  0.87583500  1
  P  P22  1  0.74637800  0.52168000  0.62416500  1
  P  P23  1  0.24637800  0.47832000  0.37583500  1
  P  P24  1  0.45133600  0.68090400  0.00194600  1
  P  P25  1  0.95133600  0.31909600  0.99805400  1
  P  P26  1  0.95133600  0.81909600  0.50194600  1
  P  P27  1  0.45133600  0.18090400  0.49805400  1
  P  P28  1  0.55576300  0.31741900  0.99841800  1
  P  P29  1  0.05576300  0.68258100  0.00158200  1
  P  P30  1  0.05576300  0.18258100  0.49841800  1
  P  P31  1  0.55576300  0.81741900  0.50158200  1
  P  P32  1  0.21657400  0.42164400  0.21634100  1
  P  P33  1  0.71657400  0.57835600  0.78365900  1
  P  P34  1  0.71657400  0.07835600  0.71634100  1
  P  P35  1  0.21657400  0.92164400  0.28365900  1
  P  P36  1  0.71854300  0.02729600  0.21202500  1
  P  P37  1  0.21854300  0.97270400  0.78797500  1
  P  P38  1  0.21854300  0.47270400  0.71202500  1
  P  P39  1  0.71854300  0.52729600  0.28797500  1
