# generated using pymatgen
data_SrCo2(PO4)2
_symmetry_space_group_name_H-M   'P 1'
_cell_length_a   5.07486974
_cell_length_b   8.74051033
_cell_length_c   9.42546503
_cell_angle_alpha   113.89260556
_cell_angle_beta   102.83458987
_cell_angle_gamma   92.95350860
_symmetry_Int_Tables_number   1
_chemical_formula_structural   SrCo2(PO4)2
_chemical_formula_sum   'Sr2 Co4 P4 O16'
_cell_volume   367.98227791
_cell_formula_units_Z   2
loop_
 _symmetry_equiv_pos_site_id
 _symmetry_equiv_pos_as_xyz
  1  'x, y, z'
loop_
 _atom_site_type_symbol
 _atom_site_label
 _atom_site_symmetry_multiplicity
 _atom_site_fract_x
 _atom_site_fract_y
 _atom_site_fract_z
 _atom_site_occupancy
  Sr  Sr0  1  0.22358900  0.73601000  0.05055600  1
  Sr  Sr1  1  0.77641100  0.26399000  0.94944400  1
  Co  Co2  1  0.84688600  0.08913300  0.30152600  1
  Co  Co3  1  0.38760300  0.60819800  0.41348000  1
  Co  Co4  1  0.61239700  0.39180100  0.58652000  1
  Co  Co5  1  0.15311500  0.91086700  0.69847400  1
  P  P6  1  0.89099200  0.71959600  0.30628900  1
  P  P7  1  0.10900800  0.28040400  0.69371100  1
  P  P8  1  0.68688600  0.78903000  0.80815700  1
  P  P9  1  0.31311400  0.21096900  0.19184300  1
  O  O10  1  0.98370600  0.88049800  0.28783600  1
  O  O11  1  0.01629400  0.11950200  0.71216400  1
  O  O12  1  0.96394100  0.56584300  0.17557400  1
  O  O13  1  0.03605900  0.43415700  0.82442600  1
  O  O14  1  0.58316500  0.70609400  0.30202500  1
  O  O15  1  0.41683500  0.29390600  0.69797500  1
  O  O16  1  0.07268000  0.73087000  0.47174100  1
  O  O17  1  0.92732100  0.26913000  0.52825900  1
  O  O18  1  0.57265600  0.63154700  0.63825900  1
  O  O19  1  0.42734300  0.36845200  0.36174100  1
  O  O20  1  0.99846100  0.16740100  0.16418000  1
  O  O21  1  0.00153900  0.83259800  0.83582000  1
  O  O22  1  0.44877900  0.06026500  0.20577200  1
  O  O23  1  0.63878700  0.74276200  0.94057300  1
  O  O24  1  0.36121300  0.25723700  0.05942700  1
  O  O25  1  0.55122100  0.93973500  0.79422800  1
