# generated using pymatgen
data_CsCa(PO3)3
_symmetry_space_group_name_H-M   'P 1'
_cell_length_a   7.69321300
_cell_length_b   10.01983800
_cell_length_c   12.93753900
_cell_angle_alpha   90.00000000
_cell_angle_beta   90.00000000
_cell_angle_gamma   90.00000000
_symmetry_Int_Tables_number   1
_chemical_formula_structural   CsCa(PO3)3
_chemical_formula_sum   'Cs4 Ca4 P12 O36'
_cell_volume   997.28693303
_cell_formula_units_Z   4
loop_
 _symmetry_equiv_pos_site_id
 _symmetry_equiv_pos_as_xyz
  1  'x, y, z'
loop_
 _atom_site_type_symbol
 _atom_site_label
 _atom_site_symmetry_multiplicity
 _atom_site_fract_x
 _atom_site_fract_y
 _atom_site_fract_z
 _atom_site_occupancy
  Cs  Cs0  1  0.25000000  0.89027900  0.41476100  1
  Cs  Cs1  1  0.25000000  0.39027900  0.08523900  1
  Cs  Cs2  1  0.75000000  0.10972100  0.58523900  1
  Cs  Cs3  1  0.75000000  0.60972100  0.91476100  1
  Ca  Ca4  1  0.75000000  0.98708900  0.27536000  1
  Ca  Ca5  1  0.75000000  0.48708900  0.22464000  1
  Ca  Ca6  1  0.25000000  0.01291100  0.72464000  1
  Ca  Ca7  1  0.25000000  0.51291100  0.77536000  1
  P  P8  1  0.55403300  0.74863600  0.64782600  1
  P  P9  1  0.94596700  0.24863600  0.85217400  1
  P  P10  1  0.05403300  0.25136400  0.35217400  1
  P  P11  1  0.44596700  0.75136400  0.14782600  1
  P  P12  1  0.44596700  0.25136400  0.35217400  1
  P  P13  1  0.05403300  0.75136400  0.14782600  1
  P  P14  1  0.94596700  0.74863600  0.64782600  1
  P  P15  1  0.55403300  0.24863600  0.85217400  1
  P  P16  1  0.75000000  0.71004100  0.45785600  1
  P  P17  1  0.75000000  0.21004100  0.04214400  1
  P  P18  1  0.25000000  0.28995900  0.54214400  1
  P  P19  1  0.25000000  0.78995900  0.95785600  1
  O  O20  1  0.58639100  0.68118500  0.53525200  1
  O  O21  1  0.91360900  0.18118500  0.96474800  1
  O  O22  1  0.08639100  0.31881500  0.46474800  1
  O  O23  1  0.41360900  0.81881500  0.03525200  1
  O  O24  1  0.41360900  0.31881500  0.46474800  1
  O  O25  1  0.08639100  0.81881500  0.03525200  1
  O  O26  1  0.91360900  0.68118500  0.53525200  1
  O  O27  1  0.58639100  0.18118500  0.96474800  1
  O  O28  1  0.48443900  0.64363600  0.71868000  1
  O  O29  1  0.01556100  0.14363600  0.78132000  1
  O  O30  1  0.98443900  0.35636400  0.28132000  1
  O  O31  1  0.51556100  0.85636400  0.21868000  1
  O  O32  1  0.51556100  0.35636400  0.28132000  1
  O  O33  1  0.98443900  0.85636400  0.21868000  1
  O  O34  1  0.01556100  0.64363600  0.71868000  1
  O  O35  1  0.48443900  0.14363600  0.78132000  1
  O  O36  1  0.45739800  0.87781000  0.63469300  1
  O  O37  1  0.04260200  0.37781000  0.86530700  1
  O  O38  1  0.95739800  0.12219000  0.36530700  1
  O  O39  1  0.54260200  0.62219000  0.13469300  1
  O  O40  1  0.54260200  0.12219000  0.36530700  1
  O  O41  1  0.95739800  0.62219000  0.13469300  1
  O  O42  1  0.04260200  0.87781000  0.63469300  1
  O  O43  1  0.45739800  0.37781000  0.86530700  1
  O  O44  1  0.75000000  0.85513700  0.42842500  1
  O  O45  1  0.75000000  0.35513700  0.07157500  1
  O  O46  1  0.25000000  0.14486300  0.57157500  1
  O  O47  1  0.25000000  0.64486300  0.92842500  1
  O  O48  1  0.75000000  0.78852500  0.68481200  1
  O  O49  1  0.75000000  0.28852500  0.81518800  1
  O  O50  1  0.25000000  0.21147500  0.31518800  1
  O  O51  1  0.25000000  0.71147500  0.18481200  1
  O  O52  1  0.75000000  0.60413500  0.37745200  1
  O  O53  1  0.75000000  0.10413500  0.12254800  1
  O  O54  1  0.25000000  0.39586500  0.62254800  1
  O  O55  1  0.25000000  0.89586500  0.87745200  1
