# generated using pymatgen
data_Ba2Ni5Ge4
_symmetry_space_group_name_H-M   'P 1'
_cell_length_a   6.58098883
_cell_length_b   6.58098883
_cell_length_c   9.67431216
_cell_angle_alpha   62.52664860
_cell_angle_beta   62.52664860
_cell_angle_gamma   35.75499886
_symmetry_Int_Tables_number   1
_chemical_formula_structural   Ba2Ni5Ge4
_chemical_formula_sum   'Ba2 Ni5 Ge4'
_cell_volume   214.13686657
_cell_formula_units_Z   1
loop_
 _symmetry_equiv_pos_site_id
 _symmetry_equiv_pos_as_xyz
  1  'x, y, z'
loop_
 _atom_site_type_symbol
 _atom_site_label
 _atom_site_symmetry_multiplicity
 _atom_site_fract_x
 _atom_site_fract_y
 _atom_site_fract_z
 _atom_site_occupancy
  Ba  Ba0  1  0.17768700  0.17768700  0.85505700  1
  Ba  Ba1  1  0.82231300  0.82231300  0.14494300  1
  Ni  Ni2  1  0.03486300  0.03486300  0.30277200  1
  Ni  Ni3  1  0.96513700  0.96513700  0.69722800  1
  Ni  Ni4  1  0.33605800  0.33605800  0.42432400  1
  Ni  Ni5  1  0.66394200  0.66394200  0.57567600  1
  Ni  Ni6  1  0.50000000  0.50000000  0.50000000  1
  Ge  Ge7  1  0.85797800  0.85797800  0.55185100  1
  Ge  Ge8  1  0.14202200  0.14202200  0.44814900  1
  Ge  Ge9  1  0.46836700  0.46836700  0.80857100  1
  Ge  Ge10  1  0.53163300  0.53163300  0.19142900  1
