# generated using pymatgen
data_TmFe3
_symmetry_space_group_name_H-M   'P 1'
_cell_length_a   5.06052147
_cell_length_b   5.06052147
_cell_length_c   8.52890658
_cell_angle_alpha   72.74236852
_cell_angle_beta   72.74236852
_cell_angle_gamma   60.00000689
_symmetry_Int_Tables_number   1
_chemical_formula_structural   TmFe3
_chemical_formula_sum   'Tm3 Fe9'
_cell_volume   177.70877335
_cell_formula_units_Z   3
loop_
 _symmetry_equiv_pos_site_id
 _symmetry_equiv_pos_as_xyz
  1  'x, y, z'
loop_
 _atom_site_type_symbol
 _atom_site_label
 _atom_site_symmetry_multiplicity
 _atom_site_fract_x
 _atom_site_fract_y
 _atom_site_fract_z
 _atom_site_occupancy
  Tm  Tm0  1  0.14190800  0.14190800  0.57427500  1
  Tm  Tm1  1  0.85809200  0.85809200  0.42572500  1
  Tm  Tm2  1  0.00000000  0.00000000  0.00000000  1
  Fe  Fe3  1  0.08217400  0.58173200  0.75436100  1
  Fe  Fe4  1  0.58173200  0.58173200  0.75436100  1
  Fe  Fe5  1  0.58173200  0.08217400  0.75436100  1
  Fe  Fe6  1  0.91782600  0.41826800  0.24563900  1
  Fe  Fe7  1  0.41826800  0.41826800  0.24563900  1
  Fe  Fe8  1  0.41826800  0.91782600  0.24563900  1
  Fe  Fe9  1  0.33269300  0.33269300  0.00192100  1
  Fe  Fe10  1  0.66730700  0.66730700  0.99807900  1
  Fe  Fe11  1  0.50000000  0.50000000  0.50000000  1
