# generated using pymatgen
data_K2RbTmV2O8
_symmetry_space_group_name_H-M   'P 1'
_cell_length_a   5.97245546
_cell_length_b   5.97245546
_cell_length_c   7.81178000
_cell_angle_alpha   90.00000000
_cell_angle_beta   90.00000000
_cell_angle_gamma   119.99999406
_symmetry_Int_Tables_number   1
_chemical_formula_structural   K2RbTmV2O8
_chemical_formula_sum   'K2 Rb1 Tm1 V2 O8'
_cell_volume   241.31621312
_cell_formula_units_Z   1
loop_
 _symmetry_equiv_pos_site_id
 _symmetry_equiv_pos_as_xyz
  1  'x, y, z'
loop_
 _atom_site_type_symbol
 _atom_site_label
 _atom_site_symmetry_multiplicity
 _atom_site_fract_x
 _atom_site_fract_y
 _atom_site_fract_z
 _atom_site_occupancy
  K  K0  1  0.33333300  0.66666700  0.70251000  1
  K  K1  1  0.66666700  0.33333300  0.29749000  1
  Rb  Rb2  1  0.00000000  0.00000000  0.00000000  1
  Tm  Tm3  1  0.00000000  0.00000000  0.50000000  1
  V  V4  1  0.33333300  0.66666700  0.25400700  1
  V  V5  1  0.66666700  0.33333300  0.74599300  1
  O  O6  1  0.33333300  0.66666700  0.03808300  1
  O  O7  1  0.66666700  0.33333300  0.96191700  1
  O  O8  1  0.17260500  0.82739500  0.32998500  1
  O  O9  1  0.82739500  0.17260500  0.67001500  1
  O  O10  1  0.17260500  0.34521000  0.32998500  1
  O  O11  1  0.82739500  0.65479000  0.67001500  1
  O  O12  1  0.65479000  0.82739500  0.32998500  1
  O  O13  1  0.34521000  0.17260500  0.67001500  1
