# generated using pymatgen
data_Zr7As4
_symmetry_space_group_name_H-M   'P 1'
_cell_length_a   8.41442390
_cell_length_b   8.41442390
_cell_length_c   15.09402952
_cell_angle_alpha   75.49296205
_cell_angle_beta   75.49296205
_cell_angle_gamma   25.56290932
_symmetry_Int_Tables_number   1
_chemical_formula_structural   Zr7As4
_chemical_formula_sum   'Zr14 As8'
_cell_volume   445.67159751
_cell_formula_units_Z   2
loop_
 _symmetry_equiv_pos_site_id
 _symmetry_equiv_pos_as_xyz
  1  'x, y, z'
loop_
 _atom_site_type_symbol
 _atom_site_label
 _atom_site_symmetry_multiplicity
 _atom_site_fract_x
 _atom_site_fract_y
 _atom_site_fract_z
 _atom_site_occupancy
  Zr  Zr0  1  0.00000000  0.00000000  0.00000000  1
  Zr  Zr1  1  0.50000000  0.50000000  0.50000000  1
  Zr  Zr2  1  0.43132200  0.43132200  0.16937900  1
  Zr  Zr3  1  0.56867800  0.56867800  0.83062100  1
  Zr  Zr4  1  0.19605900  0.19605900  0.69087100  1
  Zr  Zr5  1  0.80394100  0.80394100  0.30912900  1
  Zr  Zr6  1  0.20633500  0.20633500  0.20385400  1
  Zr  Zr7  1  0.79366500  0.79366500  0.79614600  1
  Zr  Zr8  1  0.33852300  0.33852300  0.96934400  1
  Zr  Zr9  1  0.66147700  0.66147700  0.03065600  1
  Zr  Zr10  1  0.00329000  0.00329000  0.33677900  1
  Zr  Zr11  1  0.99671000  0.99671000  0.66322100  1
  Zr  Zr12  1  0.17875000  0.17875000  0.45730500  1
  Zr  Zr13  1  0.82125000  0.82125000  0.54269500  1
  As  As14  1  0.17614400  0.17614400  0.88897600  1
  As  As15  1  0.82385600  0.82385600  0.11102400  1
  As  As16  1  0.37399600  0.37399600  0.39765200  1
  As  As17  1  0.62600400  0.62600400  0.60234800  1
  As  As18  1  0.36962700  0.36962700  0.66020300  1
  As  As19  1  0.63037300  0.63037300  0.33979700  1
  As  As20  1  0.06317500  0.06317500  0.14971900  1
  As  As21  1  0.93682500  0.93682500  0.85028100  1
