# generated using pymatgen
data_CsMg(PO3)3
_symmetry_space_group_name_H-M   'P 1'
_cell_length_a   12.20587563
_cell_length_b   12.25857454
_cell_length_c   18.51888413
_cell_angle_alpha   90.00000000
_cell_angle_beta   96.67295818
_cell_angle_gamma   90.00000000
_symmetry_Int_Tables_number   1
_chemical_formula_structural   CsMg(PO3)3
_chemical_formula_sum   'Cs12 Mg12 P36 O108'
_cell_volume   2752.14704058
_cell_formula_units_Z   12
loop_
 _symmetry_equiv_pos_site_id
 _symmetry_equiv_pos_as_xyz
  1  'x, y, z'
loop_
 _atom_site_type_symbol
 _atom_site_label
 _atom_site_symmetry_multiplicity
 _atom_site_fract_x
 _atom_site_fract_y
 _atom_site_fract_z
 _atom_site_occupancy
  Cs  Cs0  1  0.00407348  0.13302482  0.41917633  1
  Cs  Cs1  1  0.50407348  0.86697518  0.41917633  1
  Cs  Cs2  1  0.89658469  0.73579179  0.50132599  1
  Cs  Cs3  1  0.39658469  0.26420821  0.50132599  1
  Cs  Cs4  1  0.19826096  0.11050932  0.08256960  1
  Cs  Cs5  1  0.69826096  0.88949068  0.08256960  1
  Cs  Cs6  1  0.15939395  0.62106634  0.90788262  1
  Cs  Cs7  1  0.65939395  0.37893366  0.90788262  1
  Cs  Cs8  1  0.31971739  0.70007100  0.18838540  1
  Cs  Cs9  1  0.81971739  0.29992900  0.18838540  1
  Cs  Cs10  1  0.27272924  0.23338092  0.80743116  1
  Cs  Cs11  1  0.77272924  0.76661908  0.80743116  1
  Mg  Mg12  1  0.09113854  0.96304529  0.62531462  1
  Mg  Mg13  1  0.59113854  0.03695471  0.62531462  1
  Mg  Mg14  1  0.64859935  0.56277326  0.36937850  1
  Mg  Mg15  1  0.14859935  0.43722674  0.36937850  1
  Mg  Mg16  1  0.00052945  0.92375255  0.96081350  1
  Mg  Mg17  1  0.50052945  0.07624745  0.96081350  1
  Mg  Mg18  1  0.06779012  0.46258786  0.70479400  1
  Mg  Mg19  1  0.56779012  0.53741214  0.70479400  1
  Mg  Mg20  1  0.18446675  0.93497269  0.29947642  1
  Mg  Mg21  1  0.68446675  0.06502731  0.29947642  1
  Mg  Mg22  1  0.49394278  0.57924772  0.03206136  1
  Mg  Mg23  1  0.99394278  0.42075228  0.03206136  1
  P  P24  1  0.06380533  0.41647704  0.53211990  1
  P  P25  1  0.56380533  0.58352296  0.53211990  1
  P  P26  1  0.64602813  0.60585247  0.19184791  1
  P  P27  1  0.14602813  0.39414753  0.19184791  1
  P  P28  1  0.71110490  0.79582181  0.28863631  1
  P  P29  1  0.21110490  0.20417819  0.28863631  1
  P  P30  1  0.30733925  0.57865941  0.72293048  1
  P  P31  1  0.80733925  0.42134059  0.72293048  1
  P  P32  1  0.46248024  0.81038818  0.94352920  1
  P  P33  1  0.96248024  0.18961182  0.94352920  1
  P  P34  1  0.11243491  0.72256375  0.70217913  1
  P  P35  1  0.61243491  0.27743625  0.70217913  1
  P  P36  1  0.91199796  0.92496065  0.27491836  1
  P  P37  1  0.41199796  0.07503935  0.27491836  1
  P  P38  1  0.69707426  0.30078346  0.38608837  1
  P  P39  1  0.19707426  0.69921654  0.38608837  1
  P  P40  1  0.25952254  0.94220911  0.92571459  1
  P  P41  1  0.75952254  0.05779089  0.92571459  1
  P  P42  1  0.89327347  0.44046135  0.40663434  1
  P  P43  1  0.39327347  0.55953865  0.40663434  1
  P  P44  1  0.85198935  0.07748711  0.60827721  1
  P  P45  1  0.35198935  0.92251289  0.60827721  1
  P  P46  1  0.97345538  0.68942970  0.05066800  1
  P  P47  1  0.47345538  0.31057030  0.05066800  1
  P  P48  1  0.69716692  0.10236387  0.47450988  1
  P  P49  1  0.19716692  0.89763613  0.47450988  1
  P  P50  1  0.04510188  0.22380120  0.62761077  1
  P  P51  1  0.54510188  0.77619880  0.62761077  1
  P  P52  1  0.46725656  0.61388096  0.85497992  1
  P  P53  1  0.96725656  0.38611904  0.85497992  1
  P  P54  1  0.09270776  0.91370492  0.79866716  1
  P  P55  1  0.59270776  0.08629508  0.79866716  1
  P  P56  1  0.76759354  0.56351896  0.06420035  1
  P  P57  1  0.26759354  0.43648104  0.06420035  1
  P  P58  1  0.02806047  0.88280178  0.14329765  1
  P  P59  1  0.52806047  0.11719822  0.14329765  1
  O  O60  1  0.23515433  0.48468883  0.73875014  1
  O  O61  1  0.73515433  0.51531117  0.73875014  1
  O  O62  1  0.01638641  0.29801456  0.55459100  1
  O  O63  1  0.51638641  0.70198544  0.55459100  1
  O  O64  1  0.33554352  0.83700951  0.91261567  1
  O  O65  1  0.83554352  0.16299049  0.91261567  1
  O  O66  1  0.84460528  0.02739252  0.27588502  1
  O  O67  1  0.34460528  0.97260748  0.27588502  1
  O  O68  1  0.92438071  0.98287909  0.59395219  1
  O  O69  1  0.42438071  0.01712091  0.59395219  1
  O  O70  1  0.14778405  0.39678248  0.48024633  1
  O  O71  1  0.64778405  0.60321752  0.48024633  1
  O  O72  1  0.33053320  0.03938818  0.94811226  1
  O  O73  1  0.83053320  0.96061182  0.94811226  1
  O  O74  1  0.64239857  0.53778883  0.25769900  1
  O  O75  1  0.14239857  0.46221117  0.25769900  1
  O  O76  1  0.02252467  0.75349547  0.12390377  1
  O  O77  1  0.52252467  0.24650453  0.12390377  1
  O  O78  1  0.00137118  0.94874229  0.07547865  1
  O  O79  1  0.50137118  0.05125771  0.07547865  1
  O  O80  1  0.55712118  0.57088522  0.81467717  1
  O  O81  1  0.05712118  0.42911478  0.81467717  1
  O  O82  1  0.95232078  0.46782319  0.48764593  1
  O  O83  1  0.45232078  0.53217681  0.48764593  1
  O  O84  1  0.03398408  0.58343424  0.05130004  1
  O  O85  1  0.53398408  0.41656576  0.05130004  1
  O  O86  1  0.53139882  0.91167232  0.94750050  1
  O  O87  1  0.03139882  0.08832768  0.94750050  1
  O  O88  1  0.02137349  0.91985417  0.32002993  1
  O  O89  1  0.52137349  0.08014583  0.32002993  1
  O  O90  1  0.97710580  0.40184730  0.35891613  1
  O  O91  1  0.47710580  0.59815270  0.35891613  1
  O  O92  1  0.44270932  0.55277580  0.92183744  1
  O  O93  1  0.94270932  0.44722420  0.92183744  1
  O  O94  1  0.72979626  0.03881653  0.41060916  1
  O  O95  1  0.22979626  0.96118347  0.41060916  1
  O  O96  1  0.92358813  0.18097602  0.64161109  1
  O  O97  1  0.42358813  0.81902398  0.64161109  1
  O  O98  1  0.81947012  0.53472764  0.38409548  1
  O  O99  1  0.31947012  0.46527236  0.38409548  1
  O  O100  1  0.14214869  0.79782431  0.77499279  1
  O  O101  1  0.64214869  0.20217569  0.77499279  1
  O  O102  1  0.11374416  0.12923870  0.60807035  1
  O  O103  1  0.61374416  0.87076130  0.60807035  1
  O  O104  1  0.23466122  0.68082906  0.68920112  1
  O  O105  1  0.73466122  0.31917094  0.68920112  1
  O  O106  1  0.84284611  0.82002885  0.29756929  1
  O  O107  1  0.34284611  0.17997115  0.29756929  1
  O  O108  1  0.75846329  0.06053539  0.65201046  1
  O  O109  1  0.25846329  0.93946461  0.65201046  1
  O  O110  1  0.60817843  0.05722904  0.51496550  1
  O  O111  1  0.10817843  0.94277096  0.51496550  1
  O  O112  1  0.65669898  0.22403889  0.44897629  1
  O  O113  1  0.15669898  0.77596111  0.44897629  1
  O  O114  1  0.83080790  0.46192035  0.05084480  1
  O  O115  1  0.33080790  0.53807965  0.05084480  1
  O  O116  1  0.40061848  0.56109841  0.67930273  1
  O  O117  1  0.90061848  0.43890159  0.67930273  1
  O  O118  1  0.00885310  0.88996636  0.85021339  1
  O  O119  1  0.50885310  0.11003364  0.85021339  1
  O  O120  1  0.20298988  0.96628488  0.84429081  1
  O  O121  1  0.70298988  0.03371512  0.84429081  1
  O  O122  1  0.04483411  0.62874348  0.72423605  1
  O  O123  1  0.54483411  0.37125652  0.72423605  1
  O  O124  1  0.74371516  0.55665795  0.14839353  1
  O  O125  1  0.24371516  0.44334205  0.14839353  1
  O  O126  1  0.54373257  0.62355004  0.13976863  1
  O  O127  1  0.04373257  0.37644996  0.13976863  1
  O  O128  1  0.46317396  0.74293245  0.01130692  1
  O  O129  1  0.96317396  0.25706755  0.01130692  1
  O  O130  1  0.92436063  0.89694093  0.19004437  1
  O  O131  1  0.42436063  0.10305907  0.19004437  1
  O  O132  1  0.09208423  0.48658971  0.59733821  1
  O  O133  1  0.59208423  0.51341029  0.59733821  1
  O  O134  1  0.49995077  0.73948784  0.87721726  1
  O  O135  1  -0.00004923  0.26051216  0.87721726  1
  O  O136  1  0.97281715  0.76117307  0.98502353  1
  O  O137  1  0.47281715  0.23882693  0.98502353  1
  O  O138  1  0.64826210  0.90010930  0.27411041  1
  O  O139  1  0.14826210  0.09989070  0.27411041  1
  O  O140  1  0.84645789  0.67091746  0.06586550  1
  O  O141  1  0.34645789  0.32908254  0.06586550  1
  O  O142  1  0.66489511  0.59197150  0.01537957  1
  O  O143  1  0.16489511  0.40802850  0.01537957  1
  O  O144  1  0.68709298  0.72728241  0.35159006  1
  O  O145  1  0.18709298  0.27271759  0.35159006  1
  O  O146  1  0.06455453  0.98579917  0.73439281  1
  O  O147  1  0.56455453  0.01420083  0.73439281  1
  O  O148  1  0.80680633  0.12952627  0.52826232  1
  O  O149  1  0.30680633  0.87047373  0.52826232  1
  O  O150  1  0.71204456  0.23230669  0.32018101  1
  O  O151  1  0.21204456  0.76769331  0.32018101  1
  O  O152  1  0.08970819  0.29523329  0.68966245  1
  O  O153  1  0.58970819  0.70476671  0.68966245  1
  O  O154  1  0.35415873  0.63158364  0.80283354  1
  O  O155  1  0.85415873  0.36841636  0.80283354  1
  O  O156  1  0.13583404  0.90098087  0.18932896  1
  O  O157  1  0.63583404  0.09901913  0.18932896  1
  O  O158  1  0.06829477  0.79293484  0.63934863  1
  O  O159  1  0.56829477  0.20706516  0.63934863  1
  O  O160  1  0.17543658  0.90528569  0.97377092  1
  O  O161  1  0.67543658  0.09471431  0.97377092  1
  O  O162  1  0.69717608  0.72638319  0.21331104  1
  O  O163  1  0.19717608  0.27361681  0.21331104  1
  O  O164  1  0.62240264  0.39730664  0.38014309  1
  O  O165  1  0.12240264  0.60269336  0.38014309  1
  O  O166  1  0.81962724  0.33437575  0.42359774  1
  O  O167  1  0.31962724  0.66562425  0.42359774  1
