# generated using pymatgen
data_SrZrN2
_symmetry_space_group_name_H-M   'P 1'
_cell_length_a   4.08726000
_cell_length_b   4.08726000
_cell_length_c   8.34064900
_cell_angle_alpha   90.00000000
_cell_angle_beta   90.00000000
_cell_angle_gamma   90.00000000
_symmetry_Int_Tables_number   1
_chemical_formula_structural   SrZrN2
_chemical_formula_sum   'Sr2 Zr2 N4'
_cell_volume   139.33633252
_cell_formula_units_Z   2
loop_
 _symmetry_equiv_pos_site_id
 _symmetry_equiv_pos_as_xyz
  1  'x, y, z'
loop_
 _atom_site_type_symbol
 _atom_site_label
 _atom_site_symmetry_multiplicity
 _atom_site_fract_x
 _atom_site_fract_y
 _atom_site_fract_z
 _atom_site_occupancy
  Sr  Sr0  1  0.00000000  0.50000000  0.14146100  1
  Sr  Sr1  1  0.50000000  0.00000000  0.85853900  1
  Zr  Zr2  1  0.00000000  0.50000000  0.59471100  1
  Zr  Zr3  1  0.50000000  0.00000000  0.40528900  1
  N  N4  1  0.00000000  0.00000000  0.50000000  1
  N  N5  1  0.50000000  0.50000000  0.50000000  1
  N  N6  1  0.00000000  0.50000000  0.83815800  1
  N  N7  1  0.50000000  0.00000000  0.16184200  1
