# generated using pymatgen
data_Rb2LaTa6(Br5O)3
_symmetry_space_group_name_H-M   'P 1'
_cell_length_a   9.63353162
_cell_length_b   9.63353162
_cell_length_c   18.26099100
_cell_angle_alpha   90.00000000
_cell_angle_beta   90.00000000
_cell_angle_gamma   119.99999738
_symmetry_Int_Tables_number   1
_chemical_formula_structural   Rb2LaTa6(Br5O)3
_chemical_formula_sum   'Rb4 La2 Ta12 Br30 O6'
_cell_volume   1467.66196633
_cell_formula_units_Z   2
loop_
 _symmetry_equiv_pos_site_id
 _symmetry_equiv_pos_as_xyz
  1  'x, y, z'
loop_
 _atom_site_type_symbol
 _atom_site_label
 _atom_site_symmetry_multiplicity
 _atom_site_fract_x
 _atom_site_fract_y
 _atom_site_fract_z
 _atom_site_occupancy
  Rb  Rb0  1  0.66666700  0.33333300  0.54613300  1
  Rb  Rb1  1  0.33333300  0.66666700  0.45386700  1
  Rb  Rb2  1  0.66666700  0.33333300  0.95386700  1
  Rb  Rb3  1  0.33333300  0.66666700  0.04613300  1
  La  La4  1  0.33333300  0.66666700  0.75000000  1
  La  La5  1  0.66666700  0.33333300  0.25000000  1
  Ta  Ta6  1  0.17225500  0.18911500  0.68635400  1
  Ta  Ta7  1  0.82774500  0.81088500  0.31364600  1
  Ta  Ta8  1  0.81088500  0.98314100  0.68635400  1
  Ta  Ta9  1  0.17225500  0.98314100  0.81364600  1
  Ta  Ta10  1  0.18911500  0.01685900  0.31364600  1
  Ta  Ta11  1  0.82774500  0.01685900  0.18635400  1
  Ta  Ta12  1  0.01685900  0.82774500  0.68635400  1
  Ta  Ta13  1  0.81088500  0.82774500  0.81364600  1
  Ta  Ta14  1  0.98314100  0.17225500  0.31364600  1
  Ta  Ta15  1  0.18911500  0.17225500  0.18635400  1
  Ta  Ta16  1  0.01685900  0.18911500  0.81364600  1
  Ta  Ta17  1  0.98314100  0.81088500  0.18635400  1
  Br  Br18  1  0.42652500  0.21326300  0.75000000  1
  Br  Br19  1  0.57347500  0.78673700  0.25000000  1
  Br  Br20  1  0.78673700  0.21326300  0.75000000  1
  Br  Br21  1  0.21326300  0.78673700  0.25000000  1
  Br  Br22  1  0.78673700  0.57347500  0.75000000  1
  Br  Br23  1  0.21326300  0.42652500  0.25000000  1
  Br  Br24  1  0.98115400  0.20330400  0.58684800  1
  Br  Br25  1  0.01884600  0.79669600  0.41315200  1
  Br  Br26  1  0.79669600  0.77785000  0.58684800  1
  Br  Br27  1  0.98115400  0.77785000  0.91315200  1
  Br  Br28  1  0.20330400  0.22215000  0.41315200  1
  Br  Br29  1  0.01884600  0.22215000  0.08684800  1
  Br  Br30  1  0.22215000  0.01884600  0.58684800  1
  Br  Br31  1  0.79669600  0.01884600  0.91315200  1
  Br  Br32  1  0.77785000  0.98115400  0.41315200  1
  Br  Br33  1  0.20330400  0.98115400  0.08684800  1
  Br  Br34  1  0.22215000  0.20330400  0.91315200  1
  Br  Br35  1  0.77785000  0.79669600  0.08684800  1
  Br  Br36  1  0.39598800  0.46911600  0.61586500  1
  Br  Br37  1  0.60401200  0.53088400  0.38413500  1
  Br  Br38  1  0.53088400  0.92687200  0.61586500  1
  Br  Br39  1  0.39598800  0.92687200  0.88413500  1
  Br  Br40  1  0.46911600  0.07312800  0.38413500  1
  Br  Br41  1  0.60401200  0.07312800  0.11586500  1
  Br  Br42  1  0.07312800  0.60401200  0.61586500  1
  Br  Br43  1  0.53088400  0.60401200  0.88413500  1
  Br  Br44  1  0.92687200  0.39598800  0.38413500  1
  Br  Br45  1  0.46911600  0.39598800  0.11586500  1
  Br  Br46  1  0.07312800  0.46911600  0.88413500  1
  Br  Br47  1  0.92687200  0.53088400  0.11586500  1
  O  O48  1  0.63903000  0.81951500  0.75000000  1
  O  O49  1  0.36097000  0.18048500  0.25000000  1
  O  O50  1  0.18048500  0.81951500  0.75000000  1
  O  O51  1  0.81951500  0.18048500  0.25000000  1
  O  O52  1  0.18048500  0.36097000  0.75000000  1
  O  O53  1  0.81951500  0.63903000  0.25000000  1
