# generated using pymatgen
data_RbSm2CuS4
_symmetry_space_group_name_H-M   'P 1'
_cell_length_a   7.29533667
_cell_length_b   7.29533667
_cell_length_c   13.97038100
_cell_angle_alpha   90.00000000
_cell_angle_beta   90.00000000
_cell_angle_gamma   147.74542029
_symmetry_Int_Tables_number   1
_chemical_formula_structural   RbSm2CuS4
_chemical_formula_sum   'Rb2 Sm4 Cu2 S8'
_cell_volume   396.80905681
_cell_formula_units_Z   2
loop_
 _symmetry_equiv_pos_site_id
 _symmetry_equiv_pos_as_xyz
  1  'x, y, z'
loop_
 _atom_site_type_symbol
 _atom_site_label
 _atom_site_symmetry_multiplicity
 _atom_site_fract_x
 _atom_site_fract_y
 _atom_site_fract_z
 _atom_site_occupancy
  Rb  Rb0  1  0.10643400  0.89356600  0.25000000  1
  Rb  Rb1  1  0.89356600  0.10643400  0.75000000  1
  Sm  Sm2  1  0.63437600  0.36562400  0.93824600  1
  Sm  Sm3  1  0.36562400  0.63437600  0.43824600  1
  Sm  Sm4  1  0.63437600  0.36562400  0.56175400  1
  Sm  Sm5  1  0.36562400  0.63437600  0.06175400  1
  Cu  Cu6  1  0.16475900  0.83524100  0.75000000  1
  Cu  Cu7  1  0.83524100  0.16475900  0.25000000  1
  S  S8  1  0.00000000  0.00000000  0.50000000  1
  S  S9  1  0.00000000  0.00000000  0.00000000  1
  S  S10  1  0.42447300  0.57552700  0.25000000  1
  S  S11  1  0.57552700  0.42447300  0.75000000  1
  S  S12  1  0.74008400  0.25991600  0.38874500  1
  S  S13  1  0.25991600  0.74008400  0.88874500  1
  S  S14  1  0.25991600  0.74008400  0.61125500  1
  S  S15  1  0.74008400  0.25991600  0.11125500  1
