# generated using pymatgen
data_CdCu(SeO3)2
_symmetry_space_group_name_H-M   'P 1'
_cell_length_a   10.54723100
_cell_length_b   7.35969200
_cell_length_c   7.62502288
_cell_angle_alpha   85.59950520
_cell_angle_beta   90.00000000
_cell_angle_gamma   90.00000000
_symmetry_Int_Tables_number   1
_chemical_formula_structural   CdCu(SeO3)2
_chemical_formula_sum   'Cd4 Cu4 Se8 O24'
_cell_volume   590.14277828
_cell_formula_units_Z   4
loop_
 _symmetry_equiv_pos_site_id
 _symmetry_equiv_pos_as_xyz
  1  'x, y, z'
loop_
 _atom_site_type_symbol
 _atom_site_label
 _atom_site_symmetry_multiplicity
 _atom_site_fract_x
 _atom_site_fract_y
 _atom_site_fract_z
 _atom_site_occupancy
  Cd  Cd0  1  0.95023200  0.51357100  0.26053800  1
  Cd  Cd1  1  0.45023200  0.98642900  0.73946200  1
  Cd  Cd2  1  0.04976800  0.48642900  0.73946200  1
  Cd  Cd3  1  0.54976800  0.01357100  0.26053800  1
  Cu  Cu4  1  0.91779100  0.97702300  0.31647900  1
  Cu  Cu5  1  0.41779100  0.52297700  0.68352100  1
  Cu  Cu6  1  0.08220900  0.02297700  0.68352100  1
  Cu  Cu7  1  0.58220900  0.47702300  0.31647900  1
  Se  Se8  1  0.10795900  0.19657300  0.05375600  1
  Se  Se9  1  0.60795900  0.30342700  0.94624400  1
  Se  Se10  1  0.89204100  0.80342700  0.94624400  1
  Se  Se11  1  0.39204100  0.69657300  0.05375600  1
  Se  Se12  1  0.77920600  0.25352000  0.56854400  1
  Se  Se13  1  0.27920600  0.24648000  0.43145600  1
  Se  Se14  1  0.22079400  0.74648000  0.43145600  1
  Se  Se15  1  0.72079400  0.75352000  0.56854400  1
  O  O16  1  0.01383300  0.16914700  0.86707300  1
  O  O17  1  0.51383300  0.33085300  0.13292700  1
  O  O18  1  0.98616700  0.83085300  0.13292700  1
  O  O19  1  0.48616700  0.66914700  0.86707300  1
  O  O20  1  0.13845300  0.42474500  0.01344900  1
  O  O21  1  0.63845300  0.07525500  0.98655100  1
  O  O22  1  0.86154700  0.57525500  0.98655100  1
  O  O23  1  0.36154700  0.92474500  0.01344900  1
  O  O24  1  0.98857000  0.21218200  0.21255700  1
  O  O25  1  0.48857000  0.28781800  0.78744300  1
  O  O26  1  0.01143000  0.78781800  0.78744300  1
  O  O27  1  0.51143000  0.71218200  0.21255700  1
  O  O28  1  0.88032200  0.07127500  0.54295500  1
  O  O29  1  0.38032200  0.42872500  0.45704500  1
  O  O30  1  0.11967800  0.92872500  0.45704500  1
  O  O31  1  0.61967800  0.57127500  0.54295500  1
  O  O32  1  0.71038400  0.27878200  0.36000500  1
  O  O33  1  0.21038400  0.22121800  0.63999500  1
  O  O34  1  0.28961600  0.72121800  0.63999500  1
  O  O35  1  0.78961600  0.77878200  0.36000500  1
  O  O36  1  0.88660100  0.43254200  0.54759800  1
  O  O37  1  0.38660100  0.06745800  0.45240200  1
  O  O38  1  0.11339900  0.56745800  0.45240200  1
  O  O39  1  0.61339900  0.93254200  0.54759800  1
