# generated using pymatgen
data_Eu(ZnAs)2
_symmetry_space_group_name_H-M   'P 1'
_cell_length_a   4.24812957
_cell_length_b   4.24812957
_cell_length_c   7.10495600
_cell_angle_alpha   90.00000000
_cell_angle_beta   90.00000000
_cell_angle_gamma   119.99999328
_symmetry_Int_Tables_number   1
_chemical_formula_structural   Eu(ZnAs)2
_chemical_formula_sum   'Eu1 Zn2 As2'
_cell_volume   111.04207340
_cell_formula_units_Z   1
loop_
 _symmetry_equiv_pos_site_id
 _symmetry_equiv_pos_as_xyz
  1  'x, y, z'
loop_
 _atom_site_type_symbol
 _atom_site_label
 _atom_site_symmetry_multiplicity
 _atom_site_fract_x
 _atom_site_fract_y
 _atom_site_fract_z
 _atom_site_occupancy
  Eu  Eu0  1  0.00000000  0.00000000  0.00000000  1
  Zn  Zn1  1  0.66666700  0.33333300  0.36766000  1
  Zn  Zn2  1  0.33333300  0.66666700  0.63234000  1
  As  As3  1  0.66666700  0.33333300  0.73596100  1
  As  As4  1  0.33333300  0.66666700  0.26403900  1
