# generated using pymatgen
data_Dy4(Al8Pd3)3
_symmetry_space_group_name_H-M   'P 1'
_cell_length_a   7.47941359
_cell_length_b   7.55518077
_cell_length_c   13.24643244
_cell_angle_alpha   84.64848872
_cell_angle_beta   79.39252706
_cell_angle_gamma   60.09809805
_symmetry_Int_Tables_number   1
_chemical_formula_structural   Dy4(Al8Pd3)3
_chemical_formula_sum   'Dy4 Al24 Pd9'
_cell_volume   637.79938956
_cell_formula_units_Z   1
loop_
 _symmetry_equiv_pos_site_id
 _symmetry_equiv_pos_as_xyz
  1  'x, y, z'
loop_
 _atom_site_type_symbol
 _atom_site_label
 _atom_site_symmetry_multiplicity
 _atom_site_fract_x
 _atom_site_fract_y
 _atom_site_fract_z
 _atom_site_occupancy
  Dy  Dy0  1  0.39295000  0.16892500  0.80881600  1
  Dy  Dy1  1  0.60705000  0.83107500  0.19118400  1
  Dy  Dy2  1  0.73391600  0.49791700  0.80853200  1
  Dy  Dy3  1  0.26608400  0.50208300  0.19146800  1
  Al  Al4  1  0.68519800  0.83371500  0.94497900  1
  Al  Al5  1  0.31480200  0.16628500  0.05502100  1
  Al  Al6  1  0.14620200  0.83302200  0.56060600  1
  Al  Al7  1  0.85379800  0.16697800  0.43939400  1
  Al  Al8  1  0.47926100  0.16683000  0.55840400  1
  Al  Al9  1  0.52073900  0.83317000  0.44159600  1
  Al  Al10  1  0.21554900  0.16543300  0.32959600  1
  Al  Al11  1  0.78445100  0.83456700  0.67040400  1
  Al  Al12  1  0.43705000  0.50600700  0.67043600  1
  Al  Al13  1  0.56295000  0.49399300  0.32956400  1
  Al  Al14  1  0.10892200  0.15939000  0.66953200  1
  Al  Al15  1  0.89107800  0.84061000  0.33046800  1
  Al  Al16  1  0.35329200  0.49938400  0.94517000  1
  Al  Al17  1  0.64670800  0.50061600  0.05483000  1
  Al  Al18  1  0.01548200  0.16748800  0.95358600  1
  Al  Al19  1  0.98451800  0.83251200  0.04641400  1
  Al  Al20  1  0.18671400  0.49923700  0.44120700  1
  Al  Al21  1  0.81328600  0.50076300  0.55879300  1
  Al  Al22  1  0.73424900  0.16341900  0.18304700  1
  Al  Al23  1  0.26575100  0.83658100  0.81695300  1
  Al  Al24  1  0.06164600  0.63154200  0.81540600  1
  Al  Al25  1  0.93835400  0.36845800  0.18459400  1
  Al  Al26  1  0.85513800  0.04131000  0.81609100  1
  Al  Al27  1  0.14486200  0.95869000  0.18390900  1
  Pd  Pd28  1  0.11991300  0.49351200  0.63804900  1
  Pd  Pd29  1  0.88008700  0.50648800  0.36195100  1
  Pd  Pd30  1  0.65715000  0.17089600  0.99968300  1
  Pd  Pd31  1  0.34285000  0.82910400  0.00031700  1
  Pd  Pd32  1  0.53897500  0.16662600  0.36162900  1
  Pd  Pd33  1  0.46102500  0.83337400  0.63837100  1
  Pd  Pd34  1  0.77921200  0.17395500  0.63695600  1
  Pd  Pd35  1  0.22078800  0.82604500  0.36304400  1
  Pd  Pd36  1  0.00000000  0.50000000  0.00000000  1
