# generated using pymatgen
data_Lu3Al2
_symmetry_space_group_name_H-M   'P 1'
_cell_length_a   8.05501200
_cell_length_b   8.05501200
_cell_length_c   7.44594700
_cell_angle_alpha   90.00000000
_cell_angle_beta   90.00000000
_cell_angle_gamma   90.00000000
_symmetry_Int_Tables_number   1
_chemical_formula_structural   Lu3Al2
_chemical_formula_sum   'Lu12 Al8'
_cell_volume   483.11700480
_cell_formula_units_Z   4
loop_
 _symmetry_equiv_pos_site_id
 _symmetry_equiv_pos_as_xyz
  1  'x, y, z'
loop_
 _atom_site_type_symbol
 _atom_site_label
 _atom_site_symmetry_multiplicity
 _atom_site_fract_x
 _atom_site_fract_y
 _atom_site_fract_z
 _atom_site_occupancy
  Lu  Lu0  1  0.50000000  0.00000000  0.25000000  1
  Lu  Lu1  1  0.50000000  0.00000000  0.75000000  1
  Lu  Lu2  1  0.00000000  0.50000000  0.25000000  1
  Lu  Lu3  1  0.00000000  0.50000000  0.75000000  1
  Lu  Lu4  1  0.34957200  0.34957200  0.00000000  1
  Lu  Lu5  1  0.84957200  0.15042800  0.50000000  1
  Lu  Lu6  1  0.15042800  0.84957200  0.50000000  1
  Lu  Lu7  1  0.65042800  0.65042800  0.00000000  1
  Lu  Lu8  1  0.79746300  0.20253700  0.00000000  1
  Lu  Lu9  1  0.70253700  0.70253700  0.50000000  1
  Lu  Lu10  1  0.29746300  0.29746300  0.50000000  1
  Lu  Lu11  1  0.20253700  0.79746300  0.00000000  1
  Al  Al12  1  0.11979300  0.11979300  0.19758800  1
  Al  Al13  1  0.61979300  0.38020700  0.69758800  1
  Al  Al14  1  0.38020700  0.61979300  0.69758800  1
  Al  Al15  1  0.88020700  0.88020700  0.19758800  1
  Al  Al16  1  0.38020700  0.61979300  0.30241200  1
  Al  Al17  1  0.61979300  0.38020700  0.30241200  1
  Al  Al18  1  0.11979300  0.11979300  0.80241200  1
  Al  Al19  1  0.88020700  0.88020700  0.80241200  1
