# generated using pymatgen
data_NiSbSe
_symmetry_space_group_name_H-M   'P 1'
_cell_length_a   6.12153300
_cell_length_b   6.12153300
_cell_length_c   6.12153300
_cell_angle_alpha   90.00000000
_cell_angle_beta   90.00000000
_cell_angle_gamma   90.00000000
_symmetry_Int_Tables_number   1
_chemical_formula_structural   NiSbSe
_chemical_formula_sum   'Ni4 Sb4 Se4'
_cell_volume   229.39322394
_cell_formula_units_Z   4
loop_
 _symmetry_equiv_pos_site_id
 _symmetry_equiv_pos_as_xyz
  1  'x, y, z'
loop_
 _atom_site_type_symbol
 _atom_site_label
 _atom_site_symmetry_multiplicity
 _atom_site_fract_x
 _atom_site_fract_y
 _atom_site_fract_z
 _atom_site_occupancy
  Ni  Ni0  1  0.99049300  0.99049300  0.99049300  1
  Ni  Ni1  1  0.50950700  0.00950700  0.49049300  1
  Ni  Ni2  1  0.49049300  0.50950700  0.00950700  1
  Ni  Ni3  1  0.00950700  0.49049300  0.50950700  1
  Sb  Sb4  1  0.36865400  0.13134600  0.86865400  1
  Sb  Sb5  1  0.86865400  0.36865400  0.13134600  1
  Sb  Sb6  1  0.63134600  0.63134600  0.63134600  1
  Sb  Sb7  1  0.13134600  0.86865400  0.36865400  1
  Se  Se8  1  0.87535100  0.12464900  0.62464900  1
  Se  Se9  1  0.12464900  0.62464900  0.87535100  1
  Se  Se10  1  0.62464900  0.87535100  0.12464900  1
  Se  Se11  1  0.37535100  0.37535100  0.37535100  1
