# generated using pymatgen
data_NaVCdO4
_symmetry_space_group_name_H-M   'P 1'
_cell_length_a   5.52465653
_cell_length_b   5.52465653
_cell_length_c   7.13405300
_cell_angle_alpha   90.00000000
_cell_angle_beta   90.00000000
_cell_angle_gamma   114.84651577
_symmetry_Int_Tables_number   1
_chemical_formula_structural   NaVCdO4
_chemical_formula_sum   'Na2 V2 Cd2 O8'
_cell_volume   197.58920349
_cell_formula_units_Z   2
loop_
 _symmetry_equiv_pos_site_id
 _symmetry_equiv_pos_as_xyz
  1  'x, y, z'
loop_
 _atom_site_type_symbol
 _atom_site_label
 _atom_site_symmetry_multiplicity
 _atom_site_fract_x
 _atom_site_fract_y
 _atom_site_fract_z
 _atom_site_occupancy
  Na  Na0  1  0.31905100  0.68094900  0.75000000  1
  Na  Na1  1  0.68094900  0.31905100  0.25000000  1
  V  V2  1  0.34943000  0.65057000  0.25000000  1
  V  V3  1  0.65057000  0.34943000  0.75000000  1
  Cd  Cd4  1  0.00000000  0.00000000  0.00000000  1
  Cd  Cd5  1  0.00000000  0.00000000  0.50000000  1
  O  O6  1  0.77950500  0.70381600  0.75000000  1
  O  O7  1  0.22049500  0.29618400  0.25000000  1
  O  O8  1  0.70381600  0.77950500  0.25000000  1
  O  O9  1  0.29618400  0.22049500  0.75000000  1
  O  O10  1  0.24133800  0.75866200  0.05512500  1
  O  O11  1  0.75866200  0.24133800  0.55512500  1
  O  O12  1  0.24133800  0.75866200  0.44487500  1
  O  O13  1  0.75866200  0.24133800  0.94487500  1
