# generated using pymatgen
data_Rb2SrP2O7
_symmetry_space_group_name_H-M   'P 1'
_cell_length_a   6.00007486
_cell_length_b   6.00007486
_cell_length_c   13.70841984
_cell_angle_alpha   75.49723596
_cell_angle_beta   75.49723596
_cell_angle_gamma   59.55143348
_symmetry_Int_Tables_number   1
_chemical_formula_structural   Rb2SrP2O7
_chemical_formula_sum   'Rb4 Sr2 P4 O14'
_cell_volume   407.35939199
_cell_formula_units_Z   2
loop_
 _symmetry_equiv_pos_site_id
 _symmetry_equiv_pos_as_xyz
  1  'x, y, z'
loop_
 _atom_site_type_symbol
 _atom_site_label
 _atom_site_symmetry_multiplicity
 _atom_site_fract_x
 _atom_site_fract_y
 _atom_site_fract_z
 _atom_site_occupancy
  Rb  Rb0  1  0.86779300  0.42678600  0.33566900  1
  Rb  Rb1  1  0.57321400  0.13220700  0.16433100  1
  Rb  Rb2  1  0.13220700  0.57321400  0.66433100  1
  Rb  Rb3  1  0.42678600  0.86779300  0.83566900  1
  Sr  Sr4  1  0.50000000  0.00000000  0.50000000  1
  Sr  Sr5  1  0.00000000  0.50000000  0.00000000  1
  P  P6  1  0.79983400  0.25455900  0.63521500  1
  P  P7  1  0.74544100  0.20016600  0.86478500  1
  P  P8  1  0.20016600  0.74544100  0.36478500  1
  P  P9  1  0.25455900  0.79983400  0.13521500  1
  O  O10  1  0.66062900  0.33937100  0.75000000  1
  O  O11  1  0.33937100  0.66062900  0.25000000  1
  O  O12  1  0.70011100  0.51983300  0.56703500  1
  O  O13  1  0.48016700  0.29988900  0.93296500  1
  O  O14  1  0.29988900  0.48016700  0.43296500  1
  O  O15  1  0.51983300  0.70011100  0.06703500  1
  O  O16  1  0.09699200  0.10625100  0.63361900  1
  O  O17  1  0.89374900  0.90300800  0.86638100  1
  O  O18  1  0.90300800  0.89374900  0.36638100  1
  O  O19  1  0.10625100  0.09699200  0.13361900  1
  O  O20  1  0.08314700  0.68945700  0.12235500  1
  O  O21  1  0.31054300  0.91685300  0.37764500  1
  O  O22  1  0.91685300  0.31054300  0.87764500  1
  O  O23  1  0.68945700  0.08314700  0.62235500  1
