# generated using pymatgen
data_Ba6Na2V2Ru2O17
_symmetry_space_group_name_H-M   'P 1'
_cell_length_a   5.94350448
_cell_length_b   5.94350448
_cell_length_c   30.21098500
_cell_angle_alpha   90.00000000
_cell_angle_beta   90.00000000
_cell_angle_gamma   120.00000529
_symmetry_Int_Tables_number   1
_chemical_formula_structural   Ba6Na2V2Ru2O17
_chemical_formula_sum   'Ba12 Na4 V4 Ru4 O34'
_cell_volume   924.23132051
_cell_formula_units_Z   2
loop_
 _symmetry_equiv_pos_site_id
 _symmetry_equiv_pos_as_xyz
  1  'x, y, z'
loop_
 _atom_site_type_symbol
 _atom_site_label
 _atom_site_symmetry_multiplicity
 _atom_site_fract_x
 _atom_site_fract_y
 _atom_site_fract_z
 _atom_site_occupancy
  Ba  Ba0  1  0.00000000  0.00000000  0.75000000  1
  Ba  Ba1  1  0.00000000  0.00000000  0.25000000  1
  Ba  Ba2  1  0.00000000  0.00000000  0.50000000  1
  Ba  Ba3  1  0.00000000  0.00000000  0.00000000  1
  Ba  Ba4  1  0.33333300  0.66666700  0.90736000  1
  Ba  Ba5  1  0.66666700  0.33333300  0.40736000  1
  Ba  Ba6  1  0.66666700  0.33333300  0.09264000  1
  Ba  Ba7  1  0.33333300  0.66666700  0.59264000  1
  Ba  Ba8  1  0.33333300  0.66666700  0.31913600  1
  Ba  Ba9  1  0.66666700  0.33333300  0.81913600  1
  Ba  Ba10  1  0.66666700  0.33333300  0.68086400  1
  Ba  Ba11  1  0.33333300  0.66666700  0.18086400  1
  Na  Na12  1  0.00000000  0.00000000  0.37594700  1
  Na  Na13  1  0.00000000  0.00000000  0.87594700  1
  Na  Na14  1  0.00000000  0.00000000  0.62405300  1
  Na  Na15  1  0.00000000  0.00000000  0.12405300  1
  V  V16  1  0.33333300  0.66666700  0.44802600  1
  V  V17  1  0.66666700  0.33333300  0.94802600  1
  V  V18  1  0.66666700  0.33333300  0.55197400  1
  V  V19  1  0.33333300  0.66666700  0.05197400  1
  Ru  Ru20  1  0.33333300  0.66666700  0.79616100  1
  Ru  Ru21  1  0.66666700  0.33333300  0.29616100  1
  Ru  Ru22  1  0.66666700  0.33333300  0.20383900  1
  Ru  Ru23  1  0.33333300  0.66666700  0.70383900  1
  O  O24  1  0.33333300  0.66666700  0.99482700  1
  O  O25  1  0.66666700  0.33333300  0.49482700  1
  O  O26  1  0.66666700  0.33333300  0.00517300  1
  O  O27  1  0.33333300  0.66666700  0.50517300  1
  O  O28  1  0.48603000  0.97206000  0.75000000  1
  O  O29  1  0.51397000  0.48603000  0.25000000  1
  O  O30  1  0.97206000  0.48603000  0.25000000  1
  O  O31  1  0.02794000  0.51397000  0.75000000  1
  O  O32  1  0.48603000  0.51397000  0.75000000  1
  O  O33  1  0.51397000  0.02794000  0.25000000  1
  O  O34  1  0.17702600  0.82297400  0.67021800  1
  O  O35  1  0.17702600  0.35405200  0.67021800  1
  O  O36  1  0.64594800  0.82297400  0.67021800  1
  O  O37  1  0.35405200  0.17702600  0.17021800  1
  O  O38  1  0.82297400  0.64594800  0.32978200  1
  O  O39  1  0.82297400  0.17702600  0.17021800  1
  O  O40  1  0.82297400  0.64594800  0.17021800  1
  O  O41  1  0.17702600  0.82297400  0.82978200  1
  O  O42  1  0.64594800  0.82297400  0.82978200  1
  O  O43  1  0.35405200  0.17702600  0.32978200  1
  O  O44  1  0.82297400  0.17702600  0.32978200  1
  O  O45  1  0.17702600  0.35405200  0.82978200  1
  O  O46  1  0.17472700  0.82527300  0.07264200  1
  O  O47  1  0.17472700  0.34945300  0.07264200  1
  O  O48  1  0.17472700  0.34945300  0.42735800  1
  O  O49  1  0.82527300  0.17472700  0.92735800  1
  O  O50  1  0.34945300  0.17472700  0.92735800  1
  O  O51  1  0.65054700  0.82527300  0.42735800  1
  O  O52  1  0.17472700  0.82527300  0.42735800  1
  O  O53  1  0.82527300  0.65054700  0.57264200  1
  O  O54  1  0.82527300  0.17472700  0.57264200  1
  O  O55  1  0.82527300  0.65054700  0.92735800  1
  O  O56  1  0.34945300  0.17472700  0.57264200  1
  O  O57  1  0.65054700  0.82527300  0.07264200  1
