# generated using pymatgen
data_Ba(Cd2Pt)2
_symmetry_space_group_name_H-M   'P 1'
_cell_length_a   8.54153600
_cell_length_b   8.54153600
_cell_length_c   4.51319600
_cell_angle_alpha   90.00000000
_cell_angle_beta   90.00000000
_cell_angle_gamma   90.00000000
_symmetry_Int_Tables_number   1
_chemical_formula_structural   Ba(Cd2Pt)2
_chemical_formula_sum   'Ba2 Cd8 Pt4'
_cell_volume   329.27301920
_cell_formula_units_Z   2
loop_
 _symmetry_equiv_pos_site_id
 _symmetry_equiv_pos_as_xyz
  1  'x, y, z'
loop_
 _atom_site_type_symbol
 _atom_site_label
 _atom_site_symmetry_multiplicity
 _atom_site_fract_x
 _atom_site_fract_y
 _atom_site_fract_z
 _atom_site_occupancy
  Ba  Ba0  1  0.50000000  0.50000000  0.50000000  1
  Ba  Ba1  1  0.00000000  0.00000000  0.00000000  1
  Cd  Cd2  1  0.34344600  0.08943000  0.50000000  1
  Cd  Cd3  1  0.65655400  0.91057000  0.50000000  1
  Cd  Cd4  1  0.84344600  0.41057000  0.00000000  1
  Cd  Cd5  1  0.15655400  0.58943000  0.00000000  1
  Cd  Cd6  1  0.08943000  0.34344600  0.50000000  1
  Cd  Cd7  1  0.91057000  0.65655400  0.50000000  1
  Cd  Cd8  1  0.41057000  0.84344600  0.00000000  1
  Cd  Cd9  1  0.58943000  0.15655400  0.00000000  1
  Pt  Pt10  1  0.77869200  0.22130800  0.50000000  1
  Pt  Pt11  1  0.22130800  0.77869200  0.50000000  1
  Pt  Pt12  1  0.27869200  0.27869200  0.00000000  1
  Pt  Pt13  1  0.72130800  0.72130800  0.00000000  1
