# generated using pymatgen
data_CeAs2Au
_symmetry_space_group_name_H-M   'P 1'
_cell_length_a   4.13981200
_cell_length_b   4.13981200
_cell_length_c   9.98171800
_cell_angle_alpha   90.00000000
_cell_angle_beta   90.00000000
_cell_angle_gamma   90.00000000
_symmetry_Int_Tables_number   1
_chemical_formula_structural   CeAs2Au
_chemical_formula_sum   'Ce2 As4 Au2'
_cell_volume   171.06711624
_cell_formula_units_Z   2
loop_
 _symmetry_equiv_pos_site_id
 _symmetry_equiv_pos_as_xyz
  1  'x, y, z'
loop_
 _atom_site_type_symbol
 _atom_site_label
 _atom_site_symmetry_multiplicity
 _atom_site_fract_x
 _atom_site_fract_y
 _atom_site_fract_z
 _atom_site_occupancy
  Ce  Ce0  1  0.50000000  0.00000000  0.77312800  1
  Ce  Ce1  1  0.00000000  0.50000000  0.22687200  1
  As  As2  1  0.50000000  0.00000000  0.30710500  1
  As  As3  1  0.00000000  0.50000000  0.69289500  1
  As  As4  1  0.50000000  0.50000000  0.00000000  1
  As  As5  1  0.00000000  0.00000000  0.00000000  1
  Au  Au6  1  0.50000000  0.50000000  0.50000000  1
  Au  Au7  1  0.00000000  0.00000000  0.50000000  1
