# generated using pymatgen
data_SmCO4
_symmetry_space_group_name_H-M   'P 1'
_cell_length_a   12.37622230
_cell_length_b   12.37622230
_cell_length_c   9.82199700
_cell_angle_alpha   90.00000000
_cell_angle_beta   90.00000000
_cell_angle_gamma   120.00000160
_symmetry_Int_Tables_number   1
_chemical_formula_structural   SmCO4
_chemical_formula_sum   'Sm18 C18 O72'
_cell_volume   1302.88662196
_cell_formula_units_Z   18
loop_
 _symmetry_equiv_pos_site_id
 _symmetry_equiv_pos_as_xyz
  1  'x, y, z'
loop_
 _atom_site_type_symbol
 _atom_site_label
 _atom_site_symmetry_multiplicity
 _atom_site_fract_x
 _atom_site_fract_y
 _atom_site_fract_z
 _atom_site_occupancy
  Sm  Sm0  1  0.78503000  0.22178800  0.76006600  1
  Sm  Sm1  1  0.43675800  0.21497000  0.76006600  1
  Sm  Sm2  1  0.77821200  0.56324200  0.76006600  1
  Sm  Sm3  1  0.78503000  0.22178800  0.23993400  1
  Sm  Sm4  1  0.43675800  0.21497000  0.23993400  1
  Sm  Sm5  1  0.77821200  0.56324200  0.23993400  1
  Sm  Sm6  1  0.45112000  0.55554600  0.74326300  1
  Sm  Sm7  1  0.10442600  0.54888000  0.74326300  1
  Sm  Sm8  1  0.44445400  0.89557400  0.74326300  1
  Sm  Sm9  1  0.45112000  0.55554600  0.25673700  1
  Sm  Sm10  1  0.10442600  0.54888000  0.25673700  1
  Sm  Sm11  1  0.44445400  0.89557400  0.25673700  1
  Sm  Sm12  1  0.77009000  0.89123000  0.74365600  1
  Sm  Sm13  1  0.12113900  0.22991000  0.74365600  1
  Sm  Sm14  1  0.10877000  0.87886100  0.74365600  1
  Sm  Sm15  1  0.77009000  0.89123000  0.25634400  1
  Sm  Sm16  1  0.12113900  0.22991000  0.25634400  1
  Sm  Sm17  1  0.10877000  0.87886100  0.25634400  1
  C  C18  1  0.31370400  0.47051300  0.00000000  1
  C  C19  1  0.15681000  0.68629600  0.00000000  1
  C  C20  1  0.52948700  0.84319000  0.00000000  1
  C  C21  1  0.86959200  0.42405400  0.00000000  1
  C  C22  1  0.55446100  0.13040800  0.00000000  1
  C  C23  1  0.57594600  0.44553900  0.00000000  1
  C  C24  1  0.83025800  0.02904200  0.00000000  1
  C  C25  1  0.19878500  0.16974200  0.00000000  1
  C  C26  1  0.97095800  0.80121500  0.00000000  1
  C  C27  1  0.53719400  0.78169300  0.50000000  1
  C  C28  1  0.24449900  0.46280600  0.50000000  1
  C  C29  1  0.21830700  0.75550100  0.50000000  1
  C  C30  1  0.90379600  0.79566100  0.50000000  1
  C  C31  1  0.89186500  0.09620400  0.50000000  1
  C  C32  1  0.20433900  0.10813500  0.50000000  1
  C  C33  1  0.86864300  0.35442100  0.50000000  1
  C  C34  1  0.48577800  0.13135700  0.50000000  1
  C  C35  1  0.64557900  0.51422200  0.50000000  1
  O  O36  1  0.42130000  0.57333700  0.00000000  1
  O  O37  1  0.15203800  0.57870000  0.00000000  1
  O  O38  1  0.42666300  0.84796200  0.00000000  1
  O  O39  1  0.26423100  0.42181900  0.88423800  1
  O  O40  1  0.15758700  0.73576900  0.88423800  1
  O  O41  1  0.57818100  0.84241300  0.88423800  1
  O  O42  1  0.26423100  0.42181900  0.11576200  1
  O  O43  1  0.15758700  0.73576900  0.11576200  1
  O  O44  1  0.57818100  0.84241300  0.11576200  1
  O  O45  1  0.80757600  0.30306300  0.00000000  1
  O  O46  1  0.49548700  0.19242400  0.00000000  1
  O  O47  1  0.69693700  0.50451300  0.00000000  1
  O  O48  1  0.58289300  0.10051300  0.88473300  1
  O  O49  1  0.51762000  0.41710700  0.88473300  1
  O  O50  1  0.89948700  0.48238000  0.88473300  1
  O  O51  1  0.58289300  0.10051300  0.11526700  1
  O  O52  1  0.51762000  0.41710700  0.11526700  1
  O  O53  1  0.89948700  0.48238000  0.11526700  1
  O  O54  1  0.82552100  0.92210700  0.00000000  1
  O  O55  1  0.09658600  0.17447900  0.00000000  1
  O  O56  1  0.07789300  0.90341400  0.00000000  1
  O  O57  1  0.83037500  0.07898000  0.88486300  1
  O  O58  1  0.24860500  0.16962500  0.88486300  1
  O  O59  1  0.92102000  0.75139500  0.88486300  1
  O  O60  1  0.83037500  0.07898000  0.11513700  1
  O  O61  1  0.24860500  0.16962500  0.11513700  1
  O  O62  1  0.92102000  0.75139500  0.11513700  1
  O  O63  1  0.36481600  0.52915000  0.50000000  1
  O  O64  1  0.16433400  0.63518400  0.50000000  1
  O  O65  1  0.47085000  0.83566600  0.50000000  1
  O  O66  1  0.57026500  0.75525800  0.61460200  1
  O  O67  1  0.18499300  0.42973500  0.61460200  1
  O  O68  1  0.24474200  0.81500700  0.61460200  1
  O  O69  1  0.57026500  0.75525800  0.38539800  1
  O  O70  1  0.18499300  0.42973500  0.38539800  1
  O  O71  1  0.24474200  0.81500700  0.38539800  1
  O  O72  1  0.82709900  0.97509400  0.50000000  1
  O  O73  1  0.14799500  0.17290100  0.50000000  1
  O  O74  1  0.02490600  0.85200500  0.50000000  1
  O  O75  1  0.84522300  0.76845300  0.61510000  1
  O  O76  1  0.92323000  0.15477700  0.61510000  1
  O  O77  1  0.23154700  0.07677000  0.61510000  1
  O  O78  1  0.84522300  0.76845300  0.38490000  1
  O  O79  1  0.92323000  0.15477700  0.38490000  1
  O  O80  1  0.23154700  0.07677000  0.38490000  1
  O  O81  1  0.76512200  0.24834200  0.50000000  1
  O  O82  1  0.48322000  0.23487800  0.50000000  1
  O  O83  1  0.75165800  0.51678000  0.50000000  1
  O  O84  1  0.91859100  0.40445200  0.61493200  1
  O  O85  1  0.48586000  0.08140900  0.61493200  1
  O  O86  1  0.59554800  0.51414000  0.61493200  1
  O  O87  1  0.91859100  0.40445200  0.38506800  1
  O  O88  1  0.48586000  0.08140900  0.38506800  1
  O  O89  1  0.59554800  0.51414000  0.38506800  1
  O  O90  1  0.66666700  0.33333300  0.74160000  1
  O  O91  1  0.66666700  0.33333300  0.25840000  1
  O  O92  1  0.33333300  0.66666700  0.75347200  1
  O  O93  1  0.33333300  0.66666700  0.24652800  1
  O  O94  1  0.00000000  0.00000000  0.75637300  1
  O  O95  1  0.00000000  0.00000000  0.24362700  1
  O  O96  1  0.34397700  0.33605400  0.69151100  1
  O  O97  1  0.99207700  0.65602300  0.69151100  1
  O  O98  1  0.66394600  0.00792300  0.69151100  1
  O  O99  1  0.34397700  0.33605400  0.30848900  1
  O  O100  1  0.99207700  0.65602300  0.30848900  1
  O  O101  1  0.66394600  0.00792300  0.30848900  1
  O  O102  1  0.66826100  0.67577300  0.80637300  1
  O  O103  1  0.00751200  0.33173900  0.80637300  1
  O  O104  1  0.32422700  0.99248800  0.80637300  1
  O  O105  1  0.66826100  0.67577300  0.19362700  1
  O  O106  1  0.00751200  0.33173900  0.19362700  1
  O  O107  1  0.32422700  0.99248800  0.19362700  1
