# generated using pymatgen
data_KBOF2
_symmetry_space_group_name_H-M   'P 1'
_cell_length_a   7.01340500
_cell_length_b   9.88129400
_cell_length_c   15.29465026
_cell_angle_alpha   51.58593587
_cell_angle_beta   90.00000000
_cell_angle_gamma   90.00000000
_symmetry_Int_Tables_number   1
_chemical_formula_structural   KBOF2
_chemical_formula_sum   'K12 B12 O12 F24'
_cell_volume   830.50833716
_cell_formula_units_Z   12
loop_
 _symmetry_equiv_pos_site_id
 _symmetry_equiv_pos_as_xyz
  1  'x, y, z'
loop_
 _atom_site_type_symbol
 _atom_site_label
 _atom_site_symmetry_multiplicity
 _atom_site_fract_x
 _atom_site_fract_y
 _atom_site_fract_z
 _atom_site_occupancy
  K  K0  1  0.57096400  0.28086700  0.92075800  1
  K  K1  1  0.92903600  0.28086700  0.42075800  1
  K  K2  1  0.42903600  0.71913300  0.07924200  1
  K  K3  1  0.07096400  0.71913300  0.57924200  1
  K  K4  1  0.72373600  0.34852700  0.64715800  1
  K  K5  1  0.77626400  0.34852700  0.14715800  1
  K  K6  1  0.27626400  0.65147300  0.35284200  1
  K  K7  1  0.22373600  0.65147300  0.85284200  1
  K  K8  1  0.09449300  0.10306600  0.07256100  1
  K  K9  1  0.40550700  0.10306600  0.57256100  1
  K  K10  1  0.90550700  0.89693400  0.92743900  1
  K  K11  1  0.59449300  0.89693400  0.42743900  1
  B  B12  1  0.23422400  0.34970600  0.63557400  1
  B  B13  1  0.26577600  0.34970600  0.13557400  1
  B  B14  1  0.76577600  0.65029400  0.36442600  1
  B  B15  1  0.73422400  0.65029400  0.86442600  1
  B  B16  1  0.88844100  0.71570400  0.18907100  1
  B  B17  1  0.61155900  0.71570400  0.68907100  1
  B  B18  1  0.11155900  0.28429600  0.81092900  1
  B  B19  1  0.38844100  0.28429600  0.31092900  1
  B  B20  1  0.64602700  0.91118900  0.17880300  1
  B  B21  1  0.85397300  0.91118900  0.67880300  1
  B  B22  1  0.35397300  0.08881100  0.82119700  1
  B  B23  1  0.14602700  0.08881100  0.32119700  1
  O  O24  1  0.08855000  0.36258300  0.69543400  1
  O  O25  1  0.41145000  0.36258300  0.19543400  1
  O  O26  1  0.91145000  0.63741700  0.30456600  1
  O  O27  1  0.58855000  0.63741700  0.80456600  1
  O  O28  1  0.36503500  0.20847100  0.70187400  1
  O  O29  1  0.13496500  0.20847100  0.20187400  1
  O  O30  1  0.63496500  0.79152900  0.29812600  1
  O  O31  1  0.86503500  0.79152900  0.79812600  1
  O  O32  1  0.76111100  0.86060500  0.12591600  1
  O  O33  1  0.73888900  0.86060500  0.62591600  1
  O  O34  1  0.23888900  0.13939500  0.87408400  1
  O  O35  1  0.26111100  0.13939500  0.37408400  1
  F  F36  1  0.45017800  0.94701200  0.13266800  1
  F  F37  1  0.04982200  0.94701200  0.63266800  1
  F  F38  1  0.54982200  0.05298800  0.86733200  1
  F  F39  1  0.95017800  0.05298800  0.36733200  1
  F  F40  1  0.65752600  0.48583400  0.43355000  1
  F  F41  1  0.84247400  0.48583400  0.93355000  1
  F  F42  1  0.34247400  0.51416600  0.56645000  1
  F  F43  1  0.15752600  0.51416600  0.06645000  1
  F  F44  1  0.07937500  0.77244200  0.13531300  1
  F  F45  1  0.42062500  0.77244200  0.63531300  1
  F  F46  1  0.92062500  0.22755800  0.86468700  1
  F  F47  1  0.57937500  0.22755800  0.36468700  1
  F  F48  1  0.67079800  0.58702100  0.67497000  1
  F  F49  1  0.82920200  0.58702100  0.17497000  1
  F  F50  1  0.32920200  0.41297900  0.32503000  1
  F  F51  1  0.17079800  0.41297900  0.82503000  1
  F  F52  1  0.78792400  0.08235800  0.64148800  1
  F  F53  1  0.71207600  0.08235800  0.14148800  1
  F  F54  1  0.21207600  0.91764200  0.35851200  1
  F  F55  1  0.28792400  0.91764200  0.85851200  1
  F  F56  1  0.85345200  0.65879600  0.44868000  1
  F  F57  1  0.64654800  0.65879600  0.94868000  1
  F  F58  1  0.14654800  0.34120400  0.55132000  1
  F  F59  1  0.35345200  0.34120400  0.05132000  1
