# generated using pymatgen
data_Ca5Pt2
_symmetry_space_group_name_H-M   'P 1'
_cell_length_a   8.80489097
_cell_length_b   8.80489097
_cell_length_c   7.66262086
_cell_angle_alpha   82.91492723
_cell_angle_beta   82.91492723
_cell_angle_gamma   44.07233698
_symmetry_Int_Tables_number   1
_chemical_formula_structural   Ca5Pt2
_chemical_formula_sum   'Ca10 Pt4'
_cell_volume   409.52876171
_cell_formula_units_Z   2
loop_
 _symmetry_equiv_pos_site_id
 _symmetry_equiv_pos_as_xyz
  1  'x, y, z'
loop_
 _atom_site_type_symbol
 _atom_site_label
 _atom_site_symmetry_multiplicity
 _atom_site_fract_x
 _atom_site_fract_y
 _atom_site_fract_z
 _atom_site_occupancy
  Ca  Ca0  1  0.01884200  0.80071000  0.91911000  1
  Ca  Ca1  1  0.19929000  0.98115800  0.58089000  1
  Ca  Ca2  1  0.98115800  0.19929000  0.08089000  1
  Ca  Ca3  1  0.80071000  0.01884200  0.41911000  1
  Ca  Ca4  1  0.36499500  0.20102900  0.82192800  1
  Ca  Ca5  1  0.79897100  0.63500500  0.67807200  1
  Ca  Ca6  1  0.63500500  0.79897100  0.17807200  1
  Ca  Ca7  1  0.20102900  0.36499500  0.32192800  1
  Ca  Ca8  1  0.57492600  0.42507400  0.75000000  1
  Ca  Ca9  1  0.42507400  0.57492600  0.25000000  1
  Pt  Pt10  1  0.17907600  0.59838200  0.58447300  1
  Pt  Pt11  1  0.40161800  0.82092400  0.91552700  1
  Pt  Pt12  1  0.82092400  0.40161800  0.41552700  1
  Pt  Pt13  1  0.59838200  0.17907600  0.08447300  1
