# generated using pymatgen
data_Ca6Al7ClO16
_symmetry_space_group_name_H-M   'P 1'
_cell_length_a   10.48826309
_cell_length_b   10.48826309
_cell_length_c   10.48826309
_cell_angle_alpha   109.36287058
_cell_angle_beta   109.36287058
_cell_angle_gamma   109.68813875
_symmetry_Int_Tables_number   1
_chemical_formula_structural   Ca6Al7ClO16
_chemical_formula_sum   'Ca12 Al14 Cl2 O32'
_cell_volume   888.14557478
_cell_formula_units_Z   2
loop_
 _symmetry_equiv_pos_site_id
 _symmetry_equiv_pos_as_xyz
  1  'x, y, z'
loop_
 _atom_site_type_symbol
 _atom_site_label
 _atom_site_symmetry_multiplicity
 _atom_site_fract_x
 _atom_site_fract_y
 _atom_site_fract_z
 _atom_site_occupancy
  Ca  Ca0  1  0.27032900  0.27032900  0.00000000  1
  Ca  Ca1  1  0.97967100  0.47967100  0.50000000  1
  Ca  Ca2  1  0.52032900  0.02032900  0.50000000  1
  Ca  Ca3  1  0.72967100  0.72967100  0.00000000  1
  Ca  Ca4  1  0.23892100  0.87500000  0.86392100  1
  Ca  Ca5  1  0.01107900  0.37500000  0.13607900  1
  Ca  Ca6  1  0.49101800  0.37500000  0.61601800  1
  Ca  Ca7  1  0.75898200  0.87500000  0.38398200  1
  Ca  Ca8  1  0.12500000  0.50898200  0.88398200  1
  Ca  Ca9  1  0.62500000  0.24101800  0.11601800  1
  Ca  Ca10  1  0.62500000  0.76107900  0.63607900  1
  Ca  Ca11  1  0.12500000  0.98892100  0.36392100  1
  Al  Al12  1  0.90899000  0.15939100  0.78467300  1
  Al  Al13  1  0.37471900  0.12431700  0.21532700  1
  Al  Al14  1  0.34101000  0.62568300  0.75040200  1
  Al  Al15  1  0.87528100  0.59060900  0.24959800  1
  Al  Al16  1  0.37431700  0.12471900  0.71532700  1
  Al  Al17  1  0.40939100  0.65899000  0.28467300  1
  Al  Al18  1  0.84060900  0.62528100  0.74959800  1
  Al  Al19  1  0.87568300  0.09101000  0.25040200  1
  Al  Al20  1  0.00000000  0.00000000  0.00000000  1
  Al  Al21  1  0.25000000  0.75000000  0.50000000  1
  Al  Al22  1  0.49925900  0.87500000  0.12425900  1
  Al  Al23  1  0.75074100  0.37500000  0.87574100  1
  Al  Al24  1  0.12500000  0.24925900  0.62425900  1
  Al  Al25  1  0.62500000  0.50074100  0.37574100  1
  Cl  Cl26  1  0.50000000  0.50000000  0.00000000  1
  Cl  Cl27  1  0.75000000  0.25000000  0.50000000  1
  O  O28  1  0.74463300  0.98859000  0.62237300  1
  O  O29  1  0.36621700  0.12226000  0.37762700  1
  O  O30  1  0.50536700  0.62774000  0.74395700  1
  O  O31  1  0.88378300  0.76141000  0.25604300  1
  O  O32  1  0.37226000  0.11621700  0.87762700  1
  O  O33  1  0.23859000  0.49463300  0.12237300  1
  O  O34  1  0.01141000  0.63378300  0.75604300  1
  O  O35  1  0.87774000  0.25536700  0.24395700  1
  O  O36  1  0.07943400  0.23748100  0.76867400  1
  O  O37  1  0.46880700  0.31076000  0.23132600  1
  O  O38  1  0.17056600  0.43924000  0.65804700  1
  O  O39  1  0.78119300  0.51251900  0.34195300  1
  O  O40  1  0.56076000  0.21880700  0.73132600  1
  O  O41  1  0.48748100  0.82943400  0.26867400  1
  O  O42  1  0.76251900  0.53119300  0.84195300  1
  O  O43  1  0.68924000  0.92056600  0.15804700  1
  O  O44  1  0.18956600  0.03343300  0.04491200  1
  O  O45  1  0.26148000  0.71656700  0.65613300  1
  O  O46  1  0.98852000  0.14465400  0.95508800  1
  O  O47  1  0.06043400  0.60534600  0.34386700  1
  O  O48  1  0.66826700  0.53832700  0.56607800  1
  O  O49  1  0.27775100  0.21167300  0.62993900  1
  O  O50  1  0.58173300  0.64781100  0.37006100  1
  O  O51  1  0.97224900  0.10218900  0.43392200  1
  O  O52  1  0.35218900  0.72224900  0.93392200  1
  O  O53  1  0.89781100  0.33173300  0.87006100  1
  O  O54  1  0.46167300  0.02775100  0.12993900  1
  O  O55  1  0.78832700  0.41826700  0.06607800  1
  O  O56  1  0.39465400  0.73852000  0.45508800  1
  O  O57  1  0.85534600  0.81043400  0.84386700  1
  O  O58  1  0.28343300  0.93956600  0.54491200  1
  O  O59  1  0.96656700  0.01148000  0.15613300  1
