# generated using pymatgen
data_AuI2
_symmetry_space_group_name_H-M   'P 1'
_cell_length_a   4.18808400
_cell_length_b   4.18808400
_cell_length_c   15.64139000
_cell_angle_alpha   90.00000000
_cell_angle_beta   90.00000000
_cell_angle_gamma   90.00000000
_symmetry_Int_Tables_number   1
_chemical_formula_structural   AuI2
_chemical_formula_sum   'Au2 I4'
_cell_volume   274.35072499
_cell_formula_units_Z   2
loop_
 _symmetry_equiv_pos_site_id
 _symmetry_equiv_pos_as_xyz
  1  'x, y, z'
loop_
 _atom_site_type_symbol
 _atom_site_label
 _atom_site_symmetry_multiplicity
 _atom_site_fract_x
 _atom_site_fract_y
 _atom_site_fract_z
 _atom_site_occupancy
  Au  Au0  1  0.00000000  0.00000000  0.75000000  1
  Au  Au1  1  0.00000000  0.00000000  0.25000000  1
  I  I2  1  0.00000000  0.50000000  0.86267300  1
  I  I3  1  0.50000000  0.00000000  0.36267300  1
  I  I4  1  0.50000000  0.00000000  0.63732700  1
  I  I5  1  0.00000000  0.50000000  0.13732700  1
