# generated using pymatgen
data_CePd
_symmetry_space_group_name_H-M   'P 1'
_cell_length_a   5.85275267
_cell_length_b   5.85275267
_cell_length_c   4.51624100
_cell_angle_alpha   90.00000000
_cell_angle_beta   90.00000000
_cell_angle_gamma   141.79507763
_symmetry_Int_Tables_number   1
_chemical_formula_structural   CePd
_chemical_formula_sum   'Ce2 Pd2'
_cell_volume   95.67979570
_cell_formula_units_Z   2
loop_
 _symmetry_equiv_pos_site_id
 _symmetry_equiv_pos_as_xyz
  1  'x, y, z'
loop_
 _atom_site_type_symbol
 _atom_site_label
 _atom_site_symmetry_multiplicity
 _atom_site_fract_x
 _atom_site_fract_y
 _atom_site_fract_z
 _atom_site_occupancy
  Ce  Ce0  1  0.86308500  0.13691500  0.75000000  1
  Ce  Ce1  1  0.13691500  0.86308500  0.25000000  1
  Pd  Pd2  1  0.58954700  0.41045300  0.75000000  1
  Pd  Pd3  1  0.41045300  0.58954700  0.25000000  1
