# generated using pymatgen
data_HfMnGa2
_symmetry_space_group_name_H-M   'P 1'
_cell_length_a   8.43815000
_cell_length_b   9.00788700
_cell_length_c   10.05634400
_cell_angle_alpha   90.00000000
_cell_angle_beta   90.00000000
_cell_angle_gamma   90.00000000
_symmetry_Int_Tables_number   1
_chemical_formula_structural   HfMnGa2
_chemical_formula_sum   'Hf12 Mn12 Ga24'
_cell_volume   764.38171879
_cell_formula_units_Z   12
loop_
 _symmetry_equiv_pos_site_id
 _symmetry_equiv_pos_as_xyz
  1  'x, y, z'
loop_
 _atom_site_type_symbol
 _atom_site_label
 _atom_site_symmetry_multiplicity
 _atom_site_fract_x
 _atom_site_fract_y
 _atom_site_fract_z
 _atom_site_occupancy
  Hf  Hf0  1  0.47364800  0.16885400  0.95048600  1
  Hf  Hf1  1  0.02635200  0.33114600  0.45048600  1
  Hf  Hf2  1  0.97364800  0.83114600  0.04951400  1
  Hf  Hf3  1  0.52635200  0.66885400  0.54951400  1
  Hf  Hf4  1  0.52635200  0.83114600  0.04951400  1
  Hf  Hf5  1  0.97364800  0.66885400  0.54951400  1
  Hf  Hf6  1  0.02635200  0.16885400  0.95048600  1
  Hf  Hf7  1  0.47364800  0.33114600  0.45048600  1
  Hf  Hf8  1  0.25000000  0.16331300  0.67966900  1
  Hf  Hf9  1  0.25000000  0.33668700  0.17966900  1
  Hf  Hf10  1  0.75000000  0.83668700  0.32033100  1
  Hf  Hf11  1  0.75000000  0.66331300  0.82033100  1
  Mn  Mn12  1  0.49993300  0.42186600  0.74996300  1
  Mn  Mn13  1  0.00006700  0.07813400  0.24996300  1
  Mn  Mn14  1  0.99993300  0.57813400  0.25003700  1
  Mn  Mn15  1  0.50006700  0.92186600  0.75003700  1
  Mn  Mn16  1  0.50006700  0.57813400  0.25003700  1
  Mn  Mn17  1  0.99993300  0.92186600  0.75003700  1
  Mn  Mn18  1  0.00006700  0.42186600  0.74996300  1
  Mn  Mn19  1  0.49993300  0.07813400  0.24996300  1
  Mn  Mn20  1  0.00000000  0.00000000  0.50000000  1
  Mn  Mn21  1  0.50000000  0.50000000  0.00000000  1
  Mn  Mn22  1  0.50000000  0.00000000  0.50000000  1
  Mn  Mn23  1  0.00000000  0.50000000  0.00000000  1
  Ga  Ga24  1  0.92058900  0.17321000  0.68034800  1
  Ga  Ga25  1  0.57941100  0.32679000  0.18034800  1
  Ga  Ga26  1  0.42058900  0.82679000  0.31965200  1
  Ga  Ga27  1  0.07941100  0.67321000  0.81965200  1
  Ga  Ga28  1  0.07941100  0.82679000  0.31965200  1
  Ga  Ga29  1  0.42058900  0.67321000  0.81965200  1
  Ga  Ga30  1  0.57941100  0.17321000  0.68034800  1
  Ga  Ga31  1  0.92058900  0.32679000  0.18034800  1
  Ga  Ga32  1  0.25000000  0.56582600  0.38109500  1
  Ga  Ga33  1  0.25000000  0.93417400  0.88109500  1
  Ga  Ga34  1  0.75000000  0.43417400  0.61890500  1
  Ga  Ga35  1  0.75000000  0.06582600  0.11890500  1
  Ga  Ga36  1  0.25000000  0.48695500  0.62760400  1
  Ga  Ga37  1  0.25000000  0.01304500  0.12760400  1
  Ga  Ga38  1  0.75000000  0.51304500  0.37239600  1
  Ga  Ga39  1  0.75000000  0.98695500  0.87239600  1
  Ga  Ga40  1  0.25000000  0.64297400  0.09547200  1
  Ga  Ga41  1  0.25000000  0.85702600  0.59547200  1
  Ga  Ga42  1  0.75000000  0.35702600  0.90452800  1
  Ga  Ga43  1  0.75000000  0.14297400  0.40452800  1
  Ga  Ga44  1  0.25000000  0.38876300  0.89520400  1
  Ga  Ga45  1  0.25000000  0.11123700  0.39520400  1
  Ga  Ga46  1  0.75000000  0.61123700  0.10479600  1
  Ga  Ga47  1  0.75000000  0.88876300  0.60479600  1
