# generated using pymatgen
data_Lu2Al3Co
_symmetry_space_group_name_H-M   'P 1'
_cell_length_a   5.43982866
_cell_length_b   5.43982866
_cell_length_c   8.48856600
_cell_angle_alpha   90.00000000
_cell_angle_beta   90.00000000
_cell_angle_gamma   120.00000800
_symmetry_Int_Tables_number   1
_chemical_formula_structural   Lu2Al3Co
_chemical_formula_sum   'Lu4 Al6 Co2'
_cell_volume   217.53811835
_cell_formula_units_Z   2
loop_
 _symmetry_equiv_pos_site_id
 _symmetry_equiv_pos_as_xyz
  1  'x, y, z'
loop_
 _atom_site_type_symbol
 _atom_site_label
 _atom_site_symmetry_multiplicity
 _atom_site_fract_x
 _atom_site_fract_y
 _atom_site_fract_z
 _atom_site_occupancy
  Lu  Lu0  1  0.66666700  0.33333300  0.94450200  1
  Lu  Lu1  1  0.33333300  0.66666700  0.05549800  1
  Lu  Lu2  1  0.33333300  0.66666700  0.44450200  1
  Lu  Lu3  1  0.66666700  0.33333300  0.55549800  1
  Al  Al4  1  0.32514200  0.16257100  0.25000000  1
  Al  Al5  1  0.83742900  0.16257100  0.25000000  1
  Al  Al6  1  0.83742900  0.67485800  0.25000000  1
  Al  Al7  1  0.16257100  0.32514200  0.75000000  1
  Al  Al8  1  0.16257100  0.83742900  0.75000000  1
  Al  Al9  1  0.67485800  0.83742900  0.75000000  1
  Co  Co10  1  0.00000000  0.00000000  0.00000000  1
  Co  Co11  1  0.00000000  0.00000000  0.50000000  1
