# generated using pymatgen
data_Ba3Co3Te(PO7)2
_symmetry_space_group_name_H-M   'P 1'
_cell_length_a   8.60381503
_cell_length_b   10.14187605
_cell_length_c   10.14159773
_cell_angle_alpha   85.43990362
_cell_angle_beta   115.09907177
_cell_angle_gamma   64.91003854
_symmetry_Int_Tables_number   1
_chemical_formula_structural   Ba3Co3Te(PO7)2
_chemical_formula_sum   'Ba6 Co6 Te2 P4 O28'
_cell_volume   688.51505642
_cell_formula_units_Z   2
loop_
 _symmetry_equiv_pos_site_id
 _symmetry_equiv_pos_as_xyz
  1  'x, y, z'
loop_
 _atom_site_type_symbol
 _atom_site_label
 _atom_site_symmetry_multiplicity
 _atom_site_fract_x
 _atom_site_fract_y
 _atom_site_fract_z
 _atom_site_occupancy
  Ba  Ba0  1  0.43428700  0.00000500  0.00000000  1
  Ba  Ba1  1  0.93429100  0.50000700  0.49999600  1
  Ba  Ba2  1  0.78287900  0.21714700  0.21716900  1
  Ba  Ba3  1  0.28286000  0.71715600  0.71717500  1
  Ba  Ba4  1  0.28281700  0.28285400  0.28281000  1
  Ba  Ba5  1  0.78281400  0.78283100  0.78281400  1
  Co  Co6  1  0.51227100  0.25002200  0.75001100  1
  Co  Co7  1  0.86888100  0.13118700  0.63120500  1
  Co  Co8  1  0.86884500  0.36876600  0.86880500  1
  Co  Co9  1  0.01228500  0.75002400  0.25001500  1
  Co  Co10  1  0.36885400  0.63120500  0.13119200  1
  Co  Co11  1  0.36885100  0.86875100  0.36881700  1
  Te  Te12  1  0.99995700  0.99999300  0.99998200  1
  Te  Te13  1  0.49997100  0.49999800  0.50000700  1
  P  P14  1  0.26887600  0.06443300  0.60214200  1
  P  P15  1  0.76885800  0.56445700  0.10214200  1
  P  P16  1  0.73117400  0.93554800  0.39787100  1
  P  P17  1  0.23117100  0.43555700  0.89786700  1
  O  O18  1  0.12534400  0.20804900  0.45863000  1
  O  O19  1  0.62531800  0.70807800  0.95863400  1
  O  O20  1  0.87474700  0.79193100  0.54138000  1
  O  O21  1  0.37473400  0.29193700  0.04137100  1
  O  O22  1  0.56245200  0.65267000  0.44301200  1
  O  O23  1  0.06241800  0.15267900  0.94298200  1
  O  O24  1  0.23975600  0.66458800  0.45483800  1
  O  O25  1  0.73974500  0.16456900  0.95482900  1
  O  O26  1  0.88325600  0.99729800  0.78755900  1
  O  O27  1  0.38325100  0.49732400  0.28756900  1
  O  O28  1  0.09301700  0.00266100  0.21242500  1
  O  O29  1  0.59300800  0.50267600  0.71243900  1
  O  O30  1  0.44931400  0.33550700  0.54514200  1
  O  O31  1  0.94931900  0.83549600  0.04513400  1
  O  O32  1  0.77208000  0.34730600  0.55701500  1
  O  O33  1  0.27205400  0.84731600  0.05695400  1
  O  O34  1  0.51163600  0.96967400  0.32196700  1
  O  O35  1  0.01163300  0.46966100  0.82192600  1
  O  O36  1  0.78976000  0.91885100  0.27100900  1
  O  O37  1  0.28979000  0.41887200  0.77102000  1
  O  O38  1  0.72701800  0.08327300  0.43556300  1
  O  O39  1  0.22696800  0.58328200  0.93556300  1
  O  O40  1  0.37467600  0.91670700  0.56444400  1
  O  O41  1  0.87469300  0.41674500  0.06442800  1
  O  O42  1  0.43766100  0.08112500  0.72898500  1
  O  O43  1  0.93762400  0.58115000  0.22899600  1
  O  O44  1  0.15940000  0.03032200  0.67809300  1
  O  O45  1  0.65938400  0.53031200  0.17807000  1
