# generated using pymatgen
data_CeGaPt
_symmetry_space_group_name_H-M   'P 1'
_cell_length_a   4.42920100
_cell_length_b   7.08650000
_cell_length_c   7.88168000
_cell_angle_alpha   90.00000000
_cell_angle_beta   90.00000000
_cell_angle_gamma   90.00000000
_symmetry_Int_Tables_number   1
_chemical_formula_structural   CeGaPt
_chemical_formula_sum   'Ce4 Ga4 Pt4'
_cell_volume   247.38649020
_cell_formula_units_Z   4
loop_
 _symmetry_equiv_pos_site_id
 _symmetry_equiv_pos_as_xyz
  1  'x, y, z'
loop_
 _atom_site_type_symbol
 _atom_site_label
 _atom_site_symmetry_multiplicity
 _atom_site_fract_x
 _atom_site_fract_y
 _atom_site_fract_z
 _atom_site_occupancy
  Ce  Ce0  1  0.25000000  0.98395800  0.29981100  1
  Ce  Ce1  1  0.25000000  0.48395800  0.20018900  1
  Ce  Ce2  1  0.75000000  0.01604200  0.70018900  1
  Ce  Ce3  1  0.75000000  0.51604200  0.79981100  1
  Ga  Ga4  1  0.25000000  0.32850700  0.57676100  1
  Ga  Ga5  1  0.25000000  0.82850700  0.92323900  1
  Ga  Ga6  1  0.75000000  0.67149300  0.42323900  1
  Ga  Ga7  1  0.75000000  0.17149300  0.07676100  1
  Pt  Pt8  1  0.25000000  0.22342400  0.90404200  1
  Pt  Pt9  1  0.25000000  0.72342400  0.59595800  1
  Pt  Pt10  1  0.75000000  0.77657600  0.09595800  1
  Pt  Pt11  1  0.75000000  0.27657600  0.40404200  1
