# generated using pymatgen
data_Rb2Cd3S4
_symmetry_space_group_name_H-M   'P 1'
_cell_length_a   6.72472900
_cell_length_b   10.76183900
_cell_length_c   14.46681600
_cell_angle_alpha   90.00000000
_cell_angle_beta   90.00000000
_cell_angle_gamma   90.00000000
_symmetry_Int_Tables_number   1
_chemical_formula_structural   Rb2Cd3S4
_chemical_formula_sum   'Rb8 Cd12 S16'
_cell_volume   1046.96999580
_cell_formula_units_Z   4
loop_
 _symmetry_equiv_pos_site_id
 _symmetry_equiv_pos_as_xyz
  1  'x, y, z'
loop_
 _atom_site_type_symbol
 _atom_site_label
 _atom_site_symmetry_multiplicity
 _atom_site_fract_x
 _atom_site_fract_y
 _atom_site_fract_z
 _atom_site_occupancy
  Rb  Rb0  1  0.02147800  0.75000000  0.46568400  1
  Rb  Rb1  1  0.52147800  0.25000000  0.03431600  1
  Rb  Rb2  1  0.97852200  0.25000000  0.53431600  1
  Rb  Rb3  1  0.47852200  0.75000000  0.96568400  1
  Rb  Rb4  1  0.00000000  0.00000000  0.00000000  1
  Rb  Rb5  1  0.50000000  0.50000000  0.50000000  1
  Rb  Rb6  1  0.00000000  0.50000000  0.00000000  1
  Rb  Rb7  1  0.50000000  0.00000000  0.50000000  1
  Cd  Cd8  1  0.32252500  0.90605700  0.25294700  1
  Cd  Cd9  1  0.82252500  0.09394300  0.24705300  1
  Cd  Cd10  1  0.67747500  0.40605700  0.74705300  1
  Cd  Cd11  1  0.17747500  0.59394300  0.75294700  1
  Cd  Cd12  1  0.67747500  0.09394300  0.74705300  1
  Cd  Cd13  1  0.17747500  0.90605700  0.75294700  1
  Cd  Cd14  1  0.32252500  0.59394300  0.25294700  1
  Cd  Cd15  1  0.82252500  0.40605700  0.24705300  1
  Cd  Cd16  1  0.74051700  0.75000000  0.70728400  1
  Cd  Cd17  1  0.24051700  0.25000000  0.79271600  1
  Cd  Cd18  1  0.25948300  0.25000000  0.29271600  1
  Cd  Cd19  1  0.75948300  0.75000000  0.20728400  1
  S  S20  1  0.60805200  0.96204100  0.14136300  1
  S  S21  1  0.10805200  0.03795900  0.35863700  1
  S  S22  1  0.39194800  0.46204100  0.85863700  1
  S  S23  1  0.89194800  0.53795900  0.64136300  1
  S  S24  1  0.39194800  0.03795900  0.85863700  1
  S  S25  1  0.89194800  0.96204100  0.64136300  1
  S  S26  1  0.60805200  0.53795900  0.14136300  1
  S  S27  1  0.10805200  0.46204100  0.35863700  1
  S  S28  1  0.95602000  0.75000000  0.85595000  1
  S  S29  1  0.45602000  0.25000000  0.64405000  1
  S  S30  1  0.04398000  0.25000000  0.14405000  1
  S  S31  1  0.54398000  0.75000000  0.35595000  1
  S  S32  1  0.88347200  0.25000000  0.84605900  1
  S  S33  1  0.61652800  0.25000000  0.34605900  1
  S  S34  1  0.11652800  0.75000000  0.15394100  1
  S  S35  1  0.38347200  0.75000000  0.65394100  1
