# generated using pymatgen
data_Yb4(Al8Pt3)3
_symmetry_space_group_name_H-M   'P 1'
_cell_length_a   7.47038200
_cell_length_b   7.48450389
_cell_length_c   13.41733426
_cell_angle_alpha   84.70392299
_cell_angle_beta   100.86178677
_cell_angle_gamma   119.70514399
_symmetry_Int_Tables_number   1
_chemical_formula_structural   Yb4(Al8Pt3)3
_chemical_formula_sum   'Yb4 Al24 Pt9'
_cell_volume   639.93220587
_cell_formula_units_Z   1
loop_
 _symmetry_equiv_pos_site_id
 _symmetry_equiv_pos_as_xyz
  1  'x, y, z'
loop_
 _atom_site_type_symbol
 _atom_site_label
 _atom_site_symmetry_multiplicity
 _atom_site_fract_x
 _atom_site_fract_y
 _atom_site_fract_z
 _atom_site_occupancy
  Yb  Yb0  1  0.43753400  0.83093400  0.80835200  1
  Yb  Yb1  1  0.56246600  0.16906600  0.19164800  1
  Yb  Yb2  1  0.76686700  0.50056300  0.80832700  1
  Yb  Yb3  1  0.23313300  0.49943700  0.19167300  1
  Al  Al4  1  0.48031000  0.16620400  0.94664600  1
  Al  Al5  1  0.51969000  0.83379600  0.05335400  1
  Al  Al6  1  0.01973300  0.16830100  0.55830800  1
  Al  Al7  1  0.98026700  0.83169900  0.44169200  1
  Al  Al8  1  0.35317300  0.83313500  0.55681200  1
  Al  Al9  1  0.64682700  0.16686500  0.44318800  1
  Al  Al10  1  0.61882100  0.83529100  0.32841400  1
  Al  Al11  1  0.38117900  0.16470900  0.67158600  1
  Al  Al12  1  0.05636100  0.49209300  0.67137900  1
  Al  Al13  1  0.94363900  0.50790700  0.32862100  1
  Al  Al14  1  0.73316400  0.84220800  0.67054100  1
  Al  Al15  1  0.26683600  0.15779200  0.32945900  1
  Al  Al16  1  0.14839000  0.49959700  0.94708600  1
  Al  Al17  1  0.85161000  0.50040300  0.05291400  1
  Al  Al18  1  0.81789900  0.83271600  0.95417700  1
  Al  Al19  1  0.18210100  0.16728400  0.04582300  1
  Al  Al20  1  0.31652500  0.50153600  0.44311800  1
  Al  Al21  1  0.68347500  0.49846400  0.55688200  1
  Al  Al22  1  0.10266800  0.83589600  0.18204200  1
  Al  Al23  1  0.89733200  0.16410400  0.81795800  1
  Al  Al24  1  0.30820700  0.36998200  0.81656300  1
  Al  Al25  1  0.69179300  0.63001800  0.18343700  1
  Al  Al26  1  0.10280300  0.95731700  0.81707800  1
  Al  Al27  1  0.89719700  0.04268300  0.18292200  1
  Pt  Pt28  1  0.38702600  0.50757500  0.63736600  1
  Pt  Pt29  1  0.61297400  0.49242500  0.36263400  1
  Pt  Pt30  1  0.17177100  0.82917400  0.99997000  1
  Pt  Pt31  1  0.82822900  0.17082600  0.00003000  1
  Pt  Pt32  1  0.29549900  0.83286800  0.36290700  1
  Pt  Pt33  1  0.70450100  0.16713200  0.63709300  1
  Pt  Pt34  1  0.04581800  0.82561300  0.63548400  1
  Pt  Pt35  1  0.95418200  0.17438700  0.36451600  1
  Pt  Pt36  1  0.50000000  0.50000000  0.00000000  1
