# generated using pymatgen
data_CsScI3
_symmetry_space_group_name_H-M   'P 1'
_cell_length_a   6.69471800
_cell_length_b   8.58680675
_cell_length_c   8.58680675
_cell_angle_alpha   120.00000578
_cell_angle_beta   90.00000000
_cell_angle_gamma   90.00000000
_symmetry_Int_Tables_number   1
_chemical_formula_structural   CsScI3
_chemical_formula_sum   'Cs2 Sc2 I6'
_cell_volume   427.49030761
_cell_formula_units_Z   2
loop_
 _symmetry_equiv_pos_site_id
 _symmetry_equiv_pos_as_xyz
  1  'x, y, z'
loop_
 _atom_site_type_symbol
 _atom_site_label
 _atom_site_symmetry_multiplicity
 _atom_site_fract_x
 _atom_site_fract_y
 _atom_site_fract_z
 _atom_site_occupancy
  Cs  Cs0  1  0.25000000  0.66666700  0.33333300  1
  Cs  Cs1  1  0.75000000  0.33333300  0.66666700  1
  Sc  Sc2  1  0.00000000  0.00000000  0.00000000  1
  Sc  Sc3  1  0.50000000  0.00000000  0.00000000  1
  I  I4  1  0.75000000  0.83451800  0.16548200  1
  I  I5  1  0.25000000  0.16548200  0.83451800  1
  I  I6  1  0.75000000  0.33096400  0.16548200  1
  I  I7  1  0.25000000  0.66903600  0.83451800  1
  I  I8  1  0.75000000  0.83451800  0.66903600  1
  I  I9  1  0.25000000  0.16548200  0.33096400  1
