# generated using pymatgen
data_CsIn(PO3)4
_symmetry_space_group_name_H-M   'P 1'
_cell_length_a   15.19213536
_cell_length_b   15.19213536
_cell_length_c   15.19213536
_cell_angle_alpha   90.00000000
_cell_angle_beta   90.00000000
_cell_angle_gamma   90.00000000
_symmetry_Int_Tables_number   1
_chemical_formula_structural   CsIn(PO3)4
_chemical_formula_sum   'Cs12 In12 P48 O144'
_cell_volume   3506.35968071
_cell_formula_units_Z   12
loop_
 _symmetry_equiv_pos_site_id
 _symmetry_equiv_pos_as_xyz
  1  'x, y, z'
loop_
 _atom_site_type_symbol
 _atom_site_label
 _atom_site_symmetry_multiplicity
 _atom_site_fract_x
 _atom_site_fract_y
 _atom_site_fract_z
 _atom_site_occupancy
  O  O0  1  0.00496103  0.32387381  0.32080525  1
  O  O1  1  0.32080525  0.00496103  0.32387381  1
  O  O2  1  0.32387381  0.32080525  0.00496103  1
  O  O3  1  0.17612619  0.67919475  0.50496103  1
  O  O4  1  0.82080525  0.49503897  0.67612619  1
  O  O5  1  0.67612619  0.82080525  0.49503897  1
  O  O6  1  0.17919475  0.99503897  0.82387381  1
  O  O7  1  0.67919475  0.50496103  0.17612619  1
  O  O8  1  0.82387381  0.17919475  0.99503897  1
  O  O9  1  0.50496103  0.17612619  0.67919475  1
  O  O10  1  0.99503897  0.82387381  0.17919475  1
  O  O11  1  0.49503897  0.67612619  0.82080525  1
  O  O12  1  0.99503897  0.67612619  0.67919475  1
  O  O13  1  0.67919475  0.99503897  0.67612619  1
  O  O14  1  0.67612619  0.67919475  0.99503897  1
  O  O15  1  0.82387381  0.32080525  0.49503897  1
  O  O16  1  0.17919475  0.50496103  0.32387381  1
  O  O17  1  0.32387381  0.17919475  0.50496103  1
  O  O18  1  0.82080525  0.00496103  0.17612619  1
  O  O19  1  0.32080525  0.49503897  0.82387381  1
  O  O20  1  0.17612619  0.82080525  0.00496103  1
  O  O21  1  0.49503897  0.82387381  0.32080525  1
  O  O22  1  0.00496103  0.17612619  0.82080525  1
  O  O23  1  0.50496103  0.32387381  0.17919475  1
  O  O24  1  0.94314317  0.22212663  0.43875288  1
  O  O25  1  0.43875288  0.94314317  0.22212663  1
  O  O26  1  0.22212663  0.43875288  0.94314317  1
  O  O27  1  0.27787337  0.56124712  0.44314317  1
  O  O28  1  0.93875288  0.55685683  0.77787337  1
  O  O29  1  0.77787337  0.93875288  0.55685683  1
  O  O30  1  0.06124712  0.05685683  0.72212663  1
  O  O31  1  0.56124712  0.44314317  0.27787337  1
  O  O32  1  0.72212663  0.06124712  0.05685683  1
  O  O33  1  0.44314317  0.27787337  0.56124712  1
  O  O34  1  0.05685683  0.72212663  0.06124712  1
  O  O35  1  0.55685683  0.77787337  0.93875288  1
  O  O36  1  0.05685683  0.77787337  0.56124712  1
  O  O37  1  0.56124712  0.05685683  0.77787337  1
  O  O38  1  0.77787337  0.56124712  0.05685683  1
  O  O39  1  0.72212663  0.43875288  0.55685683  1
  O  O40  1  0.06124712  0.44314317  0.22212663  1
  O  O41  1  0.22212663  0.06124712  0.44314317  1
  O  O42  1  0.93875288  0.94314317  0.27787337  1
  O  O43  1  0.43875288  0.55685683  0.72212663  1
  O  O44  1  0.27787337  0.93875288  0.94314317  1
  O  O45  1  0.55685683  0.72212663  0.43875288  1
  O  O46  1  0.94314317  0.27787337  0.93875288  1
  O  O47  1  0.44314317  0.22212663  0.06124712  1
  O  O48  1  0.01158687  0.15700396  0.30352046  1
  O  O49  1  0.30352046  0.01158687  0.15700396  1
  O  O50  1  0.15700396  0.30352046  0.01158687  1
  O  O51  1  0.34299604  0.69647954  0.51158687  1
  O  O52  1  0.80352046  0.48841313  0.84299604  1
  O  O53  1  0.84299604  0.80352046  0.48841313  1
  O  O54  1  0.19647954  0.98841313  0.65700396  1
  O  O55  1  0.69647954  0.51158687  0.34299604  1
  O  O56  1  0.65700396  0.19647954  0.98841313  1
  O  O57  1  0.51158687  0.34299604  0.69647954  1
  O  O58  1  0.98841313  0.65700396  0.19647954  1
  O  O59  1  0.48841313  0.84299604  0.80352046  1
  O  O60  1  0.98841313  0.84299604  0.69647954  1
  O  O61  1  0.69647954  0.98841313  0.84299604  1
  O  O62  1  0.84299604  0.69647954  0.98841313  1
  O  O63  1  0.65700396  0.30352046  0.48841313  1
  O  O64  1  0.19647954  0.51158687  0.15700396  1
  O  O65  1  0.15700396  0.19647954  0.51158687  1
  O  O66  1  0.80352046  0.01158687  0.34299604  1
  O  O67  1  0.30352046  0.48841313  0.65700396  1
  O  O68  1  0.34299604  0.80352046  0.01158687  1
  O  O69  1  0.48841313  0.65700396  0.30352046  1
  O  O70  1  0.01158687  0.34299604  0.80352046  1
  O  O71  1  0.51158687  0.15700396  0.19647954  1
  O  O72  1  0.86109107  0.24049369  0.29621157  1
  O  O73  1  0.29621157  0.86109107  0.24049369  1
  O  O74  1  0.24049369  0.29621157  0.86109107  1
  O  O75  1  0.25950631  0.70378843  0.36109107  1
  O  O76  1  0.79621157  0.63890893  0.75950631  1
  O  O77  1  0.75950631  0.79621157  0.63890893  1
  O  O78  1  0.20378843  0.13890893  0.74049369  1
  O  O79  1  0.70378843  0.36109107  0.25950631  1
  O  O80  1  0.74049369  0.20378843  0.13890893  1
  O  O81  1  0.36109107  0.25950631  0.70378843  1
  O  O82  1  0.13890893  0.74049369  0.20378843  1
  O  O83  1  0.63890893  0.75950631  0.79621157  1
  O  O84  1  0.13890893  0.75950631  0.70378843  1
  O  O85  1  0.70378843  0.13890893  0.75950631  1
  O  O86  1  0.75950631  0.70378843  0.13890893  1
  O  O87  1  0.74049369  0.29621157  0.63890893  1
  O  O88  1  0.20378843  0.36109107  0.24049369  1
  O  O89  1  0.24049369  0.20378843  0.36109107  1
  O  O90  1  0.79621157  0.86109107  0.25950631  1
  O  O91  1  0.29621157  0.63890893  0.74049369  1
  O  O92  1  0.25950631  0.79621157  0.86109107  1
  O  O93  1  0.63890893  0.74049369  0.29621157  1
  O  O94  1  0.86109107  0.25950631  0.79621157  1
  O  O95  1  0.36109107  0.24049369  0.20378843  1
  O  O96  1  0.97823014  0.48439228  0.36135208  1
  O  O97  1  0.36135208  0.97823014  0.48439228  1
  O  O98  1  0.48439228  0.36135208  0.97823014  1
  O  O99  1  0.01560772  0.63864792  0.47823014  1
  O  O100  1  0.86135208  0.52176986  0.51560772  1
  O  O101  1  0.51560772  0.86135208  0.52176986  1
  O  O102  1  0.13864792  0.02176986  0.98439228  1
  O  O103  1  0.63864792  0.47823014  0.01560772  1
  O  O104  1  0.98439228  0.13864792  0.02176986  1
  O  O105  1  0.47823014  0.01560772  0.63864792  1
  O  O106  1  0.02176986  0.98439228  0.13864792  1
  O  O107  1  0.52176986  0.51560772  0.86135208  1
  O  O108  1  0.02176986  0.51560772  0.63864792  1
  O  O109  1  0.63864792  0.02176986  0.51560772  1
  O  O110  1  0.51560772  0.63864792  0.02176986  1
  O  O111  1  0.98439228  0.36135208  0.52176986  1
  O  O112  1  0.13864792  0.47823014  0.48439228  1
  O  O113  1  0.48439228  0.13864792  0.47823014  1
  O  O114  1  0.86135208  0.97823014  0.01560772  1
  O  O115  1  0.36135208  0.52176986  0.98439228  1
  O  O116  1  0.01560772  0.86135208  0.97823014  1
  O  O117  1  0.52176986  0.98439228  0.36135208  1
  O  O118  1  0.97823014  0.01560772  0.86135208  1
  O  O119  1  0.47823014  0.48439228  0.13864792  1
  O  O120  1  0.89990286  0.42067757  0.22812078  1
  O  O121  1  0.22812078  0.89990286  0.42067757  1
  O  O122  1  0.42067757  0.22812078  0.89990286  1
  O  O123  1  0.07932243  0.77187922  0.39990286  1
  O  O124  1  0.72812078  0.60009714  0.57932243  1
  O  O125  1  0.57932243  0.72812078  0.60009714  1
  O  O126  1  0.27187922  0.10009714  0.92067757  1
  O  O127  1  0.77187922  0.39990286  0.07932243  1
  O  O128  1  0.92067757  0.27187922  0.10009714  1
  O  O129  1  0.39990286  0.07932243  0.77187922  1
  O  O130  1  0.10009714  0.92067757  0.27187922  1
  O  O131  1  0.60009714  0.57932243  0.72812078  1
  O  O132  1  0.10009714  0.57932243  0.77187922  1
  O  O133  1  0.77187922  0.10009714  0.57932243  1
  O  O134  1  0.57932243  0.77187922  0.10009714  1
  O  O135  1  0.92067757  0.22812078  0.60009714  1
  O  O136  1  0.27187922  0.39990286  0.42067757  1
  O  O137  1  0.42067757  0.27187922  0.39990286  1
  O  O138  1  0.72812078  0.89990286  0.07932243  1
  O  O139  1  0.22812078  0.60009714  0.92067757  1
  O  O140  1  0.07932243  0.72812078  0.89990286  1
  O  O141  1  0.60009714  0.92067757  0.22812078  1
  O  O142  1  0.89990286  0.07932243  0.72812078  1
  O  O143  1  0.39990286  0.42067757  0.27187922  1
  P  P144  1  0.95384936  0.22948146  0.33224726  1
  P  P145  1  0.33224726  0.95384936  0.22948146  1
  P  P146  1  0.22948146  0.33224726  0.95384936  1
  P  P147  1  0.27051854  0.66775274  0.45384936  1
  P  P148  1  0.83224726  0.54615064  0.77051854  1
  P  P149  1  0.77051854  0.83224726  0.54615064  1
  P  P150  1  0.16775274  0.04615064  0.72948146  1
  P  P151  1  0.66775274  0.45384936  0.27051854  1
  P  P152  1  0.72948146  0.16775274  0.04615064  1
  P  P153  1  0.45384936  0.27051854  0.66775274  1
  P  P154  1  0.04615064  0.72948146  0.16775274  1
  P  P155  1  0.54615064  0.77051854  0.83224726  1
  P  P156  1  0.04615064  0.77051854  0.66775274  1
  P  P157  1  0.66775274  0.04615064  0.77051854  1
  P  P158  1  0.77051854  0.66775274  0.04615064  1
  P  P159  1  0.72948146  0.33224726  0.54615064  1
  P  P160  1  0.16775274  0.45384936  0.22948146  1
  P  P161  1  0.22948146  0.16775274  0.45384936  1
  P  P162  1  0.83224726  0.95384936  0.27051854  1
  P  P163  1  0.33224726  0.54615064  0.72948146  1
  P  P164  1  0.27051854  0.83224726  0.95384936  1
  P  P165  1  0.54615064  0.72948146  0.33224726  1
  P  P166  1  0.95384936  0.27051854  0.83224726  1
  P  P167  1  0.45384936  0.22948146  0.16775274  1
  P  P168  1  0.98070194  0.42047829  0.28571332  1
  P  P169  1  0.28571332  0.98070194  0.42047829  1
  P  P170  1  0.42047829  0.28571332  0.98070194  1
  P  P171  1  0.07952171  0.71428668  0.48070194  1
  P  P172  1  0.78571332  0.51929806  0.57952171  1
  P  P173  1  0.57952171  0.78571332  0.51929806  1
  P  P174  1  0.21428668  0.01929806  0.92047829  1
  P  P175  1  0.71428668  0.48070194  0.07952171  1
  P  P176  1  0.92047829  0.21428668  0.01929806  1
  P  P177  1  0.48070194  0.07952171  0.71428668  1
  P  P178  1  0.01929806  0.92047829  0.21428668  1
  P  P179  1  0.51929806  0.57952171  0.78571332  1
  P  P180  1  0.01929806  0.57952171  0.71428668  1
  P  P181  1  0.71428668  0.01929806  0.57952171  1
  P  P182  1  0.57952171  0.71428668  0.01929806  1
  P  P183  1  0.92047829  0.28571332  0.51929806  1
  P  P184  1  0.21428668  0.48070194  0.42047829  1
  P  P185  1  0.42047829  0.21428668  0.48070194  1
  P  P186  1  0.78571332  0.98070194  0.07952171  1
  P  P187  1  0.28571332  0.51929806  0.92047829  1
  P  P188  1  0.07952171  0.78571332  0.98070194  1
  P  P189  1  0.51929806  0.92047829  0.28571332  1
  P  P190  1  0.98070194  0.07952171  0.78571332  1
  P  P191  1  0.48070194  0.42047829  0.21428668  1
  In  In192  1  0.81457505  0.31457505  0.18542495  1
  In  In193  1  0.18542495  0.81457505  0.31457505  1
  In  In194  1  0.31457505  0.18542495  0.81457505  1
  In  In195  1  0.68542495  0.68542495  0.68542495  1
  In  In196  1  0.18542495  0.68542495  0.81457505  1
  In  In197  1  0.81457505  0.18542495  0.68542495  1
  In  In198  1  0.68542495  0.81457505  0.18542495  1
  In  In199  1  0.31457505  0.31457505  0.31457505  1
  In  In200  1  0.00000000  0.00000000  0.00000000  1
  In  In201  1  0.50000000  0.00000000  0.50000000  1
  In  In202  1  0.50000000  0.50000000  0.00000000  1
  In  In203  1  0.00000000  0.50000000  0.50000000  1
  Cs  Cs204  1  0.15908765  0.15908765  0.15908765  1
  Cs  Cs205  1  0.34091235  0.84091235  0.65908765  1
  Cs  Cs206  1  0.65908765  0.34091235  0.84091235  1
  Cs  Cs207  1  0.84091235  0.65908765  0.34091235  1
  Cs  Cs208  1  0.84091235  0.84091235  0.84091235  1
  Cs  Cs209  1  0.65908765  0.15908765  0.34091235  1
  Cs  Cs210  1  0.34091235  0.65908765  0.15908765  1
  Cs  Cs211  1  0.15908765  0.34091235  0.65908765  1
  Cs  Cs212  1  0.00000000  0.50000000  0.00000000  1
  Cs  Cs213  1  0.00000000  0.00000000  0.50000000  1
  Cs  Cs214  1  0.50000000  0.00000000  0.00000000  1
  Cs  Cs215  1  0.50000000  0.50000000  0.50000000  1
