# generated using pymatgen
data_Lu2AlCo3
_symmetry_space_group_name_H-M   'P 1'
_cell_length_a   4.89751382
_cell_length_b   4.89751382
_cell_length_c   4.89751483
_cell_angle_alpha   64.80220908
_cell_angle_beta   64.80220908
_cell_angle_gamma   64.80221324
_symmetry_Int_Tables_number   1
_chemical_formula_structural   Lu2AlCo3
_chemical_formula_sum   'Lu2 Al1 Co3'
_cell_volume   91.78947645
_cell_formula_units_Z   1
loop_
 _symmetry_equiv_pos_site_id
 _symmetry_equiv_pos_as_xyz
  1  'x, y, z'
loop_
 _atom_site_type_symbol
 _atom_site_label
 _atom_site_symmetry_multiplicity
 _atom_site_fract_x
 _atom_site_fract_y
 _atom_site_fract_z
 _atom_site_occupancy
  Lu  Lu0  1  0.62873800  0.62873800  0.62873800  1
  Lu  Lu1  1  0.37126200  0.37126200  0.37126200  1
  Al  Al2  1  0.00000000  0.00000000  0.00000000  1
  Co  Co3  1  0.00000000  0.50000000  0.00000000  1
  Co  Co4  1  0.50000000  0.00000000  0.00000000  1
  Co  Co5  1  0.00000000  0.00000000  0.50000000  1
