# generated using pymatgen
data_Ca2B3H4ClO8
_symmetry_space_group_name_H-M   'P 1'
_cell_length_a   7.32214100
_cell_length_b   8.13790853
_cell_length_c   12.72034401
_cell_angle_alpha   87.69264198
_cell_angle_beta   90.00000000
_cell_angle_gamma   90.00000000
_symmetry_Int_Tables_number   1
_chemical_formula_structural   Ca2B3H4ClO8
_chemical_formula_sum   'Ca8 B12 H16 Cl4 O32'
_cell_volume   757.35150728
_cell_formula_units_Z   4
loop_
 _symmetry_equiv_pos_site_id
 _symmetry_equiv_pos_as_xyz
  1  'x, y, z'
loop_
 _atom_site_type_symbol
 _atom_site_label
 _atom_site_symmetry_multiplicity
 _atom_site_fract_x
 _atom_site_fract_y
 _atom_site_fract_z
 _atom_site_occupancy
  Ca  Ca0  1  0.34171600  0.09694100  0.73863500  1
  Ca  Ca1  1  0.84171600  0.90305900  0.76136500  1
  Ca  Ca2  1  0.65828400  0.90305900  0.26136500  1
  Ca  Ca3  1  0.15828400  0.09694100  0.23863500  1
  Ca  Ca4  1  0.14415200  0.51891900  0.79970600  1
  Ca  Ca5  1  0.64415200  0.48108100  0.70029400  1
  Ca  Ca6  1  0.85584800  0.48108100  0.20029400  1
  Ca  Ca7  1  0.35584800  0.51891900  0.29970600  1
  B  B8  1  0.50126600  0.79205600  0.88941500  1
  B  B9  1  0.00126600  0.20794400  0.61058500  1
  B  B10  1  0.49873400  0.20794400  0.11058500  1
  B  B11  1  0.99873400  0.79205600  0.38941500  1
  B  B12  1  0.27718500  0.39664500  0.58799700  1
  B  B13  1  0.77718500  0.60335500  0.91200300  1
  B  B14  1  0.72281500  0.60335500  0.41200300  1
  B  B15  1  0.22281500  0.39664500  0.08799700  1
  B  B16  1  0.40786900  0.32663000  0.93126100  1
  B  B17  1  0.90786900  0.67337000  0.56873900  1
  B  B18  1  0.59213100  0.67337000  0.06873900  1
  B  B19  1  0.09213100  0.32663000  0.43126100  1
  H  H20  1  0.46198300  0.22860900  0.53425900  1
  H  H21  1  0.96198300  0.77139100  0.96574100  1
  H  H22  1  0.53801700  0.77139100  0.46574100  1
  H  H23  1  0.03801700  0.22860900  0.03425900  1
  H  H24  1  0.07109100  0.95964700  0.58074000  1
  H  H25  1  0.57109100  0.04035300  0.91926000  1
  H  H26  1  0.92890900  0.04035300  0.41926000  1
  H  H27  1  0.42890900  0.95964700  0.08074000  1
  H  H28  1  0.22922900  0.82967100  0.87771200  1
  H  H29  1  0.72922900  0.17032900  0.62228800  1
  H  H30  1  0.77077100  0.17032900  0.12228800  1
  H  H31  1  0.27077100  0.82967100  0.37771200  1
  H  H32  1  0.28924800  0.64864200  0.59502000  1
  H  H33  1  0.78924800  0.35135800  0.90498000  1
  H  H34  1  0.71075200  0.35135800  0.40498000  1
  H  H35  1  0.21075200  0.64864200  0.09502000  1
  Cl  Cl36  1  0.06756100  0.09019200  0.88756200  1
  Cl  Cl37  1  0.56756100  0.90980800  0.61243800  1
  Cl  Cl38  1  0.93243900  0.90980800  0.11243800  1
  Cl  Cl39  1  0.43243900  0.09019200  0.38756200  1
  O  O40  1  0.44425200  0.28805800  0.59960200  1
  O  O41  1  0.94425300  0.71194200  0.90039800  1
  O  O42  1  0.55574700  0.71194200  0.40039800  1
  O  O43  1  0.05574700  0.28805800  0.09960200  1
  O  O44  1  0.42378300  0.33764800  0.82477300  1
  O  O45  1  0.92378300  0.66235200  0.67522700  1
  O  O46  1  0.57621700  0.66235200  0.17522700  1
  O  O47  1  0.07621700  0.33764800  0.32477300  1
  O  O48  1  0.33281800  0.55298200  0.63655400  1
  O  O49  1  0.83281800  0.44701800  0.86344600  1
  O  O50  1  0.66718200  0.44701800  0.36344600  1
  O  O51  1  0.16718200  0.55298200  0.13655400  1
  O  O52  1  0.32023900  0.77033600  0.83773600  1
  O  O53  1  0.82023900  0.22966400  0.66226400  1
  O  O54  1  0.67976100  0.22966400  0.16226400  1
  O  O55  1  0.17976100  0.77033600  0.33773600  1
  O  O56  1  0.27227500  0.42161100  0.97785600  1
  O  O57  1  0.77227500  0.57838900  0.52214400  1
  O  O58  1  0.72772500  0.57838900  0.02214400  1
  O  O59  1  0.22772500  0.42161100  0.47785600  1
  O  O60  1  0.13052900  0.32324700  0.65408900  1
  O  O61  1  0.63052900  0.67675300  0.84591100  1
  O  O62  1  0.86947100  0.67675300  0.34591100  1
  O  O63  1  0.36947100  0.32324700  0.15408900  1
  O  O64  1  0.06741000  0.03351200  0.64026700  1
  O  O65  1  0.56741000  0.96648800  0.85973300  1
  O  O66  1  0.93259000  0.96648800  0.35973300  1
  O  O67  1  0.43259000  0.03351200  0.14026700  1
  O  O68  1  0.48358100  0.77711700  0.00522200  1
  O  O69  1  0.98358100  0.22288300  0.49477800  1
  O  O70  1  0.51641900  0.22288300  0.99477800  1
  O  O71  1  0.01641900  0.77711700  0.50522200  1
