# generated using pymatgen
data_CoNiO3
_symmetry_space_group_name_H-M   'P 1'
_cell_length_a   5.34137200
_cell_length_b   5.34138171
_cell_length_c   5.34136541
_cell_angle_alpha   54.97786474
_cell_angle_beta   54.97772178
_cell_angle_gamma   54.97726950
_symmetry_Int_Tables_number   1
_chemical_formula_structural   CoNiO3
_chemical_formula_sum   'Co2 Ni2 O6'
_cell_volume   95.16344244
_cell_formula_units_Z   2
loop_
 _symmetry_equiv_pos_site_id
 _symmetry_equiv_pos_as_xyz
  1  'x, y, z'
loop_
 _atom_site_type_symbol
 _atom_site_label
 _atom_site_symmetry_multiplicity
 _atom_site_fract_x
 _atom_site_fract_y
 _atom_site_fract_z
 _atom_site_occupancy
  Co  Co0  1  0.15771300  0.15771500  0.15771800  1
  Co  Co1  1  0.84228800  0.84228500  0.84228300  1
  Ni  Ni2  1  0.35590400  0.35590200  0.35590300  1
  Ni  Ni3  1  0.64409700  0.64409700  0.64409700  1
  O  O4  1  0.05377900  0.77326400  0.44071700  1
  O  O5  1  0.55928600  0.94621700  0.22673700  1
  O  O6  1  0.22673600  0.55929000  0.94621500  1
  O  O7  1  0.77326300  0.44071300  0.05378300  1
  O  O8  1  0.44071700  0.05378100  0.77326100  1
  O  O9  1  0.94621800  0.22673500  0.55928700  1
