# generated using pymatgen
data_AlCdCl4
_symmetry_space_group_name_H-M   'P 1'
_cell_length_a   6.75431700
_cell_length_b   6.76281463
_cell_length_c   9.74531515
_cell_angle_alpha   83.42204057
_cell_angle_beta   103.90058155
_cell_angle_gamma   119.66376133
_symmetry_Int_Tables_number   1
_chemical_formula_structural   AlCdCl4
_chemical_formula_sum   'Al2 Cd2 Cl8'
_cell_volume   375.47628860
_cell_formula_units_Z   2
loop_
 _symmetry_equiv_pos_site_id
 _symmetry_equiv_pos_as_xyz
  1  'x, y, z'
loop_
 _atom_site_type_symbol
 _atom_site_label
 _atom_site_symmetry_multiplicity
 _atom_site_fract_x
 _atom_site_fract_y
 _atom_site_fract_z
 _atom_site_occupancy
  Al  Al0  1  0.58409200  0.83300600  0.26255500  1
  Al  Al1  1  0.41590800  0.16699400  0.73744500  1
  Cd  Cd2  1  0.04541200  0.49294500  0.64081500  1
  Cd  Cd3  1  0.95458800  0.50705500  0.35918500  1
  Cl  Cl4  1  0.40566900  0.84838900  0.81676800  1
  Cl  Cl5  1  0.59433100  0.15161100  0.18323200  1
  Cl  Cl6  1  0.16721700  0.20835300  0.82220400  1
  Cl  Cl7  1  0.83278300  0.79164700  0.17779600  1
  Cl  Cl8  1  0.66391300  0.83167600  0.48589300  1
  Cl  Cl9  1  0.33608700  0.16832400  0.51410700  1
  Cl  Cl10  1  0.76276700  0.44515900  0.81894600  1
  Cl  Cl11  1  0.23723300  0.55484100  0.18105400  1
