# generated using pymatgen
data_CaMn2Be3(SiO4)3
_symmetry_space_group_name_H-M   'P 1'
_cell_length_a   7.69123300
_cell_length_b   8.17530700
_cell_length_c   16.38163346
_cell_angle_alpha   60.03639652
_cell_angle_beta   90.00000000
_cell_angle_gamma   90.00000000
_symmetry_Int_Tables_number   1
_chemical_formula_structural   CaMn2Be3(SiO4)3
_chemical_formula_sum   'Ca4 Mn8 Be12 Si12 O48'
_cell_volume   892.37426592
_cell_formula_units_Z   4
loop_
 _symmetry_equiv_pos_site_id
 _symmetry_equiv_pos_as_xyz
  1  'x, y, z'
loop_
 _atom_site_type_symbol
 _atom_site_label
 _atom_site_symmetry_multiplicity
 _atom_site_fract_x
 _atom_site_fract_y
 _atom_site_fract_z
 _atom_site_occupancy
  Ca  Ca0  1  0.99976700  0.49756000  0.75157600  1
  Ca  Ca1  1  0.49976700  0.50244000  0.74842400  1
  Ca  Ca2  1  0.00023300  0.50244000  0.24842400  1
  Ca  Ca3  1  0.50023300  0.49756000  0.25157700  1
  Mn  Mn4  1  0.03586800  0.16815300  0.59061100  1
  Mn  Mn5  1  0.46413200  0.16815300  0.09061200  1
  Mn  Mn6  1  0.96413200  0.83184700  0.40938900  1
  Mn  Mn7  1  0.53586800  0.83184700  0.90938900  1
  Mn  Mn8  1  0.96052300  0.83345300  0.92829800  1
  Mn  Mn9  1  0.46052300  0.16654700  0.57170200  1
  Mn  Mn10  1  0.03947700  0.16654700  0.07170200  1
  Mn  Mn11  1  0.53947700  0.83345300  0.42829800  1
  Be  Be12  1  0.66350500  0.15555900  0.26419300  1
  Be  Be13  1  0.83626100  0.52834000  0.90850900  1
  Be  Be14  1  0.33626100  0.47166000  0.59149100  1
  Be  Be15  1  0.16373900  0.47166000  0.09149100  1
  Be  Be16  1  0.66373900  0.52834000  0.40851000  1
  Be  Be17  1  0.33750100  0.18150100  0.92112300  1
  Be  Be18  1  0.83750100  0.81849900  0.57887700  1
  Be  Be19  1  0.66249900  0.81849900  0.07887700  1
  Be  Be20  1  0.16249900  0.18150100  0.42112300  1
  Be  Be21  1  0.83649500  0.15555900  0.76419300  1
  Be  Be22  1  0.33649500  0.84444100  0.73580700  1
  Be  Be23  1  0.16350500  0.84444100  0.23580700  1
  Si  Si24  1  0.27399500  0.15337500  0.26625000  1
  Si  Si25  1  0.77399500  0.84662500  0.23375000  1
  Si  Si26  1  0.72600500  0.84662500  0.73375000  1
  Si  Si27  1  0.22600500  0.15337500  0.76625000  1
  Si  Si28  1  0.77515800  0.18579400  0.42348700  1
  Si  Si29  1  0.27515800  0.81420600  0.07651300  1
  Si  Si30  1  0.22484200  0.81420600  0.57651300  1
  Si  Si31  1  0.72484200  0.18579400  0.92348700  1
  Si  Si32  1  0.27200300  0.53238400  0.40726400  1
  Si  Si33  1  0.77200300  0.46761600  0.09273600  1
  Si  Si34  1  0.72799700  0.46761600  0.59273600  1
  Si  Si35  1  0.22799700  0.53238400  0.90726400  1
  O  O36  1  0.36351600  0.70180100  0.54527200  1
  O  O37  1  0.46880100  0.10847600  0.31431600  1
  O  O38  1  0.96880100  0.89152400  0.18568400  1
  O  O39  1  0.53119900  0.89152400  0.68568400  1
  O  O40  1  0.03119900  0.10847600  0.81431600  1
  O  O41  1  0.97042700  0.22740900  0.44911400  1
  O  O42  1  0.47042700  0.77259100  0.05088600  1
  O  O43  1  0.02957300  0.77259100  0.55088600  1
  O  O44  1  0.52957300  0.22740900  0.94911400  1
  O  O45  1  0.46823700  0.62464100  0.38677900  1
  O  O46  1  0.96823700  0.37535900  0.11322100  1
  O  O47  1  0.53176300  0.37535900  0.61322100  1
  O  O48  1  0.36560700  0.70834900  0.85054800  1
  O  O49  1  0.86560700  0.29165100  0.64945200  1
  O  O50  1  0.63439300  0.29165100  0.14945200  1
  O  O51  1  0.13439300  0.70834900  0.35054800  1
  O  O52  1  0.86351600  0.29819900  0.95472800  1
  O  O53  1  0.03176300  0.62464100  0.88677900  1
  O  O54  1  0.13648400  0.70180100  0.04527200  1
  O  O55  1  0.63648400  0.29819900  0.45472800  1
  O  O56  1  0.73753900  0.59162200  0.97781300  1
  O  O57  1  0.86672500  0.91265900  0.64721800  1
  O  O58  1  0.63327500  0.91265900  0.14721800  1
  O  O59  1  0.13327500  0.08734100  0.35278200  1
  O  O60  1  0.75919100  0.61745700  0.30635600  1
  O  O61  1  0.25919100  0.38254300  0.19364400  1
  O  O62  1  0.24080900  0.38254300  0.69364400  1
  O  O63  1  0.74080900  0.61745700  0.80635600  1
  O  O64  1  0.76199500  0.26878700  0.30927600  1
  O  O65  1  0.26199500  0.73121300  0.19072400  1
  O  O66  1  0.23800500  0.73121300  0.69072400  1
  O  O67  1  0.73800500  0.26878700  0.80927600  1
  O  O68  1  0.25853500  0.38762600  0.36489100  1
  O  O69  1  0.75853500  0.61237400  0.13510900  1
  O  O70  1  0.74146500  0.61237400  0.63510900  1
  O  O71  1  0.24146500  0.38762600  0.86489100  1
  O  O72  1  0.75285200  0.95094300  0.29725500  1
  O  O73  1  0.25285200  0.04905700  0.20274500  1
  O  O74  1  0.24714800  0.04905700  0.70274500  1
  O  O75  1  0.74714800  0.95094300  0.79725500  1
  O  O76  1  0.73660900  0.95649800  0.47887000  1
  O  O77  1  0.23660900  0.04350200  0.02113000  1
  O  O78  1  0.26339100  0.04350200  0.52113000  1
  O  O79  1  0.76339100  0.95649800  0.97887000  1
  O  O80  1  0.76246100  0.59162200  0.47781300  1
  O  O81  1  0.26246100  0.40837800  0.02218700  1
  O  O82  1  0.23753900  0.40837800  0.52218700  1
  O  O83  1  0.36672500  0.08734100  0.85278200  1
