# generated using pymatgen
data_Nd12(OsC3)5
_symmetry_space_group_name_H-M   'P 1'
_cell_length_a   10.99017274
_cell_length_b   10.99017274
_cell_length_c   5.34630700
_cell_angle_alpha   90.00000000
_cell_angle_beta   90.00000000
_cell_angle_gamma   120.00000446
_symmetry_Int_Tables_number   1
_chemical_formula_structural   Nd12(OsC3)5
_chemical_formula_sum   'Nd12 Os5 C15'
_cell_volume   559.23396838
_cell_formula_units_Z   1
loop_
 _symmetry_equiv_pos_site_id
 _symmetry_equiv_pos_as_xyz
  1  'x, y, z'
loop_
 _atom_site_type_symbol
 _atom_site_label
 _atom_site_symmetry_multiplicity
 _atom_site_fract_x
 _atom_site_fract_y
 _atom_site_fract_z
 _atom_site_occupancy
  Nd  Nd0  1  0.79348500  0.00000000  0.50000000  1
  Nd  Nd1  1  0.00000000  0.79348500  0.50000000  1
  Nd  Nd2  1  0.20651500  0.20651500  0.50000000  1
  Nd  Nd3  1  0.27388700  0.45760100  0.00000000  1
  Nd  Nd4  1  0.54239900  0.81628700  0.00000000  1
  Nd  Nd5  1  0.45760100  0.27388700  0.00000000  1
  Nd  Nd6  1  0.18371300  0.72611300  0.00000000  1
  Nd  Nd7  1  0.81628700  0.54239900  0.00000000  1
  Nd  Nd8  1  0.72611300  0.18371300  0.00000000  1
  Nd  Nd9  1  0.42697500  0.00000000  0.50000000  1
  Nd  Nd10  1  0.00000000  0.42697500  0.50000000  1
  Nd  Nd11  1  0.57302500  0.57302500  0.50000000  1
  Os  Os12  1  0.16001400  0.00000000  0.00000000  1
  Os  Os13  1  0.00000000  0.16001400  0.00000000  1
  Os  Os14  1  0.83998600  0.83998600  0.00000000  1
  Os  Os15  1  0.33333300  0.66666700  0.50000000  1
  Os  Os16  1  0.66666700  0.33333300  0.50000000  1
  C  C17  1  0.33097600  0.00000000  0.00000000  1
  C  C18  1  0.00000000  0.33097600  0.00000000  1
  C  C19  1  0.66902400  0.66902400  0.00000000  1
  C  C20  1  0.79921700  0.00000000  0.00000000  1
  C  C21  1  0.00000000  0.79921700  0.00000000  1
  C  C22  1  0.20078300  0.20078300  0.00000000  1
  C  C23  1  0.45239200  0.00000000  0.00000000  1
  C  C24  1  0.00000000  0.45239200  0.00000000  1
  C  C25  1  0.54760800  0.54760800  0.00000000  1
  C  C26  1  0.28747000  0.47404100  0.50000000  1
  C  C27  1  0.52595900  0.81342900  0.50000000  1
  C  C28  1  0.47404100  0.28747000  0.50000000  1
  C  C29  1  0.18657100  0.71253000  0.50000000  1
  C  C30  1  0.81342900  0.52595900  0.50000000  1
  C  C31  1  0.71253000  0.18657100  0.50000000  1
