# generated using pymatgen
data_Tb7MnBr12
_symmetry_space_group_name_H-M   'P 1'
_cell_length_a   9.25000635
_cell_length_b   9.25000635
_cell_length_c   9.25000722
_cell_angle_alpha   106.81585775
_cell_angle_beta   106.81585775
_cell_angle_gamma   106.81586035
_symmetry_Int_Tables_number   1
_chemical_formula_structural   Tb7MnBr12
_chemical_formula_sum   'Tb7 Mn1 Br12'
_cell_volume   662.41419563
_cell_formula_units_Z   1
loop_
 _symmetry_equiv_pos_site_id
 _symmetry_equiv_pos_as_xyz
  1  'x, y, z'
loop_
 _atom_site_type_symbol
 _atom_site_label
 _atom_site_symmetry_multiplicity
 _atom_site_fract_x
 _atom_site_fract_y
 _atom_site_fract_z
 _atom_site_occupancy
  Tb  Tb0  1  0.00000000  0.00000000  0.00000000  1
  Tb  Tb1  1  0.59720900  0.52095300  0.80342300  1
  Tb  Tb2  1  0.52095300  0.80342300  0.59720900  1
  Tb  Tb3  1  0.80342300  0.59720900  0.52095300  1
  Tb  Tb4  1  0.40279100  0.47904700  0.19657700  1
  Tb  Tb5  1  0.47904700  0.19657700  0.40279100  1
  Tb  Tb6  1  0.19657700  0.40279100  0.47904700  1
  Mn  Mn7  1  0.50000000  0.50000000  0.50000000  1
  Br  Br8  1  0.56925500  0.17912600  0.72190200  1
  Br  Br9  1  0.17912600  0.72190200  0.56925500  1
  Br  Br10  1  0.72190200  0.56925500  0.17912600  1
  Br  Br11  1  0.43074500  0.82087400  0.27809800  1
  Br  Br12  1  0.82087400  0.27809800  0.43074500  1
  Br  Br13  1  0.27809800  0.43074500  0.82087400  1
  Br  Br14  1  0.66523600  0.88454000  0.96175200  1
  Br  Br15  1  0.88454000  0.96175200  0.66523600  1
  Br  Br16  1  0.96175200  0.66523600  0.88454000  1
  Br  Br17  1  0.33476400  0.11546000  0.03824800  1
  Br  Br18  1  0.11546000  0.03824800  0.33476400  1
  Br  Br19  1  0.03824800  0.33476400  0.11546000  1
