# generated using pymatgen
data_K2Ge(S2O7)3
_symmetry_space_group_name_H-M   'P 1'
_cell_length_a   9.85016241
_cell_length_b   9.85016241
_cell_length_c   11.17653900
_cell_angle_alpha   90.00000000
_cell_angle_beta   90.00000000
_cell_angle_gamma   120.00000277
_symmetry_Int_Tables_number   1
_chemical_formula_structural   K2Ge(S2O7)3
_chemical_formula_sum   'K4 Ge2 S12 O42'
_cell_volume   939.12789401
_cell_formula_units_Z   2
loop_
 _symmetry_equiv_pos_site_id
 _symmetry_equiv_pos_as_xyz
  1  'x, y, z'
loop_
 _atom_site_type_symbol
 _atom_site_label
 _atom_site_symmetry_multiplicity
 _atom_site_fract_x
 _atom_site_fract_y
 _atom_site_fract_z
 _atom_site_occupancy
  K  K0  1  0.66666700  0.33333300  0.44098300  1
  K  K1  1  0.33333300  0.66666700  0.55901700  1
  K  K2  1  0.66666700  0.33333300  0.87152800  1
  K  K3  1  0.33333300  0.66666700  0.12847200  1
  Ge  Ge4  1  0.00000000  0.00000000  0.24139600  1
  Ge  Ge5  1  0.00000000  0.00000000  0.75860400  1
  S  S6  1  0.92879100  0.26226000  0.66059100  1
  S  S7  1  0.73774000  0.66653100  0.66059100  1
  S  S8  1  0.33346900  0.07120900  0.66059100  1
  S  S9  1  0.07120900  0.73774000  0.33940900  1
  S  S10  1  0.26226000  0.33346900  0.33940900  1
  S  S11  1  0.66653100  0.92879100  0.33940900  1
  S  S12  1  0.84044600  0.65230900  0.15205700  1
  S  S13  1  0.34769100  0.18813700  0.15205700  1
  S  S14  1  0.81186300  0.15955400  0.15205700  1
  S  S15  1  0.15955400  0.34769100  0.84794300  1
  S  S16  1  0.65230900  0.81186300  0.84794300  1
  S  S17  1  0.18813700  0.84044600  0.84794300  1
  O  O18  1  0.88320100  0.82418500  0.13905800  1
  O  O19  1  0.17581500  0.05901600  0.13905800  1
  O  O20  1  0.94098400  0.11679900  0.13905800  1
  O  O21  1  0.11679900  0.17581500  0.86094200  1
  O  O22  1  0.82418500  0.94098400  0.86094200  1
  O  O23  1  0.05901600  0.88320100  0.86094200  1
  O  O24  1  0.94504500  0.11698100  0.65253200  1
  O  O25  1  0.88301900  0.82806400  0.65253200  1
  O  O26  1  0.17193600  0.05495500  0.65253200  1
  O  O27  1  0.05495500  0.88301900  0.34746800  1
  O  O28  1  0.11698100  0.17193600  0.34746800  1
  O  O29  1  0.82806400  0.94504500  0.34746800  1
  O  O30  1  0.76825700  0.22437000  0.66942000  1
  O  O31  1  0.77563000  0.54388700  0.66942000  1
  O  O32  1  0.45611300  0.23174300  0.66942000  1
  O  O33  1  0.23174300  0.77563000  0.33058000  1
  O  O34  1  0.22437000  0.45611300  0.33058000  1
  O  O35  1  0.54388700  0.76825700  0.33058000  1
  O  O36  1  0.82619300  0.58618400  0.03542100  1
  O  O37  1  0.41381600  0.24000900  0.03542100  1
  O  O38  1  0.75999100  0.17380700  0.03542100  1
  O  O39  1  0.17380700  0.41381600  0.96457900  1
  O  O40  1  0.58618400  0.75999100  0.96457900  1
  O  O41  1  0.24000900  0.82619300  0.96457900  1
  O  O42  1  0.72129100  0.56962100  0.24005300  1
  O  O43  1  0.43037900  0.15167000  0.24005300  1
  O  O44  1  0.84833000  0.27870900  0.24005300  1
  O  O45  1  0.27870900  0.43037900  0.75994700  1
  O  O46  1  0.56962100  0.84833000  0.75994700  1
  O  O47  1  0.15167000  0.72129100  0.75994700  1
  O  O48  1  0.99375400  0.33057900  0.79740700  1
  O  O49  1  0.66942100  0.66317500  0.79740700  1
  O  O50  1  0.33682500  0.00624600  0.79740700  1
  O  O51  1  0.00624600  0.66942100  0.20259300  1
  O  O52  1  0.33057900  0.33682500  0.20259300  1
  O  O53  1  0.66317500  0.99375400  0.20259300  1
  O  O54  1  0.02745200  0.37642300  0.57409600  1
  O  O55  1  0.62357700  0.65102900  0.57409600  1
  O  O56  1  0.34897100  0.97254800  0.57409600  1
  O  O57  1  0.97254800  0.62357700  0.42590400  1
  O  O58  1  0.37642300  0.34897100  0.42590400  1
  O  O59  1  0.65102900  0.02745200  0.42590400  1
