# generated using pymatgen
data_Er(Al5Fe)2
_symmetry_space_group_name_H-M   'P 1'
_cell_length_a   6.73465066
_cell_length_b   6.73465066
_cell_length_c   8.92750600
_cell_angle_alpha   90.00000000
_cell_angle_beta   90.00000000
_cell_angle_gamma   97.26550257
_symmetry_Int_Tables_number   1
_chemical_formula_structural   Er(Al5Fe)2
_chemical_formula_sum   'Er2 Al20 Fe4'
_cell_volume   401.66054249
_cell_formula_units_Z   2
loop_
 _symmetry_equiv_pos_site_id
 _symmetry_equiv_pos_as_xyz
  1  'x, y, z'
loop_
 _atom_site_type_symbol
 _atom_site_label
 _atom_site_symmetry_multiplicity
 _atom_site_fract_x
 _atom_site_fract_y
 _atom_site_fract_z
 _atom_site_occupancy
  Er  Er0  1  0.87382300  0.12617700  0.75000000  1
  Er  Er1  1  0.12617700  0.87382300  0.25000000  1
  Al  Al2  1  0.62574600  0.37425400  0.54832900  1
  Al  Al3  1  0.37425400  0.62574600  0.45167100  1
  Al  Al4  1  0.37425400  0.62574600  0.04832900  1
  Al  Al5  1  0.62574600  0.37425400  0.95167100  1
  Al  Al6  1  0.22768200  0.22768200  0.50000000  1
  Al  Al7  1  0.77231800  0.77231800  0.50000000  1
  Al  Al8  1  0.77231800  0.77231800  0.00000000  1
  Al  Al9  1  0.22768200  0.22768200  0.00000000  1
  Al  Al10  1  0.84254400  0.15745600  0.09697200  1
  Al  Al11  1  0.15745600  0.84254400  0.90302800  1
  Al  Al12  1  0.15745600  0.84254400  0.59697200  1
  Al  Al13  1  0.84254400  0.15745600  0.40302800  1
  Al  Al14  1  0.86532200  0.58400700  0.75000000  1
  Al  Al15  1  0.13467800  0.41599300  0.25000000  1
  Al  Al16  1  0.41599300  0.13467800  0.75000000  1
  Al  Al17  1  0.58400700  0.86532200  0.25000000  1
  Al  Al18  1  0.22062800  0.47832200  0.75000000  1
  Al  Al19  1  0.77937200  0.52167800  0.25000000  1
  Al  Al20  1  0.52167800  0.77937200  0.75000000  1
  Al  Al21  1  0.47832200  0.22062800  0.25000000  1
  Fe  Fe22  1  0.00000000  0.50000000  0.50000000  1
  Fe  Fe23  1  0.00000000  0.50000000  0.00000000  1
  Fe  Fe24  1  0.50000000  0.00000000  0.00000000  1
  Fe  Fe25  1  0.50000000  0.00000000  0.50000000  1
