# generated using pymatgen
data_Li3NiF6
_symmetry_space_group_name_H-M   'P 1'
_cell_length_a   5.04589000
_cell_length_b   8.48768800
_cell_length_c   9.77429600
_cell_angle_alpha   90.00000000
_cell_angle_beta   90.00000000
_cell_angle_gamma   90.00000000
_symmetry_Int_Tables_number   1
_chemical_formula_structural   Li3NiF6
_chemical_formula_sum   'Li12 Ni4 F24'
_cell_volume   418.61296265
_cell_formula_units_Z   4
loop_
 _symmetry_equiv_pos_site_id
 _symmetry_equiv_pos_as_xyz
  1  'x, y, z'
loop_
 _atom_site_type_symbol
 _atom_site_label
 _atom_site_symmetry_multiplicity
 _atom_site_fract_x
 _atom_site_fract_y
 _atom_site_fract_z
 _atom_site_occupancy
  Li  Li0  1  0.98920200  0.85208000  0.37466000  1
  Li  Li1  1  0.48920200  0.14792000  0.62534000  1
  Li  Li2  1  0.98920200  0.64792000  0.87466000  1
  Li  Li3  1  0.48920200  0.35208000  0.12534000  1
  Li  Li4  1  0.99330100  0.54791100  0.14618000  1
  Li  Li5  1  0.49330100  0.45208900  0.85382000  1
  Li  Li6  1  0.99330100  0.95208900  0.64618000  1
  Li  Li7  1  0.49330100  0.04791100  0.35382000  1
  Li  Li8  1  0.00097300  0.95406200  0.10586800  1
  Li  Li9  1  0.50097300  0.04593800  0.89413200  1
  Li  Li10  1  0.00097300  0.54593800  0.60586800  1
  Li  Li11  1  0.50097300  0.45406200  0.39413200  1
  Ni  Ni12  1  0.49705700  0.73928600  0.12796500  1
  Ni  Ni13  1  0.99705700  0.26071400  0.87203500  1
  Ni  Ni14  1  0.49705700  0.76071400  0.62796500  1
  Ni  Ni15  1  0.99705700  0.23928600  0.37203500  1
  F  F16  1  0.67577100  0.58669600  0.01056300  1
  F  F17  1  0.17577100  0.41330400  0.98943700  1
  F  F18  1  0.67577100  0.91330400  0.51056300  1
  F  F19  1  0.17577100  0.08669600  0.48943700  1
  F  F20  1  0.35232100  0.56106600  0.22487900  1
  F  F21  1  0.85232100  0.43893400  0.77512100  1
  F  F22  1  0.35232100  0.93893400  0.72487900  1
  F  F23  1  0.85232100  0.06106600  0.27512100  1
  F  F24  1  0.65149800  0.90759200  0.02648600  1
  F  F25  1  0.15149800  0.09240800  0.97351400  1
  F  F26  1  0.65149800  0.59240800  0.52648600  1
  F  F27  1  0.15149800  0.40759200  0.47351400  1
  F  F28  1  0.81152900  0.73208100  0.23857000  1
  F  F29  1  0.31152900  0.26791900  0.76143000  1
  F  F30  1  0.81152900  0.76791900  0.73857000  1
  F  F31  1  0.31152900  0.23208100  0.26143000  1
  F  F32  1  0.81451100  0.38666200  0.25330800  1
  F  F33  1  0.31451100  0.61333800  0.74669200  1
  F  F34  1  0.81451100  0.11333800  0.75330800  1
  F  F35  1  0.31451100  0.88666200  0.24669200  1
  F  F36  1  0.17536600  0.74529400  0.02191700  1
  F  F37  1  0.67536600  0.25470600  0.97808300  1
  F  F38  1  0.17536600  0.75470600  0.52191700  1
  F  F39  1  0.67536600  0.24529400  0.47808300  1
