# generated using pymatgen
data_Li2FeGeO4
_symmetry_space_group_name_H-M   'P 1'
_cell_length_a   7.52362805
_cell_length_b   7.52360973
_cell_length_c   8.26703046
_cell_angle_alpha   65.25791980
_cell_angle_beta   65.25788653
_cell_angle_gamma   94.61933169
_symmetry_Int_Tables_number   1
_chemical_formula_structural   Li2FeGeO4
_chemical_formula_sum   'Li8 Fe4 Ge4 O16'
_cell_volume   366.96570852
_cell_formula_units_Z   4
loop_
 _symmetry_equiv_pos_site_id
 _symmetry_equiv_pos_as_xyz
  1  'x, y, z'
loop_
 _atom_site_type_symbol
 _atom_site_label
 _atom_site_symmetry_multiplicity
 _atom_site_fract_x
 _atom_site_fract_y
 _atom_site_fract_z
 _atom_site_occupancy
  Li  Li0  1  0.29064300  0.45833500  0.75027100  1
  Li  Li1  1  0.79064500  0.95834100  0.75027000  1
  Li  Li2  1  0.20859500  0.04091800  0.74974900  1
  Li  Li3  1  0.70859600  0.54091400  0.74975000  1
  Li  Li4  1  0.45833000  0.29063600  0.25027700  1
  Li  Li5  1  0.95833800  0.79063700  0.25027000  1
  Li  Li6  1  0.54091100  0.70859600  0.24974200  1
  Li  Li7  1  0.04091300  0.20859500  0.24974800  1
  Fe  Fe8  1  0.41395100  0.09067400  0.99997700  1
  Fe  Fe9  1  0.09067600  0.41395600  0.49997900  1
  Fe  Fe10  1  0.91395500  0.59067200  0.99997300  1
  Fe  Fe11  1  0.59068500  0.91395600  0.49997800  1
  Ge  Ge12  1  0.83026800  0.16185300  0.99999200  1
  Ge  Ge13  1  0.33027000  0.66185400  0.99999600  1
  Ge  Ge14  1  0.16185800  0.83027300  0.49998700  1
  Ge  Ge15  1  0.66185300  0.33027200  0.49999400  1
  O  O16  1  0.22856800  0.86867400  0.00007200  1
  O  O17  1  0.72857000  0.36867700  0.00006800  1
  O  O18  1  0.36868700  0.72857900  0.50004700  1
  O  O19  1  0.86867800  0.22857300  0.50006100  1
  O  O20  1  0.65909000  0.98380100  0.99999400  1
  O  O21  1  0.15908600  0.48379300  0.00000600  1
  O  O22  1  0.98379100  0.65908100  0.50001200  1
  O  O23  1  0.48378100  0.15907200  0.50003100  1
  O  O24  1  0.07596200  0.25546900  0.77468200  1
  O  O25  1  0.57596700  0.75548200  0.77468600  1
  O  O26  1  0.03011800  0.85059800  0.72525200  1
  O  O27  1  0.53011900  0.35059800  0.72526100  1
  O  O28  1  0.25545100  0.07596400  0.27467900  1
  O  O29  1  0.75545600  0.57596100  0.27468100  1
  O  O30  1  0.35059600  0.53010500  0.22526100  1
  O  O31  1  0.85059300  0.03009200  0.22525300  1
