# generated using pymatgen
data_Sm2ZrS5
_symmetry_space_group_name_H-M   'P 1'
_cell_length_a   7.36234000
_cell_length_b   7.89357900
_cell_length_c   11.72090200
_cell_angle_alpha   90.00000000
_cell_angle_beta   90.00000000
_cell_angle_gamma   90.00000000
_symmetry_Int_Tables_number   1
_chemical_formula_structural   Sm2ZrS5
_chemical_formula_sum   'Sm8 Zr4 S20'
_cell_volume   681.16270942
_cell_formula_units_Z   4
loop_
 _symmetry_equiv_pos_site_id
 _symmetry_equiv_pos_as_xyz
  1  'x, y, z'
loop_
 _atom_site_type_symbol
 _atom_site_label
 _atom_site_symmetry_multiplicity
 _atom_site_fract_x
 _atom_site_fract_y
 _atom_site_fract_z
 _atom_site_occupancy
  Sm  Sm0  1  0.52551000  0.49803100  0.32215500  1
  Sm  Sm1  1  0.97449000  0.00196900  0.82215500  1
  Sm  Sm2  1  0.47449000  0.99803100  0.67784500  1
  Sm  Sm3  1  0.02551000  0.50196900  0.17784500  1
  Sm  Sm4  1  0.47449000  0.50196900  0.67784500  1
  Sm  Sm5  1  0.02551000  0.99803100  0.17784500  1
  Sm  Sm6  1  0.52551000  0.00196900  0.32215500  1
  Sm  Sm7  1  0.97449000  0.49803100  0.82215500  1
  Zr  Zr8  1  0.07719400  0.75000000  0.49274600  1
  Zr  Zr9  1  0.42280600  0.75000000  0.99274600  1
  Zr  Zr10  1  0.92280600  0.25000000  0.50725400  1
  Zr  Zr11  1  0.57719400  0.25000000  0.00725400  1
  S  S12  1  0.83934200  0.96380200  0.59175200  1
  S  S13  1  0.66065800  0.53619800  0.09175200  1
  S  S14  1  0.16065800  0.46380200  0.40824800  1
  S  S15  1  0.33934200  0.03619800  0.90824800  1
  S  S16  1  0.16065800  0.03619800  0.40824800  1
  S  S17  1  0.33934200  0.46380200  0.90824800  1
  S  S18  1  0.83934200  0.53619800  0.59175200  1
  S  S19  1  0.66065800  0.96380200  0.09175200  1
  S  S20  1  0.83404100  0.75000000  0.31825300  1
  S  S21  1  0.66595900  0.75000000  0.81825300  1
  S  S22  1  0.16595900  0.25000000  0.68174700  1
  S  S23  1  0.33404100  0.25000000  0.18174700  1
  S  S24  1  0.44595700  0.75000000  0.49630300  1
  S  S25  1  0.05404300  0.75000000  0.99630300  1
  S  S26  1  0.55404300  0.25000000  0.50369700  1
  S  S27  1  0.94595700  0.25000000  0.00369700  1
  S  S28  1  0.18727600  0.75000000  0.70721200  1
  S  S29  1  0.31272400  0.75000000  0.20721200  1
  S  S30  1  0.81272400  0.25000000  0.29278800  1
  S  S31  1  0.68727600  0.25000000  0.79278800  1
