# generated using pymatgen
data_Na4MgFe(PO4)3
_symmetry_space_group_name_H-M   'P 1'
_cell_length_a   8.89194425
_cell_length_b   8.89194425
_cell_length_c   8.89194373
_cell_angle_alpha   60.56627661
_cell_angle_beta   60.56627661
_cell_angle_gamma   60.56627736
_symmetry_Int_Tables_number   1
_chemical_formula_structural   Na4MgFe(PO4)3
_chemical_formula_sum   'Na8 Mg2 Fe2 P6 O24'
_cell_volume   503.49543392
_cell_formula_units_Z   2
loop_
 _symmetry_equiv_pos_site_id
 _symmetry_equiv_pos_as_xyz
  1  'x, y, z'
loop_
 _atom_site_type_symbol
 _atom_site_label
 _atom_site_symmetry_multiplicity
 _atom_site_fract_x
 _atom_site_fract_y
 _atom_site_fract_z
 _atom_site_occupancy
  Na  Na0  1  0.74419300  0.11566800  0.38642800  1
  Na  Na1  1  0.38642800  0.74419300  0.11566800  1
  Na  Na2  1  0.11566800  0.38642800  0.74419300  1
  Na  Na3  1  0.88642800  0.61566800  0.24419300  1
  Na  Na4  1  0.24419300  0.88642800  0.61566800  1
  Na  Na5  1  0.61566800  0.24419300  0.88642800  1
  Na  Na6  1  0.49808300  0.49808300  0.49808300  1
  Na  Na7  1  0.99808300  0.99808300  0.99808300  1
  Mg  Mg8  1  0.35111400  0.35111400  0.35111400  1
  Mg  Mg9  1  0.85111400  0.85111400  0.85111400  1
  Fe  Fe10  1  0.64973900  0.64973900  0.64973900  1
  Fe  Fe11  1  0.14973900  0.14973900  0.14973900  1
  P  P12  1  0.75305800  0.45345000  0.04675700  1
  P  P13  1  0.04675700  0.75305800  0.45345000  1
  P  P14  1  0.45345000  0.04675700  0.75305800  1
  P  P15  1  0.54675700  0.95345000  0.25305800  1
  P  P16  1  0.25305800  0.54675700  0.95345000  1
  P  P17  1  0.95345000  0.25305800  0.54675700  1
  O  O18  1  0.11771600  0.29108500  0.51694700  1
  O  O19  1  0.51694700  0.11771600  0.29108500  1
  O  O20  1  0.29108500  0.51694700  0.11771600  1
  O  O21  1  0.01694700  0.79108500  0.61771600  1
  O  O22  1  0.61771600  0.01694700  0.79108500  1
  O  O23  1  0.79108500  0.61771600  0.01694700  1
  O  O24  1  0.87621500  0.71795000  0.48305600  1
  O  O25  1  0.48305600  0.87621500  0.71795000  1
  O  O26  1  0.71795000  0.48305600  0.87621500  1
  O  O27  1  0.98305600  0.21795000  0.37621500  1
  O  O28  1  0.37621500  0.98305600  0.21795000  1
  O  O29  1  0.21795000  0.37621500  0.98305600  1
  O  O30  1  0.22428600  0.58908500  0.42714300  1
  O  O31  1  0.42714300  0.22428600  0.58908500  1
  O  O32  1  0.58908500  0.42714300  0.22428600  1
  O  O33  1  0.92714300  0.08908500  0.72428600  1
  O  O34  1  0.72428600  0.92714300  0.08908500  1
  O  O35  1  0.08908500  0.72428600  0.92714300  1
  O  O36  1  0.77243800  0.42116300  0.56443500  1
  O  O37  1  0.56443500  0.77243800  0.42116300  1
  O  O38  1  0.42116300  0.56443500  0.77243800  1
  O  O39  1  0.06443500  0.92116300  0.27243800  1
  O  O40  1  0.27243800  0.06443500  0.92116300  1
  O  O41  1  0.92116300  0.27243800  0.06443500  1
