# generated using pymatgen
data_Na3Mg4ScSi8(O11F)2
_symmetry_space_group_name_H-M   'P 1'
_cell_length_a   10.72172830
_cell_length_b   9.93100307
_cell_length_c   10.37403029
_cell_angle_alpha   61.44758250
_cell_angle_beta   83.71012906
_cell_angle_gamma   76.79875822
_symmetry_Int_Tables_number   1
_chemical_formula_structural   Na3Mg4ScSi8(O11F)2
_chemical_formula_sum   'Na6 Mg8 Sc2 Si16 O44 F4'
_cell_volume   944.61941345
_cell_formula_units_Z   2
loop_
 _symmetry_equiv_pos_site_id
 _symmetry_equiv_pos_as_xyz
  1  'x, y, z'
loop_
 _atom_site_type_symbol
 _atom_site_label
 _atom_site_symmetry_multiplicity
 _atom_site_fract_x
 _atom_site_fract_y
 _atom_site_fract_z
 _atom_site_occupancy
  Na  Na0  1  0.99982200  0.50180100  0.99845000  1
  Na  Na1  1  0.24500800  0.27532600  0.44898400  1
  Na  Na2  1  0.25499200  0.72467400  0.55101600  1
  Na  Na3  1  0.50017800  0.49819900  0.00155000  1
  Na  Na4  1  0.75513700  0.27539800  0.44861300  1
  Na  Na5  1  0.74486300  0.72460200  0.55138700  1
  Mg  Mg6  1  0.00005600  0.00115600  0.99759000  1
  Mg  Mg7  1  0.24763000  0.08739900  0.82389900  1
  Mg  Mg8  1  0.25237000  0.91260100  0.17610100  1
  Mg  Mg9  1  0.49994400  0.99884400  0.00241000  1
  Mg  Mg10  1  0.50014600  0.81817200  0.36312400  1
  Mg  Mg11  1  0.75225900  0.08892200  0.82389400  1
  Mg  Mg12  1  0.74774100  0.91107800  0.17610600  1
  Mg  Mg13  1  0.99985400  0.18182800  0.63687600  1
  Sc  Sc14  1  0.50002900  0.18283300  0.63434500  1
  Sc  Sc15  1  0.99997100  0.81716700  0.36565500  1
  Si  Si16  1  0.10393500  0.11920100  0.34075700  1
  Si  Si17  1  0.10467800  0.45366200  0.66461500  1
  Si  Si18  1  0.14314000  0.63374600  0.16645900  1
  Si  Si19  1  0.14288100  0.80315900  0.83056700  1
  Si  Si20  1  0.35711900  0.19684100  0.16943300  1
  Si  Si21  1  0.35686000  0.36625400  0.83354100  1
  Si  Si22  1  0.39532200  0.54633800  0.33538500  1
  Si  Si23  1  0.39606500  0.88079900  0.65924300  1
  Si  Si24  1  0.60476200  0.11757600  0.33573000  1
  Si  Si25  1  0.60396700  0.45976800  0.65998700  1
  Si  Si26  1  0.64284400  0.63397700  0.16868900  1
  Si  Si27  1  0.64279400  0.80077800  0.83280400  1
  Si  Si28  1  0.85720600  0.19922200  0.16719600  1
  Si  Si29  1  0.85715600  0.36602300  0.83131100  1
  Si  Si30  1  0.89603300  0.54023200  0.34001300  1
  Si  Si31  1  0.89523800  0.88242400  0.66427000  1
  O  O32  1  0.03376700  0.52798000  0.24772900  1
  O  O33  1  0.10043900  0.11110400  0.49789800  1
  O  O34  1  0.03372000  0.77522600  0.75113200  1
  O  O35  1  0.10007300  0.60849600  0.50675100  1
  O  O36  1  0.13805300  0.28471100  0.66862900  1
  O  O37  1  0.10802400  0.80212700  0.16692400  1
  O  O38  1  0.14705500  0.65415100  0.99862200  1
  O  O39  1  0.21496600  0.22326000  0.23985100  1
  O  O40  1  0.13588900  0.95438000  0.33147300  1
  O  O41  1  0.10691700  0.96900300  0.83337500  1
  O  O42  1  0.21551300  0.46428700  0.76086100  1
  O  O43  1  0.28448700  0.53571300  0.23913900  1
  O  O44  1  0.35294500  0.34584900  0.00137800  1
  O  O45  1  0.39308300  0.03099700  0.16662500  1
  O  O46  1  0.36411100  0.04562000  0.66852700  1
  O  O47  1  0.28503400  0.77674000  0.76014900  1
  O  O48  1  0.39197600  0.19787300  0.83307600  1
  O  O49  1  0.36194700  0.71528900  0.33137100  1
  O  O50  1  0.39992700  0.39150400  0.49324900  1
  O  O51  1  0.46628000  0.22477400  0.24886800  1
  O  O52  1  0.39956100  0.88889600  0.50210200  1
  O  O53  1  0.46623300  0.47202000  0.75227100  1
  O  O54  1  0.53387300  0.52637600  0.24833500  1
  O  O55  1  0.60031900  0.11469900  0.49363200  1
  O  O56  1  0.53392000  0.77624900  0.75096100  1
  O  O57  1  0.60029000  0.60886700  0.50294100  1
  O  O58  1  0.63585400  0.28593400  0.66873400  1
  O  O59  1  0.60688200  0.80241300  0.16637900  1
  O  O60  1  0.64650300  0.65338300  0.00047000  1
  O  O61  1  0.71563500  0.22433800  0.23955000  1
  O  O62  1  0.63816900  0.95275500  0.33159700  1
  O  O63  1  0.60764900  0.96948100  0.83269600  1
  O  O64  1  0.71494600  0.46282300  0.76114800  1
  O  O65  1  0.78505400  0.53717700  0.23885200  1
  O  O66  1  0.85349700  0.34661700  0.99953000  1
  O  O67  1  0.89235100  0.03051900  0.16730400  1
  O  O68  1  0.86183100  0.04724500  0.66840300  1
  O  O69  1  0.78436500  0.77566200  0.76045000  1
  O  O70  1  0.89311800  0.19758700  0.83362100  1
  O  O71  1  0.86414600  0.71406600  0.33126600  1
  O  O72  1  0.89971000  0.39113300  0.49705900  1
  O  O73  1  0.96608000  0.22375100  0.24903900  1
  O  O74  1  0.89968100  0.88530100  0.50636800  1
  O  O75  1  0.96612700  0.47362400  0.75166500  1
  F  F76  1  0.14621100  0.10109400  0.00096600  1
  F  F77  1  0.35378900  0.89890600  0.99903400  1
  F  F78  1  0.64628500  0.10179500  0.99939100  1
  F  F79  1  0.85371500  0.89820500  0.00060900  1
