# generated using pymatgen
data_Dy2Ga3Cu
_symmetry_space_group_name_H-M   'P 1'
_cell_length_a   4.37049551
_cell_length_b   4.37049551
_cell_length_c   7.19274900
_cell_angle_alpha   90.00000000
_cell_angle_beta   90.00000000
_cell_angle_gamma   119.99999262
_symmetry_Int_Tables_number   1
_chemical_formula_structural   Dy2Ga3Cu
_chemical_formula_sum   'Dy2 Ga3 Cu1'
_cell_volume   118.98355114
_cell_formula_units_Z   1
loop_
 _symmetry_equiv_pos_site_id
 _symmetry_equiv_pos_as_xyz
  1  'x, y, z'
loop_
 _atom_site_type_symbol
 _atom_site_label
 _atom_site_symmetry_multiplicity
 _atom_site_fract_x
 _atom_site_fract_y
 _atom_site_fract_z
 _atom_site_occupancy
  Dy  Dy0  1  0.33333300  0.66666700  0.73097700  1
  Dy  Dy1  1  0.33333300  0.66666700  0.26073700  1
  Ga  Ga2  1  0.66666700  0.33333300  0.47559200  1
  Ga  Ga3  1  0.66666700  0.33333300  0.04549400  1
  Ga  Ga4  1  0.00000000  0.00000000  0.95069100  1
  Cu  Cu5  1  0.00000000  0.00000000  0.53651000  1
