# generated using pymatgen
data_Y2Ga3Ag
_symmetry_space_group_name_H-M   'P 1'
_cell_length_a   4.51646352
_cell_length_b   4.51646352
_cell_length_c   7.23542000
_cell_angle_alpha   90.00000000
_cell_angle_beta   90.00000000
_cell_angle_gamma   119.99999291
_symmetry_Int_Tables_number   1
_chemical_formula_structural   Y2Ga3Ag
_chemical_formula_sum   'Y2 Ga3 Ag1'
_cell_volume   127.81782448
_cell_formula_units_Z   1
loop_
 _symmetry_equiv_pos_site_id
 _symmetry_equiv_pos_as_xyz
  1  'x, y, z'
loop_
 _atom_site_type_symbol
 _atom_site_label
 _atom_site_symmetry_multiplicity
 _atom_site_fract_x
 _atom_site_fract_y
 _atom_site_fract_z
 _atom_site_occupancy
  Y  Y0  1  0.33333300  0.66666700  0.24031200  1
  Y  Y1  1  0.33333300  0.66666700  0.75773800  1
  Ga  Ga2  1  0.00000000  0.00000000  0.97027700  1
  Ga  Ga3  1  0.00000000  0.00000000  0.54773400  1
  Ga  Ga4  1  0.66666700  0.33333300  0.45445000  1
  Ag  Ag5  1  0.66666700  0.33333300  0.02948800  1
