# generated using pymatgen
data_Ba2YFeO5
_symmetry_space_group_name_H-M   'P 1'
_cell_length_a   6.18055600
_cell_length_b   7.93723642
_cell_length_c   12.78388119
_cell_angle_alpha   92.02202431
_cell_angle_beta   90.00000000
_cell_angle_gamma   90.00000000
_symmetry_Int_Tables_number   1
_chemical_formula_structural   Ba2YFeO5
_chemical_formula_sum   'Ba8 Y4 Fe4 O20'
_cell_volume   626.74241280
_cell_formula_units_Z   4
loop_
 _symmetry_equiv_pos_site_id
 _symmetry_equiv_pos_as_xyz
  1  'x, y, z'
loop_
 _atom_site_type_symbol
 _atom_site_label
 _atom_site_symmetry_multiplicity
 _atom_site_fract_x
 _atom_site_fract_y
 _atom_site_fract_z
 _atom_site_occupancy
  Ba  Ba0  1  0.76334200  0.48359500  0.34598800  1
  Ba  Ba1  1  0.73665800  0.98359500  0.84598800  1
  Ba  Ba2  1  0.23665800  0.51640500  0.65401200  1
  Ba  Ba3  1  0.26334200  0.01640500  0.15401200  1
  Ba  Ba4  1  0.75079700  0.99214900  0.38121000  1
  Ba  Ba5  1  0.74920300  0.49214900  0.88121000  1
  Ba  Ba6  1  0.24920300  0.00785100  0.61879000  1
  Ba  Ba7  1  0.25079700  0.50785100  0.11879000  1
  Y  Y8  1  0.75064200  0.26896100  0.62949100  1
  Y  Y9  1  0.74935800  0.76896100  0.12949100  1
  Y  Y10  1  0.24935800  0.73103900  0.37050900  1
  Y  Y11  1  0.25064200  0.23103900  0.87050900  1
  Fe  Fe12  1  0.73529000  0.74208500  0.58372900  1
  Fe  Fe13  1  0.76471000  0.24208500  0.08372900  1
  Fe  Fe14  1  0.26471000  0.25791500  0.41627100  1
  Fe  Fe15  1  0.23529000  0.75791500  0.91627100  1
  O  O16  1  0.75408000  0.97431500  0.62911700  1
  O  O17  1  0.74592000  0.47431500  0.12911700  1
  O  O18  1  0.24592000  0.02568500  0.37088300  1
  O  O19  1  0.25408000  0.52568500  0.87088300  1
  O  O20  1  0.72433400  0.06556500  0.17863700  1
  O  O21  1  0.77566600  0.56556500  0.67863700  1
  O  O22  1  0.27566600  0.93443500  0.82136300  1
  O  O23  1  0.22433400  0.43443500  0.32136300  1
  O  O24  1  0.54415300  0.74250700  0.27238200  1
  O  O25  1  0.95584700  0.24250700  0.77238200  1
  O  O26  1  0.45584700  0.25749300  0.72761800  1
  O  O27  1  0.04415300  0.75749300  0.22761800  1
  O  O28  1  0.55083500  0.22216100  0.97556400  1
  O  O29  1  0.94916500  0.72216100  0.47556400  1
  O  O30  1  0.44916500  0.77783900  0.02443600  1
  O  O31  1  0.05083500  0.27783900  0.52443600  1
  O  O32  1  0.04699400  0.22576500  0.02137300  1
  O  O33  1  0.45300600  0.72576500  0.52137300  1
  O  O34  1  0.95300600  0.77423500  0.97862700  1
  O  O35  1  0.54699400  0.27423500  0.47862700  1
