# generated using pymatgen
data_EuPIr
_symmetry_space_group_name_H-M   'P 1'
_cell_length_a   6.29355600
_cell_length_b   6.29355600
_cell_length_c   6.29355600
_cell_angle_alpha   90.00000000
_cell_angle_beta   90.00000000
_cell_angle_gamma   90.00000000
_symmetry_Int_Tables_number   1
_chemical_formula_structural   EuPIr
_chemical_formula_sum   'Eu4 P4 Ir4'
_cell_volume   249.28049748
_cell_formula_units_Z   4
loop_
 _symmetry_equiv_pos_site_id
 _symmetry_equiv_pos_as_xyz
  1  'x, y, z'
loop_
 _atom_site_type_symbol
 _atom_site_label
 _atom_site_symmetry_multiplicity
 _atom_site_fract_x
 _atom_site_fract_y
 _atom_site_fract_z
 _atom_site_occupancy
  Eu  Eu0  1  0.38704700  0.88704700  0.61295300  1
  Eu  Eu1  1  0.88704700  0.61295300  0.38704700  1
  Eu  Eu2  1  0.61295300  0.38704700  0.88704700  1
  Eu  Eu3  1  0.11295300  0.11295300  0.11295300  1
  P  P4  1  0.66614800  0.16614800  0.33385200  1
  P  P5  1  0.16614800  0.33385200  0.66614800  1
  P  P6  1  0.33385200  0.66614800  0.16614800  1
  P  P7  1  0.83385200  0.83385200  0.83385200  1
  Ir  Ir8  1  0.08887200  0.58887200  0.91112800  1
  Ir  Ir9  1  0.58887200  0.91112800  0.08887200  1
  Ir  Ir10  1  0.91112800  0.08887200  0.58887200  1
  Ir  Ir11  1  0.41112800  0.41112800  0.41112800  1
