# generated using pymatgen
data_Dy6Al43V4
_symmetry_space_group_name_H-M   'P 1'
_cell_length_a   11.00101076
_cell_length_b   11.00101076
_cell_length_c   17.68081200
_cell_angle_alpha   90.00000000
_cell_angle_beta   90.00000000
_cell_angle_gamma   120.00000455
_symmetry_Int_Tables_number   1
_chemical_formula_structural   Dy6Al43V4
_chemical_formula_sum   'Dy12 Al86 V8'
_cell_volume   1853.09633326
_cell_formula_units_Z   2
loop_
 _symmetry_equiv_pos_site_id
 _symmetry_equiv_pos_as_xyz
  1  'x, y, z'
loop_
 _atom_site_type_symbol
 _atom_site_label
 _atom_site_symmetry_multiplicity
 _atom_site_fract_x
 _atom_site_fract_y
 _atom_site_fract_z
 _atom_site_occupancy
  Dy  Dy0  1  0.52995400  0.00000000  0.59573500  1
  Dy  Dy1  1  0.47004600  0.00000000  0.40426500  1
  Dy  Dy2  1  0.00000000  0.52995400  0.59573500  1
  Dy  Dy3  1  0.47004600  0.00000000  0.09573500  1
  Dy  Dy4  1  0.00000000  0.52995400  0.90426500  1
  Dy  Dy5  1  0.00000000  0.47004600  0.40426500  1
  Dy  Dy6  1  0.52995400  0.00000000  0.90426500  1
  Dy  Dy7  1  0.00000000  0.47004600  0.09573500  1
  Dy  Dy8  1  0.47004600  0.47004600  0.59573500  1
  Dy  Dy9  1  0.52995400  0.52995400  0.40426500  1
  Dy  Dy10  1  0.52995400  0.52995400  0.09573500  1
  Dy  Dy11  1  0.47004600  0.47004600  0.90426500  1
  Al  Al12  1  0.14621000  0.59757000  0.75000000  1
  Al  Al13  1  0.85379000  0.40243000  0.25000000  1
  Al  Al14  1  0.40243000  0.54864000  0.75000000  1
  Al  Al15  1  0.59757000  0.14621000  0.75000000  1
  Al  Al16  1  0.59757000  0.45136000  0.25000000  1
  Al  Al17  1  0.40243000  0.85379000  0.25000000  1
  Al  Al18  1  0.45136000  0.85379000  0.75000000  1
  Al  Al19  1  0.54864000  0.40243000  0.75000000  1
  Al  Al20  1  0.54864000  0.14621000  0.25000000  1
  Al  Al21  1  0.45136000  0.59757000  0.25000000  1
  Al  Al22  1  0.85379000  0.45136000  0.75000000  1
  Al  Al23  1  0.14621000  0.54864000  0.25000000  1
  Al  Al24  1  0.15558500  0.00000000  0.11571200  1
  Al  Al25  1  0.84441500  0.00000000  0.88428800  1
  Al  Al26  1  0.00000000  0.15558500  0.11571200  1
  Al  Al27  1  0.84441500  0.00000000  0.61571200  1
  Al  Al28  1  0.00000000  0.15558500  0.38428800  1
  Al  Al29  1  0.00000000  0.84441500  0.88428800  1
  Al  Al30  1  0.15558500  0.00000000  0.38428800  1
  Al  Al31  1  0.00000000  0.84441500  0.61571200  1
  Al  Al32  1  0.84441500  0.84441500  0.11571200  1
  Al  Al33  1  0.15558500  0.15558500  0.88428800  1
  Al  Al34  1  0.15558500  0.15558500  0.61571200  1
  Al  Al35  1  0.84441500  0.84441500  0.38428800  1
  Al  Al36  1  0.24681800  0.49363500  0.50000000  1
  Al  Al37  1  0.75318200  0.50636500  0.50000000  1
  Al  Al38  1  0.50636500  0.75318200  0.50000000  1
  Al  Al39  1  0.75318200  0.50636500  0.00000000  1
  Al  Al40  1  0.49363500  0.24681800  0.00000000  1
  Al  Al41  1  0.49363500  0.24681800  0.50000000  1
  Al  Al42  1  0.24681800  0.49363500  0.00000000  1
  Al  Al43  1  0.50636500  0.75318200  0.00000000  1
  Al  Al44  1  0.24681800  0.75318200  0.50000000  1
  Al  Al45  1  0.75318200  0.24681800  0.50000000  1
  Al  Al46  1  0.75318200  0.24681800  0.00000000  1
  Al  Al47  1  0.24681800  0.75318200  0.00000000  1
  Al  Al48  1  0.14483000  0.00000000  0.75000000  1
  Al  Al49  1  0.85517000  0.00000000  0.25000000  1
  Al  Al50  1  0.00000000  0.14483000  0.75000000  1
  Al  Al51  1  0.00000000  0.85517000  0.25000000  1
  Al  Al52  1  0.85517000  0.85517000  0.75000000  1
  Al  Al53  1  0.14483000  0.14483000  0.25000000  1
  Al  Al54  1  0.33333300  0.66666700  0.62772000  1
  Al  Al55  1  0.66666700  0.33333300  0.37228000  1
  Al  Al56  1  0.66666700  0.33333300  0.12772000  1
  Al  Al57  1  0.66666700  0.33333300  0.87228000  1
  Al  Al58  1  0.33333300  0.66666700  0.87228000  1
  Al  Al59  1  0.33333300  0.66666700  0.12772000  1
  Al  Al60  1  0.33333300  0.66666700  0.37228000  1
  Al  Al61  1  0.66666700  0.33333300  0.62772000  1
  Al  Al62  1  0.25292500  0.00000000  0.52992700  1
  Al  Al63  1  0.74707500  0.00000000  0.47007300  1
  Al  Al64  1  0.00000000  0.25292500  0.52992700  1
  Al  Al65  1  0.74707500  0.00000000  0.02992700  1
  Al  Al66  1  0.00000000  0.25292500  0.97007300  1
  Al  Al67  1  0.00000000  0.74707500  0.47007300  1
  Al  Al68  1  0.25292500  0.00000000  0.97007300  1
  Al  Al69  1  0.00000000  0.74707500  0.02992700  1
  Al  Al70  1  0.74707500  0.74707500  0.52992700  1
  Al  Al71  1  0.25292500  0.25292500  0.47007300  1
  Al  Al72  1  0.25292500  0.25292500  0.02992700  1
  Al  Al73  1  0.74707500  0.74707500  0.97007300  1
  Al  Al74  1  0.15757200  0.39188000  0.66569200  1
  Al  Al75  1  0.84242800  0.60812000  0.33430800  1
  Al  Al76  1  0.60812000  0.76569100  0.66569200  1
  Al  Al77  1  0.84242800  0.60812000  0.16569200  1
  Al  Al78  1  0.39188000  0.15757200  0.83430800  1
  Al  Al79  1  0.39188000  0.23430900  0.33430800  1
  Al  Al80  1  0.15757200  0.39188000  0.83430800  1
  Al  Al81  1  0.60812000  0.84242800  0.16569200  1
  Al  Al82  1  0.23430900  0.84242800  0.66569200  1
  Al  Al83  1  0.39188000  0.23430900  0.16569200  1
  Al  Al84  1  0.76569100  0.60812000  0.83430800  1
  Al  Al85  1  0.76569100  0.15757200  0.33430800  1
  Al  Al86  1  0.60812000  0.76569100  0.83430800  1
  Al  Al87  1  0.23430900  0.39188000  0.16569200  1
  Al  Al88  1  0.60812000  0.84242800  0.33430800  1
  Al  Al89  1  0.39188000  0.15757200  0.66569200  1
  Al  Al90  1  0.76569100  0.15757200  0.16569200  1
  Al  Al91  1  0.23430900  0.39188000  0.33430800  1
  Al  Al92  1  0.23430900  0.84242800  0.83430800  1
  Al  Al93  1  0.76569100  0.60812000  0.66569200  1
  Al  Al94  1  0.84242800  0.23430900  0.83430800  1
  Al  Al95  1  0.15757200  0.76569100  0.16569200  1
  Al  Al96  1  0.15757200  0.76569100  0.33430800  1
  Al  Al97  1  0.84242800  0.23430900  0.66569200  1
  V  V98  1  0.00000000  0.00000000  0.50000000  1
  V  V99  1  0.00000000  0.00000000  0.00000000  1
  V  V100  1  0.73028800  0.00000000  0.75000000  1
  V  V101  1  0.26971200  0.00000000  0.25000000  1
  V  V102  1  0.00000000  0.73028800  0.75000000  1
  V  V103  1  0.00000000  0.26971200  0.25000000  1
  V  V104  1  0.26971200  0.26971200  0.75000000  1
  V  V105  1  0.73028800  0.73028800  0.25000000  1
