# generated using pymatgen
data_ThRe2SiC
_symmetry_space_group_name_H-M   'P 1'
_cell_length_a   5.91006826
_cell_length_b   5.91006826
_cell_length_c   7.32325000
_cell_angle_alpha   90.00000000
_cell_angle_beta   90.00000000
_cell_angle_gamma   140.02072354
_symmetry_Int_Tables_number   1
_chemical_formula_structural   ThRe2SiC
_chemical_formula_sum   'Th2 Re4 Si2 C2'
_cell_volume   164.34976201
_cell_formula_units_Z   2
loop_
 _symmetry_equiv_pos_site_id
 _symmetry_equiv_pos_as_xyz
  1  'x, y, z'
loop_
 _atom_site_type_symbol
 _atom_site_label
 _atom_site_symmetry_multiplicity
 _atom_site_fract_x
 _atom_site_fract_y
 _atom_site_fract_z
 _atom_site_occupancy
  Th  Th0  1  0.54582600  0.45417400  0.25000000  1
  Th  Th1  1  0.45417400  0.54582600  0.75000000  1
  Re  Re2  1  0.82741200  0.17258800  0.06289000  1
  Re  Re3  1  0.17258800  0.82741200  0.93711000  1
  Re  Re4  1  0.17258800  0.82741200  0.56289000  1
  Re  Re5  1  0.82741200  0.17258800  0.43711000  1
  Si  Si6  1  0.26566500  0.73433500  0.25000000  1
  Si  Si7  1  0.73433500  0.26566500  0.75000000  1
  C  C8  1  0.00000000  0.00000000  0.00000000  1
  C  C9  1  0.00000000  0.00000000  0.50000000  1
