# generated using pymatgen
data_Nd3In5
_symmetry_space_group_name_H-M   'P 1'
_cell_length_a   6.60093335
_cell_length_b   6.60093335
_cell_length_c   10.59088300
_cell_angle_alpha   90.00000000
_cell_angle_beta   90.00000000
_cell_angle_gamma   101.85653853
_symmetry_Int_Tables_number   1
_chemical_formula_structural   Nd3In5
_chemical_formula_sum   'Nd6 In10'
_cell_volume   451.62396089
_cell_formula_units_Z   2
loop_
 _symmetry_equiv_pos_site_id
 _symmetry_equiv_pos_as_xyz
  1  'x, y, z'
loop_
 _atom_site_type_symbol
 _atom_site_label
 _atom_site_symmetry_multiplicity
 _atom_site_fract_x
 _atom_site_fract_y
 _atom_site_fract_z
 _atom_site_occupancy
  Nd  Nd0  1  0.63224500  0.63224500  0.25000000  1
  Nd  Nd1  1  0.36775500  0.36775500  0.75000000  1
  Nd  Nd2  1  0.20257200  0.79742800  0.50000000  1
  Nd  Nd3  1  0.20257200  0.79742800  0.00000000  1
  Nd  Nd4  1  0.79742800  0.20257200  0.50000000  1
  Nd  Nd5  1  0.79742800  0.20257200  0.00000000  1
  In  In6  1  0.01334100  0.01334000  0.25000000  1
  In  In7  1  0.98666000  0.98665900  0.75000000  1
  In  In8  1  0.30881400  0.30881400  0.04952000  1
  In  In9  1  0.69118600  0.69118600  0.95048000  1
  In  In10  1  0.30881400  0.30881400  0.45048000  1
  In  In11  1  0.69118600  0.69118600  0.54952000  1
  In  In12  1  0.50266500  0.07446800  0.25000000  1
  In  In13  1  0.92553200  0.49733500  0.75000000  1
  In  In14  1  0.49733500  0.92553200  0.75000000  1
  In  In15  1  0.07446800  0.50266500  0.25000000  1
