# generated using pymatgen
data_Ba8Sn4S15
_symmetry_space_group_name_H-M   'P 1'
_cell_length_a   8.66957269
_cell_length_b   25.74745536
_cell_length_c   29.13099517
_cell_angle_alpha   90.00000000
_cell_angle_beta   90.00000000
_cell_angle_gamma   90.00000000
_symmetry_Int_Tables_number   1
_chemical_formula_structural   Ba8Sn4S15
_chemical_formula_sum   'Ba64 Sn32 S120'
_cell_volume   6502.60430690
_cell_formula_units_Z   8
loop_
 _symmetry_equiv_pos_site_id
 _symmetry_equiv_pos_as_xyz
  1  'x, y, z'
loop_
 _atom_site_type_symbol
 _atom_site_label
 _atom_site_symmetry_multiplicity
 _atom_site_fract_x
 _atom_site_fract_y
 _atom_site_fract_z
 _atom_site_occupancy
  Ba  Ba0  1  0.06660232  0.72826618  0.47974663  1
  Ba  Ba1  1  0.93339768  0.22826618  0.52025337  1
  Ba  Ba2  1  0.06660232  0.22826618  0.02025337  1
  Ba  Ba3  1  0.93339768  0.72826618  0.97974663  1
  Ba  Ba4  1  0.94566437  0.99945503  0.13074051  1
  Ba  Ba5  1  0.05433563  0.49945503  0.86925949  1
  Ba  Ba6  1  0.94566437  0.49945503  0.36925949  1
  Ba  Ba7  1  0.05433563  0.99945503  0.63074051  1
  Ba  Ba8  1  0.79378174  0.81860330  0.11816820  1
  Ba  Ba9  1  0.20621826  0.31860330  0.88183180  1
  Ba  Ba10  1  0.79378174  0.31860330  0.38183180  1
  Ba  Ba11  1  0.20621826  0.81860330  0.61816820  1
  Ba  Ba12  1  0.55404023  0.89826037  0.48085413  1
  Ba  Ba13  1  0.44595977  0.39826037  0.51914587  1
  Ba  Ba14  1  0.55404023  0.39826037  0.01914587  1
  Ba  Ba15  1  0.44595977  0.89826037  0.98085413  1
  Ba  Ba16  1  0.08476480  0.54973041  0.22591632  1
  Ba  Ba17  1  0.91523520  0.04973041  0.77408368  1
  Ba  Ba18  1  0.08476480  0.04973041  0.27408368  1
  Ba  Ba19  1  0.91523520  0.54973041  0.72591632  1
  Ba  Ba20  1  0.94971291  0.71771255  0.25292553  1
  Ba  Ba21  1  0.05028709  0.21771255  0.74707447  1
  Ba  Ba22  1  0.94971291  0.21771255  0.24707447  1
  Ba  Ba23  1  0.05028709  0.71771255  0.75292553  1
  Ba  Ba24  1  0.42280219  0.63222480  0.12511431  1
  Ba  Ba25  1  0.57719781  0.13222480  0.87488569  1
  Ba  Ba26  1  0.42280219  0.13222480  0.37488569  1
  Ba  Ba27  1  0.57719781  0.63222480  0.62511431  1
  Ba  Ba28  1  0.90974002  0.84599959  0.36826573  1
  Ba  Ba29  1  0.09025998  0.34599959  0.63173427  1
  Ba  Ba30  1  0.90974002  0.34599959  0.13173427  1
  Ba  Ba31  1  0.09025998  0.84599959  0.86826573  1
  Ba  Ba32  1  0.44828306  0.91586559  0.25712878  1
  Ba  Ba33  1  0.55171694  0.41586559  0.74287122  1
  Ba  Ba34  1  0.44828306  0.41586559  0.24287122  1
  Ba  Ba35  1  0.55171694  0.91586559  0.75712878  1
  Ba  Ba36  1  0.29133092  0.81814006  0.12708417  1
  Ba  Ba37  1  0.70866908  0.31814006  0.87291583  1
  Ba  Ba38  1  0.29133092  0.31814006  0.37291583  1
  Ba  Ba39  1  0.70866908  0.81814006  0.62708417  1
  Ba  Ba40  1  0.56496256  0.08467320  0.22320485  1
  Ba  Ba41  1  0.43503744  0.58467320  0.77679515  1
  Ba  Ba42  1  0.56496256  0.58467320  0.27679515  1
  Ba  Ba43  1  0.43503744  0.08467320  0.72320485  1
  Ba  Ba44  1  0.39566081  0.78564069  0.36279262  1
  Ba  Ba45  1  0.60433919  0.28564069  0.63720738  1
  Ba  Ba46  1  0.39566081  0.28564069  0.13720738  1
  Ba  Ba47  1  0.60433919  0.78564069  0.86279262  1
  Ba  Ba48  1  0.35409282  0.57763469  0.47661954  1
  Ba  Ba49  1  0.64590718  0.07763469  0.52338046  1
  Ba  Ba50  1  0.35409282  0.07763469  0.02338046  1
  Ba  Ba51  1  0.64590718  0.57763469  0.97661954  1
  Ba  Ba52  1  0.74649201  0.66459446  0.39326033  1
  Ba  Ba53  1  0.25350799  0.16459446  0.60673967  1
  Ba  Ba54  1  0.74649201  0.16459446  0.10673967  1
  Ba  Ba55  1  0.25350799  0.66459446  0.89326033  1
  Ba  Ba56  1  0.15306941  0.04005948  0.48619313  1
  Ba  Ba57  1  0.84693059  0.54005948  0.51380687  1
  Ba  Ba58  1  0.15306941  0.54005948  0.01380687  1
  Ba  Ba59  1  0.84693059  0.04005948  0.98619313  1
  Ba  Ba60  1  0.75204528  0.00329569  0.36148744  1
  Ba  Ba61  1  0.24795472  0.50329569  0.63851256  1
  Ba  Ba62  1  0.75204528  0.50329569  0.13851256  1
  Ba  Ba63  1  0.24795472  0.00329569  0.86148744  1
  Sn  Sn64  1  0.42807002  0.97810560  0.12557542  1
  Sn  Sn65  1  0.57192998  0.47810560  0.87442458  1
  Sn  Sn66  1  0.42807002  0.47810560  0.37442458  1
  Sn  Sn67  1  0.57192998  0.97810560  0.62557542  1
  Sn  Sn68  1  0.56744096  0.73491962  0.49354577  1
  Sn  Sn69  1  0.43255904  0.23491962  0.50645423  1
  Sn  Sn70  1  0.56744096  0.23491962  0.00645423  1
  Sn  Sn71  1  0.43255904  0.73491962  0.99354577  1
  Sn  Sn72  1  0.92049375  0.90217690  0.24279802  1
  Sn  Sn73  1  0.07950625  0.40217690  0.75720198  1
  Sn  Sn74  1  0.92049375  0.40217690  0.25720198  1
  Sn  Sn75  1  0.07950625  0.90217690  0.74279802  1
  Sn  Sn76  1  0.43209940  0.73021835  0.23770056  1
  Sn  Sn77  1  0.56790060  0.23021835  0.76229944  1
  Sn  Sn78  1  0.43209940  0.23021835  0.26229944  1
  Sn  Sn79  1  0.56790060  0.73021835  0.73770056  1
  Sn  Sn80  1  0.91218533  0.65007368  0.12241179  1
  Sn  Sn81  1  0.08781467  0.15007368  0.87758821  1
  Sn  Sn82  1  0.91218533  0.15007368  0.37758821  1
  Sn  Sn83  1  0.08781467  0.65007368  0.62241179  1
  Sn  Sn84  1  0.06045566  0.88751105  0.49584096  1
  Sn  Sn85  1  0.93954434  0.38751105  0.50415904  1
  Sn  Sn86  1  0.06045566  0.38751105  0.00415904  1
  Sn  Sn87  1  0.93954434  0.88751105  0.99584096  1
  Sn  Sn88  1  0.16435884  0.63739310  0.35722348  1
  Sn  Sn89  1  0.83564116  0.13739310  0.64277652  1
  Sn  Sn90  1  0.16435884  0.13739310  0.14277652  1
  Sn  Sn91  1  0.83564116  0.63739310  0.85722348  1
  Sn  Sn92  1  0.32838788  0.96777372  0.38064055  1
  Sn  Sn93  1  0.67161212  0.46777372  0.61935945  1
  Sn  Sn94  1  0.32838788  0.46777372  0.11935945  1
  Sn  Sn95  1  0.67161212  0.96777372  0.88064055  1
  S  S96  1  0.28596031  0.01063842  0.19120932  1
  S  S97  1  0.71403969  0.51063842  0.80879068  1
  S  S98  1  0.28596031  0.51063842  0.30879068  1
  S  S99  1  0.71403969  0.01063842  0.69120932  1
  S  S100  1  0.60341582  0.04967260  0.10604014  1
  S  S101  1  0.39658418  0.54967260  0.89395986  1
  S  S102  1  0.60341582  0.54967260  0.39395986  1
  S  S103  1  0.39658418  0.04967260  0.60604014  1
  S  S104  1  0.25786228  0.96317172  0.06248601  1
  S  S105  1  0.74213772  0.46317172  0.93751399  1
  S  S106  1  0.25786228  0.46317172  0.43751399  1
  S  S107  1  0.74213772  0.96317172  0.56248601  1
  S  S108  1  0.55091717  0.90044230  0.15312715  1
  S  S109  1  0.44908283  0.40044230  0.84687285  1
  S  S110  1  0.55091717  0.40044230  0.34687285  1
  S  S111  1  0.44908283  0.90044230  0.65312715  1
  S  S112  1  0.71025016  0.78292484  0.43496645  1
  S  S113  1  0.28974984  0.28292484  0.56503355  1
  S  S114  1  0.71025016  0.28292484  0.06503355  1
  S  S115  1  0.28974984  0.78292484  0.93496645  1
  S  S116  1  0.46800128  0.79941568  0.54424680  1
  S  S117  1  0.53199872  0.29941568  0.45575320  1
  S  S118  1  0.46800128  0.29941568  0.95575320  1
  S  S119  1  0.53199872  0.79941568  0.04424680  1
  S  S120  1  0.39641728  0.69236702  0.43859880  1
  S  S121  1  0.60358272  0.19236702  0.56140120  1
  S  S122  1  0.39641728  0.19236702  0.06140120  1
  S  S123  1  0.60358272  0.69236702  0.93859880  1
  S  S124  1  0.76229025  0.82989473  0.26407746  1
  S  S125  1  0.23770975  0.32989473  0.73592254  1
  S  S126  1  0.76229025  0.32989473  0.23592254  1
  S  S127  1  0.23770975  0.82989473  0.76407746  1
  S  S128  1  0.09132914  0.92637311  0.30617375  1
  S  S129  1  0.90867086  0.42637311  0.69382625  1
  S  S130  1  0.09132914  0.42637311  0.19382625  1
  S  S131  1  0.90867086  0.92637311  0.80617375  1
  S  S132  1  0.03738184  0.88991176  0.16885365  1
  S  S133  1  0.96261816  0.38991176  0.83114635  1
  S  S134  1  0.03738184  0.38991176  0.33114635  1
  S  S135  1  0.96261816  0.88991176  0.66885365  1
  S  S136  1  0.77575713  0.98367037  0.24160005  1
  S  S137  1  0.22424287  0.48367037  0.75839995  1
  S  S138  1  0.77575713  0.48367037  0.25839995  1
  S  S139  1  0.22424287  0.98367037  0.74160005  1
  S  S140  1  0.26704275  0.80192345  0.25651236  1
  S  S141  1  0.73295725  0.30192345  0.74348764  1
  S  S142  1  0.26704275  0.30192345  0.24348764  1
  S  S143  1  0.73295725  0.80192345  0.75651236  1
  S  S144  1  0.28014623  0.65134737  0.23314672  1
  S  S145  1  0.71985377  0.15134737  0.76685328  1
  S  S146  1  0.28014623  0.15134737  0.26685328  1
  S  S147  1  0.71985377  0.65134737  0.73314672  1
  S  S148  1  0.54922551  0.74110910  0.16389861  1
  S  S149  1  0.45077449  0.24110910  0.83610139  1
  S  S150  1  0.54922551  0.24110910  0.33610139  1
  S  S151  1  0.45077449  0.74110910  0.66389861  1
  S  S152  1  0.60502741  0.70873030  0.30101817  1
  S  S153  1  0.39497259  0.20873030  0.69898183  1
  S  S154  1  0.60502741  0.20873030  0.19898183  1
  S  S155  1  0.39497259  0.70873030  0.80101817  1
  S  S156  1  0.74305135  0.66030666  0.05788614  1
  S  S157  1  0.25694865  0.16030666  0.94211386  1
  S  S158  1  0.74305135  0.16030666  0.44211386  1
  S  S159  1  0.25694865  0.66030666  0.55788614  1
  S  S160  1  0.77111111  0.61704819  0.18871280  1
  S  S161  1  0.22888889  0.11704819  0.81128720  1
  S  S162  1  0.77111111  0.11704819  0.31128720  1
  S  S163  1  0.22888889  0.61704819  0.68871280  1
  S  S164  1  0.04101436  0.72872103  0.14471337  1
  S  S165  1  0.95898564  0.22872103  0.85528663  1
  S  S166  1  0.04101436  0.22872103  0.35528663  1
  S  S167  1  0.95898564  0.72872103  0.64471337  1
  S  S168  1  0.07951346  0.57409177  0.11471920  1
  S  S169  1  0.92048654  0.07409177  0.88528080  1
  S  S170  1  0.07951346  0.07409177  0.38528080  1
  S  S171  1  0.92048654  0.57409177  0.61471920  1
  S  S172  1  0.89601870  0.94395459  0.45025070  1
  S  S173  1  0.10398130  0.44395459  0.54974930  1
  S  S174  1  0.89601870  0.44395459  0.04974930  1
  S  S175  1  0.10398130  0.94395459  0.95025070  1
  S  S176  1  0.94093534  0.82138570  0.54208449  1
  S  S177  1  0.05906466  0.32138570  0.45791551  1
  S  S178  1  0.94093534  0.32138570  0.95791551  1
  S  S179  1  0.05906466  0.82138570  0.04208449  1
  S  S180  1  0.20657698  0.83978883  0.43890819  1
  S  S181  1  0.79342302  0.33978883  0.56109181  1
  S  S182  1  0.20657698  0.33978883  0.06109181  1
  S  S183  1  0.79342302  0.83978883  0.93890819  1
  S  S184  1  0.23432765  0.93791974  0.54213494  1
  S  S185  1  0.76567235  0.43791974  0.45786506  1
  S  S186  1  0.23432765  0.43791974  0.95786506  1
  S  S187  1  0.76567235  0.93791974  0.04213494  1
  S  S188  1  0.04847837  0.73076642  0.36327669  1
  S  S189  1  0.95152163  0.23076642  0.63672331  1
  S  S190  1  0.04847837  0.23076642  0.13672331  1
  S  S191  1  0.95152163  0.73076642  0.86327669  1
  S  S192  1  0.92709728  0.60739195  0.31123594  1
  S  S193  1  0.07290272  0.10739195  0.68876406  1
  S  S194  1  0.92709728  0.10739195  0.18876406  1
  S  S195  1  0.07290272  0.60739195  0.81123594  1
  S  S196  1  0.02840810  0.60318038  0.43553737  1
  S  S197  1  0.97159190  0.10318038  0.56446263  1
  S  S198  1  0.02840810  0.10318038  0.06446263  1
  S  S199  1  0.97159190  0.60318038  0.93553737  1
  S  S200  1  0.55061070  0.90012513  0.36580369  1
  S  S201  1  0.44938930  0.40012513  0.63419631  1
  S  S202  1  0.55061070  0.40012513  0.13419631  1
  S  S203  1  0.44938930  0.90012513  0.86580369  1
  S  S204  1  0.42697058  0.02508309  0.31483423  1
  S  S205  1  0.57302942  0.52508309  0.68516577  1
  S  S206  1  0.42697058  0.52508309  0.18516577  1
  S  S207  1  0.57302942  0.02508309  0.81483423  1
  S  S208  1  0.49163376  0.02298397  0.44077001  1
  S  S209  1  0.50836624  0.52298397  0.55922999  1
  S  S210  1  0.49163376  0.52298397  0.05922999  1
  S  S211  1  0.50836624  0.02298397  0.94077001  1
  S  S212  1  0.73533117  0.66742170  0.52191258  1
  S  S213  1  0.26466883  0.16742170  0.47808742  1
  S  S214  1  0.73533117  0.16742170  0.97808742  1
  S  S215  1  0.26466883  0.66742170  0.02191258  1
