# generated using pymatgen
data_Sr5Mg19Ge12
_symmetry_space_group_name_H-M   'P 1'
_cell_length_a   14.69722010
_cell_length_b   14.69722010
_cell_length_c   4.43165900
_cell_angle_alpha   90.00000000
_cell_angle_beta   90.00000000
_cell_angle_gamma   120.00000045
_symmetry_Int_Tables_number   1
_chemical_formula_structural   Sr5Mg19Ge12
_chemical_formula_sum   'Sr5 Mg19 Ge12'
_cell_volume   829.02449253
_cell_formula_units_Z   1
loop_
 _symmetry_equiv_pos_site_id
 _symmetry_equiv_pos_as_xyz
  1  'x, y, z'
loop_
 _atom_site_type_symbol
 _atom_site_label
 _atom_site_symmetry_multiplicity
 _atom_site_fract_x
 _atom_site_fract_y
 _atom_site_fract_z
 _atom_site_occupancy
  Sr  Sr0  1  0.18227000  0.18227000  0.50000000  1
  Sr  Sr1  1  0.81773000  0.00000000  0.50000000  1
  Sr  Sr2  1  0.00000000  0.81773000  0.50000000  1
  Sr  Sr3  1  0.33333300  0.66666700  0.00000000  1
  Sr  Sr4  1  0.66666700  0.33333300  0.00000000  1
  Mg  Mg5  1  0.55884100  0.55884100  0.00000000  1
  Mg  Mg6  1  0.44115900  0.00000000  0.00000000  1
  Mg  Mg7  1  0.00000000  0.44115900  0.00000000  1
  Mg  Mg8  1  0.71962900  0.71962900  0.50000000  1
  Mg  Mg9  1  0.28037100  0.00000000  0.50000000  1
  Mg  Mg10  1  0.00000000  0.28037100  0.50000000  1
  Mg  Mg11  1  0.17665600  0.37385100  0.00000000  1
  Mg  Mg12  1  0.62614900  0.80280500  0.00000000  1
  Mg  Mg13  1  0.19719500  0.82334400  0.00000000  1
  Mg  Mg14  1  0.80280500  0.62614900  0.00000000  1
  Mg  Mg15  1  0.82334400  0.19719500  0.00000000  1
  Mg  Mg16  1  0.37385100  0.17665600  0.00000000  1
  Mg  Mg17  1  0.35832800  0.48242600  0.50000000  1
  Mg  Mg18  1  0.51757400  0.87590200  0.50000000  1
  Mg  Mg19  1  0.12409800  0.64167200  0.50000000  1
  Mg  Mg20  1  0.87590200  0.51757400  0.50000000  1
  Mg  Mg21  1  0.64167200  0.12409800  0.50000000  1
  Mg  Mg22  1  0.48242600  0.35832800  0.50000000  1
  Mg  Mg23  1  0.00000000  0.00000000  0.00000000  1
  Ge  Ge24  1  0.82548700  0.82548700  0.00000000  1
  Ge  Ge25  1  0.17451300  0.00000000  0.00000000  1
  Ge  Ge26  1  0.00000000  0.17451300  0.00000000  1
  Ge  Ge27  1  0.16773900  0.48132000  0.50000000  1
  Ge  Ge28  1  0.51868000  0.68642000  0.50000000  1
  Ge  Ge29  1  0.31358000  0.83226100  0.50000000  1
  Ge  Ge30  1  0.68642000  0.51868000  0.50000000  1
  Ge  Ge31  1  0.83226100  0.31358000  0.50000000  1
  Ge  Ge32  1  0.48132000  0.16773900  0.50000000  1
  Ge  Ge33  1  0.36511600  0.36511600  0.00000000  1
  Ge  Ge34  1  0.63488400  0.00000000  0.00000000  1
  Ge  Ge35  1  0.00000000  0.63488400  0.00000000  1
