# generated using pymatgen
data_Ba(TmS2)2
_symmetry_space_group_name_H-M   'P 1'
_cell_length_a   4.00723400
_cell_length_b   12.26018300
_cell_length_c   14.40397000
_cell_angle_alpha   90.00000000
_cell_angle_beta   90.00000000
_cell_angle_gamma   90.00000000
_symmetry_Int_Tables_number   1
_chemical_formula_structural   Ba(TmS2)2
_chemical_formula_sum   'Ba4 Tm8 S16'
_cell_volume   707.65872297
_cell_formula_units_Z   4
loop_
 _symmetry_equiv_pos_site_id
 _symmetry_equiv_pos_as_xyz
  1  'x, y, z'
loop_
 _atom_site_type_symbol
 _atom_site_label
 _atom_site_symmetry_multiplicity
 _atom_site_fract_x
 _atom_site_fract_y
 _atom_site_fract_z
 _atom_site_occupancy
  Ba  Ba0  1  0.25000000  0.75716100  0.33888100  1
  Ba  Ba1  1  0.25000000  0.25716100  0.16111900  1
  Ba  Ba2  1  0.75000000  0.24283900  0.66111900  1
  Ba  Ba3  1  0.75000000  0.74283900  0.83888100  1
  Tm  Tm4  1  0.25000000  0.43402500  0.39080700  1
  Tm  Tm5  1  0.25000000  0.93402500  0.10919300  1
  Tm  Tm6  1  0.75000000  0.56597500  0.60919300  1
  Tm  Tm7  1  0.75000000  0.06597500  0.89080700  1
  Tm  Tm8  1  0.25000000  0.42155500  0.89850800  1
  Tm  Tm9  1  0.25000000  0.92155500  0.60149200  1
  Tm  Tm10  1  0.75000000  0.57844500  0.10149200  1
  Tm  Tm11  1  0.75000000  0.07844500  0.39850800  1
  S  S12  1  0.25000000  0.20703200  0.84029500  1
  S  S13  1  0.25000000  0.70703200  0.65970500  1
  S  S14  1  0.75000000  0.79296800  0.15970500  1
  S  S15  1  0.75000000  0.29296800  0.34029500  1
  S  S16  1  0.25000000  0.12177600  0.52251300  1
  S  S17  1  0.25000000  0.62177600  0.97748700  1
  S  S18  1  0.75000000  0.87822400  0.47748700  1
  S  S19  1  0.75000000  0.37822400  0.02251300  1
  S  S20  1  0.25000000  0.02305100  0.28317400  1
  S  S21  1  0.25000000  0.52305100  0.21682600  1
  S  S22  1  0.75000000  0.97694900  0.71682600  1
  S  S23  1  0.75000000  0.47694900  0.78317400  1
  S  S24  1  0.25000000  0.42003600  0.57592300  1
  S  S25  1  0.25000000  0.92003600  0.92407700  1
  S  S26  1  0.75000000  0.57996400  0.42407700  1
  S  S27  1  0.75000000  0.07996400  0.07592300  1
