# generated using pymatgen
data_Na5LuH4(C2O7)2
_symmetry_space_group_name_H-M   'P 1'
_cell_length_a   7.64563400
_cell_length_b   7.64563400
_cell_length_c   11.67003300
_cell_angle_alpha   90.00000000
_cell_angle_beta   90.00000000
_cell_angle_gamma   90.00000000
_symmetry_Int_Tables_number   1
_chemical_formula_structural   Na5LuH4(C2O7)2
_chemical_formula_sum   'Na10 Lu2 H8 C8 O28'
_cell_volume   682.18017283
_cell_formula_units_Z   2
loop_
 _symmetry_equiv_pos_site_id
 _symmetry_equiv_pos_as_xyz
  1  'x, y, z'
loop_
 _atom_site_type_symbol
 _atom_site_label
 _atom_site_symmetry_multiplicity
 _atom_site_fract_x
 _atom_site_fract_y
 _atom_site_fract_z
 _atom_site_occupancy
  Na  Na0  1  0.00000000  0.00000000  0.50000000  1
  Na  Na1  1  0.50000000  0.50000000  0.00000000  1
  Na  Na2  1  0.31866000  0.82380700  0.70775800  1
  Na  Na3  1  0.81866000  0.67619300  0.79224200  1
  Na  Na4  1  0.68134000  0.17619300  0.70775800  1
  Na  Na5  1  0.18134000  0.32380700  0.79224200  1
  Na  Na6  1  0.82380700  0.68134000  0.29224200  1
  Na  Na7  1  0.67619300  0.18134000  0.20775800  1
  Na  Na8  1  0.17619300  0.31866000  0.29224200  1
  Na  Na9  1  0.32380700  0.81866000  0.20775800  1
  Lu  Lu10  1  0.50000000  0.50000000  0.50000000  1
  Lu  Lu11  1  0.00000000  0.00000000  0.00000000  1
  H  H12  1  0.57900700  0.93484500  0.88297100  1
  H  H13  1  0.07900700  0.56515500  0.61702900  1
  H  H14  1  0.42099300  0.06515500  0.88297100  1
  H  H15  1  0.92099300  0.43484500  0.61702900  1
  H  H16  1  0.93484500  0.42099300  0.11702900  1
  H  H17  1  0.56515500  0.92099300  0.38297100  1
  H  H18  1  0.06515500  0.57900700  0.11702900  1
  H  H19  1  0.43484500  0.07900700  0.38297100  1
  C  C20  1  0.31991000  0.21575400  0.57807200  1
  C  C21  1  0.81991000  0.28424600  0.92192800  1
  C  C22  1  0.68009000  0.78424600  0.57807200  1
  C  C23  1  0.18009000  0.71575400  0.92192800  1
  C  C24  1  0.21575400  0.68009000  0.42192800  1
  C  C25  1  0.28424600  0.18009000  0.07807200  1
  C  C26  1  0.78424600  0.31991000  0.42192800  1
  C  C27  1  0.71575400  0.81991000  0.07807200  1
  O  O28  1  0.50000000  0.00000000  0.83080000  1
  O  O29  1  0.00000000  0.50000000  0.66920000  1
  O  O30  1  0.00000000  0.50000000  0.16920000  1
  O  O31  1  0.50000000  0.00000000  0.33080000  1
  O  O32  1  0.24885800  0.66441700  0.53286800  1
  O  O33  1  0.74885800  0.83558300  0.96713200  1
  O  O34  1  0.75114200  0.33558300  0.53286800  1
  O  O35  1  0.25114200  0.16441700  0.96713200  1
  O  O36  1  0.66441700  0.75114200  0.46713200  1
  O  O37  1  0.83558300  0.25114200  0.03286800  1
  O  O38  1  0.33558300  0.24885800  0.46713200  1
  O  O39  1  0.16441700  0.74885800  0.03286800  1
  O  O40  1  0.40650300  0.32345100  0.64572700  1
  O  O41  1  0.90650300  0.17654900  0.85427300  1
  O  O42  1  0.59349700  0.67654900  0.64572700  1
  O  O43  1  0.09349700  0.82345100  0.85427300  1
  O  O44  1  0.32345100  0.59349700  0.35427300  1
  O  O45  1  0.17654900  0.09349700  0.14572700  1
  O  O46  1  0.67654900  0.40650300  0.35427300  1
  O  O47  1  0.82345100  0.90650300  0.14572700  1
  O  O48  1  0.22734600  0.09224100  0.61764900  1
  O  O49  1  0.72734600  0.40775900  0.88235100  1
  O  O50  1  0.77265400  0.90775900  0.61764900  1
  O  O51  1  0.27265400  0.59224100  0.88235100  1
  O  O52  1  0.09224100  0.77265400  0.38235100  1
  O  O53  1  0.40775900  0.27265400  0.11764900  1
  O  O54  1  0.90775900  0.22734600  0.38235100  1
  O  O55  1  0.59224100  0.72734600  0.11764900  1
