# generated using pymatgen
data_Rb2FeO4
_symmetry_space_group_name_H-M   'P 1'
_cell_length_a   8.13396600
_cell_length_b   6.13298800
_cell_length_c   10.84848500
_cell_angle_alpha   90.00000000
_cell_angle_beta   90.00000000
_cell_angle_gamma   90.00000000
_symmetry_Int_Tables_number   1
_chemical_formula_structural   Rb2FeO4
_chemical_formula_sum   'Rb8 Fe4 O16'
_cell_volume   541.18227064
_cell_formula_units_Z   4
loop_
 _symmetry_equiv_pos_site_id
 _symmetry_equiv_pos_as_xyz
  1  'x, y, z'
loop_
 _atom_site_type_symbol
 _atom_site_label
 _atom_site_symmetry_multiplicity
 _atom_site_fract_x
 _atom_site_fract_y
 _atom_site_fract_z
 _atom_site_occupancy
  Rb  Rb0  1  0.01325400  0.75000000  0.19483500  1
  Rb  Rb1  1  0.16621100  0.25000000  0.41184300  1
  Rb  Rb2  1  0.33378900  0.75000000  0.91184300  1
  Rb  Rb3  1  0.48674600  0.25000000  0.69483500  1
  Rb  Rb4  1  0.51325400  0.75000000  0.30516500  1
  Rb  Rb5  1  0.66621100  0.25000000  0.08815700  1
  Rb  Rb6  1  0.83378900  0.75000000  0.58815700  1
  Rb  Rb7  1  0.98674600  0.25000000  0.80516500  1
  Fe  Fe8  1  0.23267200  0.25000000  0.07925800  1
  Fe  Fe9  1  0.26732800  0.75000000  0.57925800  1
  Fe  Fe10  1  0.73267200  0.25000000  0.42074200  1
  Fe  Fe11  1  0.76732800  0.75000000  0.92074200  1
  O  O12  1  0.02895000  0.25000000  0.08497300  1
  O  O13  1  0.19391200  0.52826900  0.64850300  1
  O  O14  1  0.19391200  0.97173100  0.64850300  1
  O  O15  1  0.20299300  0.75000000  0.43289200  1
  O  O16  1  0.29700700  0.25000000  0.93289200  1
  O  O17  1  0.30608800  0.02826900  0.14850300  1
  O  O18  1  0.30608800  0.47173100  0.14850300  1
  O  O19  1  0.47105000  0.75000000  0.58497300  1
  O  O20  1  0.52895000  0.25000000  0.41502700  1
  O  O21  1  0.69391200  0.52826900  0.85149700  1
  O  O22  1  0.69391200  0.97173100  0.85149700  1
  O  O23  1  0.70299300  0.75000000  0.06710800  1
  O  O24  1  0.79700700  0.25000000  0.56710800  1
  O  O25  1  0.80608800  0.02826900  0.35149700  1
  O  O26  1  0.80608800  0.47173100  0.35149700  1
  O  O27  1  0.97105000  0.75000000  0.91502700  1
