# generated using pymatgen
data_Ca3(GeAs2)2
_symmetry_space_group_name_H-M   'P 1'
_cell_length_a   18.10209700
_cell_length_b   7.32775500
_cell_length_c   7.35332345
_cell_angle_alpha   68.27549787
_cell_angle_beta   90.00000000
_cell_angle_gamma   90.00000000
_symmetry_Int_Tables_number   1
_chemical_formula_structural   Ca3(GeAs2)2
_chemical_formula_sum   'Ca12 Ge8 As16'
_cell_volume   906.12315568
_cell_formula_units_Z   4
loop_
 _symmetry_equiv_pos_site_id
 _symmetry_equiv_pos_as_xyz
  1  'x, y, z'
loop_
 _atom_site_type_symbol
 _atom_site_label
 _atom_site_symmetry_multiplicity
 _atom_site_fract_x
 _atom_site_fract_y
 _atom_site_fract_z
 _atom_site_occupancy
  Ca  Ca0  1  0.05729400  0.01199100  0.74436200  1
  Ca  Ca1  1  0.55729400  0.48800900  0.25563800  1
  Ca  Ca2  1  0.94270600  0.98800900  0.25563800  1
  Ca  Ca3  1  0.44270600  0.51199100  0.74436200  1
  Ca  Ca4  1  0.06301700  0.49828600  0.26368900  1
  Ca  Ca5  1  0.56301700  0.00171400  0.73631100  1
  Ca  Ca6  1  0.93698300  0.50171400  0.73631100  1
  Ca  Ca7  1  0.43698300  0.99828600  0.26368900  1
  Ca  Ca8  1  0.18326000  0.51337200  0.78341700  1
  Ca  Ca9  1  0.68326000  0.98662800  0.21658300  1
  Ca  Ca10  1  0.81674000  0.48662800  0.21658300  1
  Ca  Ca11  1  0.31674000  0.01337200  0.78341700  1
  Ge  Ge12  1  0.25874200  0.57956400  0.31968500  1
  Ge  Ge13  1  0.75874200  0.92043600  0.68031500  1
  Ge  Ge14  1  0.74125800  0.42043600  0.68031500  1
  Ge  Ge15  1  0.24125800  0.07956400  0.31968500  1
  Ge  Ge16  1  0.62677400  0.53063300  0.79070600  1
  Ge  Ge17  1  0.12677400  0.96936700  0.20929400  1
  Ge  Ge18  1  0.37322600  0.46936700  0.20929400  1
  Ge  Ge19  1  0.87322600  0.03063300  0.79070600  1
  As  As20  1  0.19481900  0.26707000  0.51866500  1
  As  As21  1  0.69481900  0.23293000  0.48133500  1
  As  As22  1  0.80518100  0.73293000  0.48133500  1
  As  As23  1  0.30518100  0.76707000  0.51866500  1
  As  As24  1  0.31370100  0.27784300  0.02712300  1
  As  As25  1  0.81370100  0.22215700  0.97287700  1
  As  As26  1  0.68629900  0.72215700  0.97287700  1
  As  As27  1  0.18629900  0.77784300  0.02712300  1
  As  As28  1  0.05877700  0.25772900  0.00107000  1
  As  As29  1  0.55877700  0.24227100  0.99893000  1
  As  As30  1  0.94122300  0.74227100  0.99893000  1
  As  As31  1  0.44122300  0.75772900  0.00107000  1
  As  As32  1  0.06570400  0.75102500  0.50825900  1
  As  As33  1  0.56570400  0.74897500  0.49174100  1
  As  As34  1  0.93429600  0.24897500  0.49174100  1
  As  As35  1  0.43429600  0.25102500  0.50825900  1
