# generated using pymatgen
data_Hf5MnSb2
_symmetry_space_group_name_H-M   'P 1'
_cell_length_a   5.58295600
_cell_length_b   8.24550824
_cell_length_c   8.24550824
_cell_angle_alpha   83.41870090
_cell_angle_beta   70.21172980
_cell_angle_gamma   70.21172980
_symmetry_Int_Tables_number   1
_chemical_formula_structural   Hf5MnSb2
_chemical_formula_sum   'Hf10 Mn2 Sb4'
_cell_volume   336.07193595
_cell_formula_units_Z   2
loop_
 _symmetry_equiv_pos_site_id
 _symmetry_equiv_pos_as_xyz
  1  'x, y, z'
loop_
 _atom_site_type_symbol
 _atom_site_label
 _atom_site_symmetry_multiplicity
 _atom_site_fract_x
 _atom_site_fract_y
 _atom_site_fract_z
 _atom_site_occupancy
  Hf  Hf0  1  0.06969000  0.12952800  0.73109100  1
  Hf  Hf1  1  0.93031000  0.87047200  0.26890900  1
  Hf  Hf2  1  0.80078100  0.26890900  0.12952800  1
  Hf  Hf3  1  0.43031000  0.26890900  0.87047200  1
  Hf  Hf4  1  0.19921900  0.73109100  0.87047200  1
  Hf  Hf5  1  0.56969000  0.73109100  0.12952800  1
  Hf  Hf6  1  0.69921900  0.87047200  0.73109100  1
  Hf  Hf7  1  0.30078100  0.12952800  0.26890900  1
  Hf  Hf8  1  0.25000000  0.50000000  0.50000000  1
  Hf  Hf9  1  0.75000000  0.50000000  0.50000000  1
  Mn  Mn10  1  0.25000000  0.00000000  0.00000000  1
  Mn  Mn11  1  0.75000000  0.00000000  0.00000000  1
  Sb  Sb12  1  0.16428500  0.50000000  0.17142900  1
  Sb  Sb13  1  0.83571500  0.50000000  0.82857100  1
  Sb  Sb14  1  0.33571500  0.82857100  0.50000000  1
  Sb  Sb15  1  0.66428500  0.17142900  0.50000000  1
