# generated using pymatgen
data_Eu3Sc2(FeO4)3
_symmetry_space_group_name_H-M   'P 1'
_cell_length_a   11.10283539
_cell_length_b   11.10283539
_cell_length_c   11.10283539
_cell_angle_alpha   109.47122063
_cell_angle_beta   109.47122063
_cell_angle_gamma   109.47122063
_symmetry_Int_Tables_number   1
_chemical_formula_structural   Eu3Sc2(FeO4)3
_chemical_formula_sum   'Eu12 Sc8 Fe12 O48'
_cell_volume   1053.60982576
_cell_formula_units_Z   4
loop_
 _symmetry_equiv_pos_site_id
 _symmetry_equiv_pos_as_xyz
  1  'x, y, z'
loop_
 _atom_site_type_symbol
 _atom_site_label
 _atom_site_symmetry_multiplicity
 _atom_site_fract_x
 _atom_site_fract_y
 _atom_site_fract_z
 _atom_site_occupancy
  Eu  Eu0  1  0.25000000  0.37500000  0.12500000  1
  Eu  Eu1  1  0.75000000  0.62500000  0.87500000  1
  Eu  Eu2  1  0.75000000  0.12500000  0.37500000  1
  Eu  Eu3  1  0.12500000  0.25000000  0.37500000  1
  Eu  Eu4  1  0.37500000  0.75000000  0.12500000  1
  Eu  Eu5  1  0.25000000  0.87500000  0.62500000  1
  Eu  Eu6  1  0.87500000  0.75000000  0.62500000  1
  Eu  Eu7  1  0.62500000  0.25000000  0.87500000  1
  Eu  Eu8  1  0.37500000  0.12500000  0.25000000  1
  Eu  Eu9  1  0.62500000  0.87500000  0.75000000  1
  Eu  Eu10  1  0.12500000  0.37500000  0.75000000  1
  Eu  Eu11  1  0.87500000  0.62500000  0.25000000  1
  Sc  Sc12  1  0.00000000  0.00000000  0.00000000  1
  Sc  Sc13  1  0.50000000  0.00000000  0.50000000  1
  Sc  Sc14  1  0.00000000  0.50000000  0.50000000  1
  Sc  Sc15  1  0.50000000  0.00000000  0.00000000  1
  Sc  Sc16  1  0.50000000  0.50000000  0.00000000  1
  Sc  Sc17  1  0.50000000  0.50000000  0.50000000  1
  Sc  Sc18  1  0.00000000  0.00000000  0.50000000  1
  Sc  Sc19  1  0.00000000  0.50000000  0.00000000  1
  Fe  Fe20  1  0.25000000  0.62500000  0.37500000  1
  Fe  Fe21  1  0.75000000  0.37500000  0.62500000  1
  Fe  Fe22  1  0.75000000  0.87500000  0.12500000  1
  Fe  Fe23  1  0.37500000  0.25000000  0.62500000  1
  Fe  Fe24  1  0.62500000  0.75000000  0.37500000  1
  Fe  Fe25  1  0.25000000  0.12500000  0.87500000  1
  Fe  Fe26  1  0.12500000  0.75000000  0.87500000  1
  Fe  Fe27  1  0.87500000  0.25000000  0.12500000  1
  Fe  Fe28  1  0.62500000  0.37500000  0.25000000  1
  Fe  Fe29  1  0.37500000  0.62500000  0.75000000  1
  Fe  Fe30  1  0.87500000  0.12500000  0.75000000  1
  Fe  Fe31  1  0.12500000  0.87500000  0.25000000  1
  O  O32  1  0.47208300  0.37655300  0.28923000  1
  O  O33  1  0.52791700  0.62344700  0.71077000  1
  O  O34  1  0.58732300  0.18285300  0.21077000  1
  O  O35  1  0.91267700  0.12344700  0.59553000  1
  O  O36  1  0.28923000  0.47208300  0.37655300  1
  O  O37  1  0.31714700  0.91267700  0.28923000  1
  O  O38  1  0.41267700  0.81714700  0.78923000  1
  O  O39  1  0.08732300  0.87655300  0.40447000  1
  O  O40  1  0.71077000  0.52791700  0.62344700  1
  O  O41  1  0.68285300  0.08732300  0.71077000  1
  O  O42  1  0.02791700  0.31714700  0.90447000  1
  O  O43  1  0.21077000  0.58732300  0.18285300  1
  O  O44  1  0.12344700  0.02791700  0.21077000  1
  O  O45  1  0.97208300  0.68285300  0.09553000  1
  O  O46  1  0.78923000  0.41267700  0.81714700  1
  O  O47  1  0.87655300  0.97208300  0.78923000  1
  O  O48  1  0.59553000  0.91267700  0.12344700  1
  O  O49  1  0.18285300  0.47208300  0.59553000  1
  O  O50  1  0.40447000  0.08732300  0.87655300  1
  O  O51  1  0.81714700  0.52791700  0.40447000  1
  O  O52  1  0.90447000  0.02791700  0.31714700  1
  O  O53  1  0.37655300  0.58732300  0.90447000  1
  O  O54  1  0.09553000  0.97208300  0.68285300  1
  O  O55  1  0.62344700  0.41267700  0.09553000  1
  O  O56  1  0.37655300  0.28923000  0.47208300  1
  O  O57  1  0.58732300  0.90447000  0.37655300  1
  O  O58  1  0.62344700  0.71077000  0.52791700  1
  O  O59  1  0.41267700  0.09553000  0.62344700  1
  O  O60  1  0.12344700  0.59553000  0.91267700  1
  O  O61  1  0.02791700  0.21077000  0.12344700  1
  O  O62  1  0.87655300  0.40447000  0.08732300  1
  O  O63  1  0.97208300  0.78923000  0.87655300  1
  O  O64  1  0.31714700  0.90447000  0.02791700  1
  O  O65  1  0.91267700  0.28923000  0.31714700  1
  O  O66  1  0.68285300  0.09553000  0.97208300  1
  O  O67  1  0.08732300  0.71077000  0.68285300  1
  O  O68  1  0.18285300  0.21077000  0.58732300  1
  O  O69  1  0.47208300  0.59553000  0.18285300  1
  O  O70  1  0.81714700  0.78923000  0.41267700  1
  O  O71  1  0.52791700  0.40447000  0.81714700  1
  O  O72  1  0.28923000  0.31714700  0.91267700  1
  O  O73  1  0.71077000  0.68285300  0.08732300  1
  O  O74  1  0.21077000  0.12344700  0.02791700  1
  O  O75  1  0.78923000  0.87655300  0.97208300  1
  O  O76  1  0.90447000  0.37655300  0.58732300  1
  O  O77  1  0.09553000  0.62344700  0.41267700  1
  O  O78  1  0.59553000  0.18285300  0.47208300  1
  O  O79  1  0.40447000  0.81714700  0.52791700  1
