# generated using pymatgen
data_Lu3Ga5
_symmetry_space_group_name_H-M   'P 1'
_cell_length_a   6.02799700
_cell_length_b   9.58176500
_cell_length_c   11.18569900
_cell_angle_alpha   90.00000000
_cell_angle_beta   90.00000000
_cell_angle_gamma   90.00000000
_symmetry_Int_Tables_number   1
_chemical_formula_structural   Lu3Ga5
_chemical_formula_sum   'Lu12 Ga20'
_cell_volume   646.07311823
_cell_formula_units_Z   4
loop_
 _symmetry_equiv_pos_site_id
 _symmetry_equiv_pos_as_xyz
  1  'x, y, z'
loop_
 _atom_site_type_symbol
 _atom_site_label
 _atom_site_symmetry_multiplicity
 _atom_site_fract_x
 _atom_site_fract_y
 _atom_site_fract_z
 _atom_site_occupancy
  Lu  Lu0  1  0.84794700  0.75000000  0.07208400  1
  Lu  Lu1  1  0.65205300  0.75000000  0.57208400  1
  Lu  Lu2  1  0.15205300  0.25000000  0.92791600  1
  Lu  Lu3  1  0.34794700  0.25000000  0.42791600  1
  Lu  Lu4  1  0.88913100  0.51078500  0.35297800  1
  Lu  Lu5  1  0.61086900  0.98921500  0.85297800  1
  Lu  Lu6  1  0.11086900  0.01078500  0.64702200  1
  Lu  Lu7  1  0.38913100  0.48921500  0.14702200  1
  Lu  Lu8  1  0.11086900  0.48921500  0.64702200  1
  Lu  Lu9  1  0.38913100  0.01078500  0.14702200  1
  Lu  Lu10  1  0.88913100  0.98921500  0.35297800  1
  Lu  Lu11  1  0.61086900  0.51078500  0.85297800  1
  Ga  Ga12  1  0.87251100  0.05133700  0.09132800  1
  Ga  Ga13  1  0.62748900  0.44866300  0.59132800  1
  Ga  Ga14  1  0.12748900  0.55133700  0.90867200  1
  Ga  Ga15  1  0.37251100  0.94866300  0.40867200  1
  Ga  Ga16  1  0.12748900  0.94866300  0.90867200  1
  Ga  Ga17  1  0.37251100  0.55133700  0.40867200  1
  Ga  Ga18  1  0.87251100  0.44866300  0.09132800  1
  Ga  Ga19  1  0.62748900  0.05133700  0.59132800  1
  Ga  Ga20  1  0.17664700  0.75000000  0.25028400  1
  Ga  Ga21  1  0.32335300  0.75000000  0.75028400  1
  Ga  Ga22  1  0.82335300  0.25000000  0.74971600  1
  Ga  Ga23  1  0.67664700  0.25000000  0.24971600  1
  Ga  Ga24  1  0.37252900  0.75000000  0.00733300  1
  Ga  Ga25  1  0.12747100  0.75000000  0.50733300  1
  Ga  Ga26  1  0.62747100  0.25000000  0.99266700  1
  Ga  Ga27  1  0.87252900  0.25000000  0.49266700  1
  Ga  Ga28  1  0.60674600  0.75000000  0.29935900  1
  Ga  Ga29  1  0.89325400  0.75000000  0.79935900  1
  Ga  Ga30  1  0.39325400  0.25000000  0.70064100  1
  Ga  Ga31  1  0.10674600  0.25000000  0.20064100  1
