# generated using pymatgen
data_Dy2(Ga3Rh)3
_symmetry_space_group_name_H-M   'P 1'
_cell_length_a   7.56364520
_cell_length_b   7.56364520
_cell_length_c   9.53582400
_cell_angle_alpha   90.00000000
_cell_angle_beta   90.00000000
_cell_angle_gamma   119.88245050
_symmetry_Int_Tables_number   1
_chemical_formula_structural   Dy2(Ga3Rh)3
_chemical_formula_sum   'Dy4 Ga18 Rh6'
_cell_volume   473.00350888
_cell_formula_units_Z   2
loop_
 _symmetry_equiv_pos_site_id
 _symmetry_equiv_pos_as_xyz
  1  'x, y, z'
loop_
 _atom_site_type_symbol
 _atom_site_label
 _atom_site_symmetry_multiplicity
 _atom_site_fract_x
 _atom_site_fract_y
 _atom_site_fract_z
 _atom_site_occupancy
  Dy  Dy0  1  0.99682400  0.66768700  0.25000000  1
  Dy  Dy1  1  0.00317600  0.33231300  0.75000000  1
  Dy  Dy2  1  0.66768700  0.99682400  0.25000000  1
  Dy  Dy3  1  0.33231300  0.00317600  0.75000000  1
  Ga  Ga4  1  0.12465700  0.12465700  0.25000000  1
  Ga  Ga5  1  0.87534300  0.87534300  0.75000000  1
  Ga  Ga6  1  0.00044200  0.33395600  0.07746000  1
  Ga  Ga7  1  0.99955800  0.66604400  0.92254000  1
  Ga  Ga8  1  0.99955800  0.66604400  0.57746000  1
  Ga  Ga9  1  0.33395600  0.00044200  0.42254000  1
  Ga  Ga10  1  0.00044200  0.33395600  0.42254000  1
  Ga  Ga11  1  0.66604400  0.99955800  0.57746000  1
  Ga  Ga12  1  0.66604400  0.99955800  0.92254000  1
  Ga  Ga13  1  0.33395600  0.00044200  0.07746000  1
  Ga  Ga14  1  0.33376900  0.33376900  0.56186000  1
  Ga  Ga15  1  0.66623100  0.66623100  0.43814000  1
  Ga  Ga16  1  0.66623100  0.66623100  0.06186000  1
  Ga  Ga17  1  0.33376900  0.33376900  0.93814000  1
  Ga  Ga18  1  0.33739700  0.54694100  0.25000000  1
  Ga  Ga19  1  0.66260300  0.45305900  0.75000000  1
  Ga  Ga20  1  0.54694100  0.33739700  0.25000000  1
  Ga  Ga21  1  0.45305900  0.66260300  0.75000000  1
  Rh  Rh22  1  0.67158200  0.32841800  0.00000000  1
  Rh  Rh23  1  0.32841800  0.67158200  0.00000000  1
  Rh  Rh24  1  0.32841800  0.67158200  0.50000000  1
  Rh  Rh25  1  0.67158200  0.32841800  0.50000000  1
  Rh  Rh26  1  0.00000000  0.00000000  0.00000000  1
  Rh  Rh27  1  0.00000000  0.00000000  0.50000000  1
