# generated using pymatgen
data_NaEr(SO4)2
_symmetry_space_group_name_H-M   'P 1'
_cell_length_a   6.89431800
_cell_length_b   4.74491300
_cell_length_c   9.87401853
_cell_angle_alpha   82.76250571
_cell_angle_beta   90.00000000
_cell_angle_gamma   90.00000000
_symmetry_Int_Tables_number   1
_chemical_formula_structural   NaEr(SO4)2
_chemical_formula_sum   'Na2 Er2 S4 O16'
_cell_volume   320.43458992
_cell_formula_units_Z   2
loop_
 _symmetry_equiv_pos_site_id
 _symmetry_equiv_pos_as_xyz
  1  'x, y, z'
loop_
 _atom_site_type_symbol
 _atom_site_label
 _atom_site_symmetry_multiplicity
 _atom_site_fract_x
 _atom_site_fract_y
 _atom_site_fract_z
 _atom_site_occupancy
  Na  Na0  1  0.25000000  0.37820500  0.35940500  1
  Na  Na1  1  0.75000000  0.62179500  0.64059500  1
  Er  Er2  1  0.75000000  0.65086600  0.17588700  1
  Er  Er3  1  0.25000000  0.34913400  0.82411300  1
  S  S4  1  0.25000000  0.85319500  0.07053800  1
  S  S5  1  0.75000000  0.14680500  0.92946200  1
  S  S6  1  0.75000000  0.16837500  0.39915700  1
  S  S7  1  0.25000000  0.83162500  0.60084300  1
  O  O8  1  0.25000000  0.83520600  0.45289900  1
  O  O9  1  0.75000000  0.16479400  0.54710100  1
  O  O10  1  0.75000000  0.87002900  0.36546300  1
  O  O11  1  0.25000000  0.12997100  0.63453700  1
  O  O12  1  0.57634200  0.26250700  0.85383200  1
  O  O13  1  0.07634200  0.73749300  0.14616800  1
  O  O14  1  0.42365800  0.73749300  0.14616800  1
  O  O15  1  0.92365800  0.26250700  0.85383200  1
  O  O16  1  0.75000000  0.83086300  0.94479700  1
  O  O17  1  0.25000000  0.16913700  0.05520300  1
  O  O18  1  0.25000000  0.77445000  0.92733600  1
  O  O19  1  0.75000000  0.22555000  0.07266400  1
  O  O20  1  0.07940400  0.67405900  0.66852000  1
  O  O21  1  0.57940400  0.32594100  0.33148000  1
  O  O22  1  0.92059600  0.32594100  0.33148000  1
  O  O23  1  0.42059600  0.67405900  0.66852000  1
