# generated using pymatgen
data_Tb5(In2Pd)2
_symmetry_space_group_name_H-M   'P 1'
_cell_length_a   8.10378600
_cell_length_b   18.39904500
_cell_length_c   3.67390100
_cell_angle_alpha   90.00000000
_cell_angle_beta   90.00000000
_cell_angle_gamma   90.00000000
_symmetry_Int_Tables_number   1
_chemical_formula_structural   Tb5(In2Pd)2
_chemical_formula_sum   'Tb10 In8 Pd4'
_cell_volume   547.78570506
_cell_formula_units_Z   2
loop_
 _symmetry_equiv_pos_site_id
 _symmetry_equiv_pos_as_xyz
  1  'x, y, z'
loop_
 _atom_site_type_symbol
 _atom_site_label
 _atom_site_symmetry_multiplicity
 _atom_site_fract_x
 _atom_site_fract_y
 _atom_site_fract_z
 _atom_site_occupancy
  Tb  Tb0  1  0.50000000  0.50000000  0.00000000  1
  Tb  Tb1  1  0.00000000  0.00000000  0.00000000  1
  Tb  Tb2  1  0.74432100  0.27925000  0.00000000  1
  Tb  Tb3  1  0.25567900  0.72075000  0.00000000  1
  Tb  Tb4  1  0.75567900  0.77925000  0.00000000  1
  Tb  Tb5  1  0.24432100  0.22075000  0.00000000  1
  Tb  Tb6  1  0.61468700  0.08203700  0.00000000  1
  Tb  Tb7  1  0.38531300  0.91796300  0.00000000  1
  Tb  Tb8  1  0.88531300  0.58203700  0.00000000  1
  Tb  Tb9  1  0.11468700  0.41796300  0.00000000  1
  In  In10  1  0.71264000  0.93002000  0.50000000  1
  In  In11  1  0.28736000  0.06998000  0.50000000  1
  In  In12  1  0.78736000  0.43002000  0.50000000  1
  In  In13  1  0.21264000  0.56998000  0.50000000  1
  In  In14  1  0.57689000  0.64851000  0.50000000  1
  In  In15  1  0.42311000  0.35149000  0.50000000  1
  In  In16  1  0.92311000  0.14851000  0.50000000  1
  In  In17  1  0.07689000  0.85149000  0.50000000  1
  Pd  Pd18  1  0.52796100  0.19564200  0.50000000  1
  Pd  Pd19  1  0.47203900  0.80435800  0.50000000  1
  Pd  Pd20  1  0.97203900  0.69564200  0.50000000  1
  Pd  Pd21  1  0.02796100  0.30435800  0.50000000  1
