# generated using pymatgen
data_MgFe2BO5
_symmetry_space_group_name_H-M   'P 1'
_cell_length_a   3.08410800
_cell_length_b   9.45551500
_cell_length_c   12.47856700
_cell_angle_alpha   90.00000000
_cell_angle_beta   90.00000000
_cell_angle_gamma   90.00000000
_symmetry_Int_Tables_number   1
_chemical_formula_structural   MgFe2BO5
_chemical_formula_sum   'Mg4 Fe8 B4 O20'
_cell_volume   363.89784270
_cell_formula_units_Z   4
loop_
 _symmetry_equiv_pos_site_id
 _symmetry_equiv_pos_as_xyz
  1  'x, y, z'
loop_
 _atom_site_type_symbol
 _atom_site_label
 _atom_site_symmetry_multiplicity
 _atom_site_fract_x
 _atom_site_fract_y
 _atom_site_fract_z
 _atom_site_occupancy
  Mg  Mg0  1  0.00000000  0.49978500  0.22258600  1
  Mg  Mg1  1  0.00000000  0.00021500  0.72258600  1
  Mg  Mg2  1  0.00000000  0.50021500  0.77741400  1
  Mg  Mg3  1  0.00000000  0.99978500  0.27741400  1
  Fe  Fe4  1  0.50000000  0.75671400  0.88693800  1
  Fe  Fe5  1  0.50000000  0.74328600  0.38693800  1
  Fe  Fe6  1  0.50000000  0.24328600  0.11306200  1
  Fe  Fe7  1  0.50000000  0.25671400  0.61306200  1
  Fe  Fe8  1  0.00000000  0.00000000  0.00000000  1
  Fe  Fe9  1  0.00000000  0.50000000  0.50000000  1
  Fe  Fe10  1  0.50000000  0.50000000  0.00000000  1
  Fe  Fe11  1  0.50000000  0.00000000  0.50000000  1
  B  B12  1  0.50000000  0.76840700  0.14118300  1
  B  B13  1  0.50000000  0.73159300  0.64118300  1
  B  B14  1  0.50000000  0.23159300  0.85881700  1
  B  B15  1  0.50000000  0.26840700  0.35881700  1
  O  O16  1  0.50000000  0.83939600  0.04339500  1
  O  O17  1  0.50000000  0.66060400  0.54339500  1
  O  O18  1  0.50000000  0.16060400  0.95660500  1
  O  O19  1  0.50000000  0.33939600  0.45660500  1
  O  O20  1  0.00000000  0.38399700  0.08242800  1
  O  O21  1  0.00000000  0.11600300  0.58242800  1
  O  O22  1  0.00000000  0.61600300  0.91757200  1
  O  O23  1  0.00000000  0.88399700  0.41757200  1
  O  O24  1  0.50000000  0.62190400  0.14626700  1
  O  O25  1  0.50000000  0.87809600  0.64626700  1
  O  O26  1  0.50000000  0.37809600  0.85373300  1
  O  O27  1  0.50000000  0.12190400  0.35373300  1
  O  O28  1  0.00000000  0.88917500  0.85788500  1
  O  O29  1  0.00000000  0.61082500  0.35788500  1
  O  O30  1  0.00000000  0.11082500  0.14211500  1
  O  O31  1  0.00000000  0.38917500  0.64211500  1
  O  O32  1  0.50000000  0.34829500  0.26447900  1
  O  O33  1  0.50000000  0.15170500  0.76447900  1
  O  O34  1  0.50000000  0.65170500  0.73552100  1
  O  O35  1  0.50000000  0.84829500  0.23552100  1
