# generated using pymatgen
data_Lu6Al43V4
_symmetry_space_group_name_H-M   'P 1'
_cell_length_a   10.97201909
_cell_length_b   10.97201909
_cell_length_c   17.48394200
_cell_angle_alpha   90.00000000
_cell_angle_beta   90.00000000
_cell_angle_gamma   119.99999451
_symmetry_Int_Tables_number   1
_chemical_formula_structural   Lu6Al43V4
_chemical_formula_sum   'Lu12 Al86 V8'
_cell_volume   1822.81721691
_cell_formula_units_Z   2
loop_
 _symmetry_equiv_pos_site_id
 _symmetry_equiv_pos_as_xyz
  1  'x, y, z'
loop_
 _atom_site_type_symbol
 _atom_site_label
 _atom_site_symmetry_multiplicity
 _atom_site_fract_x
 _atom_site_fract_y
 _atom_site_fract_z
 _atom_site_occupancy
  Lu  Lu0  1  0.53140200  0.00000000  0.59602800  1
  Lu  Lu1  1  0.46859800  0.00000000  0.40397200  1
  Lu  Lu2  1  0.00000000  0.53140200  0.59602800  1
  Lu  Lu3  1  0.46859800  0.00000000  0.09602800  1
  Lu  Lu4  1  0.00000000  0.53140200  0.90397200  1
  Lu  Lu5  1  0.00000000  0.46859800  0.40397200  1
  Lu  Lu6  1  0.53140200  0.00000000  0.90397200  1
  Lu  Lu7  1  0.00000000  0.46859800  0.09602800  1
  Lu  Lu8  1  0.46859800  0.46859800  0.59602800  1
  Lu  Lu9  1  0.53140200  0.53140200  0.40397200  1
  Lu  Lu10  1  0.53140200  0.53140200  0.09602800  1
  Lu  Lu11  1  0.46859800  0.46859800  0.90397200  1
  Al  Al12  1  0.14661300  0.59815200  0.75000000  1
  Al  Al13  1  0.85338700  0.40184800  0.25000000  1
  Al  Al14  1  0.40184800  0.54846100  0.75000000  1
  Al  Al15  1  0.59815200  0.14661300  0.75000000  1
  Al  Al16  1  0.59815200  0.45153900  0.25000000  1
  Al  Al17  1  0.40184800  0.85338700  0.25000000  1
  Al  Al18  1  0.45153900  0.85338700  0.75000000  1
  Al  Al19  1  0.54846100  0.40184800  0.75000000  1
  Al  Al20  1  0.54846100  0.14661300  0.25000000  1
  Al  Al21  1  0.45153900  0.59815200  0.25000000  1
  Al  Al22  1  0.85338700  0.45153900  0.75000000  1
  Al  Al23  1  0.14661300  0.54846100  0.25000000  1
  Al  Al24  1  0.15632300  0.00000000  0.11536100  1
  Al  Al25  1  0.84367700  0.00000000  0.88463900  1
  Al  Al26  1  0.00000000  0.15632300  0.11536100  1
  Al  Al27  1  0.84367700  0.00000000  0.61536100  1
  Al  Al28  1  0.00000000  0.15632300  0.38463900  1
  Al  Al29  1  0.00000000  0.84367700  0.88463900  1
  Al  Al30  1  0.15632300  0.00000000  0.38463900  1
  Al  Al31  1  0.00000000  0.84367700  0.61536100  1
  Al  Al32  1  0.84367700  0.84367700  0.11536100  1
  Al  Al33  1  0.15632300  0.15632300  0.88463900  1
  Al  Al34  1  0.15632300  0.15632300  0.61536100  1
  Al  Al35  1  0.84367700  0.84367700  0.38463900  1
  Al  Al36  1  0.24692300  0.49384600  0.50000000  1
  Al  Al37  1  0.75307700  0.50615400  0.50000000  1
  Al  Al38  1  0.50615400  0.75307700  0.50000000  1
  Al  Al39  1  0.75307700  0.50615400  0.00000000  1
  Al  Al40  1  0.49384600  0.24692300  0.00000000  1
  Al  Al41  1  0.49384600  0.24692300  0.50000000  1
  Al  Al42  1  0.24692300  0.49384600  0.00000000  1
  Al  Al43  1  0.50615400  0.75307700  0.00000000  1
  Al  Al44  1  0.24692300  0.75307700  0.50000000  1
  Al  Al45  1  0.75307700  0.24692300  0.50000000  1
  Al  Al46  1  0.75307700  0.24692300  0.00000000  1
  Al  Al47  1  0.24692300  0.75307700  0.00000000  1
  Al  Al48  1  0.14611800  0.00000000  0.75000000  1
  Al  Al49  1  0.85388200  0.00000000  0.25000000  1
  Al  Al50  1  0.00000000  0.14611800  0.75000000  1
  Al  Al51  1  0.00000000  0.85388200  0.25000000  1
  Al  Al52  1  0.85388200  0.85388200  0.75000000  1
  Al  Al53  1  0.14611800  0.14611800  0.25000000  1
  Al  Al54  1  0.33333300  0.66666700  0.62699600  1
  Al  Al55  1  0.66666700  0.33333300  0.37300400  1
  Al  Al56  1  0.66666700  0.33333300  0.12699600  1
  Al  Al57  1  0.66666700  0.33333300  0.87300400  1
  Al  Al58  1  0.33333300  0.66666700  0.87300400  1
  Al  Al59  1  0.33333300  0.66666700  0.12699600  1
  Al  Al60  1  0.33333300  0.66666700  0.37300400  1
  Al  Al61  1  0.66666700  0.33333300  0.62699600  1
  Al  Al62  1  0.25397800  0.00000000  0.53002800  1
  Al  Al63  1  0.74602200  0.00000000  0.46997200  1
  Al  Al64  1  0.00000000  0.25397800  0.53002800  1
  Al  Al65  1  0.74602200  0.00000000  0.03002800  1
  Al  Al66  1  0.00000000  0.25397800  0.96997200  1
  Al  Al67  1  0.00000000  0.74602200  0.46997200  1
  Al  Al68  1  0.25397800  0.00000000  0.96997200  1
  Al  Al69  1  0.00000000  0.74602200  0.03002800  1
  Al  Al70  1  0.74602200  0.74602200  0.53002800  1
  Al  Al71  1  0.25397800  0.25397800  0.46997200  1
  Al  Al72  1  0.25397800  0.25397800  0.03002800  1
  Al  Al73  1  0.74602200  0.74602200  0.96997200  1
  Al  Al74  1  0.15738600  0.39230900  0.66478000  1
  Al  Al75  1  0.84261400  0.60769100  0.33522000  1
  Al  Al76  1  0.60769100  0.76507600  0.66478000  1
  Al  Al77  1  0.84261400  0.60769100  0.16478000  1
  Al  Al78  1  0.39230900  0.15738600  0.83522000  1
  Al  Al79  1  0.39230900  0.23492400  0.33522000  1
  Al  Al80  1  0.15738600  0.39230900  0.83522000  1
  Al  Al81  1  0.60769100  0.84261400  0.16478000  1
  Al  Al82  1  0.23492400  0.84261400  0.66478000  1
  Al  Al83  1  0.39230900  0.23492400  0.16478000  1
  Al  Al84  1  0.76507600  0.60769100  0.83522000  1
  Al  Al85  1  0.76507600  0.15738600  0.33522000  1
  Al  Al86  1  0.60769100  0.76507600  0.83522000  1
  Al  Al87  1  0.23492400  0.39230900  0.16478000  1
  Al  Al88  1  0.60769100  0.84261400  0.33522000  1
  Al  Al89  1  0.39230900  0.15738600  0.66478000  1
  Al  Al90  1  0.76507600  0.15738600  0.16478000  1
  Al  Al91  1  0.23492400  0.39230900  0.33522000  1
  Al  Al92  1  0.23492400  0.84261400  0.83522000  1
  Al  Al93  1  0.76507600  0.60769100  0.66478000  1
  Al  Al94  1  0.84261400  0.23492400  0.83522000  1
  Al  Al95  1  0.15738600  0.76507600  0.16478000  1
  Al  Al96  1  0.15738600  0.76507600  0.33522000  1
  Al  Al97  1  0.84261400  0.23492400  0.66478000  1
  V  V98  1  0.00000000  0.00000000  0.50000000  1
  V  V99  1  0.00000000  0.00000000  0.00000000  1
  V  V100  1  0.72923000  0.00000000  0.75000000  1
  V  V101  1  0.27077000  0.00000000  0.25000000  1
  V  V102  1  0.00000000  0.72923000  0.75000000  1
  V  V103  1  0.00000000  0.27077000  0.25000000  1
  V  V104  1  0.27077000  0.27077000  0.75000000  1
  V  V105  1  0.72923000  0.72923000  0.25000000  1
