# generated using pymatgen
data_TiO
_symmetry_space_group_name_H-M   'P 1'
_cell_length_a   5.01853492
_cell_length_b   5.01853492
_cell_length_c   2.88200000
_cell_angle_alpha   90.00000000
_cell_angle_beta   90.00000000
_cell_angle_gamma   120.00001217
_symmetry_Int_Tables_number   1
_chemical_formula_structural   TiO
_chemical_formula_sum   'Ti3 O3'
_cell_volume   62.86059049
_cell_formula_units_Z   3
loop_
 _symmetry_equiv_pos_site_id
 _symmetry_equiv_pos_as_xyz
  1  'x, y, z'
loop_
 _atom_site_type_symbol
 _atom_site_label
 _atom_site_symmetry_multiplicity
 _atom_site_fract_x
 _atom_site_fract_y
 _atom_site_fract_z
 _atom_site_occupancy
  Ti  Ti0  1  0.66666700  0.33333300  0.50000000  1
  Ti  Ti1  1  0.33333300  0.66666700  0.50000000  1
  Ti  Ti2  1  0.00000000  0.00000000  0.00000000  1
  O  O3  1  0.60603200  0.60603200  0.00000000  1
  O  O4  1  0.39396800  0.00000000  0.00000000  1
  O  O5  1  0.00000000  0.39396800  0.00000000  1
