# generated using pymatgen
data_In2Au3
_symmetry_space_group_name_H-M   'P 1'
_cell_length_a   4.71595403
_cell_length_b   4.71595403
_cell_length_c   5.75942500
_cell_angle_alpha   90.00000000
_cell_angle_beta   90.00000000
_cell_angle_gamma   120.00000040
_symmetry_Int_Tables_number   1
_chemical_formula_structural   In2Au3
_chemical_formula_sum   'In2 Au3'
_cell_volume   110.92996679
_cell_formula_units_Z   1
loop_
 _symmetry_equiv_pos_site_id
 _symmetry_equiv_pos_as_xyz
  1  'x, y, z'
loop_
 _atom_site_type_symbol
 _atom_site_label
 _atom_site_symmetry_multiplicity
 _atom_site_fract_x
 _atom_site_fract_y
 _atom_site_fract_z
 _atom_site_occupancy
  In  In0  1  0.66666700  0.33333300  0.32607700  1
  In  In1  1  0.33333300  0.66666700  0.67392300  1
  Au  Au2  1  0.66666700  0.33333300  0.81533500  1
  Au  Au3  1  0.33333300  0.66666700  0.18466500  1
  Au  Au4  1  0.00000000  0.00000000  0.00000000  1
