# generated using pymatgen
data_LaFeO3
_symmetry_space_group_name_H-M   'P 1'
_cell_length_a   5.56695157
_cell_length_b   5.56696355
_cell_length_c   5.56696690
_cell_angle_alpha   60.86588358
_cell_angle_beta   60.86600058
_cell_angle_gamma   60.86586797
_symmetry_Int_Tables_number   1
_chemical_formula_structural   LaFeO3
_chemical_formula_sum   'La2 Fe2 O6'
_cell_volume   124.37588788
_cell_formula_units_Z   2
loop_
 _symmetry_equiv_pos_site_id
 _symmetry_equiv_pos_as_xyz
  1  'x, y, z'
loop_
 _atom_site_type_symbol
 _atom_site_label
 _atom_site_symmetry_multiplicity
 _atom_site_fract_x
 _atom_site_fract_y
 _atom_site_fract_z
 _atom_site_occupancy
  La  La0  1  0.25000900  0.25001000  0.25000900  1
  La  La1  1  0.75000800  0.75000700  0.75001100  1
  Fe  Fe2  1  0.00000700  0.00000800  0.00000700  1
  Fe  Fe3  1  0.50000800  0.50000700  0.50000700  1
  O  O4  1  0.32564200  0.17437100  0.75000400  1
  O  O5  1  0.17437500  0.75000300  0.32564400  1
  O  O6  1  0.75000600  0.32564400  0.17437200  1
  O  O7  1  0.82564100  0.25000600  0.67436900  1
  O  O8  1  0.25000300  0.67437100  0.82563900  1
  O  O9  1  0.67436900  0.82564200  0.25000500  1
