# generated using pymatgen
data_Lu6H40N8O49
_symmetry_space_group_name_H-M   'P 1'
_cell_length_a   10.04134300
_cell_length_b   10.16065497
_cell_length_c   11.25925224
_cell_angle_alpha   95.66313785
_cell_angle_beta   108.47181882
_cell_angle_gamma   111.09390538
_symmetry_Int_Tables_number   1
_chemical_formula_structural   Lu6H40N8O49
_chemical_formula_sum   'Lu6 H40 N8 O49'
_cell_volume   986.74652725
_cell_formula_units_Z   1
loop_
 _symmetry_equiv_pos_site_id
 _symmetry_equiv_pos_as_xyz
  1  'x, y, z'
loop_
 _atom_site_type_symbol
 _atom_site_label
 _atom_site_symmetry_multiplicity
 _atom_site_fract_x
 _atom_site_fract_y
 _atom_site_fract_z
 _atom_site_occupancy
  Lu  Lu0  1  0.73414600  0.47683300  0.61381400  1
  Lu  Lu1  1  0.26585400  0.52316700  0.38618600  1
  Lu  Lu2  1  0.64928900  0.75547900  0.52165600  1
  Lu  Lu3  1  0.35071100  0.24452100  0.47834400  1
  Lu  Lu4  1  0.48103700  0.56503200  0.70555000  1
  Lu  Lu5  1  0.51896300  0.43496800  0.29445000  1
  H  H6  1  0.80695200  0.73946400  0.78725000  1
  H  H7  1  0.19304800  0.26053600  0.21275000  1
  H  H8  1  0.84406300  0.64653600  0.44560100  1
  H  H9  1  0.15593700  0.35346400  0.55439900  1
  H  H10  1  0.40754300  0.78672900  0.59303700  1
  H  H11  1  0.59245700  0.21327100  0.40696300  1
  H  H12  1  0.55453600  0.32295200  0.75344600  1
  H  H13  1  0.44546400  0.67704800  0.24655400  1
  H  H14  1  0.96469900  0.54107300  0.86446200  1
  H  H15  1  0.03530100  0.45892700  0.13553800  1
  H  H16  1  0.83300000  0.39710600  0.86892500  1
  H  H17  1  0.16700000  0.60289400  0.13107500  1
  H  H18  1  0.00538400  0.75668600  0.69861900  1
  H  H19  1  0.99461600  0.24331400  0.30138100  1
  H  H20  1  0.08457300  0.64465700  0.70114000  1
  H  H21  1  0.91542700  0.35534300  0.29886000  1
  H  H22  1  0.95061300  0.98185300  0.68749000  1
  H  H23  1  0.04938700  0.01814700  0.31251000  1
  H  H24  1  0.01009500  0.93204300  0.58702400  1
  H  H25  1  0.98990500  0.06795700  0.41297600  1
  H  H26  1  0.73041900  0.05594000  0.68398100  1
  H  H27  1  0.26958100  0.94406000  0.31601900  1
  H  H28  1  0.67749900  0.93163500  0.75834500  1
  H  H29  1  0.32250100  0.06836500  0.24165500  1
  H  H30  1  0.48455700  0.83544100  0.85961500  1
  H  H31  1  0.51544300  0.16455900  0.14038500  1
  H  H32  1  0.64434000  0.83357500  0.93312600  1
  H  H33  1  0.35566000  0.16642500  0.06687400  1
  H  H34  1  0.64008700  0.57683600  0.99238500  1
  H  H35  1  0.35991300  0.42316400  0.00761500  1
  H  H36  1  0.74652000  0.57524300  0.91507300  1
  H  H37  1  0.25348000  0.42475700  0.08492700  1
  H  H38  1  0.72944900  0.98895700  0.11345900  1
  H  H39  1  0.27055100  0.01104300  0.88654100  1
  H  H40  1  0.74553600  0.85126600  0.15210300  1
  H  H41  1  0.25446400  0.14873400  0.84789700  1
  H  H42  1  0.02968400  0.80208000  0.98221800  1
  H  H43  1  0.97031600  0.19792000  0.01778200  1
  H  H44  1  0.03651200  0.93167500  0.92002500  1
  H  H45  1  0.96348800  0.06832500  0.07997500  1
  N  N46  1  0.88586400  0.27748700  0.59999600  1
  N  N47  1  0.11413600  0.72251300  0.40000400  1
  N  N48  1  0.67605900  0.97298500  0.37258400  1
  N  N49  1  0.32394100  0.02701500  0.62741600  1
  N  N50  1  0.24397800  0.50215900  0.81400200  1
  N  N51  1  0.75602200  0.49784100  0.18599800  1
  N  N52  1  0.67797900  0.21520500  0.95921600  1
  N  N53  1  0.32202100  0.78479500  0.04078400  1
  O  O54  1  0.50000000  0.50000000  0.50000000  1
  O  O55  1  0.71897900  0.67774700  0.70491600  1
  O  O56  1  0.28102100  0.32225300  0.29508400  1
  O  O57  1  0.74554900  0.60453300  0.45631400  1
  O  O58  1  0.25445100  0.39546700  0.54368600  1
  O  O59  1  0.43172400  0.70640000  0.56656200  1
  O  O60  1  0.56827600  0.29360000  0.43343800  1
  O  O61  1  0.53634600  0.36706800  0.67896400  1
  O  O62  1  0.46365400  0.63293200  0.32103600  1
  O  O63  1  0.85315700  0.49099700  0.84093600  1
  O  O64  1  0.14684300  0.50900300  0.15906400  1
  O  O65  1  0.99219900  0.65677100  0.70253900  1
  O  O66  1  0.00780100  0.34322900  0.29746100  1
  O  O67  1  0.93765400  0.89571000  0.62964300  1
  O  O68  1  0.06234600  0.10429000  0.37035700  1
  O  O69  1  0.72738800  0.96013400  0.69643900  1
  O  O70  1  0.27261200  0.03986600  0.30356100  1
  O  O71  1  0.56544800  0.81190200  0.84426500  1
  O  O72  1  0.43455200  0.18809800  0.15573500  1
  O  O73  1  0.65580800  0.59330100  0.91248800  1
  O  O74  1  0.34419200  0.40669900  0.08751200  1
  O  O75  1  0.76855400  0.91644500  0.09610400  1
  O  O76  1  0.23144600  0.08355500  0.90389600  1
  O  O77  1  0.96308500  0.84302900  0.92997300  1
  O  O78  1  0.03691500  0.15697100  0.07002700  1
  O  O79  1  0.90665800  0.39141100  0.55629000  1
  O  O80  1  0.09334200  0.60858900  0.44371000  1
  O  O81  1  0.78210600  0.24016000  0.64788100  1
  O  O82  1  0.21789400  0.75984000  0.35211900  1
  O  O83  1  0.96495900  0.20715000  0.59621300  1
  O  O84  1  0.03504100  0.79285000  0.40378700  1
  O  O85  1  0.58378500  0.94280700  0.43169700  1
  O  O86  1  0.41621500  0.05719300  0.56830300  1
  O  O87  1  0.75564900  0.89678900  0.37782500  1
  O  O88  1  0.24435100  0.10321100  0.62217500  1
  O  O89  1  0.69025300  0.07182500  0.31408300  1
  O  O90  1  0.30974700  0.92817500  0.68591700  1
  O  O91  1  0.34500600  0.44766000  0.83823200  1
  O  O92  1  0.65499400  0.55234000  0.16176800  1
  O  O93  1  0.25527300  0.58999400  0.74012100  1
  O  O94  1  0.74472700  0.41000600  0.25987900  1
  O  O95  1  0.14340500  0.47025000  0.86033100  1
  O  O96  1  0.85659500  0.52975000  0.13966900  1
  O  O97  1  0.57357400  0.25472900  0.90235300  1
  O  O98  1  0.42642600  0.74527000  0.09764700  1
  O  O99  1  0.66582300  0.14531100  0.04436300  1
  O  O100  1  0.33417700  0.85468900  0.95563700  1
  O  O101  1  0.79812100  0.24803300  0.92996800  1
  O  O102  1  0.20187900  0.75196700  0.07003200  1
