# generated using pymatgen
data_Sr6As19Rh30
_symmetry_space_group_name_H-M   'P 1'
_cell_length_a   16.33283746
_cell_length_b   16.33283746
_cell_length_c   3.97178400
_cell_angle_alpha   90.00000000
_cell_angle_beta   90.00000000
_cell_angle_gamma   119.99999781
_symmetry_Int_Tables_number   1
_chemical_formula_structural   Sr6As19Rh30
_chemical_formula_sum   'Sr6 As19 Rh30'
_cell_volume   917.57071324
_cell_formula_units_Z   1
loop_
 _symmetry_equiv_pos_site_id
 _symmetry_equiv_pos_as_xyz
  1  'x, y, z'
loop_
 _atom_site_type_symbol
 _atom_site_label
 _atom_site_symmetry_multiplicity
 _atom_site_fract_x
 _atom_site_fract_y
 _atom_site_fract_z
 _atom_site_occupancy
  Sr  Sr0  1  0.09689000  0.70330000  0.24994400  1
  Sr  Sr1  1  0.60641000  0.90311000  0.24994400  1
  Sr  Sr2  1  0.29670000  0.39359000  0.24994400  1
  Sr  Sr3  1  0.90337900  0.29636400  0.75013500  1
  Sr  Sr4  1  0.39298500  0.09662100  0.75013500  1
  Sr  Sr5  1  0.70363600  0.60701500  0.75013500  1
  As  As6  1  0.76749700  0.31778000  0.25033100  1
  As  As7  1  0.55028300  0.23250300  0.25033100  1
  As  As8  1  0.68222000  0.44971700  0.25033100  1
  As  As9  1  0.23270900  0.68221000  0.74961500  1
  As  As10  1  0.44950000  0.76729100  0.74961500  1
  As  As11  1  0.31779000  0.55050000  0.74961500  1
  As  As12  1  0.25524300  0.11642000  0.24830700  1
  As  As13  1  0.86117700  0.74475700  0.24830700  1
  As  As14  1  0.88358000  0.13882300  0.24830700  1
  As  As15  1  0.74477300  0.88254200  0.74984500  1
  As  As16  1  0.13776900  0.25522700  0.74984500  1
  As  As17  1  0.11745800  0.86223100  0.74984500  1
  As  As18  1  0.37074000  0.93671100  0.24925600  1
  As  As19  1  0.56597100  0.62926000  0.24925600  1
  As  As20  1  0.06328900  0.43402900  0.24925600  1
  As  As21  1  0.62945000  0.06357600  0.75039800  1
  As  As22  1  0.43412600  0.37055000  0.75039800  1
  As  As23  1  0.93642400  0.56587400  0.75039800  1
  As  As24  1  0.00000000  0.00000000  0.40991400  1
  Rh  Rh25  1  0.92628000  0.46347100  0.25084300  1
  Rh  Rh26  1  0.53719100  0.07372000  0.25084300  1
  Rh  Rh27  1  0.53652900  0.46280900  0.25084300  1
  Rh  Rh28  1  0.07370900  0.53703600  0.74871800  1
  Rh  Rh29  1  0.46332600  0.92629100  0.74871800  1
  Rh  Rh30  1  0.46296400  0.53667400  0.74871800  1
  Rh  Rh31  1  0.02487200  0.87204300  0.24939100  1
  Rh  Rh32  1  0.84717100  0.97512800  0.24939100  1
  Rh  Rh33  1  0.12795700  0.15282900  0.24939100  1
  Rh  Rh34  1  0.97556300  0.12237900  0.74653900  1
  Rh  Rh35  1  0.14681600  0.02443700  0.74653900  1
  Rh  Rh36  1  0.87762100  0.85318400  0.74653900  1
  Rh  Rh37  1  0.41638300  0.26361000  0.25018900  1
  Rh  Rh38  1  0.84722700  0.58361700  0.25018900  1
  Rh  Rh39  1  0.73639000  0.15277300  0.25018900  1
  Rh  Rh40  1  0.58357800  0.73645900  0.74969200  1
  Rh  Rh41  1  0.15288000  0.41642200  0.74969200  1
  Rh  Rh42  1  0.26354100  0.84712000  0.74969200  1
  Rh  Rh43  1  0.22499400  0.57292900  0.24988600  1
  Rh  Rh44  1  0.34793600  0.77500600  0.24988600  1
  Rh  Rh45  1  0.42707100  0.65206400  0.24988600  1
  Rh  Rh46  1  0.77459400  0.42656200  0.75039600  1
  Rh  Rh47  1  0.65196800  0.22540600  0.75039600  1
  Rh  Rh48  1  0.57343800  0.34803200  0.75039600  1
  Rh  Rh49  1  0.22584400  0.94975900  0.24829100  1
  Rh  Rh50  1  0.72391400  0.77415600  0.24829100  1
  Rh  Rh51  1  0.05024100  0.27608600  0.24829100  1
  Rh  Rh52  1  0.77427400  0.05090300  0.75095000  1
  Rh  Rh53  1  0.27662900  0.22572600  0.75095000  1
  Rh  Rh54  1  0.94909700  0.72337100  0.75095000  1
