# generated using pymatgen
data_Ho12Ni6Pb
_symmetry_space_group_name_H-M   'P 1'
_cell_length_a   8.38710443
_cell_length_b   8.38710443
_cell_length_c   8.38710443
_cell_angle_alpha   109.47122063
_cell_angle_beta   109.47122063
_cell_angle_gamma   109.47122063
_symmetry_Int_Tables_number   1
_chemical_formula_structural   Ho12Ni6Pb
_chemical_formula_sum   'Ho12 Ni6 Pb1'
_cell_volume   454.16562573
_cell_formula_units_Z   1
loop_
 _symmetry_equiv_pos_site_id
 _symmetry_equiv_pos_as_xyz
  1  'x, y, z'
loop_
 _atom_site_type_symbol
 _atom_site_label
 _atom_site_symmetry_multiplicity
 _atom_site_fract_x
 _atom_site_fract_y
 _atom_site_fract_z
 _atom_site_occupancy
  Ho  Ho0  1  0.81215700  0.69452100  0.50667900  1
  Ho  Ho1  1  0.18784300  0.30547900  0.49332100  1
  Ho  Ho2  1  0.18784300  0.69452100  0.88236400  1
  Ho  Ho3  1  0.81215700  0.30547900  0.11763600  1
  Ho  Ho4  1  0.69452100  0.50667900  0.81215700  1
  Ho  Ho5  1  0.30547900  0.49332100  0.18784300  1
  Ho  Ho6  1  0.69452100  0.88236400  0.18784300  1
  Ho  Ho7  1  0.30547900  0.11763600  0.81215700  1
  Ho  Ho8  1  0.50667900  0.81215700  0.69452100  1
  Ho  Ho9  1  0.49332100  0.18784300  0.30547900  1
  Ho  Ho10  1  0.11763600  0.81215700  0.30547900  1
  Ho  Ho11  1  0.88236400  0.18784300  0.69452100  1
  Ni  Ni12  1  0.87654000  0.37654000  0.50000000  1
  Ni  Ni13  1  0.12346000  0.62346000  0.50000000  1
  Ni  Ni14  1  0.37654000  0.50000000  0.87654000  1
  Ni  Ni15  1  0.62346000  0.50000000  0.12346000  1
  Ni  Ni16  1  0.50000000  0.87654000  0.37654000  1
  Ni  Ni17  1  0.50000000  0.12346000  0.62346000  1
  Pb  Pb18  1  0.00000000  0.00000000  0.00000000  1
