# generated using pymatgen
data_LaAlNi
_symmetry_space_group_name_H-M   'P 1'
_cell_length_a   4.16466000
_cell_length_b   7.17092600
_cell_length_c   16.00797300
_cell_angle_alpha   90.00000000
_cell_angle_beta   90.00000000
_cell_angle_gamma   90.00000000
_symmetry_Int_Tables_number   1
_chemical_formula_structural   LaAlNi
_chemical_formula_sum   'La8 Al8 Ni8'
_cell_volume   478.06960821
_cell_formula_units_Z   8
loop_
 _symmetry_equiv_pos_site_id
 _symmetry_equiv_pos_as_xyz
  1  'x, y, z'
loop_
 _atom_site_type_symbol
 _atom_site_label
 _atom_site_symmetry_multiplicity
 _atom_site_fract_x
 _atom_site_fract_y
 _atom_site_fract_z
 _atom_site_occupancy
  La  La0  1  0.75000000  0.85333400  0.93945600  1
  La  La1  1  0.25000000  0.14666600  0.06054400  1
  La  La2  1  0.25000000  0.64666600  0.43945600  1
  La  La3  1  0.75000000  0.35333400  0.56054400  1
  La  La4  1  0.75000000  0.98723900  0.72204100  1
  La  La5  1  0.25000000  0.01276100  0.27795900  1
  La  La6  1  0.25000000  0.51276100  0.22204100  1
  La  La7  1  0.75000000  0.48723900  0.77795900  1
  Al  Al8  1  0.75000000  0.83134200  0.14526600  1
  Al  Al9  1  0.25000000  0.16865800  0.85473400  1
  Al  Al10  1  0.25000000  0.66865800  0.64526600  1
  Al  Al11  1  0.75000000  0.33134200  0.35473400  1
  Al  Al12  1  0.75000000  0.99236400  0.44018900  1
  Al  Al13  1  0.25000000  0.00763600  0.55981100  1
  Al  Al14  1  0.25000000  0.50763600  0.94018900  1
  Al  Al15  1  0.75000000  0.49236400  0.05981100  1
  Ni  Ni16  1  0.75000000  0.79468600  0.57085400  1
  Ni  Ni17  1  0.25000000  0.20531400  0.42914600  1
  Ni  Ni18  1  0.25000000  0.70531400  0.07085400  1
  Ni  Ni19  1  0.75000000  0.29468600  0.92914600  1
  Ni  Ni20  1  0.75000000  0.72705900  0.31848000  1
  Ni  Ni21  1  0.25000000  0.27294100  0.68152000  1
  Ni  Ni22  1  0.25000000  0.77294100  0.81848000  1
  Ni  Ni23  1  0.75000000  0.22705900  0.18152000  1
