# generated using pymatgen
data_Pr9Al5Se21
_symmetry_space_group_name_H-M   'P 1'
_cell_length_a   12.31370460
_cell_length_b   12.31370460
_cell_length_c   12.31370407
_cell_angle_alpha   94.73574391
_cell_angle_beta   94.73574391
_cell_angle_gamma   94.73574423
_symmetry_Int_Tables_number   1
_chemical_formula_structural   Pr9Al5Se21
_chemical_formula_sum   'Pr18 Al10 Se42'
_cell_volume   1846.84373079
_cell_formula_units_Z   2
loop_
 _symmetry_equiv_pos_site_id
 _symmetry_equiv_pos_as_xyz
  1  'x, y, z'
loop_
 _atom_site_type_symbol
 _atom_site_label
 _atom_site_symmetry_multiplicity
 _atom_site_fract_x
 _atom_site_fract_y
 _atom_site_fract_z
 _atom_site_occupancy
  Pr  Pr0  1  0.11377700  0.87931400  0.73984800  1
  Pr  Pr1  1  0.45697300  0.22689000  0.07558600  1
  Pr  Pr2  1  0.76597400  0.55337200  0.39551300  1
  Pr  Pr3  1  0.39551300  0.76597400  0.55337200  1
  Pr  Pr4  1  0.73984800  0.11377700  0.87931400  1
  Pr  Pr5  1  0.07558600  0.45697300  0.22689000  1
  Pr  Pr6  1  0.22689000  0.07558600  0.45697300  1
  Pr  Pr7  1  0.55337200  0.39551300  0.76597400  1
  Pr  Pr8  1  0.87931400  0.73984800  0.11377700  1
  Pr  Pr9  1  0.20802200  0.43365600  0.58305300  1
  Pr  Pr10  1  0.55167300  0.77981300  0.93226600  1
  Pr  Pr11  1  0.87485200  0.10018800  0.24529400  1
  Pr  Pr12  1  0.93226600  0.55167300  0.77981300  1
  Pr  Pr13  1  0.24529400  0.87485200  0.10018800  1
  Pr  Pr14  1  0.58305300  0.20802200  0.43365600  1
  Pr  Pr15  1  0.10018800  0.24529400  0.87485200  1
  Pr  Pr16  1  0.43365600  0.58305300  0.20802200  1
  Pr  Pr17  1  0.77981300  0.93226600  0.55167300  1
  Al  Al18  1  0.72111500  0.38762700  0.04471200  1
  Al  Al19  1  0.04471200  0.72111500  0.38762700  1
  Al  Al20  1  0.38762700  0.04471200  0.72111500  1
  Al  Al21  1  0.88130300  0.22624600  0.54631400  1
  Al  Al22  1  0.22624600  0.54631400  0.88130300  1
  Al  Al23  1  0.54631400  0.88130300  0.22624600  1
  Al  Al24  1  0.85447300  0.85447300  0.85447300  1
  Al  Al25  1  0.16974400  0.16974400  0.16974400  1
  Al  Al26  1  0.66933000  0.66933000  0.66933000  1
  Al  Al27  1  0.35420500  0.35420500  0.35420500  1
  Se  Se28  1  0.84141800  0.50823900  0.17045800  1
  Se  Se29  1  0.17045800  0.84141800  0.50823900  1
  Se  Se30  1  0.50823900  0.17045800  0.84141800  1
  Se  Se31  1  0.67281400  0.00590800  0.34164500  1
  Se  Se32  1  0.00590800  0.34164500  0.67281400  1
  Se  Se33  1  0.34164500  0.67281400  0.00590800  1
  Se  Se34  1  0.54284500  0.44952200  0.00858100  1
  Se  Se35  1  0.86836300  0.78596000  0.35638100  1
  Se  Se36  1  0.20640600  0.10503000  0.69553700  1
  Se  Se37  1  0.69553700  0.20640600  0.10503000  1
  Se  Se38  1  0.00858100  0.54284500  0.44952200  1
  Se  Se39  1  0.35638100  0.86836300  0.78596000  1
  Se  Se40  1  0.78596000  0.35638100  0.86836300  1
  Se  Se41  1  0.10503000  0.69553700  0.20640600  1
  Se  Se42  1  0.44952200  0.00858100  0.54284500  1
  Se  Se43  1  0.96553200  0.06893000  0.47747200  1
  Se  Se44  1  0.29966000  0.38350600  0.81177200  1
  Se  Se45  1  0.63065800  0.72025400  0.16215000  1
  Se  Se46  1  0.81177200  0.29966000  0.38350600  1
  Se  Se47  1  0.16215000  0.63065800  0.72025400  1
  Se  Se48  1  0.47747200  0.96553200  0.06893000  1
  Se  Se49  1  0.72025400  0.16215000  0.63065800  1
  Se  Se50  1  0.06893000  0.47747200  0.96553200  1
  Se  Se51  1  0.38350600  0.81177200  0.29966000  1
  Se  Se52  1  0.55237800  0.40520500  0.30694400  1
  Se  Se53  1  0.89094900  0.75727600  0.66444000  1
  Se  Se54  1  0.23742800  0.09652600  0.99805100  1
  Se  Se55  1  0.99805100  0.23742800  0.09652600  1
  Se  Se56  1  0.30694400  0.55237800  0.40520500  1
  Se  Se57  1  0.66444000  0.89094900  0.75727600  1
  Se  Se58  1  0.75727600  0.66444000  0.89094900  1
  Se  Se59  1  0.09652600  0.99805100  0.23742800  1
  Se  Se60  1  0.40520500  0.30694400  0.55237800  1
  Se  Se61  1  0.14980900  0.28402200  0.37519400  1
  Se  Se62  1  0.48616500  0.62077400  0.72660200  1
  Se  Se63  1  0.79000700  0.94172300  0.03543400  1
  Se  Se64  1  0.72660200  0.48616500  0.62077400  1
  Se  Se65  1  0.03543400  0.79000700  0.94172300  1
  Se  Se66  1  0.37519400  0.14980900  0.28402200  1
  Se  Se67  1  0.94172300  0.03543400  0.79000700  1
  Se  Se68  1  0.28402200  0.37519400  0.14980900  1
  Se  Se69  1  0.62077400  0.72660200  0.48616500  1
