# generated using pymatgen
data_Sr3TbRhO6
_symmetry_space_group_name_H-M   'P 1'
_cell_length_a   6.86849016
_cell_length_b   6.86849016
_cell_length_c   6.86849066
_cell_angle_alpha   92.09282765
_cell_angle_beta   92.09282765
_cell_angle_gamma   92.09283275
_symmetry_Int_Tables_number   1
_chemical_formula_structural   Sr3TbRhO6
_chemical_formula_sum   'Sr6 Tb2 Rh2 O12'
_cell_volume   323.36433855
_cell_formula_units_Z   2
loop_
 _symmetry_equiv_pos_site_id
 _symmetry_equiv_pos_as_xyz
  1  'x, y, z'
loop_
 _atom_site_type_symbol
 _atom_site_label
 _atom_site_symmetry_multiplicity
 _atom_site_fract_x
 _atom_site_fract_y
 _atom_site_fract_z
 _atom_site_occupancy
  Sr  Sr0  1  0.88101500  0.61898500  0.25000000  1
  Sr  Sr1  1  0.61898500  0.25000000  0.88101500  1
  Sr  Sr2  1  0.25000000  0.88101500  0.61898500  1
  Sr  Sr3  1  0.11898500  0.38101500  0.75000000  1
  Sr  Sr4  1  0.75000000  0.11898500  0.38101500  1
  Sr  Sr5  1  0.38101500  0.75000000  0.11898500  1
  Tb  Tb6  1  0.75000000  0.75000000  0.75000000  1
  Tb  Tb7  1  0.25000000  0.25000000  0.25000000  1
  Rh  Rh8  1  0.50000000  0.50000000  0.50000000  1
  Rh  Rh9  1  0.00000000  0.00000000  0.00000000  1
  O  O10  1  0.58976100  0.79199100  0.45527200  1
  O  O11  1  0.45527200  0.58976100  0.79199100  1
  O  O12  1  0.79199100  0.45527200  0.58976100  1
  O  O13  1  0.91023900  0.04472800  0.70800900  1
  O  O14  1  0.70800900  0.91023900  0.04472800  1
  O  O15  1  0.04472800  0.70800900  0.91023900  1
  O  O16  1  0.41023900  0.20800900  0.54472800  1
  O  O17  1  0.54472800  0.41023900  0.20800900  1
  O  O18  1  0.20800900  0.54472800  0.41023900  1
  O  O19  1  0.08976100  0.95527200  0.29199100  1
  O  O20  1  0.95527200  0.29199100  0.08976100  1
  O  O21  1  0.29199100  0.08976100  0.95527200  1
