# generated using pymatgen
data_Sn(HgSe2)2
_symmetry_space_group_name_H-M   'P 1'
_cell_length_a   7.32020626
_cell_length_b   7.32020626
_cell_length_c   7.32020626
_cell_angle_alpha   132.15650533
_cell_angle_beta   132.15650533
_cell_angle_gamma   69.98195578
_symmetry_Int_Tables_number   1
_chemical_formula_structural   Sn(HgSe2)2
_chemical_formula_sum   'Sn1 Hg2 Se4'
_cell_volume   211.34870203
_cell_formula_units_Z   1
loop_
 _symmetry_equiv_pos_site_id
 _symmetry_equiv_pos_as_xyz
  1  'x, y, z'
loop_
 _atom_site_type_symbol
 _atom_site_label
 _atom_site_symmetry_multiplicity
 _atom_site_fract_x
 _atom_site_fract_y
 _atom_site_fract_z
 _atom_site_occupancy
  Sn  Sn0  1  0.25000000  0.75000000  0.50000000  1
  Hg  Hg1  1  0.50000000  0.50000000  0.00000000  1
  Hg  Hg2  1  0.75000000  0.25000000  0.50000000  1
  Se  Se3  1  0.11508600  0.09423400  0.43996800  1
  Se  Se4  1  0.32488200  0.88491400  0.97914800  1
  Se  Se5  1  0.90576600  0.34573400  0.02085200  1
  Se  Se6  1  0.65426600  0.67511800  0.56003200  1
