# generated using pymatgen
data_ZrGePd
_symmetry_space_group_name_H-M   'P 1'
_cell_length_a   3.99290900
_cell_length_b   6.72787900
_cell_length_c   7.79008500
_cell_angle_alpha   90.00000000
_cell_angle_beta   90.00000000
_cell_angle_gamma   90.00000000
_symmetry_Int_Tables_number   1
_chemical_formula_structural   ZrGePd
_chemical_formula_sum   'Zr4 Ge4 Pd4'
_cell_volume   209.27135250
_cell_formula_units_Z   4
loop_
 _symmetry_equiv_pos_site_id
 _symmetry_equiv_pos_as_xyz
  1  'x, y, z'
loop_
 _atom_site_type_symbol
 _atom_site_label
 _atom_site_symmetry_multiplicity
 _atom_site_fract_x
 _atom_site_fract_y
 _atom_site_fract_z
 _atom_site_occupancy
  Zr  Zr0  1  0.25000000  0.02758000  0.31415400  1
  Zr  Zr1  1  0.25000000  0.52758000  0.18584600  1
  Zr  Zr2  1  0.75000000  0.97242000  0.68584600  1
  Zr  Zr3  1  0.75000000  0.47242000  0.81415400  1
  Ge  Ge4  1  0.25000000  0.25446500  0.61959900  1
  Ge  Ge5  1  0.25000000  0.75446500  0.88040100  1
  Ge  Ge6  1  0.75000000  0.74553500  0.38040100  1
  Ge  Ge7  1  0.75000000  0.24553500  0.11959900  1
  Pd  Pd8  1  0.25000000  0.14400200  0.93608900  1
  Pd  Pd9  1  0.25000000  0.64400200  0.56391100  1
  Pd  Pd10  1  0.75000000  0.85599800  0.06391100  1
  Pd  Pd11  1  0.75000000  0.35599800  0.43608900  1
