# generated using pymatgen
data_Na2(CrSe2)3
_symmetry_space_group_name_H-M   'P 1'
_cell_length_a   6.34063551
_cell_length_b   6.34063551
_cell_length_c   7.41172496
_cell_angle_alpha   81.78389648
_cell_angle_beta   81.78389648
_cell_angle_gamma   120.00504499
_symmetry_Int_Tables_number   1
_chemical_formula_structural   Na2(CrSe2)3
_chemical_formula_sum   'Na2 Cr3 Se6'
_cell_volume   247.27783388
_cell_formula_units_Z   1
loop_
 _symmetry_equiv_pos_site_id
 _symmetry_equiv_pos_as_xyz
  1  'x, y, z'
loop_
 _atom_site_type_symbol
 _atom_site_label
 _atom_site_symmetry_multiplicity
 _atom_site_fract_x
 _atom_site_fract_y
 _atom_site_fract_z
 _atom_site_occupancy
  Na  Na0  1  0.16657700  0.83342300  0.50000000  1
  Na  Na1  1  0.83342300  0.16657700  0.50000000  1
  Cr  Cr2  1  0.00000000  0.00000000  0.00000000  1
  Cr  Cr3  1  0.33287000  0.66713000  0.00000000  1
  Cr  Cr4  1  0.66713000  0.33287000  0.00000000  1
  Se  Se5  1  0.93280300  0.60033200  0.19828200  1
  Se  Se6  1  0.26788300  0.26788300  0.19903000  1
  Se  Se7  1  0.60033200  0.93280300  0.19828200  1
  Se  Se8  1  0.73211700  0.73211700  0.80097000  1
  Se  Se9  1  0.06719700  0.39966800  0.80171800  1
  Se  Se10  1  0.39966800  0.06719700  0.80171800  1
