# generated using pymatgen
data_Ce2SnS5
_symmetry_space_group_name_H-M   'P 1'
_cell_length_a   4.01199400
_cell_length_b   7.68603600
_cell_length_c   11.19914400
_cell_angle_alpha   90.00000000
_cell_angle_beta   90.00000000
_cell_angle_gamma   90.00000000
_symmetry_Int_Tables_number   1
_chemical_formula_structural   Ce2SnS5
_chemical_formula_sum   'Ce4 Sn2 S10'
_cell_volume   345.34050364
_cell_formula_units_Z   2
loop_
 _symmetry_equiv_pos_site_id
 _symmetry_equiv_pos_as_xyz
  1  'x, y, z'
loop_
 _atom_site_type_symbol
 _atom_site_label
 _atom_site_symmetry_multiplicity
 _atom_site_fract_x
 _atom_site_fract_y
 _atom_site_fract_z
 _atom_site_occupancy
  Ce  Ce0  1  0.50000000  0.56925300  0.16820800  1
  Ce  Ce1  1  0.50000000  0.43074700  0.83179200  1
  Ce  Ce2  1  0.50000000  0.93074700  0.66820800  1
  Ce  Ce3  1  0.50000000  0.06925300  0.33179200  1
  Sn  Sn4  1  0.00000000  0.50000000  0.50000000  1
  Sn  Sn5  1  0.00000000  0.00000000  0.00000000  1
  S  S6  1  0.00000000  0.00000000  0.50000000  1
  S  S7  1  0.00000000  0.50000000  0.00000000  1
  S  S8  1  0.00000000  0.84893400  0.20690900  1
  S  S9  1  0.00000000  0.15106600  0.79309100  1
  S  S10  1  0.00000000  0.65106600  0.70690900  1
  S  S11  1  0.00000000  0.34893400  0.29309100  1
  S  S12  1  0.50000000  0.69206900  0.42450700  1
  S  S13  1  0.50000000  0.30793100  0.57549300  1
  S  S14  1  0.50000000  0.80793100  0.92450700  1
  S  S15  1  0.50000000  0.19206900  0.07549300  1
