# generated using pymatgen
data_RuF6
_symmetry_space_group_name_H-M   'P 1'
_cell_length_a   4.97027900
_cell_length_b   8.59887100
_cell_length_c   9.39862200
_cell_angle_alpha   90.00000000
_cell_angle_beta   90.00000000
_cell_angle_gamma   90.00000000
_symmetry_Int_Tables_number   1
_chemical_formula_structural   RuF6
_chemical_formula_sum   'Ru4 F24'
_cell_volume   401.68571273
_cell_formula_units_Z   4
loop_
 _symmetry_equiv_pos_site_id
 _symmetry_equiv_pos_as_xyz
  1  'x, y, z'
loop_
 _atom_site_type_symbol
 _atom_site_label
 _atom_site_symmetry_multiplicity
 _atom_site_fract_x
 _atom_site_fract_y
 _atom_site_fract_z
 _atom_site_occupancy
  Ru  Ru0  1  0.91912400  0.75000000  0.62926600  1
  Ru  Ru1  1  0.08087600  0.25000000  0.37073400  1
  Ru  Ru2  1  0.41912400  0.25000000  0.87073400  1
  Ru  Ru3  1  0.58087600  0.75000000  0.12926600  1
  F  F4  1  0.22302800  0.75000000  0.51373800  1
  F  F5  1  0.77697200  0.25000000  0.48626200  1
  F  F6  1  0.72302800  0.25000000  0.98626200  1
  F  F7  1  0.27697200  0.75000000  0.01373800  1
  F  F8  1  0.61510600  0.75000000  0.74526600  1
  F  F9  1  0.38489400  0.25000000  0.25473400  1
  F  F10  1  0.11510600  0.25000000  0.75473400  1
  F  F11  1  0.88489400  0.75000000  0.24526600  1
  F  F12  1  0.76386100  0.59761400  0.51520300  1
  F  F13  1  0.23613900  0.40238600  0.48479700  1
  F  F14  1  0.26386100  0.40238600  0.98479700  1
  F  F15  1  0.23613900  0.09761400  0.48479700  1
  F  F16  1  0.73613900  0.59761400  0.01520300  1
  F  F17  1  0.76386100  0.90238600  0.51520300  1
  F  F18  1  0.73613900  0.90238600  0.01520300  1
  F  F19  1  0.26386100  0.09761400  0.98479700  1
  F  F20  1  0.07330100  0.59733800  0.74296700  1
  F  F21  1  0.92669900  0.40266200  0.25703300  1
  F  F22  1  0.57330100  0.40266200  0.75703300  1
  F  F23  1  0.92669900  0.09733800  0.25703300  1
  F  F24  1  0.42669900  0.59733800  0.24296700  1
  F  F25  1  0.07330100  0.90266200  0.74296700  1
  F  F26  1  0.42669900  0.90266200  0.24296700  1
  F  F27  1  0.57330100  0.09733800  0.75703300  1
