# generated using pymatgen
data_AlH14SeNO14
_symmetry_space_group_name_H-M   'P 1'
_cell_length_a   6.21791500
_cell_length_b   7.83298991
_cell_length_c   12.44911661
_cell_angle_alpha   90.49833887
_cell_angle_beta   102.14501216
_cell_angle_gamma   96.57691207
_symmetry_Int_Tables_number   1
_chemical_formula_structural   AlH14SeNO14
_chemical_formula_sum   'Al2 H28 Se2 N2 O28'
_cell_volume   588.52498449
_cell_formula_units_Z   2
loop_
 _symmetry_equiv_pos_site_id
 _symmetry_equiv_pos_as_xyz
  1  'x, y, z'
loop_
 _atom_site_type_symbol
 _atom_site_label
 _atom_site_symmetry_multiplicity
 _atom_site_fract_x
 _atom_site_fract_y
 _atom_site_fract_z
 _atom_site_occupancy
  Al  Al0  1  0.41240100  0.75010700  0.78294800  1
  Al  Al1  1  0.58759900  0.24989300  0.21705200  1
  H  H2  1  0.64368600  0.80632700  0.97932700  1
  H  H3  1  0.35631400  0.19367300  0.02067300  1
  H  H4  1  0.40815100  0.44896900  0.86851900  1
  H  H5  1  0.59184900  0.55103100  0.13148100  1
  H  H6  1  0.64398200  0.99068400  0.92146100  1
  H  H7  1  0.35601800  0.00931600  0.07853900  1
  H  H8  1  0.69138600  0.74844700  0.65343300  1
  H  H9  1  0.30861400  0.25155300  0.34656700  1
  H  H10  1  0.16762300  0.73394200  0.92771700  1
  H  H11  1  0.83237700  0.26605800  0.07228300  1
  H  H12  1  0.22334400  0.67419600  0.57772400  1
  H  H13  1  0.77665600  0.32580400  0.42227600  1
  H  H14  1  0.31968800  0.00361500  0.65179300  1
  H  H15  1  0.68031200  0.99638500  0.34820700  1
  H  H16  1  0.77970000  0.90012900  0.74964800  1
  H  H17  1  0.22030000  0.09987100  0.25035200  1
  H  H18  1  0.18731700  0.00876700  0.74992200  1
  H  H19  1  0.81268300  0.99123300  0.25007800  1
  H  H20  1  0.19756100  0.84818100  0.42917300  1
  H  H21  1  0.80243900  0.15181900  0.57082700  1
  H  H22  1  0.28313100  0.50370500  0.64414600  1
  H  H23  1  0.71686900  0.49629500  0.35585400  1
  H  H24  1  0.04806100  0.60242200  0.82305700  1
  H  H25  1  0.95193900  0.39757800  0.17694300  1
  H  H26  1  0.19028900  0.65441700  0.39310400  1
  H  H27  1  0.80971100  0.34558300  0.60689600  1
  H  H28  1  0.63560600  0.48487200  0.82148400  1
  H  H29  1  0.36439400  0.51512800  0.17851600  1
  Se  Se30  1  0.96374300  0.24648600  0.85516000  1
  Se  Se31  1  0.03625700  0.75351400  0.14484000  1
  N  N32  1  0.69453200  0.75381200  0.45980100  1
  N  N33  1  0.30546800  0.24618800  0.54019900  1
  O  O34  1  0.25367700  0.62649200  0.65418800  1
  O  O35  1  0.74632300  0.37350800  0.34581200  1
  O  O36  1  0.51163000  0.53882100  0.84279400  1
  O  O37  1  0.48837000  0.46117900  0.15720600  1
  O  O38  1  0.31112500  0.95745100  0.72634200  1
  O  O39  1  0.68887500  0.04254900  0.27365800  1
  O  O40  1  0.67378400  0.79315600  0.72734200  1
  O  O41  1  0.32621600  0.20684400  0.27265800  1
  O  O42  1  0.56281900  0.87185100  0.91732400  1
  O  O43  1  0.43718100  0.12814900  0.08267600  1
  O  O44  1  0.16166500  0.70373500  0.84862100  1
  O  O45  1  0.83833500  0.29626500  0.15137900  1
  O  O46  1  0.95106300  0.08145500  0.76632500  1
  O  O47  1  0.04893700  0.91854500  0.23367500  1
  O  O48  1  0.22772400  0.30386400  0.91948800  1
  O  O49  1  0.77227600  0.69613600  0.08051200  1
  O  O50  1  0.86879600  0.41760500  0.78759800  1
  O  O51  1  0.13120400  0.58239500  0.21240200  1
  O  O52  1  0.80473500  0.18489700  0.94460300  1
  O  O53  1  0.19526500  0.81510300  0.05539700  1
  O  O54  1  0.70169600  0.91592000  0.47269100  1
  O  O55  1  0.29830400  0.08408000  0.52730900  1
  O  O56  1  0.66293200  0.68944100  0.36372600  1
  O  O57  1  0.33706800  0.31055900  0.63627400  1
  O  O58  1  0.71762900  0.65880300  0.54216400  1
  O  O59  1  0.28237100  0.34119700  0.45783600  1
  O  O60  1  0.18122900  0.73056500  0.45411500  1
  O  O61  1  0.81877100  0.26943500  0.54588500  1
