# generated using pymatgen
data_TbGa2Ni3
_symmetry_space_group_name_H-M   'P 1'
_cell_length_a   4.11035400
_cell_length_b   8.71690121
_cell_length_c   8.71690049
_cell_angle_alpha   60.08165117
_cell_angle_beta   90.00000000
_cell_angle_gamma   90.00000000
_symmetry_Int_Tables_number   1
_chemical_formula_structural   TbGa2Ni3
_chemical_formula_sum   'Tb3 Ga6 Ni9'
_cell_volume   270.70159102
_cell_formula_units_Z   3
loop_
 _symmetry_equiv_pos_site_id
 _symmetry_equiv_pos_as_xyz
  1  'x, y, z'
loop_
 _atom_site_type_symbol
 _atom_site_label
 _atom_site_symmetry_multiplicity
 _atom_site_fract_x
 _atom_site_fract_y
 _atom_site_fract_z
 _atom_site_occupancy
  Tb  Tb0  1  0.50000000  0.33332500  0.33351000  1
  Tb  Tb1  1  0.50000000  0.66649000  0.66667500  1
  Tb  Tb2  1  0.00000000  0.99984500  0.00015500  1
  Ga  Ga3  1  0.50000000  0.73068400  0.26931600  1
  Ga  Ga4  1  0.50000000  0.26907900  0.00007800  1
  Ga  Ga5  1  0.50000000  0.99992200  0.73092100  1
  Ga  Ga6  1  0.00000000  0.48236800  0.51763200  1
  Ga  Ga7  1  0.00000000  0.51771000  0.99998400  1
  Ga  Ga8  1  0.00000000  0.00001600  0.48229000  1
  Ni  Ni9  1  0.00000000  0.19684900  0.17402100  1
  Ni  Ni10  1  0.00000000  0.17399500  0.62978900  1
  Ni  Ni11  1  0.00000000  0.62935300  0.19689500  1
  Ni  Ni12  1  0.00000000  0.82597800  0.80315100  1
  Ni  Ni13  1  0.00000000  0.37021100  0.82600500  1
  Ni  Ni14  1  0.00000000  0.80310500  0.37064700  1
  Ni  Ni15  1  0.50000000  0.29786700  0.70213300  1
  Ni  Ni16  1  0.50000000  0.70291300  0.99980900  1
  Ni  Ni17  1  0.50000000  0.00019100  0.29708700  1
