# generated using pymatgen
data_In2AsPt8
_symmetry_space_group_name_H-M   'P 1'
_cell_length_a   4.04471100
_cell_length_b   4.04471100
_cell_length_c   11.29351900
_cell_angle_alpha   90.00000000
_cell_angle_beta   90.00000000
_cell_angle_gamma   90.00000000
_symmetry_Int_Tables_number   1
_chemical_formula_structural   In2AsPt8
_chemical_formula_sum   'In2 As1 Pt8'
_cell_volume   184.75843680
_cell_formula_units_Z   1
loop_
 _symmetry_equiv_pos_site_id
 _symmetry_equiv_pos_as_xyz
  1  'x, y, z'
loop_
 _atom_site_type_symbol
 _atom_site_label
 _atom_site_symmetry_multiplicity
 _atom_site_fract_x
 _atom_site_fract_y
 _atom_site_fract_z
 _atom_site_occupancy
  In  In0  1  0.50000000  0.50000000  0.82087100  1
  In  In1  1  0.50000000  0.50000000  0.17912900  1
  As  As2  1  0.00000000  0.00000000  0.50000000  1
  Pt  Pt3  1  0.50000000  0.00000000  0.00000000  1
  Pt  Pt4  1  0.00000000  0.50000000  0.00000000  1
  Pt  Pt5  1  0.50000000  0.00000000  0.63755500  1
  Pt  Pt6  1  0.00000000  0.50000000  0.63755500  1
  Pt  Pt7  1  0.50000000  0.00000000  0.36244500  1
  Pt  Pt8  1  0.00000000  0.50000000  0.36244500  1
  Pt  Pt9  1  0.00000000  0.00000000  0.81955400  1
  Pt  Pt10  1  0.00000000  0.00000000  0.18044600  1
