# generated using pymatgen
data_HfMg149
_symmetry_space_group_name_H-M   'P 1'
_cell_length_a   15.94676590
_cell_length_b   15.94677140
_cell_length_c   15.59871713
_cell_angle_alpha   90.00000000
_cell_angle_beta   90.00000000
_cell_angle_gamma   120.00001141
_symmetry_Int_Tables_number   1
_chemical_formula_structural   HfMg149
_chemical_formula_sum   'Hf1 Mg149'
_cell_volume   3435.30144216
_cell_formula_units_Z   1
loop_
 _symmetry_equiv_pos_site_id
 _symmetry_equiv_pos_as_xyz
  1  'x, y, z'
loop_
 _atom_site_type_symbol
 _atom_site_label
 _atom_site_symmetry_multiplicity
 _atom_site_fract_x
 _atom_site_fract_y
 _atom_site_fract_z
 _atom_site_occupancy
  Hf  Hf0  1  -0.00000000  -0.00000000  0.00000000  1
  Mg  Mg1  1  0.60143723  0.00010455  -0.00000000  1
  Mg  Mg2  1  0.39866732  0.00010455  -0.00000000  1
  Mg  Mg3  1  0.19732698  0.19863379  -0.00000000  1
  Mg  Mg4  1  0.00130681  0.19863379  0.00000000  1
  Mg  Mg5  1  0.59977165  0.19954431  0.00000000  1
  Mg  Mg6  1  0.79973603  0.20026397  -0.00000000  1
  Mg  Mg7  1  0.40052894  0.20026497  -0.00000000  1
  Mg  Mg8  1  0.39866732  0.39856277  0.00000000  1
  Mg  Mg9  1  0.99989545  0.39856277  0.00000000  1
  Mg  Mg10  1  0.59977165  0.40022735  -0.00000000  1
  Mg  Mg11  1  0.80045569  0.40022735  -0.00000000  1
  Mg  Mg12  1  0.20051283  0.40102465  0.00000000  1
  Mg  Mg13  1  0.79973603  0.59947106  0.00000000  1
  Mg  Mg14  1  0.40002138  0.59997762  -0.00000000  1
  Mg  Mg15  1  0.19995624  0.59997862  0.00000000  1
  Mg  Mg16  1  0.99989545  0.60133268  0.00000000  1
  Mg  Mg17  1  0.60143723  0.60133268  -0.00000000  1
  Mg  Mg18  1  0.59897535  0.79948817  -0.00000000  1
  Mg  Mg19  1  0.20051283  0.79948817  -0.00000000  1
  Mg  Mg20  1  0.40002138  0.80004376  0.00000000  1
  Mg  Mg21  1  0.80136721  0.80267302  0.00000000  1
  Mg  Mg22  1  0.00130681  0.80267302  0.00000000  1
  Mg  Mg23  1  0.80136721  0.99869319  0.00000000  1
  Mg  Mg24  1  0.19732698  0.99869419  0.00000000  1
  Mg  Mg25  1  0.06604713  0.13209427  0.16472695  1
  Mg  Mg26  1  0.86790673  0.93395287  0.16472695  1
  Mg  Mg27  1  0.06604713  0.93395287  0.16472695  1
  Mg  Mg28  1  0.26549388  0.13274694  0.16537577  1
  Mg  Mg29  1  0.86725306  0.13274694  0.16537577  1
  Mg  Mg30  1  0.86725306  0.73450612  0.16537577  1
  Mg  Mg31  1  0.66666600  0.33333300  0.16618406  1
  Mg  Mg32  1  0.46592377  0.13304509  0.16656574  1
  Mg  Mg33  1  0.66712033  0.13304509  0.16656574  1
  Mg  Mg34  1  0.46592377  0.33287967  0.16656574  1
  Mg  Mg35  1  0.86695491  0.33287967  0.16656574  1
  Mg  Mg36  1  0.66712033  0.53407523  0.16656574  1
  Mg  Mg37  1  0.86695491  0.53407623  0.16656574  1
  Mg  Mg38  1  0.06664566  0.53332283  0.16676565  1
  Mg  Mg39  1  0.46667717  0.53332283  0.16676565  1
  Mg  Mg40  1  0.46667717  0.93335534  0.16676565  1
  Mg  Mg41  1  0.26669731  0.33427760  0.16694745  1
  Mg  Mg42  1  0.06758029  0.33427760  0.16694745  1
  Mg  Mg43  1  0.66572140  0.73330169  0.16694745  1
  Mg  Mg44  1  0.06758029  0.73330269  0.16694745  1
  Mg  Mg45  1  0.66572140  0.93241971  0.16694745  1
  Mg  Mg46  1  0.26669731  0.93241971  0.16694745  1
  Mg  Mg47  1  0.26695324  0.53390648  0.16707975  1
  Mg  Mg48  1  0.26695324  0.73304676  0.16707975  1
  Mg  Mg49  1  0.46609352  0.73304676  0.16707975  1
  Mg  Mg50  1  0.19967211  0.19989862  0.33231345  1
  Mg  Mg51  1  0.00022752  0.19989962  0.33231345  1
  Mg  Mg52  1  0.00022752  0.80032789  0.33231345  1
  Mg  Mg53  1  0.80010138  0.80032889  0.33231345  1
  Mg  Mg54  1  0.19967211  0.99977248  0.33231345  1
  Mg  Mg55  1  0.80010138  0.99977248  0.33231345  1
  Mg  Mg56  1  0.59995215  0.19990431  0.33288259  1
  Mg  Mg57  1  0.59995215  0.40004785  0.33288259  1
  Mg  Mg58  1  0.80009569  0.40004785  0.33288259  1
  Mg  Mg59  1  0.80010712  0.19989288  0.33316451  1
  Mg  Mg60  1  0.39978677  0.19989288  0.33316451  1
  Mg  Mg61  1  0.80010712  0.60021423  0.33316451  1
  Mg  Mg62  1  0.60006006  0.00010140  0.33337773  1
  Mg  Mg63  1  0.40004234  0.00010140  0.33337773  1
  Mg  Mg64  1  0.99989860  0.39993994  0.33337773  1
  Mg  Mg65  1  0.40004234  0.39993994  0.33337773  1
  Mg  Mg66  1  0.60006006  0.59995866  0.33337773  1
  Mg  Mg67  1  0.99989860  0.59995866  0.33337773  1
  Mg  Mg68  1  0.40006479  0.59993421  0.33363516  1
  Mg  Mg69  1  0.19986943  0.59993521  0.33363516  1
  Mg  Mg70  1  0.40006479  0.80013057  0.33363516  1
  Mg  Mg71  1  0.20021061  0.40042123  0.33393461  1
  Mg  Mg72  1  0.20021061  0.79978939  0.33393461  1
  Mg  Mg73  1  0.59957877  0.79978939  0.33393461  1
  Mg  Mg74  1  -0.00000000  -0.00000000  0.33435423  1
  Mg  Mg75  1  0.86672714  0.13327286  0.50000000  1
  Mg  Mg76  1  0.26654571  0.13327286  0.50000000  1
  Mg  Mg77  1  0.06675779  0.13351558  0.50000000  1
  Mg  Mg78  1  0.46701234  0.13409782  0.50000000  1
  Mg  Mg79  1  0.66708548  0.13409782  0.50000000  1
  Mg  Mg80  1  0.86590218  0.33291352  0.50000000  1
  Mg  Mg81  1  0.46701234  0.33291452  0.50000000  1
  Mg  Mg82  1  0.26663026  0.33309055  0.50000000  1
  Mg  Mg83  1  0.06646029  0.33309055  0.50000000  1
  Mg  Mg84  1  0.66666600  0.33333300  0.50000000  1
  Mg  Mg85  1  0.66708548  0.53298766  0.50000000  1
  Mg  Mg86  1  0.86590218  0.53298766  0.50000000  1
  Mg  Mg87  1  0.06576530  0.53288265  0.50000000  1
  Mg  Mg88  1  0.46711735  0.53288265  0.50000000  1
  Mg  Mg89  1  0.26656746  0.53313591  0.50000000  1
  Mg  Mg90  1  0.06646029  0.73336974  0.50000000  1
  Mg  Mg91  1  0.66691045  0.73336974  0.50000000  1
  Mg  Mg92  1  0.46686409  0.73343254  0.50000000  1
  Mg  Mg93  1  0.26656746  0.73343254  0.50000000  1
  Mg  Mg94  1  0.86672714  0.73345429  0.50000000  1
  Mg  Mg95  1  0.06675779  0.93324221  0.50000000  1
  Mg  Mg96  1  0.86648442  0.93324221  0.50000000  1
  Mg  Mg97  1  0.26663026  0.93353971  0.50000000  1
  Mg  Mg98  1  0.66691045  0.93353971  0.50000000  1
  Mg  Mg99  1  0.46711735  0.93423370  0.50000000  1
  Mg  Mg100  1  -0.00000000  -0.00000000  0.66564577  1
  Mg  Mg101  1  0.20021061  0.40042123  0.66606639  1
  Mg  Mg102  1  0.20021061  0.79978939  0.66606639  1
  Mg  Mg103  1  0.59957877  0.79978939  0.66606639  1
  Mg  Mg104  1  0.40006479  0.59993421  0.66636484  1
  Mg  Mg105  1  0.19986943  0.59993521  0.66636484  1
  Mg  Mg106  1  0.40006479  0.80013057  0.66636484  1
  Mg  Mg107  1  0.60006006  0.00010140  0.66662227  1
  Mg  Mg108  1  0.40004234  0.00010140  0.66662227  1
  Mg  Mg109  1  0.99989860  0.39993994  0.66662227  1
  Mg  Mg110  1  0.40004234  0.39993994  0.66662227  1
  Mg  Mg111  1  0.60006006  0.59995866  0.66662227  1
  Mg  Mg112  1  0.99989860  0.59995866  0.66662227  1
  Mg  Mg113  1  0.80010712  0.19989288  0.66683549  1
  Mg  Mg114  1  0.39978677  0.19989288  0.66683549  1
  Mg  Mg115  1  0.80010712  0.60021423  0.66683549  1
  Mg  Mg116  1  0.59995215  0.19990431  0.66711741  1
  Mg  Mg117  1  0.59995215  0.40004785  0.66711741  1
  Mg  Mg118  1  0.80009569  0.40004785  0.66711741  1
  Mg  Mg119  1  0.19967211  0.19989862  0.66768555  1
  Mg  Mg120  1  0.00022752  0.19989962  0.66768555  1
  Mg  Mg121  1  0.00022752  0.80032789  0.66768555  1
  Mg  Mg122  1  0.80010138  0.80032889  0.66768555  1
  Mg  Mg123  1  0.19967211  0.99977248  0.66768555  1
  Mg  Mg124  1  0.80010138  0.99977248  0.66768555  1
  Mg  Mg125  1  0.26695324  0.53390648  0.83292025  1
  Mg  Mg126  1  0.26695324  0.73304676  0.83292025  1
  Mg  Mg127  1  0.46609352  0.73304676  0.83292025  1
  Mg  Mg128  1  0.26669731  0.33427760  0.83305255  1
  Mg  Mg129  1  0.06758029  0.33427760  0.83305255  1
  Mg  Mg130  1  0.66572140  0.73330169  0.83305255  1
  Mg  Mg131  1  0.06758029  0.73330269  0.83305255  1
  Mg  Mg132  1  0.66572140  0.93241971  0.83305255  1
  Mg  Mg133  1  0.26669731  0.93241971  0.83305255  1
  Mg  Mg134  1  0.06664566  0.53332283  0.83323535  1
  Mg  Mg135  1  0.46667717  0.53332283  0.83323535  1
  Mg  Mg136  1  0.46667717  0.93335534  0.83323535  1
  Mg  Mg137  1  0.46592377  0.13304509  0.83343526  1
  Mg  Mg138  1  0.66712033  0.13304509  0.83343526  1
  Mg  Mg139  1  0.46592377  0.33287967  0.83343526  1
  Mg  Mg140  1  0.86695491  0.33287967  0.83343526  1
  Mg  Mg141  1  0.66712033  0.53407523  0.83343526  1
  Mg  Mg142  1  0.86695491  0.53407623  0.83343526  1
  Mg  Mg143  1  0.66666600  0.33333300  0.83381594  1
  Mg  Mg144  1  0.26549388  0.13274694  0.83462423  1
  Mg  Mg145  1  0.86725306  0.13274694  0.83462423  1
  Mg  Mg146  1  0.86725306  0.73450612  0.83462423  1
  Mg  Mg147  1  0.06604713  0.13209427  0.83527305  1
  Mg  Mg148  1  0.86790673  0.93395287  0.83527305  1
  Mg  Mg149  1  0.06604713  0.93395287  0.83527305  1
