# generated using pymatgen
data_Sr2MgTeO6
_symmetry_space_group_name_H-M   'P 1'
_cell_length_a   5.66983470
_cell_length_b   5.66983470
_cell_length_c   5.69652059
_cell_angle_alpha   59.81972185
_cell_angle_beta   59.81972185
_cell_angle_gamma   60.02291042
_symmetry_Int_Tables_number   1
_chemical_formula_structural   Sr2MgTeO6
_chemical_formula_sum   'Sr2 Mg1 Te1 O6'
_cell_volume   129.15802475
_cell_formula_units_Z   1
loop_
 _symmetry_equiv_pos_site_id
 _symmetry_equiv_pos_as_xyz
  1  'x, y, z'
loop_
 _atom_site_type_symbol
 _atom_site_label
 _atom_site_symmetry_multiplicity
 _atom_site_fract_x
 _atom_site_fract_y
 _atom_site_fract_z
 _atom_site_occupancy
  Sr  Sr0  1  0.24982600  0.24982600  0.74803200  1
  Sr  Sr1  1  0.75017400  0.75017400  0.25196800  1
  Mg  Mg2  1  0.00000000  0.00000000  0.50000000  1
  Te  Te3  1  0.50000000  0.50000000  0.00000000  1
  O  O4  1  0.74142200  0.74142200  0.80094300  1
  O  O5  1  0.25857800  0.25857800  0.19905700  1
  O  O6  1  0.72004200  0.23650000  0.26206400  1
  O  O7  1  0.76350000  0.27995800  0.73793600  1
  O  O8  1  0.27995800  0.76350000  0.73793600  1
  O  O9  1  0.23650000  0.72004200  0.26206400  1
