# generated using pymatgen
data_UGaPt
_symmetry_space_group_name_H-M   'P 1'
_cell_length_a   7.02881581
_cell_length_b   7.02881581
_cell_length_c   4.12376400
_cell_angle_alpha   90.00000000
_cell_angle_beta   90.00000000
_cell_angle_gamma   119.99999825
_symmetry_Int_Tables_number   1
_chemical_formula_structural   UGaPt
_chemical_formula_sum   'U3 Ga3 Pt3'
_cell_volume   176.43663585
_cell_formula_units_Z   3
loop_
 _symmetry_equiv_pos_site_id
 _symmetry_equiv_pos_as_xyz
  1  'x, y, z'
loop_
 _atom_site_type_symbol
 _atom_site_label
 _atom_site_symmetry_multiplicity
 _atom_site_fract_x
 _atom_site_fract_y
 _atom_site_fract_z
 _atom_site_occupancy
  U  U0  1  0.42148300  0.00000000  0.50000000  1
  U  U1  1  0.00000000  0.42148300  0.50000000  1
  U  U2  1  0.57851700  0.57851700  0.50000000  1
  Ga  Ga3  1  0.75691400  0.00000000  0.00000000  1
  Ga  Ga4  1  0.00000000  0.75691400  0.00000000  1
  Ga  Ga5  1  0.24308600  0.24308600  0.00000000  1
  Pt  Pt6  1  0.33333300  0.66666700  0.00000000  1
  Pt  Pt7  1  0.66666700  0.33333300  0.00000000  1
  Pt  Pt8  1  0.00000000  0.00000000  0.50000000  1
