# generated using pymatgen
data_Ba6La2Co4O15
_symmetry_space_group_name_H-M   'P 1'
_cell_length_a   11.93698705
_cell_length_b   11.93698705
_cell_length_c   7.13476987
_cell_angle_alpha   89.37038224
_cell_angle_beta   89.37038224
_cell_angle_gamma   119.48679123
_symmetry_Int_Tables_number   1
_chemical_formula_structural   Ba6La2Co4O15
_chemical_formula_sum   'Ba12 La4 Co8 O30'
_cell_volume   884.74785888
_cell_formula_units_Z   2
loop_
 _symmetry_equiv_pos_site_id
 _symmetry_equiv_pos_as_xyz
  1  'x, y, z'
loop_
 _atom_site_type_symbol
 _atom_site_label
 _atom_site_symmetry_multiplicity
 _atom_site_fract_x
 _atom_site_fract_y
 _atom_site_fract_z
 _atom_site_occupancy
  Ba  Ba0  1  0.00033200  0.00127800  0.50329100  1
  Ba  Ba1  1  0.00127800  0.00033200  0.00329100  1
  Ba  Ba2  1  0.33423000  0.66536500  0.02573400  1
  Ba  Ba3  1  0.66536500  0.33423000  0.52573400  1
  Ba  Ba4  1  0.52168300  0.04682100  0.17312300  1
  Ba  Ba5  1  0.04682100  0.52168300  0.67312300  1
  Ba  Ba6  1  0.81969800  0.64647100  0.83750300  1
  Ba  Ba7  1  0.35355200  0.17662300  0.83937400  1
  Ba  Ba8  1  0.81935500  0.17650300  0.83586600  1
  Ba  Ba9  1  0.17662300  0.35355200  0.33937400  1
  Ba  Ba10  1  0.64647100  0.81969800  0.33750300  1
  Ba  Ba11  1  0.17650300  0.81935500  0.33586600  1
  La  La12  1  0.95170100  0.47545300  0.17906000  1
  La  La13  1  0.52348600  0.47801400  0.16946700  1
  La  La14  1  0.47545300  0.95170100  0.67906000  1
  La  La15  1  0.47801400  0.52348600  0.66946700  1
  Co  Co16  1  0.66274300  0.33014700  0.98801500  1
  Co  Co17  1  0.33014700  0.66274300  0.48801500  1
  Co  Co18  1  0.16922600  0.81622500  0.83810900  1
  Co  Co19  1  0.17508500  0.35409300  0.84473700  1
  Co  Co20  1  0.64920500  0.82307600  0.83755100  1
  Co  Co21  1  0.81622500  0.16922600  0.33810900  1
  Co  Co22  1  0.82307600  0.64920500  0.33755100  1
  Co  Co23  1  0.35409300  0.17508500  0.34473700  1
  O  O24  1  0.41564000  0.58644300  0.33845500  1
  O  O25  1  0.41024100  0.81784100  0.34790900  1
  O  O26  1  0.16472700  0.58191300  0.32154900  1
  O  O27  1  0.58644300  0.41564000  0.83845500  1
  O  O28  1  0.58191300  0.16472700  0.82154900  1
  O  O29  1  0.81784100  0.41024100  0.84790900  1
  O  O30  1  0.92836700  0.32527700  0.45749600  1
  O  O31  1  0.66492600  0.60385100  0.47005900  1
  O  O32  1  0.39208400  0.07151900  0.48723500  1
  O  O33  1  0.92836100  0.60547300  0.46149700  1
  O  O34  1  0.67609600  0.06710400  0.48629700  1
  O  O35  1  0.40071900  0.33371400  0.47202900  1
  O  O36  1  0.06710400  0.67609600  0.98629700  1
  O  O37  1  0.33371400  0.40071900  0.97202900  1
  O  O38  1  0.60547300  0.92836100  0.96149700  1
  O  O39  1  0.07151900  0.39208400  0.98723500  1
  O  O40  1  0.32527700  0.92836700  0.95749600  1
  O  O41  1  0.60385100  0.66492600  0.97005900  1
  O  O42  1  0.10305600  0.19813800  0.73873000  1
  O  O43  1  0.81235900  0.89829900  0.74300300  1
  O  O44  1  0.09788100  0.90417800  0.73565400  1
  O  O45  1  0.89829900  0.81235900  0.24300300  1
  O  O46  1  0.19813800  0.10305600  0.23873000  1
  O  O47  1  0.90417800  0.09788100  0.23565400  1
  O  O48  1  0.75828000  0.25910500  0.16101900  1
  O  O49  1  0.75114600  0.50879200  0.16652200  1
  O  O50  1  0.50199500  0.26211000  0.16031600  1
  O  O51  1  0.25910500  0.75828000  0.66101900  1
  O  O52  1  0.26211000  0.50199500  0.66031600  1
  O  O53  1  0.50879200  0.75114600  0.66652200  1
