# generated using pymatgen
data_Ca10Si3Pt7
_symmetry_space_group_name_H-M   'P 1'
_cell_length_a   8.83391045
_cell_length_b   8.83391045
_cell_length_c   13.85546700
_cell_angle_alpha   90.00000000
_cell_angle_beta   90.00000000
_cell_angle_gamma   120.00000341
_symmetry_Int_Tables_number   1
_chemical_formula_structural   Ca10Si3Pt7
_chemical_formula_sum   'Ca20 Si6 Pt14'
_cell_volume   936.39216352
_cell_formula_units_Z   2
loop_
 _symmetry_equiv_pos_site_id
 _symmetry_equiv_pos_as_xyz
  1  'x, y, z'
loop_
 _atom_site_type_symbol
 _atom_site_label
 _atom_site_symmetry_multiplicity
 _atom_site_fract_x
 _atom_site_fract_y
 _atom_site_fract_z
 _atom_site_occupancy
  Ca  Ca0  1  0.00000000  0.74101400  0.89355400  1
  Ca  Ca1  1  0.25898600  0.25898600  0.89355400  1
  Ca  Ca2  1  0.74101400  0.00000000  0.89355400  1
  Ca  Ca3  1  0.00000000  0.25898600  0.10644600  1
  Ca  Ca4  1  0.74101400  0.74101400  0.10644600  1
  Ca  Ca5  1  0.25898600  0.00000000  0.10644600  1
  Ca  Ca6  1  0.00000000  0.25898600  0.39355400  1
  Ca  Ca7  1  0.74101400  0.74101400  0.39355400  1
  Ca  Ca8  1  0.25898600  0.00000000  0.39355400  1
  Ca  Ca9  1  0.00000000  0.74101400  0.60644600  1
  Ca  Ca10  1  0.25898600  0.25898600  0.60644600  1
  Ca  Ca11  1  0.74101400  0.00000000  0.60644600  1
  Ca  Ca12  1  0.66666700  0.33333300  0.00000000  1
  Ca  Ca13  1  0.33333300  0.66666700  0.00000000  1
  Ca  Ca14  1  0.33333300  0.66666700  0.50000000  1
  Ca  Ca15  1  0.66666700  0.33333300  0.50000000  1
  Ca  Ca16  1  0.33333300  0.66666700  0.75000000  1
  Ca  Ca17  1  0.66666700  0.33333300  0.75000000  1
  Ca  Ca18  1  0.66666700  0.33333300  0.25000000  1
  Ca  Ca19  1  0.33333300  0.66666700  0.25000000  1
  Si  Si20  1  0.00000000  0.28118400  0.75000000  1
  Si  Si21  1  0.71881600  0.71881600  0.75000000  1
  Si  Si22  1  0.28118400  0.00000000  0.75000000  1
  Si  Si23  1  0.00000000  0.71881600  0.25000000  1
  Si  Si24  1  0.28118400  0.28118400  0.25000000  1
  Si  Si25  1  0.71881600  0.00000000  0.25000000  1
  Pt  Pt26  1  0.00000000  0.00000000  0.75000000  1
  Pt  Pt27  1  0.00000000  0.00000000  0.25000000  1
  Pt  Pt28  1  0.00000000  0.40911800  0.90059700  1
  Pt  Pt29  1  0.59088200  0.59088200  0.90059700  1
  Pt  Pt30  1  0.40911800  0.00000000  0.90059700  1
  Pt  Pt31  1  0.00000000  0.59088200  0.09940300  1
  Pt  Pt32  1  0.40911800  0.40911800  0.09940300  1
  Pt  Pt33  1  0.59088200  0.00000000  0.09940300  1
  Pt  Pt34  1  0.00000000  0.59088200  0.40059700  1
  Pt  Pt35  1  0.40911800  0.40911800  0.40059700  1
  Pt  Pt36  1  0.59088200  0.00000000  0.40059700  1
  Pt  Pt37  1  0.00000000  0.40911800  0.59940300  1
  Pt  Pt38  1  0.59088200  0.59088200  0.59940300  1
  Pt  Pt39  1  0.40911800  0.00000000  0.59940300  1
