# generated using pymatgen
data_ErBiRh
_symmetry_space_group_name_H-M   'P 1'
_cell_length_a   7.66245775
_cell_length_b   7.66245775
_cell_length_c   3.96435000
_cell_angle_alpha   90.00000000
_cell_angle_beta   90.00000000
_cell_angle_gamma   119.99999788
_symmetry_Int_Tables_number   1
_chemical_formula_structural   ErBiRh
_chemical_formula_sum   'Er3 Bi3 Rh3'
_cell_volume   201.57599734
_cell_formula_units_Z   3
loop_
 _symmetry_equiv_pos_site_id
 _symmetry_equiv_pos_as_xyz
  1  'x, y, z'
loop_
 _atom_site_type_symbol
 _atom_site_label
 _atom_site_symmetry_multiplicity
 _atom_site_fract_x
 _atom_site_fract_y
 _atom_site_fract_z
 _atom_site_occupancy
  Er  Er0  1  0.60051400  0.00000000  0.00000000  1
  Er  Er1  1  0.00000000  0.60051400  0.00000000  1
  Er  Er2  1  0.39948600  0.39948600  0.00000000  1
  Bi  Bi3  1  0.26556300  0.00000000  0.50000000  1
  Bi  Bi4  1  0.00000000  0.26556300  0.50000000  1
  Bi  Bi5  1  0.73443700  0.73443700  0.50000000  1
  Rh  Rh6  1  0.33333300  0.66666700  0.50000000  1
  Rh  Rh7  1  0.66666700  0.33333300  0.50000000  1
  Rh  Rh8  1  0.00000000  0.00000000  0.00000000  1
