# generated using pymatgen
data_K2VO2F3
_symmetry_space_group_name_H-M   'P 1'
_cell_length_a   5.77548000
_cell_length_b   7.51780700
_cell_length_c   11.57112100
_cell_angle_alpha   90.00000000
_cell_angle_beta   90.00000000
_cell_angle_gamma   90.00000000
_symmetry_Int_Tables_number   1
_chemical_formula_structural   K2VO2F3
_chemical_formula_sum   'K8 V4 O8 F12'
_cell_volume   502.40585440
_cell_formula_units_Z   4
loop_
 _symmetry_equiv_pos_site_id
 _symmetry_equiv_pos_as_xyz
  1  'x, y, z'
loop_
 _atom_site_type_symbol
 _atom_site_label
 _atom_site_symmetry_multiplicity
 _atom_site_fract_x
 _atom_site_fract_y
 _atom_site_fract_z
 _atom_site_occupancy
  K  K0  1  0.25000000  0.47326900  0.28383700  1
  K  K1  1  0.75000000  0.52673100  0.71616300  1
  K  K2  1  0.25000000  0.97326900  0.21616300  1
  K  K3  1  0.75000000  0.02673100  0.78383700  1
  K  K4  1  0.25000000  0.18586000  0.58749500  1
  K  K5  1  0.75000000  0.81414000  0.41250500  1
  K  K6  1  0.25000000  0.68586000  0.91250500  1
  K  K7  1  0.75000000  0.31414000  0.08749500  1
  V  V8  1  0.25000000  0.20007000  0.93036100  1
  V  V9  1  0.75000000  0.79993000  0.06963900  1
  V  V10  1  0.25000000  0.70007000  0.56963900  1
  V  V11  1  0.75000000  0.29993000  0.43036100  1
  O  O12  1  0.47702800  0.82174700  0.61150800  1
  O  O13  1  0.97702800  0.17825300  0.38849200  1
  O  O14  1  0.52297200  0.67825300  0.11150800  1
  O  O15  1  0.47702800  0.32174700  0.88849200  1
  O  O16  1  0.97702800  0.67825300  0.11150800  1
  O  O17  1  0.02297200  0.82174700  0.61150800  1
  O  O18  1  0.52297200  0.17825300  0.38849200  1
  O  O19  1  0.02297200  0.32174700  0.88849200  1
  F  F20  1  0.75000000  0.46433400  0.30623100  1
  F  F21  1  0.50000000  0.00000000  0.00000000  1
  F  F22  1  0.00000000  0.50000000  0.50000000  1
  F  F23  1  0.50000000  0.50000000  0.50000000  1
  F  F24  1  0.25000000  0.53566600  0.69376900  1
  F  F25  1  0.75000000  0.96433400  0.19376900  1
  F  F26  1  0.25000000  0.03566600  0.80623100  1
  F  F27  1  0.75000000  0.23103100  0.59103500  1
  F  F28  1  0.25000000  0.26896900  0.09103500  1
  F  F29  1  0.75000000  0.73103100  0.90896500  1
  F  F30  1  0.00000000  0.00000000  0.00000000  1
  F  F31  1  0.25000000  0.76896900  0.40896500  1
