# generated using pymatgen
data_Sr4GeAs4
_symmetry_space_group_name_H-M   'P 1'
_cell_length_a   12.95454300
_cell_length_b   12.95454300
_cell_length_c   12.95454300
_cell_angle_alpha   90.00000000
_cell_angle_beta   90.00000000
_cell_angle_gamma   90.00000000
_symmetry_Int_Tables_number   1
_chemical_formula_structural   Sr4GeAs4
_chemical_formula_sum   'Sr32 Ge8 As32'
_cell_volume   2174.03379429
_cell_formula_units_Z   8
loop_
 _symmetry_equiv_pos_site_id
 _symmetry_equiv_pos_as_xyz
  1  'x, y, z'
loop_
 _atom_site_type_symbol
 _atom_site_label
 _atom_site_symmetry_multiplicity
 _atom_site_fract_x
 _atom_site_fract_y
 _atom_site_fract_z
 _atom_site_occupancy
  Sr  Sr0  1  0.13239800  0.64446500  0.09547200  1
  Sr  Sr1  1  0.35553500  0.90452800  0.13239800  1
  Sr  Sr2  1  0.09547200  0.86760200  0.35553500  1
  Sr  Sr3  1  0.86760200  0.35553500  0.09547200  1
  Sr  Sr4  1  0.64446500  0.09547200  0.13239800  1
  Sr  Sr5  1  0.90452800  0.13239800  0.35553500  1
  Sr  Sr6  1  0.13239800  0.35553500  0.90452800  1
  Sr  Sr7  1  0.35553500  0.09547200  0.86760200  1
  Sr  Sr8  1  0.09547200  0.13239800  0.64446500  1
  Sr  Sr9  1  0.86760200  0.64446500  0.90452800  1
  Sr  Sr10  1  0.64446500  0.90452800  0.86760200  1
  Sr  Sr11  1  0.90452800  0.86760200  0.64446500  1
  Sr  Sr12  1  0.63239800  0.59547200  0.14446500  1
  Sr  Sr13  1  0.85553500  0.63239800  0.40452800  1
  Sr  Sr14  1  0.59547200  0.85553500  0.36760200  1
  Sr  Sr15  1  0.36760200  0.59547200  0.85553500  1
  Sr  Sr16  1  0.14446500  0.63239800  0.59547200  1
  Sr  Sr17  1  0.40452800  0.85553500  0.63239800  1
  Sr  Sr18  1  0.63239800  0.40452800  0.85553500  1
  Sr  Sr19  1  0.85553500  0.36760200  0.59547200  1
  Sr  Sr20  1  0.59547200  0.14446500  0.63239800  1
  Sr  Sr21  1  0.36760200  0.40452800  0.14446500  1
  Sr  Sr22  1  0.14446500  0.36760200  0.40452800  1
  Sr  Sr23  1  0.40452800  0.14446500  0.36760200  1
  Sr  Sr24  1  0.85507500  0.14492500  0.85507500  1
  Sr  Sr25  1  0.14492500  0.85507500  0.85507500  1
  Sr  Sr26  1  0.85507500  0.85507500  0.14492500  1
  Sr  Sr27  1  0.14492500  0.14492500  0.14492500  1
  Sr  Sr28  1  0.35507500  0.35507500  0.64492500  1
  Sr  Sr29  1  0.64492500  0.35507500  0.35507500  1
  Sr  Sr30  1  0.35507500  0.64492500  0.35507500  1
  Sr  Sr31  1  0.64492500  0.64492500  0.64492500  1
  Ge  Ge32  1  0.00000000  0.50000000  0.25000000  1
  Ge  Ge33  1  0.50000000  0.75000000  0.00000000  1
  Ge  Ge34  1  0.25000000  0.00000000  0.50000000  1
  Ge  Ge35  1  0.50000000  0.25000000  0.00000000  1
  Ge  Ge36  1  0.75000000  0.00000000  0.50000000  1
  Ge  Ge37  1  0.00000000  0.50000000  0.75000000  1
  Ge  Ge38  1  0.50000000  0.50000000  0.50000000  1
  Ge  Ge39  1  0.00000000  0.00000000  0.00000000  1
  As  As40  1  0.10888500  0.61896900  0.35352600  1
  As  As41  1  0.38103100  0.64647400  0.10888500  1
  As  As42  1  0.35352600  0.89111500  0.38103100  1
  As  As43  1  0.89111500  0.38103100  0.35352600  1
  As  As44  1  0.61896900  0.35352600  0.10888500  1
  As  As45  1  0.64647400  0.10888500  0.38103100  1
  As  As46  1  0.10888500  0.38103100  0.64647400  1
  As  As47  1  0.38103100  0.35352600  0.89111500  1
  As  As48  1  0.35352600  0.10888500  0.61896900  1
  As  As49  1  0.89111500  0.61896900  0.64647400  1
  As  As50  1  0.61896900  0.64647400  0.89111500  1
  As  As51  1  0.64647400  0.89111500  0.61896900  1
  As  As52  1  0.60888500  0.85352600  0.11896900  1
  As  As53  1  0.88103100  0.60888500  0.14647400  1
  As  As54  1  0.85352600  0.88103100  0.39111500  1
  As  As55  1  0.39111500  0.85352600  0.88103100  1
  As  As56  1  0.11896900  0.60888500  0.85352600  1
  As  As57  1  0.14647400  0.88103100  0.60888500  1
  As  As58  1  0.60888500  0.14647400  0.88103100  1
  As  As59  1  0.88103100  0.39111500  0.85352600  1
  As  As60  1  0.85352600  0.11896900  0.60888500  1
  As  As61  1  0.39111500  0.14647400  0.11896900  1
  As  As62  1  0.11896900  0.39111500  0.14647400  1
  As  As63  1  0.14647400  0.11896900  0.39111500  1
  As  As64  1  0.11015700  0.88984300  0.11015700  1
  As  As65  1  0.88984300  0.11015700  0.11015700  1
  As  As66  1  0.11015700  0.11015700  0.88984300  1
  As  As67  1  0.88984300  0.88984300  0.88984300  1
  As  As68  1  0.61015700  0.61015700  0.38984300  1
  As  As69  1  0.38984300  0.61015700  0.61015700  1
  As  As70  1  0.61015700  0.38984300  0.61015700  1
  As  As71  1  0.38984300  0.38984300  0.38984300  1
