# generated using pymatgen
data_Cs3As(PSe3)3
_symmetry_space_group_name_H-M   'P 1'
_cell_length_a   8.33011900
_cell_length_b   13.69555800
_cell_length_c   20.22363211
_cell_angle_alpha   78.36303807
_cell_angle_beta   90.00000000
_cell_angle_gamma   90.00000000
_symmetry_Int_Tables_number   1
_chemical_formula_structural   Cs3As(PSe3)3
_chemical_formula_sum   'Cs12 As4 P12 Se36'
_cell_volume   2259.80150070
_cell_formula_units_Z   4
loop_
 _symmetry_equiv_pos_site_id
 _symmetry_equiv_pos_as_xyz
  1  'x, y, z'
loop_
 _atom_site_type_symbol
 _atom_site_label
 _atom_site_symmetry_multiplicity
 _atom_site_fract_x
 _atom_site_fract_y
 _atom_site_fract_z
 _atom_site_occupancy
  Cs  Cs0  1  0.03199900  0.30198300  0.07953000  1
  Cs  Cs1  1  0.53199900  0.19801700  0.92047000  1
  Cs  Cs2  1  0.96800100  0.69801700  0.92047000  1
  Cs  Cs3  1  0.46800100  0.80198300  0.07953000  1
  Cs  Cs4  1  0.52720400  0.08294000  0.26260800  1
  Cs  Cs5  1  0.02720400  0.41706000  0.73739200  1
  Cs  Cs6  1  0.47279600  0.91706000  0.73739200  1
  Cs  Cs7  1  0.97279600  0.58294000  0.26260800  1
  Cs  Cs8  1  0.52214800  0.31151200  0.56670600  1
  Cs  Cs9  1  0.02214800  0.18848800  0.43329400  1
  Cs  Cs10  1  0.47785200  0.68848800  0.43329400  1
  Cs  Cs11  1  0.97785200  0.81151200  0.56670600  1
  As  As12  1  0.50020800  0.43924500  0.17668000  1
  As  As13  1  0.00020800  0.06075500  0.82332000  1
  As  As14  1  0.49979200  0.56075500  0.82332000  1
  As  As15  1  0.99979200  0.93924500  0.17668000  1
  P  P16  1  0.60879900  0.34640800  0.35796200  1
  P  P17  1  0.10879900  0.15359200  0.64203800  1
  P  P18  1  0.39120100  0.65359200  0.64203800  1
  P  P19  1  0.89120100  0.84640800  0.35796200  1
  P  P20  1  0.87754500  0.06832200  0.67572900  1
  P  P21  1  0.37754500  0.43167800  0.32427100  1
  P  P22  1  0.12245500  0.93167800  0.32427100  1
  P  P23  1  0.62245500  0.56832200  0.67572900  1
  P  P24  1  0.61173300  0.45575000  0.02013700  1
  P  P25  1  0.11173300  0.04425000  0.97986300  1
  P  P26  1  0.38826700  0.54425000  0.97986300  1
  P  P27  1  0.88826700  0.95575000  0.02013700  1
  Se  Se28  1  0.75399800  0.43676400  0.41040400  1
  Se  Se29  1  0.25399800  0.06323600  0.58959600  1
  Se  Se30  1  0.24600200  0.56323600  0.58959600  1
  Se  Se31  1  0.74600200  0.93676400  0.41040400  1
  Se  Se32  1  0.54311700  0.19902200  0.41078000  1
  Se  Se33  1  0.04311700  0.30097800  0.58922000  1
  Se  Se34  1  0.45688300  0.80097800  0.58922000  1
  Se  Se35  1  0.95688300  0.69902200  0.41078000  1
  Se  Se36  1  0.71495100  0.34434100  0.25175600  1
  Se  Se37  1  0.21495100  0.15565900  0.74824400  1
  Se  Se38  1  0.28504900  0.65565900  0.74824400  1
  Se  Se39  1  0.78504900  0.84434100  0.25175600  1
  Se  Se40  1  0.74090100  0.04560000  0.59068400  1
  Se  Se41  1  0.24090100  0.45440000  0.40931600  1
  Se  Se42  1  0.25909900  0.95440000  0.40931600  1
  Se  Se43  1  0.75909900  0.54560000  0.59068400  1
  Se  Se44  1  0.03185900  0.07048900  0.25366100  1
  Se  Se45  1  0.53185900  0.42951100  0.74633900  1
  Se  Se46  1  0.96814100  0.92951100  0.74633900  1
  Se  Se47  1  0.46814100  0.57048900  0.25366100  1
  Se  Se48  1  0.26259400  0.34263400  0.25562700  1
  Se  Se49  1  0.76259400  0.15736600  0.74437300  1
  Se  Se50  1  0.73740600  0.65736600  0.74437300  1
  Se  Se51  1  0.23740600  0.84263400  0.25562700  1
  Se  Se52  1  0.77919500  0.04449500  0.08993400  1
  Se  Se53  1  0.27919500  0.45550500  0.91006600  1
  Se  Se54  1  0.22080500  0.95550500  0.91006600  1
  Se  Se55  1  0.72080500  0.54449500  0.08993400  1
  Se  Se56  1  0.52464300  0.31230700  0.08014500  1
  Se  Se57  1  0.02464300  0.18769300  0.91985500  1
  Se  Se58  1  0.47535700  0.68769300  0.91985500  1
  Se  Se59  1  0.97535700  0.81230700  0.08014500  1
  Se  Se60  1  0.25949500  0.05584700  0.06630900  1
  Se  Se61  1  0.75949500  0.44415300  0.93369100  1
  Se  Se62  1  0.74050500  0.94415300  0.93369100  1
  Se  Se63  1  0.24050500  0.55584700  0.06630900  1
