# generated using pymatgen
data_BaLaSi2
_symmetry_space_group_name_H-M   'P 1'
_cell_length_a   7.83034000
_cell_length_b   7.83034000
_cell_length_c   6.78041200
_cell_angle_alpha   90.00000000
_cell_angle_beta   90.00000000
_cell_angle_gamma   145.58355534
_symmetry_Int_Tables_number   1
_chemical_formula_structural   BaLaSi2
_chemical_formula_sum   'Ba2 La2 Si4'
_cell_volume   234.97539878
_cell_formula_units_Z   2
loop_
 _symmetry_equiv_pos_site_id
 _symmetry_equiv_pos_as_xyz
  1  'x, y, z'
loop_
 _atom_site_type_symbol
 _atom_site_label
 _atom_site_symmetry_multiplicity
 _atom_site_fract_x
 _atom_site_fract_y
 _atom_site_fract_z
 _atom_site_occupancy
  Ba  Ba0  1  0.27729300  0.72270700  0.75000000  1
  Ba  Ba1  1  0.72270700  0.27729300  0.25000000  1
  La  La2  1  0.54861300  0.45138700  0.75000000  1
  La  La3  1  0.45138700  0.54861300  0.25000000  1
  Si  Si4  1  0.92401700  0.07598300  0.93242400  1
  Si  Si5  1  0.07598300  0.92401700  0.06757600  1
  Si  Si6  1  0.92401700  0.07598300  0.56757600  1
  Si  Si7  1  0.07598300  0.92401700  0.43242400  1
