# generated using pymatgen
data_Yb2InAu2
_symmetry_space_group_name_H-M   'P 1'
_cell_length_a   7.91257000
_cell_length_b   7.91257000
_cell_length_c   3.84958500
_cell_angle_alpha   90.00000000
_cell_angle_beta   90.00000000
_cell_angle_gamma   90.00000000
_symmetry_Int_Tables_number   1
_chemical_formula_structural   Yb2InAu2
_chemical_formula_sum   'Yb4 In2 Au4'
_cell_volume   241.01775878
_cell_formula_units_Z   2
loop_
 _symmetry_equiv_pos_site_id
 _symmetry_equiv_pos_as_xyz
  1  'x, y, z'
loop_
 _atom_site_type_symbol
 _atom_site_label
 _atom_site_symmetry_multiplicity
 _atom_site_fract_x
 _atom_site_fract_y
 _atom_site_fract_z
 _atom_site_occupancy
  Yb  Yb0  1  0.67094000  0.17094000  0.50000000  1
  Yb  Yb1  1  0.32906000  0.82906000  0.50000000  1
  Yb  Yb2  1  0.17094000  0.32906000  0.50000000  1
  Yb  Yb3  1  0.82906000  0.67094000  0.50000000  1
  In  In4  1  0.00000000  0.00000000  0.00000000  1
  In  In5  1  0.50000000  0.50000000  0.00000000  1
  Au  Au6  1  0.12912800  0.62912800  0.00000000  1
  Au  Au7  1  0.87087200  0.37087200  0.00000000  1
  Au  Au8  1  0.62912800  0.87087200  0.00000000  1
  Au  Au9  1  0.37087200  0.12912800  0.00000000  1
