# generated using pymatgen
data_LiDy6B3O14
_symmetry_space_group_name_H-M   'P 1'
_cell_length_a   15.59536800
_cell_length_b   8.41926800
_cell_length_c   12.03051808
_cell_angle_alpha   47.54214912
_cell_angle_beta   90.00000000
_cell_angle_gamma   90.00000000
_symmetry_Int_Tables_number   1
_chemical_formula_structural   LiDy6B3O14
_chemical_formula_sum   'Li4 Dy24 B12 O56'
_cell_volume   1165.40724469
_cell_formula_units_Z   4
loop_
 _symmetry_equiv_pos_site_id
 _symmetry_equiv_pos_as_xyz
  1  'x, y, z'
loop_
 _atom_site_type_symbol
 _atom_site_label
 _atom_site_symmetry_multiplicity
 _atom_site_fract_x
 _atom_site_fract_y
 _atom_site_fract_z
 _atom_site_occupancy
  Li  Li0  1  0.60387000  0.88010000  0.43955000  1
  Li  Li1  1  0.39613000  0.11990000  0.56045000  1
  Li  Li2  1  0.10387000  0.11990000  0.06045000  1
  Li  Li3  1  0.89613000  0.88010000  0.93955000  1
  Dy  Dy4  1  0.82206800  0.55069300  0.30693500  1
  Dy  Dy5  1  0.17793200  0.44930700  0.69306500  1
  Dy  Dy6  1  0.32206800  0.44930700  0.19306500  1
  Dy  Dy7  1  0.67793200  0.55069300  0.80693500  1
  Dy  Dy8  1  0.32566100  0.98483400  0.05510800  1
  Dy  Dy9  1  0.67433900  0.01516600  0.94489200  1
  Dy  Dy10  1  0.82566100  0.01516600  0.44489200  1
  Dy  Dy11  1  0.17433900  0.98483400  0.55510800  1
  Dy  Dy12  1  0.35612400  0.84828400  0.42438300  1
  Dy  Dy13  1  0.64387600  0.15171600  0.57561700  1
  Dy  Dy14  1  0.85612400  0.15171600  0.07561700  1
  Dy  Dy15  1  0.14387600  0.84828400  0.92438300  1
  Dy  Dy16  1  0.51339600  0.66556900  0.28260600  1
  Dy  Dy17  1  0.48660400  0.33443100  0.71739400  1
  Dy  Dy18  1  0.01339600  0.33443100  0.21739400  1
  Dy  Dy19  1  0.98660400  0.66556900  0.78260600  1
  Dy  Dy20  1  0.50400400  0.23859200  0.06139300  1
  Dy  Dy21  1  0.49599600  0.76140800  0.93860700  1
  Dy  Dy22  1  0.00400400  0.76140800  0.43860700  1
  Dy  Dy23  1  0.99599600  0.23859200  0.56139300  1
  Dy  Dy24  1  0.66591000  0.41226600  0.16591500  1
  Dy  Dy25  1  0.33409000  0.58773400  0.83408500  1
  Dy  Dy26  1  0.16591000  0.58773400  0.33408500  1
  Dy  Dy27  1  0.83409000  0.41226600  0.66591500  1
  B  B28  1  0.82698200  0.54412000  0.02714800  1
  B  B29  1  0.17301800  0.45588000  0.97285200  1
  B  B30  1  0.32698200  0.45588000  0.47285200  1
  B  B31  1  0.67301800  0.54412000  0.52714800  1
  B  B32  1  0.99929700  0.79107100  0.14486400  1
  B  B33  1  0.00070300  0.20892900  0.85513600  1
  B  B34  1  0.49929700  0.20892900  0.35513600  1
  B  B35  1  0.50070300  0.79107100  0.64486400  1
  B  B36  1  0.69322300  0.95829200  0.22155800  1
  B  B37  1  0.30677700  0.04170800  0.77844200  1
  B  B38  1  0.19322300  0.04170800  0.27844200  1
  B  B39  1  0.80677700  0.95829200  0.72155800  1
  O  O40  1  0.75137000  0.88262000  0.17759200  1
  O  O41  1  0.24863000  0.11738000  0.82240800  1
  O  O42  1  0.25137000  0.11738000  0.32240800  1
  O  O43  1  0.74863000  0.88262000  0.67759200  1
  O  O44  1  0.46670200  0.69649400  0.59372000  1
  O  O45  1  0.53329800  0.30350600  0.40628000  1
  O  O46  1  0.96670200  0.30350600  0.90628000  1
  O  O47  1  0.03329800  0.69649400  0.09372000  1
  O  O48  1  0.42076200  0.93480000  0.22084200  1
  O  O49  1  0.57923800  0.06520000  0.77915800  1
  O  O50  1  0.92076200  0.06520000  0.27915800  1
  O  O51  1  0.07923800  0.93480000  0.72084200  1
  O  O52  1  0.91442500  0.85341200  0.11805900  1
  O  O53  1  0.08557500  0.14658800  0.88194100  1
  O  O54  1  0.41442500  0.14658800  0.38194100  1
  O  O55  1  0.58557500  0.85341200  0.61805900  1
  O  O56  1  0.91248500  0.52481100  0.00922000  1
  O  O57  1  0.08751500  0.47518900  0.99078000  1
  O  O58  1  0.41248500  0.47518900  0.49078000  1
  O  O59  1  0.58751500  0.52481100  0.50922000  1
  O  O60  1  0.79542600  0.64137800  0.07610900  1
  O  O61  1  0.20457400  0.35862200  0.92389100  1
  O  O62  1  0.29542600  0.35862200  0.42389100  1
  O  O63  1  0.70457400  0.64137800  0.57610900  1
  O  O64  1  0.44853600  0.82223000  0.72139500  1
  O  O65  1  0.55146400  0.17777000  0.27860500  1
  O  O66  1  0.94853600  0.17777000  0.77860500  1
  O  O67  1  0.05146400  0.82223000  0.22139500  1
  O  O68  1  0.59819300  0.70196300  0.10553200  1
  O  O69  1  0.40180700  0.29803700  0.89446800  1
  O  O70  1  0.09819300  0.29803700  0.39446800  1
  O  O71  1  0.90180700  0.70196300  0.60553200  1
  O  O72  1  0.91054600  0.52731800  0.46392500  1
  O  O73  1  0.08945400  0.47268200  0.53607500  1
  O  O74  1  0.41054600  0.47268200  0.03607500  1
  O  O75  1  0.58945400  0.52731800  0.96392500  1
  O  O76  1  0.41446900  0.71379400  0.12392900  1
  O  O77  1  0.58553100  0.28620600  0.87607100  1
  O  O78  1  0.91446900  0.28620600  0.37607100  1
  O  O79  1  0.08553100  0.71379400  0.62392900  1
  O  O80  1  0.23184400  0.72374100  0.12196600  1
  O  O81  1  0.76815600  0.27625900  0.87803400  1
  O  O82  1  0.73184400  0.27625900  0.37803400  1
  O  O83  1  0.26815600  0.72374100  0.62196600  1
  O  O84  1  0.22519200  0.94621800  0.22828000  1
  O  O85  1  0.77480800  0.05378200  0.77172000  1
  O  O86  1  0.72519200  0.05378200  0.27172000  1
  O  O87  1  0.27480800  0.94621800  0.72828000  1
  O  O88  1  0.60650600  0.94784900  0.20069600  1
  O  O89  1  0.39349400  0.05215100  0.79930400  1
  O  O90  1  0.10650600  0.05215100  0.29930400  1
  O  O91  1  0.89349400  0.94784900  0.70069600  1
  O  O92  1  0.76754200  0.44706900  0.00333100  1
  O  O93  1  0.23245800  0.55293100  0.99666900  1
  O  O94  1  0.26754200  0.55293100  0.49666900  1
  O  O95  1  0.73245800  0.44706900  0.50333100  1
