# generated using pymatgen
data_TiFeGe2
_symmetry_space_group_name_H-M   'P 1'
_cell_length_a   7.77302600
_cell_length_b   8.86065200
_cell_length_c   9.93787800
_cell_angle_alpha   90.00000000
_cell_angle_beta   90.00000000
_cell_angle_gamma   90.00000000
_symmetry_Int_Tables_number   1
_chemical_formula_structural   TiFeGe2
_chemical_formula_sum   'Ti12 Fe12 Ge24'
_cell_volume   684.46218823
_cell_formula_units_Z   12
loop_
 _symmetry_equiv_pos_site_id
 _symmetry_equiv_pos_as_xyz
  1  'x, y, z'
loop_
 _atom_site_type_symbol
 _atom_site_label
 _atom_site_symmetry_multiplicity
 _atom_site_fract_x
 _atom_site_fract_y
 _atom_site_fract_z
 _atom_site_occupancy
  Ti  Ti0  1  0.74159400  0.82752900  0.04876200  1
  Ti  Ti1  1  0.74159400  0.17247100  0.95123800  1
  Ti  Ti2  1  0.25840600  0.67247100  0.54876200  1
  Ti  Ti3  1  0.25840600  0.32752900  0.45123800  1
  Ti  Ti4  1  0.25840600  0.17247100  0.95123800  1
  Ti  Ti5  1  0.25840600  0.82752900  0.04876200  1
  Ti  Ti6  1  0.74159400  0.32752900  0.45123800  1
  Ti  Ti7  1  0.74159400  0.67247100  0.54876200  1
  Ti  Ti8  1  0.50000000  0.83534400  0.32096300  1
  Ti  Ti9  1  0.50000000  0.16465600  0.67903700  1
  Ti  Ti10  1  0.50000000  0.66465600  0.82096300  1
  Ti  Ti11  1  0.50000000  0.33534400  0.17903700  1
  Fe  Fe12  1  0.74738300  0.59199700  0.25282300  1
  Fe  Fe13  1  0.74738300  0.40800300  0.74717700  1
  Fe  Fe14  1  0.25261700  0.90800300  0.75282300  1
  Fe  Fe15  1  0.25261700  0.09199700  0.24717700  1
  Fe  Fe16  1  0.25261700  0.40800300  0.74717700  1
  Fe  Fe17  1  0.25261700  0.59199700  0.25282300  1
  Fe  Fe18  1  0.74738300  0.09199700  0.24717700  1
  Fe  Fe19  1  0.74738300  0.90800300  0.75282300  1
  Fe  Fe20  1  0.74374900  0.00000000  0.50000000  1
  Fe  Fe21  1  0.25625100  0.50000000  0.00000000  1
  Fe  Fe22  1  0.25625100  0.00000000  0.50000000  1
  Fe  Fe23  1  0.74374900  0.50000000  0.00000000  1
  Ge  Ge24  1  0.83789300  0.83955600  0.31807800  1
  Ge  Ge25  1  0.83789300  0.16044400  0.68192200  1
  Ge  Ge26  1  0.16210700  0.66044400  0.81807800  1
  Ge  Ge27  1  0.16210700  0.33955600  0.18192200  1
  Ge  Ge28  1  0.16210700  0.16044400  0.68192200  1
  Ge  Ge29  1  0.16210700  0.83955600  0.31807800  1
  Ge  Ge30  1  0.83789300  0.33955600  0.18192200  1
  Ge  Ge31  1  0.83789300  0.66044400  0.81807800  1
  Ge  Ge32  1  0.50000000  0.53940300  0.38009100  1
  Ge  Ge33  1  0.50000000  0.46059700  0.61990900  1
  Ge  Ge34  1  0.50000000  0.96059700  0.88009100  1
  Ge  Ge35  1  0.50000000  0.03940300  0.11990900  1
  Ge  Ge36  1  0.00000000  0.54665000  0.38048100  1
  Ge  Ge37  1  0.00000000  0.45335000  0.61951900  1
  Ge  Ge38  1  0.00000000  0.95335000  0.88048100  1
  Ge  Ge39  1  0.00000000  0.04665000  0.11951900  1
  Ge  Ge40  1  0.50000000  0.63323500  0.09989000  1
  Ge  Ge41  1  0.50000000  0.36676500  0.90011000  1
  Ge  Ge42  1  0.50000000  0.86676500  0.59989000  1
  Ge  Ge43  1  0.50000000  0.13323500  0.40011000  1
  Ge  Ge44  1  0.00000000  0.63082400  0.09626100  1
  Ge  Ge45  1  0.00000000  0.36917600  0.90373900  1
  Ge  Ge46  1  0.00000000  0.86917600  0.59626100  1
  Ge  Ge47  1  0.00000000  0.13082400  0.40373900  1
