# generated using pymatgen
data_Ba3In2P6(HO3)6
_symmetry_space_group_name_H-M   'P 1'
_cell_length_a   10.41009419
_cell_length_b   10.41009419
_cell_length_c   10.41009381
_cell_angle_alpha   102.56561966
_cell_angle_beta   102.56561966
_cell_angle_gamma   102.56562194
_symmetry_Int_Tables_number   1
_chemical_formula_structural   Ba3In2P6(HO3)6
_chemical_formula_sum   'Ba6 In4 P12 H12 O36'
_cell_volume   1032.36533930
_cell_formula_units_Z   2
loop_
 _symmetry_equiv_pos_site_id
 _symmetry_equiv_pos_as_xyz
  1  'x, y, z'
loop_
 _atom_site_type_symbol
 _atom_site_label
 _atom_site_symmetry_multiplicity
 _atom_site_fract_x
 _atom_site_fract_y
 _atom_site_fract_z
 _atom_site_occupancy
  Ba  Ba0  1  0.17033800  0.92615300  0.65862600  1
  Ba  Ba1  1  0.65862600  0.17033800  0.92615300  1
  Ba  Ba2  1  0.92615300  0.65862600  0.17033800  1
  Ba  Ba3  1  0.82966200  0.07384700  0.34137400  1
  Ba  Ba4  1  0.34137400  0.82966200  0.07384700  1
  Ba  Ba5  1  0.07384700  0.34137400  0.82966200  1
  In  In6  1  0.50000000  0.00000000  0.50000000  1
  In  In7  1  0.50000000  0.50000000  0.00000000  1
  In  In8  1  0.00000000  0.50000000  0.50000000  1
  In  In9  1  0.00000000  0.00000000  0.00000000  1
  P  P10  1  0.24670100  0.69575400  0.38888300  1
  P  P11  1  0.38888300  0.24670100  0.69575400  1
  P  P12  1  0.69575400  0.38888300  0.24670100  1
  P  P13  1  0.75329900  0.30424600  0.61111700  1
  P  P14  1  0.61111700  0.75329900  0.30424600  1
  P  P15  1  0.30424600  0.61111700  0.75329900  1
  P  P16  1  0.97267900  0.68516800  0.80493800  1
  P  P17  1  0.80493800  0.97267900  0.68516800  1
  P  P18  1  0.68516800  0.80493800  0.97267900  1
  P  P19  1  0.02732100  0.31483200  0.19506200  1
  P  P20  1  0.19506200  0.02732100  0.31483200  1
  P  P21  1  0.31483200  0.19506200  0.02732100  1
  H  H22  1  0.30247100  0.58380700  0.39300300  1
  H  H23  1  0.39300300  0.30247100  0.58380700  1
  H  H24  1  0.58380700  0.39300300  0.30247100  1
  H  H25  1  0.69752900  0.41619300  0.60699700  1
  H  H26  1  0.60699700  0.69752900  0.41619300  1
  H  H27  1  0.41619300  0.60699700  0.69752900  1
  H  H28  1  0.83401300  0.66310800  0.80569000  1
  H  H29  1  0.80569000  0.83401300  0.66310800  1
  H  H30  1  0.66310800  0.80569000  0.83401300  1
  H  H31  1  0.16598700  0.33689200  0.19431000  1
  H  H32  1  0.19431000  0.16598700  0.33689200  1
  H  H33  1  0.33689200  0.19431000  0.16598700  1
  O  O34  1  0.21542100  0.70761900  0.24302800  1
  O  O35  1  0.24302800  0.21542100  0.70761900  1
  O  O36  1  0.70761900  0.24302800  0.21542100  1
  O  O37  1  0.78457900  0.29238100  0.75697200  1
  O  O38  1  0.75697200  0.78457900  0.29238100  1
  O  O39  1  0.29238100  0.75697200  0.78457900  1
  O  O40  1  0.34956900  0.82022400  0.50160800  1
  O  O41  1  0.50160800  0.34956900  0.82022400  1
  O  O42  1  0.82022400  0.50160800  0.34956900  1
  O  O43  1  0.65043100  0.17977600  0.49839200  1
  O  O44  1  0.49839200  0.65043100  0.17977600  1
  O  O45  1  0.17977600  0.49839200  0.65043100  1
  O  O46  1  0.11110300  0.66556700  0.43297700  1
  O  O47  1  0.43297700  0.11110300  0.66556700  1
  O  O48  1  0.66556700  0.43297700  0.11110300  1
  O  O49  1  0.88889700  0.33443300  0.56702300  1
  O  O50  1  0.56702300  0.88889700  0.33443300  1
  O  O51  1  0.33443300  0.56702300  0.88889700  1
  O  O52  1  0.96877600  0.65254800  0.65212400  1
  O  O53  1  0.65212400  0.96877600  0.65254800  1
  O  O54  1  0.65254800  0.65212400  0.96877600  1
  O  O55  1  0.03122400  0.34745200  0.34787600  1
  O  O56  1  0.34787600  0.03122400  0.34745200  1
  O  O57  1  0.34745200  0.34787600  0.03122400  1
  O  O58  1  0.04512200  0.84193300  0.86247800  1
  O  O59  1  0.86247800  0.04512200  0.84193300  1
  O  O60  1  0.84193300  0.86247800  0.04512200  1
  O  O61  1  0.95487800  0.15806700  0.13752200  1
  O  O62  1  0.13752200  0.95487800  0.15806700  1
  O  O63  1  0.15806700  0.13752200  0.95487800  1
  O  O64  1  0.03446700  0.60371200  0.89440800  1
  O  O65  1  0.89440800  0.03446700  0.60371200  1
  O  O66  1  0.60371200  0.89440800  0.03446700  1
  O  O67  1  0.96553300  0.39628800  0.10559200  1
  O  O68  1  0.10559200  0.96553300  0.39628800  1
  O  O69  1  0.39628800  0.10559200  0.96553300  1
