# generated using pymatgen
data_Y5P12Ru19
_symmetry_space_group_name_H-M   'P 1'
_cell_length_a   12.55046120
_cell_length_b   12.55046120
_cell_length_c   3.97234400
_cell_angle_alpha   90.00000000
_cell_angle_beta   90.00000000
_cell_angle_gamma   119.99999579
_symmetry_Int_Tables_number   1
_chemical_formula_structural   Y5P12Ru19
_chemical_formula_sum   'Y5 P12 Ru19'
_cell_volume   541.87220147
_cell_formula_units_Z   1
loop_
 _symmetry_equiv_pos_site_id
 _symmetry_equiv_pos_as_xyz
  1  'x, y, z'
loop_
 _atom_site_type_symbol
 _atom_site_label
 _atom_site_symmetry_multiplicity
 _atom_site_fract_x
 _atom_site_fract_y
 _atom_site_fract_z
 _atom_site_occupancy
  Y  Y0  1  0.00000000  0.18453800  0.50000000  1
  Y  Y1  1  0.81546200  0.81546200  0.50000000  1
  Y  Y2  1  0.18453800  0.00000000  0.50000000  1
  Y  Y3  1  0.66666700  0.33333300  0.00000000  1
  Y  Y4  1  0.33333300  0.66666700  0.00000000  1
  P  P5  1  0.00000000  0.81600600  0.00000000  1
  P  P6  1  0.18399400  0.18399400  0.00000000  1
  P  P7  1  0.81600600  0.00000000  0.00000000  1
  P  P8  1  0.69250700  0.17014100  0.50000000  1
  P  P9  1  0.82985900  0.52236600  0.50000000  1
  P  P10  1  0.47763400  0.30749300  0.50000000  1
  P  P11  1  0.17014100  0.69250700  0.50000000  1
  P  P12  1  0.52236600  0.82985900  0.50000000  1
  P  P13  1  0.30749300  0.47763400  0.50000000  1
  P  P14  1  0.00000000  0.37264800  0.00000000  1
  P  P15  1  0.62735200  0.62735200  0.00000000  1
  P  P16  1  0.37264800  0.00000000  0.00000000  1
  Ru  Ru17  1  0.00000000  0.55453700  0.00000000  1
  Ru  Ru18  1  0.44546300  0.44546300  0.00000000  1
  Ru  Ru19  1  0.55453700  0.00000000  0.00000000  1
  Ru  Ru20  1  0.00000000  0.71703500  0.50000000  1
  Ru  Ru21  1  0.28296500  0.28296500  0.50000000  1
  Ru  Ru22  1  0.71703500  0.00000000  0.50000000  1
  Ru  Ru23  1  0.80737500  0.18441000  0.00000000  1
  Ru  Ru24  1  0.81559000  0.62296600  0.00000000  1
  Ru  Ru25  1  0.37703400  0.19262500  0.00000000  1
  Ru  Ru26  1  0.18441000  0.80737500  0.00000000  1
  Ru  Ru27  1  0.62296600  0.81559000  0.00000000  1
  Ru  Ru28  1  0.19262500  0.37703400  0.00000000  1
  Ru  Ru29  1  0.87394600  0.36514300  0.50000000  1
  Ru  Ru30  1  0.63485700  0.50880300  0.50000000  1
  Ru  Ru31  1  0.49119700  0.12605400  0.50000000  1
  Ru  Ru32  1  0.36514300  0.87394600  0.50000000  1
  Ru  Ru33  1  0.50880300  0.63485700  0.50000000  1
  Ru  Ru34  1  0.12605400  0.49119700  0.50000000  1
  Ru  Ru35  1  0.00000000  0.00000000  0.00000000  1
