# generated using pymatgen
data_Ca2MgAs2(H2O5)2
_symmetry_space_group_name_H-M   'P 1'
_cell_length_a   5.74087083
_cell_length_b   5.86670007
_cell_length_c   13.09671000
_cell_angle_alpha   90.00000000
_cell_angle_beta   90.00000000
_cell_angle_gamma   107.60439241
_symmetry_Int_Tables_number   1
_chemical_formula_structural   Ca2MgAs2(H2O5)2
_chemical_formula_sum   'Ca4 Mg2 As4 H8 O20'
_cell_volume   420.43909308
_cell_formula_units_Z   2
loop_
 _symmetry_equiv_pos_site_id
 _symmetry_equiv_pos_as_xyz
  1  'x, y, z'
loop_
 _atom_site_type_symbol
 _atom_site_label
 _atom_site_symmetry_multiplicity
 _atom_site_fract_x
 _atom_site_fract_y
 _atom_site_fract_z
 _atom_site_occupancy
  Ca  Ca0  1  0.22984100  0.56155400  0.12428900  1
  Ca  Ca1  1  0.77015900  0.43844600  0.87571100  1
  Ca  Ca2  1  0.27015900  0.43844600  0.62428900  1
  Ca  Ca3  1  0.72984100  0.56155400  0.37571100  1
  Mg  Mg4  1  0.00000000  0.00000000  0.00000000  1
  Mg  Mg5  1  0.50000000  0.00000000  0.50000000  1
  As  As6  1  0.06553500  0.21625400  0.37938800  1
  As  As7  1  0.93446500  0.78374600  0.62061200  1
  As  As8  1  0.43446500  0.78374600  0.87938800  1
  As  As9  1  0.56553500  0.21625400  0.12061200  1
  H  H10  1  0.00101100  0.10022200  0.79314000  1
  H  H11  1  0.99898900  0.89977800  0.20686000  1
  H  H12  1  0.49898900  0.89977800  0.29314000  1
  H  H13  1  0.50101100  0.10022200  0.70686000  1
  H  H14  1  0.29771000  0.70465900  0.35379700  1
  H  H15  1  0.70229000  0.29534100  0.64620300  1
  H  H16  1  0.20229000  0.29534100  0.85379700  1
  H  H17  1  0.79771000  0.70465900  0.14620300  1
  O  O18  1  0.33576400  0.23771500  0.03901800  1
  O  O19  1  0.66423600  0.76228500  0.96098200  1
  O  O20  1  0.16423600  0.76228500  0.53901800  1
  O  O21  1  0.83576400  0.23771500  0.46098200  1
  O  O22  1  0.49622100  0.94237100  0.17760200  1
  O  O23  1  0.50377900  0.05762900  0.82239800  1
  O  O24  1  0.00377900  0.05762900  0.67760200  1
  O  O25  1  0.99622100  0.94237100  0.32239800  1
  O  O26  1  0.33541200  0.27557100  0.44850100  1
  O  O27  1  0.66458800  0.72442900  0.55149900  1
  O  O28  1  0.16458800  0.72442900  0.94850100  1
  O  O29  1  0.83541200  0.27557100  0.05149900  1
  O  O30  1  0.53442000  0.18240700  0.63688500  1
  O  O31  1  0.46558000  0.81759300  0.36311500  1
  O  O32  1  0.96558000  0.81759300  0.13688500  1
  O  O33  1  0.03442000  0.18240700  0.86311500  1
  O  O34  1  0.08068100  0.44779600  0.29537100  1
  O  O35  1  0.91931900  0.55220400  0.70462900  1
  O  O36  1  0.41931900  0.55220400  0.79537100  1
  O  O37  1  0.58068100  0.44779600  0.20462900  1
