# generated using pymatgen
data_Ba2LiSi3
_symmetry_space_group_name_H-M   'P 1'
_cell_length_a   12.39418044
_cell_length_b   10.71454427
_cell_length_c   8.78526280
_cell_angle_alpha   78.24099712
_cell_angle_beta   57.81572539
_cell_angle_gamma   43.94327748
_symmetry_Int_Tables_number   1
_chemical_formula_structural   Ba2LiSi3
_chemical_formula_sum   'Ba8 Li4 Si12'
_cell_volume   652.32889966
_cell_formula_units_Z   4
loop_
 _symmetry_equiv_pos_site_id
 _symmetry_equiv_pos_as_xyz
  1  'x, y, z'
loop_
 _atom_site_type_symbol
 _atom_site_label
 _atom_site_symmetry_multiplicity
 _atom_site_fract_x
 _atom_site_fract_y
 _atom_site_fract_z
 _atom_site_occupancy
  Ba  Ba0  1  0.87572800  0.87572800  0.12427200  1
  Ba  Ba1  1  0.12427200  0.12427200  0.87572800  1
  Ba  Ba2  1  0.37427200  0.37427200  0.12572800  1
  Ba  Ba3  1  0.12572800  0.12572800  0.37427200  1
  Ba  Ba4  1  0.62517000  0.62517000  0.37483000  1
  Ba  Ba5  1  0.37483000  0.37483000  0.62517000  1
  Ba  Ba6  1  0.62483000  0.62483000  0.87517000  1
  Ba  Ba7  1  0.87517000  0.87517000  0.62483000  1
  Li  Li8  1  0.16764300  0.83235700  0.16764300  1
  Li  Li9  1  0.83235700  0.16764300  0.83235700  1
  Li  Li10  1  0.08235700  0.41764300  0.08235700  1
  Li  Li11  1  0.41764300  0.08235700  0.41764300  1
  Si  Si12  1  0.65451600  0.33820400  0.18802600  1
  Si  Si13  1  0.81925400  0.18802600  0.33820400  1
  Si  Si14  1  0.18802600  0.81925400  0.65451600  1
  Si  Si15  1  0.33820400  0.65451600  0.81925400  1
  Si  Si16  1  0.59216200  0.90783800  0.59216200  1
  Si  Si17  1  0.90783800  0.59216200  0.90783800  1
  Si  Si18  1  0.65783800  0.34216200  0.65783800  1
  Si  Si19  1  0.34216200  0.65783800  0.34216200  1
  Si  Si20  1  0.91179600  0.59548400  0.43074600  1
  Si  Si21  1  0.06197400  0.43074600  0.59548400  1
  Si  Si22  1  0.43074600  0.06197400  0.91179600  1
  Si  Si23  1  0.59548400  0.91179600  0.06197400  1
