# generated using pymatgen
data_Mn3Pd5
_symmetry_space_group_name_H-M   'P 1'
_cell_length_a   5.49594380
_cell_length_b   5.49594380
_cell_length_c   4.08862000
_cell_angle_alpha   90.00000000
_cell_angle_beta   90.00000000
_cell_angle_gamma   97.11666394
_symmetry_Int_Tables_number   1
_chemical_formula_structural   Mn3Pd5
_chemical_formula_sum   'Mn3 Pd5'
_cell_volume   122.54695735
_cell_formula_units_Z   1
loop_
 _symmetry_equiv_pos_site_id
 _symmetry_equiv_pos_as_xyz
  1  'x, y, z'
loop_
 _atom_site_type_symbol
 _atom_site_label
 _atom_site_symmetry_multiplicity
 _atom_site_fract_x
 _atom_site_fract_y
 _atom_site_fract_z
 _atom_site_occupancy
  Mn  Mn0  1  0.00000000  0.00000000  0.00000000  1
  Mn  Mn1  1  0.27415100  0.72584900  0.50000000  1
  Mn  Mn2  1  0.72584900  0.27415100  0.50000000  1
  Pd  Pd3  1  0.50000000  0.50000000  0.00000000  1
  Pd  Pd4  1  0.50000000  0.00000000  0.00000000  1
  Pd  Pd5  1  0.00000000  0.50000000  0.00000000  1
  Pd  Pd6  1  0.22472400  0.22472400  0.50000000  1
  Pd  Pd7  1  0.77527600  0.77527600  0.50000000  1
