# generated using pymatgen
data_Mg149P
_symmetry_space_group_name_H-M   'P 1'
_cell_length_a   15.95064563
_cell_length_b   15.95065139
_cell_length_c   15.58947839
_cell_angle_alpha   90.00000000
_cell_angle_beta   90.00000000
_cell_angle_gamma   120.00000974
_symmetry_Int_Tables_number   1
_chemical_formula_structural   Mg149P
_chemical_formula_sum   'Mg149 P1'
_cell_volume   3434.93768986
_cell_formula_units_Z   1
loop_
 _symmetry_equiv_pos_site_id
 _symmetry_equiv_pos_as_xyz
  1  'x, y, z'
loop_
 _atom_site_type_symbol
 _atom_site_label
 _atom_site_symmetry_multiplicity
 _atom_site_fract_x
 _atom_site_fract_y
 _atom_site_fract_z
 _atom_site_occupancy
  Mg  Mg0  1  0.80447288  0.00181495  0.00000000  1
  Mg  Mg1  1  0.19734107  0.00181495  0.00000000  1
  Mg  Mg2  1  0.99818605  0.19552712  0.00000000  1
  Mg  Mg3  1  0.19734107  0.19552712  0.00000000  1
  Mg  Mg4  1  0.80066630  0.19933370  0.00000000  1
  Mg  Mg5  1  0.39866741  0.19933370  0.00000000  1
  Mg  Mg6  1  0.60010766  0.20021631  0.00000000  1
  Mg  Mg7  1  0.19870531  0.39740962  0.00000000  1
  Mg  Mg8  1  0.39952280  0.39971962  0.00000000  1
  Mg  Mg9  1  0.00019682  0.39971962  0.00000000  1
  Mg  Mg10  1  0.79978369  0.39989134  0.00000000  1
  Mg  Mg11  1  0.60010766  0.39989134  0.00000000  1
  Mg  Mg12  1  0.39992966  0.60007034  0.00000000  1
  Mg  Mg13  1  0.20014169  0.60007134  0.00000000  1
  Mg  Mg14  1  0.00019682  0.60047720  0.00000000  1
  Mg  Mg15  1  0.60028038  0.60047820  0.00000000  1
  Mg  Mg16  1  0.80066630  0.60133259  0.00000000  1
  Mg  Mg17  1  0.39992966  0.79985831  0.00000000  1
  Mg  Mg18  1  0.60259138  0.80129569  0.00000000  1
  Mg  Mg19  1  0.19870531  0.80129569  0.00000000  1
  Mg  Mg20  1  0.80447288  0.80265893  0.00000000  1
  Mg  Mg21  1  0.99818605  0.80265893  0.00000000  1
  Mg  Mg22  1  0.39952280  0.99980318  0.00000000  1
  Mg  Mg23  1  0.60028038  0.99980318  0.00000000  1
  Mg  Mg24  1  0.06490248  0.12980596  0.16326640  1
  Mg  Mg25  1  0.06490248  0.93509652  0.16326640  1
  Mg  Mg26  1  0.87019404  0.93509752  0.16326640  1
  Mg  Mg27  1  0.26562333  0.33154640  0.16538647  1
  Mg  Mg28  1  0.06592307  0.33154640  0.16538647  1
  Mg  Mg29  1  0.06592307  0.73437667  0.16538647  1
  Mg  Mg30  1  0.66845360  0.73437667  0.16538647  1
  Mg  Mg31  1  0.26562333  0.93407693  0.16538647  1
  Mg  Mg32  1  0.66845360  0.93407693  0.16538647  1
  Mg  Mg33  1  0.26627551  0.53255102  0.16598538  1
  Mg  Mg34  1  0.26627551  0.73372449  0.16598538  1
  Mg  Mg35  1  0.46744898  0.73372449  0.16598538  1
  Mg  Mg36  1  0.66666700  0.33333300  0.16619605  1
  Mg  Mg37  1  0.46668071  0.13345569  0.16609799  1
  Mg  Mg38  1  0.66677498  0.13345569  0.16609799  1
  Mg  Mg39  1  0.46668071  0.33322502  0.16609799  1
  Mg  Mg40  1  0.86654331  0.33322502  0.16609799  1
  Mg  Mg41  1  0.86654331  0.53331929  0.16609799  1
  Mg  Mg42  1  0.66677498  0.53331929  0.16609799  1
  Mg  Mg43  1  0.46662996  0.53337004  0.16594395  1
  Mg  Mg44  1  0.06674007  0.53337004  0.16594395  1
  Mg  Mg45  1  0.46662996  0.93325993  0.16594395  1
  Mg  Mg46  1  0.86623742  0.13376258  0.16722057  1
  Mg  Mg47  1  0.26752615  0.13376258  0.16722057  1
  Mg  Mg48  1  0.86623742  0.73247385  0.16722057  1
  Mg  Mg49  1  0.00000000  0.00000000  0.33136516  1
  Mg  Mg50  1  0.19985158  0.39970315  0.33235091  1
  Mg  Mg51  1  0.60029585  0.80014842  0.33235091  1
  Mg  Mg52  1  0.19985158  0.80014842  0.33235091  1
  Mg  Mg53  1  0.80062959  0.99974345  0.33316002  1
  Mg  Mg54  1  0.19911386  0.99974345  0.33316002  1
  Mg  Mg55  1  0.19911386  0.19937041  0.33316002  1
  Mg  Mg56  1  0.00025655  0.19937041  0.33316002  1
  Mg  Mg57  1  0.00025655  0.80088614  0.33316002  1
  Mg  Mg58  1  0.80062959  0.80088614  0.33316002  1
  Mg  Mg59  1  0.60021323  0.99985533  0.33290368  1
  Mg  Mg60  1  0.39964110  0.99985533  0.33290368  1
  Mg  Mg61  1  0.00014467  0.39978577  0.33290368  1
  Mg  Mg62  1  0.39964110  0.39978577  0.33290368  1
  Mg  Mg63  1  0.60021323  0.60035890  0.33290368  1
  Mg  Mg64  1  0.00014467  0.60035890  0.33290368  1
  Mg  Mg65  1  0.60011963  0.20023825  0.33269068  1
  Mg  Mg66  1  0.79976175  0.39988037  0.33269068  1
  Mg  Mg67  1  0.60011963  0.39988137  0.33269068  1
  Mg  Mg68  1  0.80013554  0.19986446  0.33287052  1
  Mg  Mg69  1  0.39972892  0.19986446  0.33287052  1
  Mg  Mg70  1  0.80013554  0.60027108  0.33287052  1
  Mg  Mg71  1  0.20028395  0.60014247  0.33262366  1
  Mg  Mg72  1  0.39985753  0.60014247  0.33262366  1
  Mg  Mg73  1  0.39985753  0.79971605  0.33262366  1
  Mg  Mg74  1  0.06633380  0.13266859  0.50000000  1
  Mg  Mg75  1  0.26628463  0.13314232  0.50000000  1
  Mg  Mg76  1  0.86685768  0.13314232  0.50000000  1
  Mg  Mg77  1  0.46652506  0.13297641  0.50000000  1
  Mg  Mg78  1  0.66645135  0.13297641  0.50000000  1
  Mg  Mg79  1  0.26635270  0.33292337  0.50000000  1
  Mg  Mg80  1  0.06657067  0.33292437  0.50000000  1
  Mg  Mg81  1  0.66666700  0.33333300  0.50000000  1
  Mg  Mg82  1  0.86702359  0.33354865  0.50000000  1
  Mg  Mg83  1  0.46652506  0.33354965  0.50000000  1
  Mg  Mg84  1  0.66645135  0.53347494  0.50000000  1
  Mg  Mg85  1  0.86702359  0.53347494  0.50000000  1
  Mg  Mg86  1  0.26636196  0.53272292  0.50000000  1
  Mg  Mg87  1  0.06665098  0.53332499  0.50000000  1
  Mg  Mg88  1  0.46667501  0.53332599  0.50000000  1
  Mg  Mg89  1  0.46727808  0.73363904  0.50000000  1
  Mg  Mg90  1  0.26636196  0.73363904  0.50000000  1
  Mg  Mg91  1  0.86685768  0.73371537  0.50000000  1
  Mg  Mg92  1  0.66707663  0.73364730  0.50000000  1
  Mg  Mg93  1  0.06657067  0.73364730  0.50000000  1
  Mg  Mg94  1  0.46667501  0.93335002  0.50000000  1
  Mg  Mg95  1  0.26635270  0.93342933  0.50000000  1
  Mg  Mg96  1  0.66707663  0.93342933  0.50000000  1
  Mg  Mg97  1  0.06633380  0.93366520  0.50000000  1
  Mg  Mg98  1  0.86733141  0.93366520  0.50000000  1
  Mg  Mg99  1  0.20028395  0.60014247  0.66737634  1
  Mg  Mg100  1  0.39985753  0.60014247  0.66737634  1
  Mg  Mg101  1  0.39985753  0.79971605  0.66737634  1
  Mg  Mg102  1  0.80013554  0.19986446  0.66712948  1
  Mg  Mg103  1  0.39972892  0.19986446  0.66712948  1
  Mg  Mg104  1  0.80013554  0.60027108  0.66712948  1
  Mg  Mg105  1  0.60011963  0.20023825  0.66730932  1
  Mg  Mg106  1  0.79976175  0.39988037  0.66730932  1
  Mg  Mg107  1  0.60011963  0.39988137  0.66730932  1
  Mg  Mg108  1  0.60021323  0.99985533  0.66709632  1
  Mg  Mg109  1  0.39964110  0.99985533  0.66709632  1
  Mg  Mg110  1  0.00014467  0.39978577  0.66709632  1
  Mg  Mg111  1  0.39964110  0.39978577  0.66709632  1
  Mg  Mg112  1  0.60021323  0.60035890  0.66709632  1
  Mg  Mg113  1  0.00014467  0.60035890  0.66709632  1
  Mg  Mg114  1  0.80062959  0.99974345  0.66683998  1
  Mg  Mg115  1  0.19911386  0.99974345  0.66683998  1
  Mg  Mg116  1  0.19911386  0.19937041  0.66683998  1
  Mg  Mg117  1  0.00025655  0.19937041  0.66683998  1
  Mg  Mg118  1  0.00025655  0.80088614  0.66683998  1
  Mg  Mg119  1  0.80062959  0.80088614  0.66683998  1
  Mg  Mg120  1  0.19985158  0.39970315  0.66764909  1
  Mg  Mg121  1  0.60029585  0.80014842  0.66764909  1
  Mg  Mg122  1  0.19985158  0.80014842  0.66764909  1
  Mg  Mg123  1  0.00000000  0.00000000  0.66863484  1
  Mg  Mg124  1  0.86623742  0.13376258  0.83277943  1
  Mg  Mg125  1  0.26752615  0.13376258  0.83277943  1
  Mg  Mg126  1  0.86623742  0.73247385  0.83277943  1
  Mg  Mg127  1  0.46662996  0.53337004  0.83405505  1
  Mg  Mg128  1  0.06674007  0.53337004  0.83405505  1
  Mg  Mg129  1  0.46662996  0.93325993  0.83405505  1
  Mg  Mg130  1  0.46668071  0.13345569  0.83390201  1
  Mg  Mg131  1  0.66677498  0.13345569  0.83390201  1
  Mg  Mg132  1  0.46668071  0.33322502  0.83390201  1
  Mg  Mg133  1  0.86654331  0.33322502  0.83390201  1
  Mg  Mg134  1  0.86654331  0.53331929  0.83390201  1
  Mg  Mg135  1  0.66677498  0.53331929  0.83390201  1
  Mg  Mg136  1  0.66666700  0.33333300  0.83380395  1
  Mg  Mg137  1  0.26627551  0.53255102  0.83401462  1
  Mg  Mg138  1  0.26627551  0.73372449  0.83401462  1
  Mg  Mg139  1  0.46744898  0.73372449  0.83401462  1
  Mg  Mg140  1  0.26562333  0.33154640  0.83461353  1
  Mg  Mg141  1  0.06592307  0.33154640  0.83461353  1
  Mg  Mg142  1  0.06592307  0.73437667  0.83461353  1
  Mg  Mg143  1  0.66845360  0.73437667  0.83461353  1
  Mg  Mg144  1  0.26562333  0.93407693  0.83461353  1
  Mg  Mg145  1  0.66845360  0.93407693  0.83461353  1
  Mg  Mg146  1  0.06490248  0.12980596  0.83673360  1
  Mg  Mg147  1  0.06490248  0.93509652  0.83673360  1
  Mg  Mg148  1  0.87019404  0.93509752  0.83673360  1
  P  P149  1  0.00000000  0.00000000  0.00000000  1
