# generated using pymatgen
data_K5Pr4Si4O16F
_symmetry_space_group_name_H-M   'P 1'
_cell_length_a   9.27410892
_cell_length_b   9.27410892
_cell_length_c   9.27410892
_cell_angle_alpha   95.18145565
_cell_angle_beta   95.18145565
_cell_angle_gamma   145.02272796
_symmetry_Int_Tables_number   1
_chemical_formula_structural   K5Pr4Si4O16F
_chemical_formula_sum   'K5 Pr4 Si4 O16 F1'
_cell_volume   436.12239759
_cell_formula_units_Z   1
loop_
 _symmetry_equiv_pos_site_id
 _symmetry_equiv_pos_as_xyz
  1  'x, y, z'
loop_
 _atom_site_type_symbol
 _atom_site_label
 _atom_site_symmetry_multiplicity
 _atom_site_fract_x
 _atom_site_fract_y
 _atom_site_fract_z
 _atom_site_occupancy
  K  K0  1  0.59325200  0.10266900  0.69502500  1
  K  K1  1  0.40764400  0.89822800  0.30497500  1
  K  K2  1  0.10177200  0.40674800  0.50941600  1
  K  K3  1  0.89733100  0.59235600  0.49058400  1
  K  K4  1  0.00000000  0.00000000  0.00000000  1
  Pr  Pr5  1  0.60062400  0.66735400  0.30226300  1
  Pr  Pr6  1  0.36509200  0.29836200  0.69773700  1
  Pr  Pr7  1  0.70163800  0.39937600  0.06673000  1
  Pr  Pr8  1  0.33264600  0.63490800  0.93327000  1
  Si  Si9  1  0.76443600  0.90537200  0.65035400  1
  Si  Si10  1  0.25501800  0.11408200  0.34964600  1
  Si  Si11  1  0.88591800  0.23556400  0.14093600  1
  Si  Si12  1  0.09462800  0.74498200  0.85906400  1
  O  O13  1  0.61973800  0.87972900  0.50682400  1
  O  O14  1  0.37290400  0.11291400  0.49317600  1
  O  O15  1  0.88708600  0.38026200  0.25999100  1
  O  O16  1  0.12027100  0.62709600  0.74000900  1
  O  O17  1  0.56270000  0.70914900  0.75159500  1
  O  O18  1  0.95755400  0.81110500  0.24840500  1
  O  O19  1  0.18889500  0.43730000  0.14645000  1
  O  O20  1  0.29085100  0.04244600  0.85355000  1
  O  O21  1  0.04200900  0.21180500  0.75932200  1
  O  O22  1  0.45248200  0.28268600  0.24067800  1
  O  O23  1  0.71731400  0.95799100  0.16979600  1
  O  O24  1  0.78819500  0.54751800  0.83020400  1
  O  O25  1  0.85654800  0.82988400  0.57354700  1
  O  O26  1  0.25633600  0.28300100  0.42645300  1
  O  O27  1  0.71699900  0.14345200  0.97333500  1
  O  O28  1  0.17011600  0.74366400  0.02666500  1
  F  F29  1  0.50000000  0.50000000  0.00000000  1
