# generated using pymatgen
data_Cu2Sb
_symmetry_space_group_name_H-M   'P 1'
_cell_length_a   4.00893100
_cell_length_b   4.00893100
_cell_length_c   6.14859600
_cell_angle_alpha   90.00000000
_cell_angle_beta   90.00000000
_cell_angle_gamma   90.00000000
_symmetry_Int_Tables_number   1
_chemical_formula_structural   Cu2Sb
_chemical_formula_sum   'Cu4 Sb2'
_cell_volume   98.81733132
_cell_formula_units_Z   2
loop_
 _symmetry_equiv_pos_site_id
 _symmetry_equiv_pos_as_xyz
  1  'x, y, z'
loop_
 _atom_site_type_symbol
 _atom_site_label
 _atom_site_symmetry_multiplicity
 _atom_site_fract_x
 _atom_site_fract_y
 _atom_site_fract_z
 _atom_site_occupancy
  Cu  Cu0  1  0.00000000  0.00000000  0.00000000  1
  Cu  Cu1  1  0.50000000  0.50000000  0.00000000  1
  Cu  Cu2  1  0.50000000  0.00000000  0.26582400  1
  Cu  Cu3  1  0.00000000  0.50000000  0.73417600  1
  Sb  Sb4  1  0.50000000  0.00000000  0.69802400  1
  Sb  Sb5  1  0.00000000  0.50000000  0.30197600  1
