# generated using pymatgen
data_KLi3GeO4
_symmetry_space_group_name_H-M   'P 1'
_cell_length_a   5.92982200
_cell_length_b   7.57792622
_cell_length_c   10.05124954
_cell_angle_alpha   83.60459039
_cell_angle_beta   76.53801194
_cell_angle_gamma   79.76267798
_symmetry_Int_Tables_number   1
_chemical_formula_structural   KLi3GeO4
_chemical_formula_sum   'K4 Li12 Ge4 O16'
_cell_volume   431.09978345
_cell_formula_units_Z   4
loop_
 _symmetry_equiv_pos_site_id
 _symmetry_equiv_pos_as_xyz
  1  'x, y, z'
loop_
 _atom_site_type_symbol
 _atom_site_label
 _atom_site_symmetry_multiplicity
 _atom_site_fract_x
 _atom_site_fract_y
 _atom_site_fract_z
 _atom_site_occupancy
  K  K0  1  0.49609400  0.11710300  0.61682700  1
  K  K1  1  0.50390600  0.88289700  0.38317300  1
  K  K2  1  0.45817000  0.35989500  0.87222900  1
  K  K3  1  0.54183000  0.64010500  0.12777100  1
  Li  Li4  1  0.97781500  0.82331700  0.11318300  1
  Li  Li5  1  0.02218500  0.17668300  0.88681700  1
  Li  Li6  1  0.30517300  0.32447400  0.35385700  1
  Li  Li7  1  0.69482700  0.67552600  0.64614300  1
  Li  Li8  1  0.92929800  0.54765100  0.87609300  1
  Li  Li9  1  0.07070200  0.45234900  0.12390700  1
  Li  Li10  1  0.03652100  0.92709900  0.62783700  1
  Li  Li11  1  0.31317700  0.05048300  0.10335200  1
  Li  Li12  1  0.69310800  0.44318200  0.39560700  1
  Li  Li13  1  0.30689200  0.55681800  0.60439300  1
  Li  Li14  1  0.96347900  0.07290100  0.37216300  1
  Li  Li15  1  0.68682300  0.94951700  0.89664800  1
  Ge  Ge16  1  0.94127000  0.29050700  0.63450800  1
  Ge  Ge17  1  0.05873000  0.70949300  0.36549200  1
  Ge  Ge18  1  0.33394800  0.79350100  0.85181900  1
  Ge  Ge19  1  0.66605200  0.20649900  0.14818100  1
  O  O20  1  0.67862200  0.21123000  0.32375500  1
  O  O21  1  0.32137800  0.78877000  0.67624500  1
  O  O22  1  0.86287700  0.33765900  0.03527800  1
  O  O23  1  0.13712300  0.66234100  0.96472200  1
  O  O24  1  0.63820200  0.70438100  0.84976700  1
  O  O25  1  0.36179800  0.29561900  0.15023300  1
  O  O26  1  0.68984300  0.43383600  0.59339300  1
  O  O27  1  0.31015700  0.56616400  0.40660700  1
  O  O28  1  0.15400700  0.89001900  0.24346600  1
  O  O29  1  0.84599300  0.10998100  0.75653400  1
  O  O30  1  0.88237900  0.82587600  0.50827200  1
  O  O31  1  0.11762100  0.17412400  0.49172800  1
  O  O32  1  0.89549300  0.60461400  0.27753100  1
  O  O33  1  0.10450700  0.39538600  0.72246900  1
  O  O34  1  0.69377300  0.98736100  0.09002100  1
  O  O35  1  0.30622700  0.01263900  0.90997900  1
