# generated using pymatgen
data_KGaGe3O8
_symmetry_space_group_name_H-M   'P 1'
_cell_length_a   7.64765200
_cell_length_b   8.12094300
_cell_length_c   8.34401290
_cell_angle_alpha   113.49206709
_cell_angle_beta   104.40599329
_cell_angle_gamma   103.07860739
_symmetry_Int_Tables_number   1
_chemical_formula_structural   KGaGe3O8
_chemical_formula_sum   'K2 Ga2 Ge6 O16'
_cell_volume   428.30786591
_cell_formula_units_Z   2
loop_
 _symmetry_equiv_pos_site_id
 _symmetry_equiv_pos_as_xyz
  1  'x, y, z'
loop_
 _atom_site_type_symbol
 _atom_site_label
 _atom_site_symmetry_multiplicity
 _atom_site_fract_x
 _atom_site_fract_y
 _atom_site_fract_z
 _atom_site_occupancy
  K  K0  1  0.13683800  0.27684900  0.27356700  1
  K  K1  1  0.86316200  0.72315100  0.72643300  1
  Ga  Ga2  1  0.22060000  0.81760100  0.19109900  1
  Ga  Ga3  1  0.77940000  0.18239900  0.80890100  1
  Ge  Ge4  1  0.22264500  0.18902900  0.82338400  1
  Ge  Ge5  1  0.77735500  0.81097100  0.17661600  1
  Ge  Ge6  1  0.34193400  0.58867300  0.82457800  1
  Ge  Ge7  1  0.34986200  0.81977100  0.58489000  1
  Ge  Ge8  1  0.65806600  0.41132700  0.17542200  1
  Ge  Ge9  1  0.65013800  0.18022900  0.41511000  1
  O  O10  1  0.28446100  0.61329000  0.61856300  1
  O  O11  1  0.71553900  0.38671000  0.38143700  1
  O  O12  1  0.39940800  0.06544200  0.30288400  1
  O  O13  1  0.40183500  0.30568000  0.05702100  1
  O  O14  1  0.60059100  0.93455800  0.69711600  1
  O  O15  1  0.59816500  0.69432000  0.94297900  1
  O  O16  1  0.99069900  0.86084500  0.13637900  1
  O  O17  1  0.00930100  0.13915500  0.86362100  1
  O  O18  1  0.25686800  0.70133200  0.33805400  1
  O  O19  1  0.26566100  0.33126000  0.71220000  1
  O  O20  1  0.74313200  0.29866800  0.66194600  1
  O  O21  1  0.73433900  0.66874000  0.28780000  1
  O  O22  1  0.20155400  0.66857500  0.94931700  1
  O  O23  1  0.21011600  0.95576500  0.67366500  1
  O  O24  1  0.79844600  0.33142500  0.05068300  1
  O  O25  1  0.78988400  0.04423500  0.32633500  1
