# generated using pymatgen
data_P2S7
_symmetry_space_group_name_H-M   'P 1'
_cell_length_a   11.46936600
_cell_length_b   6.71745800
_cell_length_c   13.09293406
_cell_angle_alpha   85.97496393
_cell_angle_beta   90.00000000
_cell_angle_gamma   90.00000000
_symmetry_Int_Tables_number   1
_chemical_formula_structural   P2S7
_chemical_formula_sum   'P8 S28'
_cell_volume   1006.25680494
_cell_formula_units_Z   4
loop_
 _symmetry_equiv_pos_site_id
 _symmetry_equiv_pos_as_xyz
  1  'x, y, z'
loop_
 _atom_site_type_symbol
 _atom_site_label
 _atom_site_symmetry_multiplicity
 _atom_site_fract_x
 _atom_site_fract_y
 _atom_site_fract_z
 _atom_site_occupancy
  P  P0  1  0.18617300  0.98562600  0.59916000  1
  P  P1  1  0.68617300  0.01437400  0.90084000  1
  P  P2  1  0.81382700  0.01437400  0.40084000  1
  P  P3  1  0.31382700  0.98562600  0.09916000  1
  P  P4  1  0.79407600  0.66615800  0.82045200  1
  P  P5  1  0.29407600  0.33384200  0.67954800  1
  P  P6  1  0.20592400  0.33384200  0.17954800  1
  P  P7  1  0.70592400  0.66615800  0.32045200  1
  S  S8  1  0.27701500  0.93099000  0.94449700  1
  S  S9  1  0.77701500  0.06901000  0.55550300  1
  S  S10  1  0.72298500  0.06901000  0.05550300  1
  S  S11  1  0.22298500  0.93099000  0.44449700  1
  S  S12  1  0.76144900  0.60900400  0.66533800  1
  S  S13  1  0.26144900  0.39099600  0.83466200  1
  S  S14  1  0.23855100  0.39099600  0.33466200  1
  S  S15  1  0.73855100  0.60900400  0.16533800  1
  S  S16  1  0.66328700  0.84707800  0.60720200  1
  S  S17  1  0.16328700  0.15292200  0.89279800  1
  S  S18  1  0.33671300  0.15292200  0.39279800  1
  S  S19  1  0.83671300  0.84707800  0.10720200  1
  S  S20  1  0.84922000  0.96787400  0.82570300  1
  S  S21  1  0.34922000  0.03212600  0.67429700  1
  S  S22  1  0.15078000  0.03212600  0.17429700  1
  S  S23  1  0.65078000  0.96787400  0.32570300  1
  S  S24  1  0.62958800  0.71489500  0.89326400  1
  S  S25  1  0.12958800  0.28510500  0.60673600  1
  S  S26  1  0.37041200  0.28510500  0.10673600  1
  S  S27  1  0.87041200  0.71489500  0.39326400  1
  S  S28  1  0.07968400  0.77724800  0.64937600  1
  S  S29  1  0.57968400  0.22275200  0.85062400  1
  S  S30  1  0.92031600  0.22275200  0.35062400  1
  S  S31  1  0.42031600  0.77724800  0.14937600  1
  S  S32  1  0.89794600  0.45978900  0.87655000  1
  S  S33  1  0.39794600  0.54021100  0.62345000  1
  S  S34  1  0.10205400  0.54021100  0.12345000  1
  S  S35  1  0.60205400  0.45978900  0.37655000  1
