# generated using pymatgen
data_La12Mn3(AlSe7)4
_symmetry_space_group_name_H-M   'P 1'
_cell_length_a   10.68703700
_cell_length_b   12.40271952
_cell_length_c   12.40890274
_cell_angle_alpha   60.94599119
_cell_angle_beta   64.54610532
_cell_angle_gamma   64.52761150
_symmetry_Int_Tables_number   1
_chemical_formula_structural   La12Mn3(AlSe7)4
_chemical_formula_sum   'La12 Mn3 Al4 Se28'
_cell_volume   1246.14004612
_cell_formula_units_Z   1
loop_
 _symmetry_equiv_pos_site_id
 _symmetry_equiv_pos_as_xyz
  1  'x, y, z'
loop_
 _atom_site_type_symbol
 _atom_site_label
 _atom_site_symmetry_multiplicity
 _atom_site_fract_x
 _atom_site_fract_y
 _atom_site_fract_z
 _atom_site_occupancy
  La  La0  1  0.37492800  0.79470800  0.06597100  1
  La  La1  1  0.36834600  0.30057500  0.56436200  1
  La  La2  1  0.76535800  0.55271200  0.81535700  1
  La  La3  1  0.76494900  0.05167200  0.32336300  1
  La  La4  1  0.86125400  0.74678500  0.01780000  1
  La  La5  1  0.86563700  0.25132600  0.51463900  1
  La  La6  1  0.62621500  0.19034400  0.94816200  1
  La  La7  1  0.63246400  0.68348700  0.45272600  1
  La  La8  1  0.23082200  0.43042800  0.20236900  1
  La  La9  1  0.23659300  0.93448000  0.69088000  1
  La  La10  1  0.13653200  0.24033900  0.99690100  1
  La  La11  1  0.13710000  0.72991300  0.50038200  1
  Mn  Mn12  1  0.99991800  0.74020500  0.25998800  1
  Mn  Mn13  1  0.00020100  0.26123200  0.73854000  1
  Mn  Mn14  1  0.00027600  0.00141200  0.99857100  1
  Al  Al15  1  0.33195400  0.99158500  0.34145800  1
  Al  Al16  1  0.33448600  0.49190200  0.84180800  1
  Al  Al17  1  0.66761600  0.90785800  0.75790000  1
  Al  Al18  1  0.66596300  0.40832000  0.25939100  1
  Se  Se19  1  0.33411100  0.67864100  0.65334400  1
  Se  Se20  1  0.33269800  0.18010600  0.15420500  1
  Se  Se21  1  0.66493300  0.09851200  0.57291800  1
  Se  Se22  1  0.66860400  0.59308600  0.06856200  1
  Se  Se23  1  0.09470600  0.99121800  0.48957300  1
  Se  Se24  1  0.09910300  0.49545100  0.99207700  1
  Se  Se25  1  0.41903200  0.79925200  0.29818900  1
  Se  Se26  1  0.41804200  0.30027600  0.79632700  1
  Se  Se27  1  0.48670000  0.95880700  0.45537800  1
  Se  Se28  1  0.48174800  0.46253100  0.96094900  1
  Se  Se29  1  0.90371100  0.75781000  0.75609900  1
  Se  Se30  1  0.90302400  0.25946000  0.25578300  1
  Se  Se31  1  0.58321800  0.95287000  0.94971400  1
  Se  Se32  1  0.58167300  0.45337000  0.45068800  1
  Se  Se33  1  0.51432700  0.79341700  0.78901200  1
  Se  Se34  1  0.51424400  0.29191300  0.29104900  1
  Se  Se35  1  0.15349000  0.24566400  0.51424700  1
  Se  Se36  1  0.14537700  0.76634600  0.00190000  1
  Se  Se37  1  0.08673200  0.95364000  0.19136700  1
  Se  Se38  1  0.08430000  0.44131400  0.71146100  1
  Se  Se39  1  0.76859000  0.92398500  0.16222200  1
  Se  Se40  1  0.76154700  0.40783200  0.67757600  1
  Se  Se41  1  0.85083900  0.75661600  0.48418400  1
  Se  Se42  1  0.85362300  0.24299700  0.98918100  1
  Se  Se43  1  0.91485200  0.05605700  0.79883300  1
  Se  Se44  1  0.90844900  0.56227000  0.28900200  1
  Se  Se45  1  0.23147300  0.08552500  0.82882400  1
  Se  Se46  1  0.24024200  0.59101200  0.31750500  1
