# generated using pymatgen
data_NaHoP2O7
_symmetry_space_group_name_H-M   'P 1'
_cell_length_a   5.41845700
_cell_length_b   8.74486900
_cell_length_c   14.17312705
_cell_angle_alpha   69.84188591
_cell_angle_beta   90.00000000
_cell_angle_gamma   90.00000000
_symmetry_Int_Tables_number   1
_chemical_formula_structural   NaHoP2O7
_chemical_formula_sum   'Na4 Ho4 P8 O28'
_cell_volume   630.43795162
_cell_formula_units_Z   4
loop_
 _symmetry_equiv_pos_site_id
 _symmetry_equiv_pos_as_xyz
  1  'x, y, z'
loop_
 _atom_site_type_symbol
 _atom_site_label
 _atom_site_symmetry_multiplicity
 _atom_site_fract_x
 _atom_site_fract_y
 _atom_site_fract_z
 _atom_site_occupancy
  Na  Na0  1  0.22279100  0.94393500  0.33546100  1
  Na  Na1  1  0.27720900  0.94393500  0.83546100  1
  Na  Na2  1  0.77720900  0.05606500  0.66453900  1
  Na  Na3  1  0.72279100  0.05606500  0.16453900  1
  Ho  Ho4  1  0.73234700  0.24832500  0.85326200  1
  Ho  Ho5  1  0.76765300  0.24832500  0.35326200  1
  Ho  Ho6  1  0.26765300  0.75167500  0.14673800  1
  Ho  Ho7  1  0.23234700  0.75167500  0.64673800  1
  P  P8  1  0.21414400  0.18768700  0.02292600  1
  P  P9  1  0.28585600  0.18768700  0.52292600  1
  P  P10  1  0.78585600  0.81231300  0.97707400  1
  P  P11  1  0.71414400  0.81231300  0.47707400  1
  P  P12  1  0.24638400  0.31427600  0.18728800  1
  P  P13  1  0.25361600  0.31427600  0.68728800  1
  P  P14  1  0.75361600  0.68572400  0.81271200  1
  P  P15  1  0.74638400  0.68572400  0.31271200  1
  O  O16  1  0.36646100  0.23403700  0.92701100  1
  O  O17  1  0.13353900  0.23403700  0.42701100  1
  O  O18  1  0.63353900  0.76596300  0.07298900  1
  O  O19  1  0.86646100  0.76596300  0.57298900  1
  O  O20  1  0.29715600  0.02805300  0.10330600  1
  O  O21  1  0.20284400  0.02805300  0.60330600  1
  O  O22  1  0.70284400  0.97194700  0.89669400  1
  O  O23  1  0.79715600  0.97194700  0.39669400  1
  O  O24  1  0.93528200  0.19016600  0.00221900  1
  O  O25  1  0.56471800  0.19016600  0.50221900  1
  O  O26  1  0.06471800  0.80983400  0.99778100  1
  O  O27  1  0.43528200  0.80983400  0.49778100  1
  O  O28  1  0.27127500  0.32931900  0.07024700  1
  O  O29  1  0.22872500  0.32931900  0.57024700  1
  O  O30  1  0.72872500  0.67068100  0.92975300  1
  O  O31  1  0.77127500  0.67068100  0.42975300  1
  O  O32  1  0.23369200  0.48841500  0.18536600  1
  O  O33  1  0.26630800  0.48841500  0.68536600  1
  O  O34  1  0.76630800  0.51158500  0.81463400  1
  O  O35  1  0.73369200  0.51158500  0.31463400  1
  O  O36  1  0.01033100  0.21594400  0.22848200  1
  O  O37  1  0.48966900  0.21594400  0.72848200  1
  O  O38  1  0.98966900  0.78405600  0.77151800  1
  O  O39  1  0.51033100  0.78405600  0.27151800  1
  O  O40  1  0.47414600  0.22023900  0.24342200  1
  O  O41  1  0.02585400  0.22023900  0.74342200  1
  O  O42  1  0.52585400  0.77976100  0.75657800  1
  O  O43  1  0.97414600  0.77976100  0.25657800  1
