# generated using pymatgen
data_Rb2S5
_symmetry_space_group_name_H-M   'P 1'
_cell_length_a   6.79182100
_cell_length_b   6.85280600
_cell_length_c   19.31843300
_cell_angle_alpha   90.00000000
_cell_angle_beta   90.00000000
_cell_angle_gamma   90.00000000
_symmetry_Int_Tables_number   1
_chemical_formula_structural   Rb2S5
_chemical_formula_sum   'Rb8 S20'
_cell_volume   899.13843951
_cell_formula_units_Z   4
loop_
 _symmetry_equiv_pos_site_id
 _symmetry_equiv_pos_as_xyz
  1  'x, y, z'
loop_
 _atom_site_type_symbol
 _atom_site_label
 _atom_site_symmetry_multiplicity
 _atom_site_fract_x
 _atom_site_fract_y
 _atom_site_fract_z
 _atom_site_occupancy
  Rb  Rb0  1  0.41153700  0.70475400  0.32135900  1
  Rb  Rb1  1  0.91153700  0.79524600  0.67864100  1
  Rb  Rb2  1  0.58846300  0.20475400  0.17864100  1
  Rb  Rb3  1  0.08846300  0.29524600  0.82135900  1
  Rb  Rb4  1  0.86361100  0.57442100  0.00859900  1
  Rb  Rb5  1  0.36361100  0.92557900  0.99140100  1
  Rb  Rb6  1  0.13638900  0.07442100  0.49140100  1
  Rb  Rb7  1  0.63638900  0.42557900  0.50859900  1
  S  S8  1  0.53386600  0.70172600  0.14826500  1
  S  S9  1  0.03386600  0.79827400  0.85173500  1
  S  S10  1  0.46613400  0.20172600  0.35173500  1
  S  S11  1  0.96613400  0.29827400  0.64826500  1
  S  S12  1  0.24323700  0.62331100  0.13599800  1
  S  S13  1  0.74323700  0.87668900  0.86400200  1
  S  S14  1  0.75676300  0.12331100  0.36400200  1
  S  S15  1  0.25676300  0.37668900  0.63599800  1
  S  S16  1  0.59038100  0.91737200  0.54467600  1
  S  S17  1  0.09038100  0.58262800  0.45532400  1
  S  S18  1  0.40961900  0.41737200  0.95532400  1
  S  S19  1  0.90961900  0.08262800  0.04467600  1
  S  S20  1  0.43150700  0.90975700  0.63513300  1
  S  S21  1  0.93150700  0.59024300  0.36486700  1
  S  S22  1  0.56849300  0.40975700  0.86486700  1
  S  S23  1  0.06849300  0.09024300  0.13513300  1
  S  S24  1  0.44080600  0.17774900  0.68652800  1
  S  S25  1  0.94080600  0.32225100  0.31347200  1
  S  S26  1  0.55919400  0.67774900  0.81347200  1
  S  S27  1  0.05919400  0.82225100  0.18652800  1
