# generated using pymatgen
data_V3Ni2
_symmetry_space_group_name_H-M   'P 1'
_cell_length_a   4.61292600
_cell_length_b   8.89370900
_cell_length_c   9.02322500
_cell_angle_alpha   89.47347255
_cell_angle_beta   90.00000000
_cell_angle_gamma   90.00000000
_symmetry_Int_Tables_number   1
_chemical_formula_structural   V3Ni2
_chemical_formula_sum   'V18 Ni12'
_cell_volume   370.17139178
_cell_formula_units_Z   6
loop_
 _symmetry_equiv_pos_site_id
 _symmetry_equiv_pos_as_xyz
  1  'x, y, z'
loop_
 _atom_site_type_symbol
 _atom_site_label
 _atom_site_symmetry_multiplicity
 _atom_site_fract_x
 _atom_site_fract_y
 _atom_site_fract_z
 _atom_site_occupancy
  V  V0  1  0.24560200  0.31572000  0.67980500  1
  V  V1  1  0.24560200  0.68428000  0.32019500  1
  V  V2  1  0.74551400  0.82209100  0.81746700  1
  V  V3  1  0.74551400  0.17790900  0.18253300  1
  V  V4  1  0.75439800  0.68428000  0.32019500  1
  V  V5  1  0.75439800  0.31572000  0.67980500  1
  V  V6  1  0.25448600  0.17790900  0.18253300  1
  V  V7  1  0.25448600  0.82209100  0.81746700  1
  V  V8  1  0.50000000  0.10588100  0.89666600  1
  V  V9  1  0.50000000  0.89411900  0.10333400  1
  V  V10  1  0.00000000  0.61009500  0.60666200  1
  V  V11  1  0.00000000  0.38990500  0.39333800  1
  V  V12  1  0.00000000  0.53477600  0.87474600  1
  V  V13  1  0.00000000  0.46522400  0.12525400  1
  V  V14  1  0.50000000  0.62636100  0.03570100  1
  V  V15  1  0.50000000  0.37363900  0.96429900  1
  V  V16  1  0.00000000  0.87802200  0.53421100  1
  V  V17  1  0.00000000  0.12197800  0.46578900  1
  Ni  Ni18  1  0.50000000  0.50000000  0.50000000  1
  Ni  Ni19  1  0.00000000  0.00000000  0.00000000  1
  Ni  Ni20  1  0.50000000  0.76078900  0.56481700  1
  Ni  Ni21  1  0.50000000  0.23921100  0.43518300  1
  Ni  Ni22  1  0.00000000  0.25830600  0.93519800  1
  Ni  Ni23  1  0.00000000  0.74169400  0.06480200  1
  Ni  Ni24  1  0.50000000  0.56486100  0.75676700  1
  Ni  Ni25  1  0.50000000  0.43513900  0.24323300  1
  Ni  Ni26  1  0.00000000  0.93424700  0.25845200  1
  Ni  Ni27  1  0.00000000  0.06575300  0.74154800  1
  Ni  Ni28  1  0.50000000  0.03782900  0.63126200  1
  Ni  Ni29  1  0.50000000  0.96217100  0.36873800  1
