# generated using pymatgen
data_Ba6Nd2Al4O15
_symmetry_space_group_name_H-M   'P 1'
_cell_length_a   6.04285500
_cell_length_b   8.03670407
_cell_length_c   18.75721288
_cell_angle_alpha   91.33312446
_cell_angle_beta   90.00000000
_cell_angle_gamma   90.00000000
_symmetry_Int_Tables_number   1
_chemical_formula_structural   Ba6Nd2Al4O15
_chemical_formula_sum   'Ba12 Nd4 Al8 O30'
_cell_volume   910.69067397
_cell_formula_units_Z   2
loop_
 _symmetry_equiv_pos_site_id
 _symmetry_equiv_pos_as_xyz
  1  'x, y, z'
loop_
 _atom_site_type_symbol
 _atom_site_label
 _atom_site_symmetry_multiplicity
 _atom_site_fract_x
 _atom_site_fract_y
 _atom_site_fract_z
 _atom_site_occupancy
  Ba  Ba0  1  0.75727400  0.50289200  0.41648400  1
  Ba  Ba1  1  0.24272600  0.49710800  0.58351600  1
  Ba  Ba2  1  0.75727400  0.49710800  0.08351600  1
  Ba  Ba3  1  0.24272600  0.50289200  0.91648400  1
  Ba  Ba4  1  0.74139300  0.96633900  0.40876900  1
  Ba  Ba5  1  0.25860700  0.03366100  0.59123100  1
  Ba  Ba6  1  0.74139300  0.03366100  0.09123100  1
  Ba  Ba7  1  0.25860700  0.96633900  0.90876900  1
  Ba  Ba8  1  0.72586800  0.00000000  0.75000000  1
  Ba  Ba9  1  0.27413200  0.00000000  0.25000000  1
  Ba  Ba10  1  0.66761200  0.50000000  0.75000000  1
  Ba  Ba11  1  0.33238800  0.50000000  0.25000000  1
  Nd  Nd12  1  0.74653400  0.75216600  0.59013300  1
  Nd  Nd13  1  0.25346600  0.24783400  0.40986700  1
  Nd  Nd14  1  0.74653400  0.24783400  0.90986700  1
  Nd  Nd15  1  0.25346600  0.75216600  0.09013300  1
  Al  Al16  1  0.75308100  0.75306600  0.94161500  1
  Al  Al17  1  0.24691900  0.24693400  0.05838500  1
  Al  Al18  1  0.75308100  0.24693400  0.55838500  1
  Al  Al19  1  0.24691900  0.75306600  0.44161500  1
  Al  Al20  1  0.77512300  0.78072800  0.23468800  1
  Al  Al21  1  0.22487700  0.21927200  0.76531200  1
  Al  Al22  1  0.77512300  0.21927200  0.26531200  1
  Al  Al23  1  0.22487700  0.78072800  0.73468800  1
  O  O24  1  0.21290500  0.00000000  0.75000000  1
  O  O25  1  0.78709500  0.00000000  0.25000000  1
  O  O26  1  0.48876300  0.76463500  0.49756600  1
  O  O27  1  0.51123700  0.23536500  0.50243400  1
  O  O28  1  0.48876300  0.23536500  0.00243400  1
  O  O29  1  0.51123700  0.76463500  0.99756600  1
  O  O30  1  0.75939600  0.93947500  0.89075400  1
  O  O31  1  0.24060400  0.06052500  0.10924600  1
  O  O32  1  0.75939600  0.06052500  0.60924600  1
  O  O33  1  0.24060400  0.93947500  0.39075400  1
  O  O34  1  0.00747000  0.76219800  0.49923900  1
  O  O35  1  0.99253000  0.23780200  0.50076100  1
  O  O36  1  0.00747000  0.23780200  0.00076100  1
  O  O37  1  0.99253000  0.76219800  0.99923900  1
  O  O38  1  0.31409000  0.69646500  0.81529800  1
  O  O39  1  0.68591000  0.30353500  0.18470200  1
  O  O40  1  0.31409000  0.30353500  0.68470200  1
  O  O41  1  0.68591000  0.69646500  0.31529800  1
  O  O42  1  0.43837000  0.75036600  0.66843400  1
  O  O43  1  0.56163000  0.24963400  0.33156600  1
  O  O44  1  0.43837000  0.24963400  0.83156600  1
  O  O45  1  0.56163000  0.75036600  0.16843400  1
  O  O46  1  0.96613700  0.72998500  0.69510900  1
  O  O47  1  0.03386300  0.27001500  0.30489100  1
  O  O48  1  0.96613700  0.27001500  0.80489100  1
  O  O49  1  0.03386300  0.72998500  0.19510900  1
  O  O50  1  0.75541700  0.54461900  0.90495500  1
  O  O51  1  0.24458400  0.45538100  0.09504500  1
  O  O52  1  0.75541700  0.45538100  0.59504500  1
  O  O53  1  0.24458400  0.54461900  0.40495500  1
