# generated using pymatgen
data_Er4Zn5Ge6
_symmetry_space_group_name_H-M   'P 1'
_cell_length_a   9.55925485
_cell_length_b   9.55925485
_cell_length_c   15.26673500
_cell_angle_alpha   90.00000000
_cell_angle_beta   90.00000000
_cell_angle_gamma   154.43084894
_symmetry_Int_Tables_number   1
_chemical_formula_structural   Er4Zn5Ge6
_chemical_formula_sum   'Er8 Zn10 Ge12'
_cell_volume   602.10995822
_cell_formula_units_Z   2
loop_
 _symmetry_equiv_pos_site_id
 _symmetry_equiv_pos_as_xyz
  1  'x, y, z'
loop_
 _atom_site_type_symbol
 _atom_site_label
 _atom_site_symmetry_multiplicity
 _atom_site_fract_x
 _atom_site_fract_y
 _atom_site_fract_z
 _atom_site_occupancy
  Er  Er0  1  0.01784300  0.98215700  0.76355400  1
  Er  Er1  1  0.98215700  0.01784300  0.26355400  1
  Er  Er2  1  0.17472200  0.82527800  0.31871800  1
  Er  Er3  1  0.82527800  0.17472200  0.81871800  1
  Er  Er4  1  0.16715300  0.83284700  0.95987800  1
  Er  Er5  1  0.83284700  0.16715300  0.45987800  1
  Er  Er6  1  0.03269100  0.96730900  0.49983700  1
  Er  Er7  1  0.96730900  0.03269100  0.99983700  1
  Zn  Zn8  1  0.34446400  0.65553600  0.99040400  1
  Zn  Zn9  1  0.65553600  0.34446400  0.49040400  1
  Zn  Zn10  1  0.30077500  0.69922500  0.63941300  1
  Zn  Zn11  1  0.69922500  0.30077500  0.13941300  1
  Zn  Zn12  1  0.65036400  0.34963600  0.78230400  1
  Zn  Zn13  1  0.34963600  0.65036400  0.28230400  1
  Zn  Zn14  1  0.15189500  0.84810500  0.63647700  1
  Zn  Zn15  1  0.84810500  0.15189500  0.13647700  1
  Zn  Zn16  1  0.43478400  0.56521600  0.57901300  1
  Zn  Zn17  1  0.56521600  0.43478400  0.07901300  1
  Ge  Ge18  1  0.22881600  0.77118400  0.49761000  1
  Ge  Ge19  1  0.77118400  0.22881600  0.99761000  1
  Ge  Ge20  1  0.43075200  0.56924800  0.85637300  1
  Ge  Ge21  1  0.56924800  0.43075200  0.35637300  1
  Ge  Ge22  1  0.22355900  0.77644100  0.77833300  1
  Ge  Ge23  1  0.77644100  0.22355900  0.27833300  1
  Ge  Ge24  1  0.55990300  0.44009700  0.90909000  1
  Ge  Ge25  1  0.44009700  0.55990300  0.40909000  1
  Ge  Ge26  1  0.56693800  0.43306200  0.63425000  1
  Ge  Ge27  1  0.43306200  0.56693800  0.13425000  1
  Ge  Ge28  1  0.11274900  0.88725100  0.14612100  1
  Ge  Ge29  1  0.88725100  0.11274900  0.64612100  1
