# generated using pymatgen
data_Li3Yb(NO3)6
_symmetry_space_group_name_H-M   'P 1'
_cell_length_a   7.70786500
_cell_length_b   7.91083700
_cell_length_c   25.39543776
_cell_angle_alpha   73.28947818
_cell_angle_beta   90.00000000
_cell_angle_gamma   90.00000000
_symmetry_Int_Tables_number   1
_chemical_formula_structural   Li3Yb(NO3)6
_chemical_formula_sum   'Li12 Yb4 N24 O72'
_cell_volume   1483.10990801
_cell_formula_units_Z   4
loop_
 _symmetry_equiv_pos_site_id
 _symmetry_equiv_pos_as_xyz
  1  'x, y, z'
loop_
 _atom_site_type_symbol
 _atom_site_label
 _atom_site_symmetry_multiplicity
 _atom_site_fract_x
 _atom_site_fract_y
 _atom_site_fract_z
 _atom_site_occupancy
  Li  Li0  1  0.18463800  0.92564400  0.36777600  1
  Li  Li1  1  0.81536200  0.07435600  0.63222400  1
  Li  Li2  1  0.68463800  0.07435600  0.13222400  1
  Li  Li3  1  0.31536200  0.92564400  0.86777600  1
  Li  Li4  1  0.44228900  0.74073200  0.25473100  1
  Li  Li5  1  0.55771100  0.25926800  0.74526900  1
  Li  Li6  1  0.94228900  0.25926800  0.24526900  1
  Li  Li7  1  0.05771100  0.74073200  0.75473100  1
  Li  Li8  1  0.70833100  0.78843800  0.47189500  1
  Li  Li9  1  0.29166900  0.21156200  0.52810500  1
  Li  Li10  1  0.20833100  0.21156200  0.02810500  1
  Li  Li11  1  0.79166900  0.78843800  0.97189500  1
  Yb  Yb12  1  0.69361200  0.36614700  0.38915300  1
  Yb  Yb13  1  0.30638800  0.63385300  0.61084700  1
  Yb  Yb14  1  0.19361200  0.63385300  0.11084700  1
  Yb  Yb15  1  0.80638800  0.36614700  0.88915300  1
  N  N16  1  0.20176300  0.99940400  0.26503600  1
  N  N17  1  0.79823700  0.00059600  0.73496400  1
  N  N18  1  0.70176300  0.00059600  0.23496400  1
  N  N19  1  0.29823700  0.99940400  0.76503600  1
  N  N20  1  0.69795000  0.46868800  0.27018200  1
  N  N21  1  0.30205000  0.53131200  0.72981800  1
  N  N22  1  0.19795000  0.53131200  0.22981800  1
  N  N23  1  0.80205000  0.46868800  0.77018200  1
  N  N24  1  0.50934900  0.80139700  0.05354000  1
  N  N25  1  0.49065100  0.19860300  0.94646000  1
  N  N26  1  0.00934900  0.19860300  0.44646000  1
  N  N27  1  0.99065100  0.80139700  0.55354000  1
  N  N28  1  0.87044700  0.53460400  0.06362200  1
  N  N29  1  0.12955300  0.46539600  0.93637800  1
  N  N30  1  0.37044700  0.46539600  0.43637800  1
  N  N31  1  0.62955300  0.53460400  0.56362200  1
  N  N32  1  0.88545700  0.68178600  0.39355000  1
  N  N33  1  0.11454300  0.31821400  0.60645000  1
  N  N34  1  0.38545700  0.31821400  0.10645000  1
  N  N35  1  0.61454300  0.68178600  0.89355000  1
  N  N36  1  0.99264400  0.95714300  0.09742400  1
  N  N37  1  0.00735600  0.04285700  0.90257600  1
  N  N38  1  0.49264400  0.04285700  0.40257600  1
  N  N39  1  0.50735600  0.95714300  0.59742400  1
  O  O40  1  0.60342800  0.54781500  0.29723700  1
  O  O41  1  0.39657200  0.45218500  0.70276300  1
  O  O42  1  0.10342800  0.45218500  0.20276300  1
  O  O43  1  0.89657200  0.54781500  0.79723700  1
  O  O44  1  0.48127500  0.80698300  0.10212200  1
  O  O45  1  0.51872500  0.19301700  0.89787800  1
  O  O46  1  0.98127500  0.19301700  0.39787800  1
  O  O47  1  0.01872500  0.80698300  0.60212200  1
  O  O48  1  0.39922300  0.72548200  0.03127900  1
  O  O49  1  0.60077700  0.27451800  0.96872100  1
  O  O50  1  0.89922300  0.27451800  0.46872100  1
  O  O51  1  0.10077700  0.72548200  0.53127900  1
  O  O52  1  0.69982000  0.51173300  0.21941200  1
  O  O53  1  0.30018000  0.48826700  0.78058800  1
  O  O54  1  0.19982000  0.48826700  0.28058800  1
  O  O55  1  0.80018000  0.51173300  0.71941200  1
  O  O56  1  0.73457200  0.49838900  0.04249700  1
  O  O57  1  0.26542800  0.50161100  0.95750300  1
  O  O58  1  0.23457200  0.50161100  0.45750300  1
  O  O59  1  0.76542800  0.49838900  0.54249700  1
  O  O60  1  0.94916000  0.81485400  0.13244300  1
  O  O61  1  0.05084000  0.18514600  0.86755700  1
  O  O62  1  0.44916000  0.18514600  0.36755700  1
  O  O63  1  0.55084000  0.81485400  0.63244300  1
  O  O64  1  0.64388800  0.87058400  0.02847100  1
  O  O65  1  0.35611200  0.12941600  0.97152900  1
  O  O66  1  0.14388800  0.12941600  0.47152900  1
  O  O67  1  0.85611200  0.87058400  0.52847100  1
  O  O68  1  0.70354000  0.95964200  0.28590300  1
  O  O69  1  0.29646000  0.04035800  0.71409700  1
  O  O70  1  0.20354000  0.04035800  0.21409700  1
  O  O71  1  0.79646000  0.95964200  0.78590300  1
  O  O72  1  0.36481700  0.95937100  0.57104000  1
  O  O73  1  0.63518300  0.04062900  0.42896000  1
  O  O74  1  0.86481700  0.04062900  0.92896000  1
  O  O75  1  0.13518300  0.95937100  0.07104000  1
  O  O76  1  0.96761700  0.80932800  0.40129600  1
  O  O77  1  0.03238300  0.19067200  0.59870400  1
  O  O78  1  0.46761700  0.19067200  0.09870400  1
  O  O79  1  0.53238300  0.80932800  0.90129600  1
  O  O80  1  0.97142600  0.65662700  0.03513200  1
  O  O81  1  0.02857400  0.34337300  0.96486800  1
  O  O82  1  0.47142600  0.34337300  0.46486800  1
  O  O83  1  0.52857400  0.65662700  0.53513200  1
  O  O84  1  0.91241200  0.45693700  0.11234500  1
  O  O85  1  0.08758800  0.54306300  0.88765500  1
  O  O86  1  0.41241200  0.54306300  0.38765500  1
  O  O87  1  0.58758800  0.45693700  0.61234500  1
  O  O88  1  0.79135900  0.34100600  0.29900400  1
  O  O89  1  0.20864100  0.65899400  0.70099600  1
  O  O90  1  0.29135900  0.65899400  0.20099600  1
  O  O91  1  0.70864100  0.34100600  0.79900400  1
  O  O92  1  0.40125200  0.90617300  0.41237700  1
  O  O93  1  0.59874800  0.09382700  0.58762300  1
  O  O94  1  0.90125200  0.09382700  0.08762300  1
  O  O95  1  0.09874800  0.90617300  0.91237700  1
  O  O96  1  0.93692900  0.59526700  0.36207200  1
  O  O97  1  0.06307100  0.40473300  0.63792800  1
  O  O98  1  0.43692900  0.40473300  0.13792800  1
  O  O99  1  0.56307100  0.59526700  0.86207200  1
  O  O100  1  0.74162500  0.63594800  0.41931400  1
  O  O101  1  0.25837500  0.36405200  0.58068600  1
  O  O102  1  0.24162500  0.36405200  0.08068600  1
  O  O103  1  0.75837500  0.63594800  0.91931400  1
  O  O104  1  0.60838700  0.91694300  0.20898600  1
  O  O105  1  0.39161300  0.08305700  0.79101400  1
  O  O106  1  0.10838700  0.08305700  0.29101400  1
  O  O107  1  0.89161300  0.91694300  0.70898600  1
  O  O108  1  0.29208500  0.87185200  0.29466900  1
  O  O109  1  0.70791500  0.12814800  0.70533100  1
  O  O110  1  0.79208500  0.12814800  0.20533100  1
  O  O111  1  0.20791500  0.87185200  0.79466900  1
