# generated using pymatgen
data_Na2Mn2Cd(PO4)3
_symmetry_space_group_name_H-M   'P 1'
_cell_length_a   8.86035981
_cell_length_b   8.86035981
_cell_length_c   6.80444313
_cell_angle_alpha   72.56003530
_cell_angle_beta   72.56003530
_cell_angle_gamma   91.94396591
_symmetry_Int_Tables_number   1
_chemical_formula_structural   Na2Mn2Cd(PO4)3
_chemical_formula_sum   'Na4 Mn4 Cd2 P6 O24'
_cell_volume   481.69184303
_cell_formula_units_Z   2
loop_
 _symmetry_equiv_pos_site_id
 _symmetry_equiv_pos_as_xyz
  1  'x, y, z'
loop_
 _atom_site_type_symbol
 _atom_site_label
 _atom_site_symmetry_multiplicity
 _atom_site_fract_x
 _atom_site_fract_y
 _atom_site_fract_z
 _atom_site_occupancy
  Na  Na0  1  0.98139200  0.01860800  0.25000000  1
  Na  Na1  1  0.01860800  0.98139200  0.75000000  1
  Na  Na2  1  0.50000000  0.50000000  0.00000000  1
  Na  Na3  1  0.50000000  0.50000000  0.50000000  1
  Mn  Mn4  1  0.38359300  0.06449600  0.36312800  1
  Mn  Mn5  1  0.61640700  0.93550400  0.63687200  1
  Mn  Mn6  1  0.93550400  0.61640700  0.13687200  1
  Mn  Mn7  1  0.06449600  0.38359300  0.86312800  1
  Cd  Cd8  1  0.26727100  0.73272900  0.25000000  1
  Cd  Cd9  1  0.73272900  0.26727100  0.75000000  1
  P  P10  1  0.71764800  0.28235200  0.25000000  1
  P  P11  1  0.28235200  0.71764800  0.75000000  1
  P  P12  1  0.65620000  0.87181600  0.12557700  1
  P  P13  1  0.34380000  0.12818400  0.87442300  1
  P  P14  1  0.12818400  0.34380000  0.37442300  1
  P  P15  1  0.87181600  0.65620000  0.62557700  1
  O  O16  1  0.54396000  0.26268800  0.24598700  1
  O  O17  1  0.45604000  0.73731200  0.75401300  1
  O  O18  1  0.73731200  0.45604000  0.25401300  1
  O  O19  1  0.26268800  0.54396000  0.74598700  1
  O  O20  1  0.53668400  0.72334000  0.17756900  1
  O  O21  1  0.46331600  0.27666000  0.82243100  1
  O  O22  1  0.27666000  0.46331600  0.32243100  1
  O  O23  1  0.72334000  0.53668400  0.67756900  1
  O  O24  1  0.74442500  0.16454600  0.45550300  1
  O  O25  1  0.25557500  0.83545400  0.54449700  1
  O  O26  1  0.83545400  0.25557500  0.04449700  1
  O  O27  1  0.16454600  0.74442500  0.95550300  1
  O  O28  1  0.59777600  0.95250800  0.30674300  1
  O  O29  1  0.40222400  0.04749200  0.69325700  1
  O  O30  1  0.04749200  0.40222400  0.19325700  1
  O  O31  1  0.95250800  0.59777600  0.80674300  1
  O  O32  1  0.82728800  0.82851200  0.11592300  1
  O  O33  1  0.17271200  0.17148800  0.88407700  1
  O  O34  1  0.17148800  0.17271200  0.38407700  1
  O  O35  1  0.82851200  0.82728800  0.61592300  1
  O  O36  1  0.32792400  0.00545300  0.10085200  1
  O  O37  1  0.67207600  0.99454700  0.89914800  1
  O  O38  1  0.99454700  0.67207600  0.39914800  1
  O  O39  1  0.00545300  0.32792400  0.60085200  1
