# generated using pymatgen
data_Er3Os
_symmetry_space_group_name_H-M   'P 1'
_cell_length_a   6.23719500
_cell_length_b   7.32901100
_cell_length_c   8.98954400
_cell_angle_alpha   90.00000000
_cell_angle_beta   90.00000000
_cell_angle_gamma   90.00000000
_symmetry_Int_Tables_number   1
_chemical_formula_structural   Er3Os
_chemical_formula_sum   'Er12 Os4'
_cell_volume   410.93426728
_cell_formula_units_Z   4
loop_
 _symmetry_equiv_pos_site_id
 _symmetry_equiv_pos_as_xyz
  1  'x, y, z'
loop_
 _atom_site_type_symbol
 _atom_site_label
 _atom_site_symmetry_multiplicity
 _atom_site_fract_x
 _atom_site_fract_y
 _atom_site_fract_z
 _atom_site_occupancy
  Er  Er0  1  0.33263100  0.67647500  0.06225000  1
  Er  Er1  1  0.16736900  0.17647500  0.43775000  1
  Er  Er2  1  0.66736900  0.32352500  0.56225000  1
  Er  Er3  1  0.83263100  0.82352500  0.93775000  1
  Er  Er4  1  0.66736900  0.32352500  0.93775000  1
  Er  Er5  1  0.83263100  0.82352500  0.56225000  1
  Er  Er6  1  0.33263100  0.67647500  0.43775000  1
  Er  Er7  1  0.16736900  0.17647500  0.06225000  1
  Er  Er8  1  0.86922600  0.53651200  0.25000000  1
  Er  Er9  1  0.63077400  0.03651200  0.25000000  1
  Er  Er10  1  0.13077400  0.46348800  0.75000000  1
  Er  Er11  1  0.36922600  0.96348800  0.75000000  1
  Os  Os12  1  0.04321600  0.88245700  0.25000000  1
  Os  Os13  1  0.45678400  0.38245700  0.25000000  1
  Os  Os14  1  0.95678400  0.11754300  0.75000000  1
  Os  Os15  1  0.54321600  0.61754300  0.75000000  1
