# generated using pymatgen
data_Dy4Ga16Co3
_symmetry_space_group_name_H-M   'P 1'
_cell_length_a   6.02449000
_cell_length_b   6.02449000
_cell_length_c   11.09610000
_cell_angle_alpha   90.00000000
_cell_angle_beta   90.00000000
_cell_angle_gamma   90.00000000
_symmetry_Int_Tables_number   1
_chemical_formula_structural   Dy4Ga16Co3
_chemical_formula_sum   'Dy4 Ga16 Co3'
_cell_volume   402.72717687
_cell_formula_units_Z   1
loop_
 _symmetry_equiv_pos_site_id
 _symmetry_equiv_pos_as_xyz
  1  'x, y, z'
loop_
 _atom_site_type_symbol
 _atom_site_label
 _atom_site_symmetry_multiplicity
 _atom_site_fract_x
 _atom_site_fract_y
 _atom_site_fract_z
 _atom_site_occupancy
  Dy  Dy0  1  0.50000000  0.00000000  0.80499300  1
  Dy  Dy1  1  0.00000000  0.50000000  0.80499300  1
  Dy  Dy2  1  0.50000000  0.00000000  0.19500700  1
  Dy  Dy3  1  0.00000000  0.50000000  0.19500700  1
  Ga  Ga4  1  0.25041800  0.25041800  0.61523900  1
  Ga  Ga5  1  0.74958200  0.74958200  0.61523900  1
  Ga  Ga6  1  0.74958200  0.25041800  0.61523900  1
  Ga  Ga7  1  0.25041800  0.74958200  0.61523900  1
  Ga  Ga8  1  0.74958200  0.74958200  0.38476100  1
  Ga  Ga9  1  0.25041800  0.25041800  0.38476100  1
  Ga  Ga10  1  0.25041800  0.74958200  0.38476100  1
  Ga  Ga11  1  0.74958200  0.25041800  0.38476100  1
  Ga  Ga12  1  0.28043200  0.28043200  0.00000000  1
  Ga  Ga13  1  0.71956800  0.71956800  0.00000000  1
  Ga  Ga14  1  0.71956800  0.28043200  0.00000000  1
  Ga  Ga15  1  0.28043200  0.71956800  0.00000000  1
  Ga  Ga16  1  0.50000000  0.50000000  0.80191400  1
  Ga  Ga17  1  0.50000000  0.50000000  0.19808600  1
  Ga  Ga18  1  0.00000000  0.00000000  0.78084000  1
  Ga  Ga19  1  0.00000000  0.00000000  0.21916000  1
  Co  Co20  1  0.50000000  0.00000000  0.50000000  1
  Co  Co21  1  0.00000000  0.50000000  0.50000000  1
  Co  Co22  1  0.00000000  0.00000000  0.00000000  1
