# generated using pymatgen
data_YPd
_symmetry_space_group_name_H-M   'P 1'
_cell_length_a   5.61692114
_cell_length_b   5.61692114
_cell_length_c   4.62431400
_cell_angle_alpha   90.00000000
_cell_angle_beta   90.00000000
_cell_angle_gamma   141.49996444
_symmetry_Int_Tables_number   1
_chemical_formula_structural   YPd
_chemical_formula_sum   'Y2 Pd2'
_cell_volume   90.82258833
_cell_formula_units_Z   2
loop_
 _symmetry_equiv_pos_site_id
 _symmetry_equiv_pos_as_xyz
  1  'x, y, z'
loop_
 _atom_site_type_symbol
 _atom_site_label
 _atom_site_symmetry_multiplicity
 _atom_site_fract_x
 _atom_site_fract_y
 _atom_site_fract_z
 _atom_site_occupancy
  Y  Y0  1  0.86317600  0.13682400  0.75000000  1
  Y  Y1  1  0.13682400  0.86317600  0.25000000  1
  Pd  Pd2  1  0.58545200  0.41454800  0.75000000  1
  Pd  Pd3  1  0.41454800  0.58545200  0.25000000  1
