# generated using pymatgen
data_SrBe2(PO4)2
_symmetry_space_group_name_H-M   'P 1'
_cell_length_a   9.07905500
_cell_length_b   8.07701500
_cell_length_c   8.51077296
_cell_angle_alpha   89.85053942
_cell_angle_beta   90.00000000
_cell_angle_gamma   90.00000000
_symmetry_Int_Tables_number   1
_chemical_formula_structural   SrBe2(PO4)2
_chemical_formula_sum   'Sr4 Be8 P8 O32'
_cell_volume   624.10701447
_cell_formula_units_Z   4
loop_
 _symmetry_equiv_pos_site_id
 _symmetry_equiv_pos_as_xyz
  1  'x, y, z'
loop_
 _atom_site_type_symbol
 _atom_site_label
 _atom_site_symmetry_multiplicity
 _atom_site_fract_x
 _atom_site_fract_y
 _atom_site_fract_z
 _atom_site_occupancy
  Sr  Sr0  1  0.41264900  0.74426200  0.60908800  1
  Sr  Sr1  1  0.91264900  0.25573800  0.89091200  1
  Sr  Sr2  1  0.58735100  0.25573800  0.39091200  1
  Sr  Sr3  1  0.08735100  0.74426200  0.10908800  1
  Be  Be4  1  0.41874500  0.57136000  0.22644600  1
  Be  Be5  1  0.91874500  0.42864000  0.27355400  1
  Be  Be6  1  0.58125500  0.42864000  0.77355400  1
  Be  Be7  1  0.08125500  0.57136000  0.72644600  1
  Be  Be8  1  0.19311600  0.07368300  0.43655400  1
  Be  Be9  1  0.69311600  0.92631700  0.06344600  1
  Be  Be10  1  0.80688400  0.92631700  0.56344600  1
  Be  Be11  1  0.30688400  0.07368300  0.93655400  1
  P  P12  1  0.19553900  0.43632900  0.43317500  1
  P  P13  1  0.69553900  0.56367100  0.06682500  1
  P  P14  1  0.80446100  0.56367100  0.56682500  1
  P  P15  1  0.30446100  0.43632900  0.93317500  1
  P  P16  1  0.08572500  0.93766800  0.73095600  1
  P  P17  1  0.58572500  0.06233200  0.76904400  1
  P  P18  1  0.91427500  0.06233200  0.26904400  1
  P  P19  1  0.41427500  0.93766800  0.23095600  1
  O  O20  1  0.18193300  0.56131700  0.57061400  1
  O  O21  1  0.68193300  0.43868300  0.92938600  1
  O  O22  1  0.81806700  0.43868300  0.42938600  1
  O  O23  1  0.31806700  0.56131700  0.07061400  1
  O  O24  1  0.40710600  0.75905100  0.30031900  1
  O  O25  1  0.90710600  0.24094900  0.19968100  1
  O  O26  1  0.59289400  0.24094900  0.69968100  1
  O  O27  1  0.09289400  0.75905100  0.80031900  1
  O  O28  1  0.35705900  0.45249700  0.37099100  1
  O  O29  1  0.85705900  0.54750300  0.12900900  1
  O  O30  1  0.64294100  0.54750300  0.62900900  1
  O  O31  1  0.14294100  0.45249700  0.87099100  1
  O  O32  1  0.16408000  0.26057600  0.49003900  1
  O  O33  1  0.66408000  0.73942400  0.00996100  1
  O  O34  1  0.83592000  0.73942400  0.50996100  1
  O  O35  1  0.33592000  0.26057600  0.99003900  1
  O  O36  1  0.58696600  0.50949100  0.19913200  1
  O  O37  1  0.08696600  0.49050900  0.30086800  1
  O  O38  1  0.41303400  0.49050900  0.80086800  1
  O  O39  1  0.91303400  0.50949100  0.69913200  1
  O  O40  1  0.42733200  0.00589800  0.80657100  1
  O  O41  1  0.92733200  0.99410200  0.69342900  1
  O  O42  1  0.57266800  0.99410200  0.19342900  1
  O  O43  1  0.07266800  0.00589800  0.30657100  1
  O  O44  1  0.18726800  0.94457800  0.58615600  1
  O  O45  1  0.68726800  0.05542200  0.91384400  1
  O  O46  1  0.81273200  0.05542200  0.41384400  1
  O  O47  1  0.31273200  0.94457800  0.08615600  1
  O  O48  1  0.36168700  0.05519400  0.36450800  1
  O  O49  1  0.86168700  0.94480600  0.13549200  1
  O  O50  1  0.63831300  0.94480600  0.63549200  1
  O  O51  1  0.13831300  0.05519400  0.86450800  1
