# generated using pymatgen
data_Lu3Pt4
_symmetry_space_group_name_H-M   'P 1'
_cell_length_a   7.73475184
_cell_length_b   7.73475184
_cell_length_c   7.73475205
_cell_angle_alpha   114.24118454
_cell_angle_beta   114.24118454
_cell_angle_gamma   114.24118897
_symmetry_Int_Tables_number   1
_chemical_formula_structural   Lu3Pt4
_chemical_formula_sum   'Lu6 Pt8'
_cell_volume   276.04012173
_cell_formula_units_Z   2
loop_
 _symmetry_equiv_pos_site_id
 _symmetry_equiv_pos_as_xyz
  1  'x, y, z'
loop_
 _atom_site_type_symbol
 _atom_site_label
 _atom_site_symmetry_multiplicity
 _atom_site_fract_x
 _atom_site_fract_y
 _atom_site_fract_z
 _atom_site_occupancy
  Lu  Lu0  1  0.97453200  0.59626900  0.72005400  1
  Lu  Lu1  1  0.72005400  0.97453200  0.59626900  1
  Lu  Lu2  1  0.59626900  0.72005400  0.97453200  1
  Lu  Lu3  1  0.02546800  0.40373100  0.27994600  1
  Lu  Lu4  1  0.27994600  0.02546800  0.40373100  1
  Lu  Lu5  1  0.40373100  0.27994600  0.02546800  1
  Pt  Pt6  1  0.00000000  0.00000000  0.00000000  1
  Pt  Pt7  1  0.50000000  0.50000000  0.50000000  1
  Pt  Pt8  1  0.93616500  0.77099500  0.44718000  1
  Pt  Pt9  1  0.44718000  0.93616500  0.77099500  1
  Pt  Pt10  1  0.77099500  0.44718000  0.93616500  1
  Pt  Pt11  1  0.06383500  0.22900500  0.55282000  1
  Pt  Pt12  1  0.55282000  0.06383500  0.22900500  1
  Pt  Pt13  1  0.22900500  0.55282000  0.06383500  1
