# generated using pymatgen
data_Rb2W2O7
_symmetry_space_group_name_H-M   'P 1'
_cell_length_a   3.90410246
_cell_length_b   6.26950685
_cell_length_c   14.66752600
_cell_angle_alpha   90.00000000
_cell_angle_beta   90.00000000
_cell_angle_gamma   90.07622033
_symmetry_Int_Tables_number   1
_chemical_formula_structural   Rb2W2O7
_chemical_formula_sum   'Rb4 W4 O14'
_cell_volume   359.01374067
_cell_formula_units_Z   2
loop_
 _symmetry_equiv_pos_site_id
 _symmetry_equiv_pos_as_xyz
  1  'x, y, z'
loop_
 _atom_site_type_symbol
 _atom_site_label
 _atom_site_symmetry_multiplicity
 _atom_site_fract_x
 _atom_site_fract_y
 _atom_site_fract_z
 _atom_site_occupancy
  Rb  Rb0  1  0.00464100  0.82970200  0.17318800  1
  Rb  Rb1  1  0.99535900  0.67029900  0.67318800  1
  Rb  Rb2  1  0.99535900  0.17029800  0.82681200  1
  Rb  Rb3  1  0.00464100  0.32970200  0.32681200  1
  W  W4  1  0.49038800  0.21641900  0.55945100  1
  W  W5  1  0.50961100  0.28358100  0.05945100  1
  W  W6  1  0.50961100  0.78358100  0.44054900  1
  W  W7  1  0.49038900  0.71641900  0.94054900  1
  O  O8  1  0.49803900  0.80168100  0.82274700  1
  O  O9  1  0.50196100  0.69831800  0.32274700  1
  O  O10  1  0.50196100  0.19831900  0.17725300  1
  O  O11  1  0.49803900  0.30168200  0.67725300  1
  O  O12  1  0.50140800  0.58543300  0.07796300  1
  O  O13  1  0.49859200  0.91456800  0.57796300  1
  O  O14  1  0.49859200  0.41456700  0.92203700  1
  O  O15  1  0.50140700  0.08543200  0.42203700  1
  O  O16  1  0.50000100  0.49999900  0.50000000  1
  O  O17  1  0.50000100  0.00000000  0.00000000  1
  O  O18  1  0.99702100  0.22401300  0.54930800  1
  O  O19  1  0.99702100  0.72401200  0.95069200  1
  O  O20  1  0.00297900  0.77598700  0.45069200  1
  O  O21  1  0.00297900  0.27598900  0.04930800  1
