# generated using pymatgen
data_Mg149S
_symmetry_space_group_name_H-M   'P 1'
_cell_length_a   15.90531934
_cell_length_b   15.90532475
_cell_length_c   15.59572824
_cell_angle_alpha   90.00000000
_cell_angle_beta   90.00000000
_cell_angle_gamma   120.00000896
_symmetry_Int_Tables_number   1
_chemical_formula_structural   Mg149S
_chemical_formula_sum   'Mg149 S1'
_cell_volume   3416.81279937
_cell_formula_units_Z   1
loop_
 _symmetry_equiv_pos_site_id
 _symmetry_equiv_pos_as_xyz
  1  'x, y, z'
loop_
 _atom_site_type_symbol
 _atom_site_label
 _atom_site_symmetry_multiplicity
 _atom_site_fract_x
 _atom_site_fract_y
 _atom_site_fract_z
 _atom_site_occupancy
  Mg  Mg0  1  0.80266953  0.00189848  -0.00000000  1
  Mg  Mg1  1  0.19922895  0.00189848  -0.00000000  1
  Mg  Mg2  1  0.19922895  0.19733047  -0.00000000  1
  Mg  Mg3  1  0.99810152  0.19733147  -0.00000000  1
  Mg  Mg4  1  0.80030760  0.19969240  -0.00000000  1
  Mg  Mg5  1  0.39938480  0.19969240  -0.00000000  1
  Mg  Mg6  1  0.60041361  0.20082723  -0.00000000  1
  Mg  Mg7  1  0.19911149  0.39822298  -0.00000000  1
  Mg  Mg8  1  0.60041361  0.39958639  -0.00000000  1
  Mg  Mg9  1  0.79917377  0.39958639  -0.00000000  1
  Mg  Mg10  1  0.00026883  0.40024440  -0.00000000  1
  Mg  Mg11  1  0.39997557  0.40024440  -0.00000000  1
  Mg  Mg12  1  0.59975560  0.60002443  -0.00000000  1
  Mg  Mg13  1  0.00026883  0.60002443  -0.00000000  1
  Mg  Mg14  1  0.39956646  0.60043454  -0.00000000  1
  Mg  Mg15  1  0.20086908  0.60043454  -0.00000000  1
  Mg  Mg16  1  0.80030760  0.60061520  -0.00000000  1
  Mg  Mg17  1  0.39956646  0.79913092  -0.00000000  1
  Mg  Mg18  1  0.60177702  0.80088851  -0.00000000  1
  Mg  Mg19  1  0.19911149  0.80088851  -0.00000000  1
  Mg  Mg20  1  0.99810152  0.80077105  -0.00000000  1
  Mg  Mg21  1  0.80266953  0.80077105  -0.00000000  1
  Mg  Mg22  1  0.59975560  0.99973117  -0.00000000  1
  Mg  Mg23  1  0.39997557  0.99973117  -0.00000000  1
  Mg  Mg24  1  0.06538982  0.13077864  0.16486622  1
  Mg  Mg25  1  0.06538982  0.93461018  0.16486622  1
  Mg  Mg26  1  0.86922136  0.93461118  0.16486622  1
  Mg  Mg27  1  0.26576391  0.33196208  0.16558590  1
  Mg  Mg28  1  0.06619817  0.33196208  0.16558590  1
  Mg  Mg29  1  0.66803792  0.73423609  0.16558590  1
  Mg  Mg30  1  0.06619817  0.73423609  0.16558590  1
  Mg  Mg31  1  0.66803792  0.93380183  0.16558590  1
  Mg  Mg32  1  0.26576391  0.93380183  0.16558590  1
  Mg  Mg33  1  0.26635281  0.53270463  0.16584274  1
  Mg  Mg34  1  0.26635281  0.73364719  0.16584274  1
  Mg  Mg35  1  0.46729437  0.73364719  0.16584274  1
  Mg  Mg36  1  0.66666600  0.33333300  0.16593213  1
  Mg  Mg37  1  0.46660656  0.13361709  0.16609056  1
  Mg  Mg38  1  0.66701053  0.13361809  0.16609056  1
  Mg  Mg39  1  0.86638191  0.33298847  0.16609056  1
  Mg  Mg40  1  0.46660656  0.33298947  0.16609056  1
  Mg  Mg41  1  0.66701053  0.53339244  0.16609056  1
  Mg  Mg42  1  0.86638191  0.53339244  0.16609056  1
  Mg  Mg43  1  0.06689846  0.53344923  0.16606793  1
  Mg  Mg44  1  0.46655077  0.53345023  0.16606793  1
  Mg  Mg45  1  0.46655077  0.93310154  0.16606793  1
  Mg  Mg46  1  0.26692501  0.13346301  0.16707881  1
  Mg  Mg47  1  0.86653699  0.13346301  0.16707881  1
  Mg  Mg48  1  0.86653699  0.73307399  0.16707881  1
  Mg  Mg49  1  0.00000000  0.00000000  0.33102084  1
  Mg  Mg50  1  0.19987737  0.39975573  0.33218275  1
  Mg  Mg51  1  0.19987737  0.80012263  0.33218275  1
  Mg  Mg52  1  0.60024527  0.80012263  0.33218275  1
  Mg  Mg53  1  0.39980751  0.60019249  0.33256741  1
  Mg  Mg54  1  0.20038499  0.60019249  0.33256741  1
  Mg  Mg55  1  0.39980751  0.79961401  0.33256741  1
  Mg  Mg56  1  0.60020934  0.20041869  0.33267050  1
  Mg  Mg57  1  0.79958031  0.39979066  0.33267050  1
  Mg  Mg58  1  0.60020934  0.39979066  0.33267050  1
  Mg  Mg59  1  0.80017385  0.19982615  0.33268698  1
  Mg  Mg60  1  0.39965229  0.19982615  0.33268698  1
  Mg  Mg61  1  0.80017385  0.60034771  0.33268698  1
  Mg  Mg62  1  0.39993873  0.99977492  0.33311434  1
  Mg  Mg63  1  0.59983719  0.99977592  0.33311434  1
  Mg  Mg64  1  0.00022408  0.40016381  0.33311434  1
  Mg  Mg65  1  0.39993873  0.40016381  0.33311434  1
  Mg  Mg66  1  0.00022408  0.60006127  0.33311434  1
  Mg  Mg67  1  0.59983719  0.60006127  0.33311434  1
  Mg  Mg68  1  0.19953877  0.99979309  0.33356688  1
  Mg  Mg69  1  0.80025433  0.99979309  0.33356688  1
  Mg  Mg70  1  0.19953877  0.19974567  0.33356688  1
  Mg  Mg71  1  0.00020691  0.19974567  0.33356688  1
  Mg  Mg72  1  0.80025433  0.80046123  0.33356688  1
  Mg  Mg73  1  0.00020691  0.80046123  0.33356688  1
  Mg  Mg74  1  0.06636735  0.13273470  0.50000000  1
  Mg  Mg75  1  0.26660356  0.13330178  0.50000000  1
  Mg  Mg76  1  0.86669822  0.13330178  0.50000000  1
  Mg  Mg77  1  0.46649837  0.13304598  0.50000000  1
  Mg  Mg78  1  0.66654662  0.13304598  0.50000000  1
  Mg  Mg79  1  0.06689537  0.33313134  0.50000000  1
  Mg  Mg80  1  0.26623597  0.33313134  0.50000000  1
  Mg  Mg81  1  0.46649837  0.33345238  0.50000000  1
  Mg  Mg82  1  0.86695402  0.33345238  0.50000000  1
  Mg  Mg83  1  0.66666600  0.33333300  0.50000000  1
  Mg  Mg84  1  0.26632884  0.53265869  0.50000000  1
  Mg  Mg85  1  0.66654662  0.53350063  0.50000000  1
  Mg  Mg86  1  0.86695402  0.53350063  0.50000000  1
  Mg  Mg87  1  0.46664277  0.53335623  0.50000000  1
  Mg  Mg88  1  0.06671346  0.53335723  0.50000000  1
  Mg  Mg89  1  0.46734131  0.73367116  0.50000000  1
  Mg  Mg90  1  0.26632884  0.73367116  0.50000000  1
  Mg  Mg91  1  0.86669822  0.73339644  0.50000000  1
  Mg  Mg92  1  0.06689537  0.73376403  0.50000000  1
  Mg  Mg93  1  0.66686866  0.73376403  0.50000000  1
  Mg  Mg94  1  0.46664277  0.93328654  0.50000000  1
  Mg  Mg95  1  0.66686866  0.93310463  0.50000000  1
  Mg  Mg96  1  0.26623597  0.93310463  0.50000000  1
  Mg  Mg97  1  0.06636735  0.93363265  0.50000000  1
  Mg  Mg98  1  0.86726530  0.93363265  0.50000000  1
  Mg  Mg99  1  0.19953877  0.99979309  0.66643312  1
  Mg  Mg100  1  0.80025433  0.99979309  0.66643312  1
  Mg  Mg101  1  0.19953877  0.19974567  0.66643312  1
  Mg  Mg102  1  0.00020691  0.19974567  0.66643312  1
  Mg  Mg103  1  0.80025433  0.80046123  0.66643312  1
  Mg  Mg104  1  0.00020691  0.80046123  0.66643312  1
  Mg  Mg105  1  0.39993873  0.99977492  0.66688466  1
  Mg  Mg106  1  0.59983719  0.99977592  0.66688466  1
  Mg  Mg107  1  0.00022408  0.40016381  0.66688466  1
  Mg  Mg108  1  0.39993873  0.40016381  0.66688466  1
  Mg  Mg109  1  0.00022408  0.60006127  0.66688466  1
  Mg  Mg110  1  0.59983719  0.60006127  0.66688466  1
  Mg  Mg111  1  0.80017385  0.19982615  0.66731202  1
  Mg  Mg112  1  0.39965229  0.19982615  0.66731202  1
  Mg  Mg113  1  0.80017385  0.60034771  0.66731202  1
  Mg  Mg114  1  0.60020934  0.20041869  0.66732950  1
  Mg  Mg115  1  0.79958031  0.39979066  0.66732950  1
  Mg  Mg116  1  0.60020934  0.39979066  0.66732950  1
  Mg  Mg117  1  0.39980751  0.60019249  0.66743259  1
  Mg  Mg118  1  0.20038499  0.60019249  0.66743259  1
  Mg  Mg119  1  0.39980751  0.79961401  0.66743259  1
  Mg  Mg120  1  0.19987737  0.39975573  0.66781825  1
  Mg  Mg121  1  0.19987737  0.80012263  0.66781825  1
  Mg  Mg122  1  0.60024527  0.80012263  0.66781825  1
  Mg  Mg123  1  0.00000000  0.00000000  0.66897916  1
  Mg  Mg124  1  0.26692501  0.13346301  0.83292119  1
  Mg  Mg125  1  0.86653699  0.13346301  0.83292119  1
  Mg  Mg126  1  0.86653699  0.73307399  0.83292119  1
  Mg  Mg127  1  0.06689846  0.53344923  0.83393207  1
  Mg  Mg128  1  0.46655077  0.53345023  0.83393207  1
  Mg  Mg129  1  0.46655077  0.93310154  0.83393207  1
  Mg  Mg130  1  0.46660656  0.13361709  0.83390944  1
  Mg  Mg131  1  0.66701053  0.13361809  0.83390944  1
  Mg  Mg132  1  0.86638191  0.33298847  0.83390944  1
  Mg  Mg133  1  0.46660656  0.33298947  0.83390944  1
  Mg  Mg134  1  0.66701053  0.53339244  0.83390944  1
  Mg  Mg135  1  0.86638191  0.53339244  0.83390944  1
  Mg  Mg136  1  0.66666600  0.33333300  0.83406687  1
  Mg  Mg137  1  0.26635281  0.53270463  0.83415826  1
  Mg  Mg138  1  0.26635281  0.73364719  0.83415826  1
  Mg  Mg139  1  0.46729437  0.73364719  0.83415826  1
  Mg  Mg140  1  0.26576391  0.33196208  0.83441310  1
  Mg  Mg141  1  0.06619817  0.33196208  0.83441310  1
  Mg  Mg142  1  0.66803792  0.73423609  0.83441310  1
  Mg  Mg143  1  0.06619817  0.73423609  0.83441310  1
  Mg  Mg144  1  0.66803792  0.93380183  0.83441310  1
  Mg  Mg145  1  0.26576391  0.93380183  0.83441310  1
  Mg  Mg146  1  0.06538982  0.13077864  0.83513378  1
  Mg  Mg147  1  0.06538982  0.93461018  0.83513378  1
  Mg  Mg148  1  0.86922136  0.93461118  0.83513378  1
  S  S149  1  0.00000000  0.00000000  -0.00000000  1
