# generated using pymatgen
data_Cs2KSmCl6
_symmetry_space_group_name_H-M   'P 1'
_cell_length_a   8.10880358
_cell_length_b   8.10880358
_cell_length_c   8.10880358
_cell_angle_alpha   60.00000000
_cell_angle_beta   60.00000000
_cell_angle_gamma   60.00000000
_symmetry_Int_Tables_number   1
_chemical_formula_structural   Cs2KSmCl6
_chemical_formula_sum   'Cs2 K1 Sm1 Cl6'
_cell_volume   377.01214809
_cell_formula_units_Z   1
loop_
 _symmetry_equiv_pos_site_id
 _symmetry_equiv_pos_as_xyz
  1  'x, y, z'
loop_
 _atom_site_type_symbol
 _atom_site_label
 _atom_site_symmetry_multiplicity
 _atom_site_fract_x
 _atom_site_fract_y
 _atom_site_fract_z
 _atom_site_occupancy
  Cs  Cs0  1  0.75000000  0.75000000  0.75000000  1
  Cs  Cs1  1  0.25000000  0.25000000  0.25000000  1
  K  K2  1  0.50000000  0.50000000  0.50000000  1
  Sm  Sm3  1  0.00000000  0.00000000  0.00000000  1
  Cl  Cl4  1  0.76451800  0.23548200  0.23548200  1
  Cl  Cl5  1  0.23548200  0.23548200  0.76451800  1
  Cl  Cl6  1  0.23548200  0.76451800  0.76451800  1
  Cl  Cl7  1  0.23548200  0.76451800  0.23548200  1
  Cl  Cl8  1  0.76451800  0.23548200  0.76451800  1
  Cl  Cl9  1  0.76451800  0.76451800  0.23548200  1
