# generated using pymatgen
data_La2CdRh2
_symmetry_space_group_name_H-M   'P 1'
_cell_length_a   7.81924800
_cell_length_b   7.81924800
_cell_length_c   3.89912500
_cell_angle_alpha   90.00000000
_cell_angle_beta   90.00000000
_cell_angle_gamma   90.00000000
_symmetry_Int_Tables_number   1
_chemical_formula_structural   La2CdRh2
_chemical_formula_sum   'La4 Cd2 Rh4'
_cell_volume   238.39499515
_cell_formula_units_Z   2
loop_
 _symmetry_equiv_pos_site_id
 _symmetry_equiv_pos_as_xyz
  1  'x, y, z'
loop_
 _atom_site_type_symbol
 _atom_site_label
 _atom_site_symmetry_multiplicity
 _atom_site_fract_x
 _atom_site_fract_y
 _atom_site_fract_z
 _atom_site_occupancy
  La  La0  1  0.83450500  0.66549500  0.50000000  1
  La  La1  1  0.33450500  0.83450500  0.50000000  1
  La  La2  1  0.66549500  0.16549500  0.50000000  1
  La  La3  1  0.16549500  0.33450500  0.50000000  1
  Cd  Cd4  1  0.00000000  0.00000000  0.00000000  1
  Cd  Cd5  1  0.50000000  0.50000000  0.00000000  1
  Rh  Rh6  1  0.86193500  0.36193500  0.00000000  1
  Rh  Rh7  1  0.36193500  0.13806500  0.00000000  1
  Rh  Rh8  1  0.63806500  0.86193500  0.00000000  1
  Rh  Rh9  1  0.13806500  0.63806500  0.00000000  1
