# generated using pymatgen
data_EuInNi5
_symmetry_space_group_name_H-M   'P 1'
_cell_length_a   10.29146560
_cell_length_b   10.29146560
_cell_length_c   10.29146467
_cell_angle_alpha   27.49721243
_cell_angle_beta   27.49721243
_cell_angle_gamma   27.49721236
_symmetry_Int_Tables_number   1
_chemical_formula_structural   EuInNi5
_chemical_formula_sum   'Eu2 In2 Ni10'
_cell_volume   205.08813433
_cell_formula_units_Z   2
loop_
 _symmetry_equiv_pos_site_id
 _symmetry_equiv_pos_as_xyz
  1  'x, y, z'
loop_
 _atom_site_type_symbol
 _atom_site_label
 _atom_site_symmetry_multiplicity
 _atom_site_fract_x
 _atom_site_fract_y
 _atom_site_fract_z
 _atom_site_occupancy
  Eu  Eu0  1  0.00000000  0.00000000  0.00000000  1
  Eu  Eu1  1  0.50000000  0.50000000  0.50000000  1
  In  In2  1  0.11062400  0.11062400  0.11062400  1
  In  In3  1  0.88937600  0.88937600  0.88937600  1
  Ni  Ni4  1  0.33382900  0.33382900  0.33382900  1
  Ni  Ni5  1  0.56691100  0.56691100  0.06930500  1
  Ni  Ni6  1  0.06930500  0.56691100  0.56691100  1
  Ni  Ni7  1  0.56691100  0.06930500  0.56691100  1
  Ni  Ni8  1  0.80096200  0.80096200  0.80096200  1
  Ni  Ni9  1  0.19903800  0.19903800  0.19903800  1
  Ni  Ni10  1  0.43308900  0.93069500  0.43308900  1
  Ni  Ni11  1  0.93069500  0.43308900  0.43308900  1
  Ni  Ni12  1  0.43308900  0.43308900  0.93069500  1
  Ni  Ni13  1  0.66617100  0.66617100  0.66617100  1
