# generated using pymatgen
data_HoMgPd
_symmetry_space_group_name_H-M   'P 1'
_cell_length_a   7.50699219
_cell_length_b   7.50699219
_cell_length_c   4.00799200
_cell_angle_alpha   90.00000000
_cell_angle_beta   90.00000000
_cell_angle_gamma   120.00000169
_symmetry_Int_Tables_number   1
_chemical_formula_structural   HoMgPd
_chemical_formula_sum   'Ho3 Mg3 Pd3'
_cell_volume   195.60925482
_cell_formula_units_Z   3
loop_
 _symmetry_equiv_pos_site_id
 _symmetry_equiv_pos_as_xyz
  1  'x, y, z'
loop_
 _atom_site_type_symbol
 _atom_site_label
 _atom_site_symmetry_multiplicity
 _atom_site_fract_x
 _atom_site_fract_y
 _atom_site_fract_z
 _atom_site_occupancy
  Ho  Ho0  1  0.58942500  0.00000000  0.00000000  1
  Ho  Ho1  1  0.00000000  0.58942500  0.00000000  1
  Ho  Ho2  1  0.41057500  0.41057500  0.00000000  1
  Mg  Mg3  1  0.24806200  0.00000000  0.50000000  1
  Mg  Mg4  1  0.00000000  0.24806200  0.50000000  1
  Mg  Mg5  1  0.75193800  0.75193800  0.50000000  1
  Pd  Pd6  1  0.33333300  0.66666700  0.50000000  1
  Pd  Pd7  1  0.66666700  0.33333300  0.50000000  1
  Pd  Pd8  1  0.00000000  0.00000000  0.00000000  1
