# generated using pymatgen
data_SrInPd
_symmetry_space_group_name_H-M   'P 1'
_cell_length_a   4.56081400
_cell_length_b   7.72844600
_cell_length_c   8.67842000
_cell_angle_alpha   90.00000000
_cell_angle_beta   90.00000000
_cell_angle_gamma   90.00000000
_symmetry_Int_Tables_number   1
_chemical_formula_structural   SrInPd
_chemical_formula_sum   'Sr4 In4 Pd4'
_cell_volume   305.89698908
_cell_formula_units_Z   4
loop_
 _symmetry_equiv_pos_site_id
 _symmetry_equiv_pos_as_xyz
  1  'x, y, z'
loop_
 _atom_site_type_symbol
 _atom_site_label
 _atom_site_symmetry_multiplicity
 _atom_site_fract_x
 _atom_site_fract_y
 _atom_site_fract_z
 _atom_site_occupancy
  Sr  Sr0  1  0.25000000  0.02937400  0.32118900  1
  Sr  Sr1  1  0.25000000  0.52937400  0.17881100  1
  Sr  Sr2  1  0.75000000  0.97062600  0.67881100  1
  Sr  Sr3  1  0.75000000  0.47062600  0.82118900  1
  In  In4  1  0.25000000  0.14568600  0.93463800  1
  In  In5  1  0.25000000  0.64568600  0.56536200  1
  In  In6  1  0.75000000  0.85431400  0.06536200  1
  In  In7  1  0.75000000  0.35431400  0.43463800  1
  Pd  Pd8  1  0.25000000  0.27894000  0.62157100  1
  Pd  Pd9  1  0.25000000  0.77894000  0.87842900  1
  Pd  Pd10  1  0.75000000  0.72106000  0.37842900  1
  Pd  Pd11  1  0.75000000  0.22106000  0.12157100  1
