# generated using pymatgen
data_CdAg2Sn3S8
_symmetry_space_group_name_H-M   'P 1'
_cell_length_a   7.76363741
_cell_length_b   7.76363741
_cell_length_c   7.76363703
_cell_angle_alpha   59.35563462
_cell_angle_beta   59.35563462
_cell_angle_gamma   59.35563032
_symmetry_Int_Tables_number   1
_chemical_formula_structural   CdAg2Sn3S8
_chemical_formula_sum   'Cd1 Ag2 Sn3 S8'
_cell_volume   326.03450504
_cell_formula_units_Z   1
loop_
 _symmetry_equiv_pos_site_id
 _symmetry_equiv_pos_as_xyz
  1  'x, y, z'
loop_
 _atom_site_type_symbol
 _atom_site_label
 _atom_site_symmetry_multiplicity
 _atom_site_fract_x
 _atom_site_fract_y
 _atom_site_fract_z
 _atom_site_occupancy
  Cd  Cd0  1  0.50000000  0.50000000  0.50000000  1
  Ag  Ag1  1  0.11947700  0.11947700  0.11947700  1
  Ag  Ag2  1  0.88052300  0.88052300  0.88052300  1
  Sn  Sn3  1  0.00000000  0.50000000  0.50000000  1
  Sn  Sn4  1  0.50000000  0.50000000  0.00000000  1
  Sn  Sn5  1  0.50000000  0.00000000  0.50000000  1
  S  S6  1  0.25569800  0.25569800  0.25569800  1
  S  S7  1  0.71873400  0.25419400  0.25419400  1
  S  S8  1  0.25419400  0.25419400  0.71873400  1
  S  S9  1  0.25419400  0.71873400  0.25419400  1
  S  S10  1  0.74430200  0.74430200  0.74430200  1
  S  S11  1  0.28126600  0.74580600  0.74580600  1
  S  S12  1  0.74580600  0.74580600  0.28126600  1
  S  S13  1  0.74580600  0.28126600  0.74580600  1
