# generated using pymatgen
data_TbTl(WO4)2
_symmetry_space_group_name_H-M   'P 1'
_cell_length_a   7.65111493
_cell_length_b   7.65111493
_cell_length_c   7.49777341
_cell_angle_alpha   62.43497980
_cell_angle_beta   62.43497980
_cell_angle_gamma   88.55985652
_symmetry_Int_Tables_number   1
_chemical_formula_structural   TbTl(WO4)2
_chemical_formula_sum   'Tb2 Tl2 W4 O16'
_cell_volume   334.80084713
_cell_formula_units_Z   2
loop_
 _symmetry_equiv_pos_site_id
 _symmetry_equiv_pos_as_xyz
  1  'x, y, z'
loop_
 _atom_site_type_symbol
 _atom_site_label
 _atom_site_symmetry_multiplicity
 _atom_site_fract_x
 _atom_site_fract_y
 _atom_site_fract_z
 _atom_site_occupancy
  Tb  Tb0  1  0.77584600  0.22415400  0.75000000  1
  Tb  Tb1  1  0.22415400  0.77584600  0.25000000  1
  Tl  Tl2  1  0.20570200  0.79429800  0.75000000  1
  Tl  Tl3  1  0.79429800  0.20570200  0.25000000  1
  W  W4  1  0.70035100  0.68992700  0.78139600  1
  W  W5  1  0.29964900  0.31007300  0.21860400  1
  W  W6  1  0.31007300  0.29964900  0.71860400  1
  W  W7  1  0.68992700  0.70035100  0.28139600  1
  O  O8  1  0.62029000  0.75386700  0.55920000  1
  O  O9  1  0.37971000  0.24613300  0.44080000  1
  O  O10  1  0.24613300  0.37971000  0.94080000  1
  O  O11  1  0.75386700  0.62029000  0.05920000  1
  O  O12  1  0.37636000  0.06315800  0.87512500  1
  O  O13  1  0.62364000  0.93684200  0.12487500  1
  O  O14  1  0.93684200  0.62364000  0.62487500  1
  O  O15  1  0.06315800  0.37636000  0.37512500  1
  O  O16  1  0.58931500  0.37009800  0.96751900  1
  O  O17  1  0.41068500  0.62990200  0.03248100  1
  O  O18  1  0.62990200  0.41068500  0.53248100  1
  O  O19  1  0.37009800  0.58931500  0.46751900  1
  O  O20  1  0.78364300  0.95463500  0.68978500  1
  O  O21  1  0.21635700  0.04536500  0.31021500  1
  O  O22  1  0.04536500  0.21635700  0.81021500  1
  O  O23  1  0.95463500  0.78364300  0.18978500  1
