# generated using pymatgen
data_CsFeAgF6
_symmetry_space_group_name_H-M   'P 1'
_cell_length_a   7.58640300
_cell_length_b   7.72137600
_cell_length_c   10.86819600
_cell_angle_alpha   90.00000000
_cell_angle_beta   90.00000000
_cell_angle_gamma   90.00000000
_symmetry_Int_Tables_number   1
_chemical_formula_structural   CsFeAgF6
_chemical_formula_sum   'Cs4 Fe4 Ag4 F24'
_cell_volume   636.63142569
_cell_formula_units_Z   4
loop_
 _symmetry_equiv_pos_site_id
 _symmetry_equiv_pos_as_xyz
  1  'x, y, z'
loop_
 _atom_site_type_symbol
 _atom_site_label
 _atom_site_symmetry_multiplicity
 _atom_site_fract_x
 _atom_site_fract_y
 _atom_site_fract_z
 _atom_site_occupancy
  Cs  Cs0  1  0.98350700  0.25000000  0.37454500  1
  Cs  Cs1  1  0.48350700  0.25000000  0.12545500  1
  Cs  Cs2  1  0.01649300  0.75000000  0.62545500  1
  Cs  Cs3  1  0.51649300  0.75000000  0.87454500  1
  Fe  Fe4  1  0.50000000  0.00000000  0.50000000  1
  Fe  Fe5  1  0.00000000  0.50000000  0.00000000  1
  Fe  Fe6  1  0.50000000  0.50000000  0.50000000  1
  Fe  Fe7  1  0.00000000  0.00000000  0.00000000  1
  Ag  Ag8  1  0.79648000  0.25000000  0.74317800  1
  Ag  Ag9  1  0.29648000  0.25000000  0.75682200  1
  Ag  Ag10  1  0.20352000  0.75000000  0.25682200  1
  Ag  Ag11  1  0.70352000  0.75000000  0.24317800  1
  F  F12  1  0.55166500  0.25000000  0.82415600  1
  F  F13  1  0.05166500  0.25000000  0.67584400  1
  F  F14  1  0.44833500  0.75000000  0.17584400  1
  F  F15  1  0.94833500  0.75000000  0.32415600  1
  F  F16  1  0.94201000  0.25000000  0.01671100  1
  F  F17  1  0.44201000  0.25000000  0.48328900  1
  F  F18  1  0.05799000  0.75000000  0.98328900  1
  F  F19  1  0.55799000  0.75000000  0.51671100  1
  F  F20  1  0.62981600  0.00672600  0.34461900  1
  F  F21  1  0.12981600  0.49327400  0.15538100  1
  F  F22  1  0.37018400  0.50672600  0.65538100  1
  F  F23  1  0.87018400  0.99327400  0.84461900  1
  F  F24  1  0.37018400  0.99327400  0.65538100  1
  F  F25  1  0.87018400  0.50672600  0.84461900  1
  F  F26  1  0.62981600  0.49327400  0.34461900  1
  F  F27  1  0.12981600  0.00672600  0.15538100  1
  F  F28  1  0.71929700  0.05060300  0.58554300  1
  F  F29  1  0.21929700  0.44939700  0.91445700  1
  F  F30  1  0.28070300  0.55060300  0.41445700  1
  F  F31  1  0.78070300  0.94939700  0.08554300  1
  F  F32  1  0.28070300  0.94939700  0.41445700  1
  F  F33  1  0.78070300  0.55060300  0.08554300  1
  F  F34  1  0.71929700  0.44939700  0.58554300  1
  F  F35  1  0.21929700  0.05060300  0.91445700  1
