# generated using pymatgen
data_ZnMoF6
_symmetry_space_group_name_H-M   'P 1'
_cell_length_a   5.68891041
_cell_length_b   5.68891041
_cell_length_c   5.68891066
_cell_angle_alpha   57.12654912
_cell_angle_beta   57.12654912
_cell_angle_gamma   57.12654931
_symmetry_Int_Tables_number   1
_chemical_formula_structural   ZnMoF6
_chemical_formula_sum   'Zn1 Mo1 F6'
_cell_volume   121.56817841
_cell_formula_units_Z   1
loop_
 _symmetry_equiv_pos_site_id
 _symmetry_equiv_pos_as_xyz
  1  'x, y, z'
loop_
 _atom_site_type_symbol
 _atom_site_label
 _atom_site_symmetry_multiplicity
 _atom_site_fract_x
 _atom_site_fract_y
 _atom_site_fract_z
 _atom_site_occupancy
  Zn  Zn0  1  0.50000000  0.50000000  0.50000000  1
  Mo  Mo1  1  0.00000000  0.00000000  0.00000000  1
  F  F2  1  0.66268100  0.84422700  0.24329200  1
  F  F3  1  0.84422700  0.24329200  0.66268100  1
  F  F4  1  0.75670800  0.33731900  0.15577300  1
  F  F5  1  0.15577300  0.75670800  0.33731900  1
  F  F6  1  0.33731900  0.15577300  0.75670800  1
  F  F7  1  0.24329200  0.66268100  0.84422700  1
