# generated using pymatgen
data_BaV10O15
_symmetry_space_group_name_H-M   'P 1'
_cell_length_a   7.85939554
_cell_length_b   7.85939554
_cell_length_c   9.72532800
_cell_angle_alpha   90.00000000
_cell_angle_beta   90.00000000
_cell_angle_gamma   97.50330754
_symmetry_Int_Tables_number   1
_chemical_formula_structural   BaV10O15
_chemical_formula_sum   'Ba2 V20 O30'
_cell_volume   595.59057186
_cell_formula_units_Z   2
loop_
 _symmetry_equiv_pos_site_id
 _symmetry_equiv_pos_as_xyz
  1  'x, y, z'
loop_
 _atom_site_type_symbol
 _atom_site_label
 _atom_site_symmetry_multiplicity
 _atom_site_fract_x
 _atom_site_fract_y
 _atom_site_fract_z
 _atom_site_occupancy
  Ba  Ba0  1  0.00000000  0.00000000  0.50000000  1
  Ba  Ba1  1  0.50000000  0.50000000  0.00000000  1
  V  V2  1  0.42009100  0.90826900  0.11986800  1
  V  V3  1  0.07990900  0.59173100  0.61986800  1
  V  V4  1  0.40826900  0.92009100  0.38013200  1
  V  V5  1  0.09173100  0.57990900  0.88013200  1
  V  V6  1  0.57990900  0.09173100  0.88013200  1
  V  V7  1  0.92009100  0.40826900  0.38013200  1
  V  V8  1  0.59173100  0.07990900  0.61986800  1
  V  V9  1  0.90826900  0.42009100  0.11986800  1
  V  V10  1  0.78528900  0.03992700  0.14106000  1
  V  V11  1  0.71471100  0.46007300  0.64106000  1
  V  V12  1  0.53992700  0.28528900  0.35894000  1
  V  V13  1  0.96007300  0.21471100  0.85894000  1
  V  V14  1  0.21471100  0.96007300  0.85894000  1
  V  V15  1  0.28528900  0.53992700  0.35894000  1
  V  V16  1  0.46007300  0.71471100  0.64106000  1
  V  V17  1  0.03992700  0.78528900  0.14106000  1
  V  V18  1  0.81984700  0.81984700  0.86504700  1
  V  V19  1  0.68015300  0.68015300  0.36504700  1
  V  V20  1  0.31984700  0.31984700  0.63495300  1
  V  V21  1  0.18015300  0.18015300  0.13495300  1
  O  O22  1  0.50000000  0.50000000  0.50000000  1
  O  O23  1  0.00000000  0.00000000  0.00000000  1
  O  O24  1  0.15825700  0.15825700  0.74622500  1
  O  O25  1  0.34174300  0.34174300  0.24622500  1
  O  O26  1  0.65825700  0.65825700  0.75377500  1
  O  O27  1  0.84174300  0.84174300  0.25377500  1
  O  O28  1  0.21062000  0.96053800  0.24090500  1
  O  O29  1  0.28938000  0.53946200  0.74090500  1
  O  O30  1  0.46053800  0.71062000  0.25909500  1
  O  O31  1  0.03946200  0.78938000  0.75909500  1
  O  O32  1  0.78938000  0.03946200  0.75909500  1
  O  O33  1  0.71062000  0.46053800  0.25909500  1
  O  O34  1  0.53946200  0.28938000  0.74090500  1
  O  O35  1  0.96053800  0.21062000  0.24090500  1
  O  O36  1  0.57419000  0.07419000  0.25000000  1
  O  O37  1  0.92581000  0.42581000  0.75000000  1
  O  O38  1  0.42581000  0.92581000  0.75000000  1
  O  O39  1  0.07419000  0.57419000  0.25000000  1
  O  O40  1  0.36282800  0.11374400  0.99770700  1
  O  O41  1  0.13717200  0.38625600  0.49770700  1
  O  O42  1  0.61374400  0.86282800  0.50229300  1
  O  O43  1  0.88625600  0.63717200  0.00229300  1
  O  O44  1  0.76105100  0.23894900  0.00000000  1
  O  O45  1  0.73894900  0.26105100  0.50000000  1
  O  O46  1  0.23894900  0.76105100  0.00000000  1
  O  O47  1  0.26105100  0.73894900  0.50000000  1
  O  O48  1  0.11374400  0.36282800  0.99770700  1
  O  O49  1  0.38625600  0.13717200  0.49770700  1
  O  O50  1  0.86282800  0.61374400  0.50229300  1
  O  O51  1  0.63717200  0.88625600  0.00229300  1
