# generated using pymatgen
data_Er2SiGe
_symmetry_space_group_name_H-M   'P 1'
_cell_length_a   5.69096683
_cell_length_b   5.69096683
_cell_length_c   3.87315500
_cell_angle_alpha   90.00000000
_cell_angle_beta   90.00000000
_cell_angle_gamma   136.19587877
_symmetry_Int_Tables_number   1
_chemical_formula_structural   Er2SiGe
_chemical_formula_sum   'Er2 Si1 Ge1'
_cell_volume   86.82913984
_cell_formula_units_Z   1
loop_
 _symmetry_equiv_pos_site_id
 _symmetry_equiv_pos_as_xyz
  1  'x, y, z'
loop_
 _atom_site_type_symbol
 _atom_site_label
 _atom_site_symmetry_multiplicity
 _atom_site_fract_x
 _atom_site_fract_y
 _atom_site_fract_z
 _atom_site_occupancy
  Er  Er0  1  0.13953100  0.86046900  0.50000000  1
  Er  Er1  1  0.85947700  0.14052300  0.00000000  1
  Si  Si2  1  0.58128500  0.41871500  0.00000000  1
  Ge  Ge3  1  0.41970600  0.58029400  0.50000000  1
