# generated using pymatgen
data_LaPRh
_symmetry_space_group_name_H-M   'P 1'
_cell_length_a   7.81640323
_cell_length_b   7.81640323
_cell_length_c   7.81640323
_cell_angle_alpha   149.30302099
_cell_angle_beta   149.30302099
_cell_angle_gamma   43.96546466
_symmetry_Int_Tables_number   1
_chemical_formula_structural   LaPRh
_chemical_formula_sum   'La2 P2 Rh2'
_cell_volume   124.10012587
_cell_formula_units_Z   2
loop_
 _symmetry_equiv_pos_site_id
 _symmetry_equiv_pos_as_xyz
  1  'x, y, z'
loop_
 _atom_site_type_symbol
 _atom_site_label
 _atom_site_symmetry_multiplicity
 _atom_site_fract_x
 _atom_site_fract_y
 _atom_site_fract_z
 _atom_site_occupancy
  La  La0  1  0.75426100  0.25426100  0.50000000  1
  La  La1  1  0.00426100  0.00426100  0.00000000  1
  P  P2  1  0.33431300  0.83431300  0.50000000  1
  P  P3  1  0.58431300  0.58431300  0.00000000  1
  Rh  Rh4  1  0.16862600  0.66862600  0.50000000  1
  Rh  Rh5  1  0.41862600  0.41862600  0.00000000  1
