# generated using pymatgen
data_K2TiZnO4
_symmetry_space_group_name_H-M   'P 1'
_cell_length_a   5.74965700
_cell_length_b   11.51209800
_cell_length_c   16.20491300
_cell_angle_alpha   90.00000000
_cell_angle_beta   90.00000000
_cell_angle_gamma   90.00000000
_symmetry_Int_Tables_number   1
_chemical_formula_structural   K2TiZnO4
_chemical_formula_sum   'K16 Ti8 Zn8 O32'
_cell_volume   1072.61315507
_cell_formula_units_Z   8
loop_
 _symmetry_equiv_pos_site_id
 _symmetry_equiv_pos_as_xyz
  1  'x, y, z'
loop_
 _atom_site_type_symbol
 _atom_site_label
 _atom_site_symmetry_multiplicity
 _atom_site_fract_x
 _atom_site_fract_y
 _atom_site_fract_z
 _atom_site_occupancy
  K  K0  1  0.03120100  0.22768300  0.87034800  1
  K  K1  1  0.96879900  0.77231700  0.37034800  1
  K  K2  1  0.96879900  0.72768300  0.87034800  1
  K  K3  1  0.03120100  0.27231700  0.37034800  1
  K  K4  1  0.01798400  0.49683900  0.74364400  1
  K  K5  1  0.98201600  0.50316100  0.24364400  1
  K  K6  1  0.98201600  0.99683900  0.74364400  1
  K  K7  1  0.01798400  0.00316100  0.24364400  1
  K  K8  1  0.53268100  0.26609200  0.49966100  1
  K  K9  1  0.46731900  0.73390800  0.99966100  1
  K  K10  1  0.46731900  0.76609200  0.49966100  1
  K  K11  1  0.53268100  0.23390800  0.99966100  1
  K  K12  1  0.51138800  0.00826600  0.62579600  1
  K  K13  1  0.48861200  0.99173400  0.12579600  1
  K  K14  1  0.48861200  0.50826600  0.62579600  1
  K  K15  1  0.51138800  0.49173400  0.12579600  1
  Ti  Ti16  1  0.52367000  0.48601400  0.87433900  1
  Ti  Ti17  1  0.47633000  0.51398600  0.37433900  1
  Ti  Ti18  1  0.47633000  0.98601400  0.87433900  1
  Ti  Ti19  1  0.52367000  0.01398600  0.37433900  1
  Ti  Ti20  1  0.00896600  0.26932500  0.61955800  1
  Ti  Ti21  1  0.99103400  0.73067500  0.11955800  1
  Ti  Ti22  1  0.99103400  0.76932500  0.61955800  1
  Ti  Ti23  1  0.00896600  0.23067500  0.11955800  1
  Zn  Zn24  1  0.02240000  0.01818100  0.49458800  1
  Zn  Zn25  1  0.97760000  0.98181900  0.99458800  1
  Zn  Zn26  1  0.97760000  0.51818100  0.49458800  1
  Zn  Zn27  1  0.02240000  0.48181900  0.99458800  1
  Zn  Zn28  1  0.50894600  0.23637700  0.74955300  1
  Zn  Zn29  1  0.49105400  0.76362300  0.24955300  1
  Zn  Zn30  1  0.49105400  0.73637700  0.74955300  1
  Zn  Zn31  1  0.50894600  0.26362300  0.24955300  1
  O  O32  1  0.58564800  0.33457900  0.84509600  1
  O  O33  1  0.41435200  0.66542100  0.34509600  1
  O  O34  1  0.41435200  0.83457900  0.84509600  1
  O  O35  1  0.58564800  0.16542100  0.34509600  1
  O  O36  1  0.26370200  0.31016900  0.68171800  1
  O  O37  1  0.73629800  0.68983100  0.18171800  1
  O  O38  1  0.73629800  0.81016900  0.68171800  1
  O  O39  1  0.26370200  0.18983100  0.18171800  1
  O  O40  1  0.11837800  0.59485400  0.08166800  1
  O  O41  1  0.88162200  0.40514600  0.58166800  1
  O  O42  1  0.88162200  0.09485400  0.08166800  1
  O  O43  1  0.11837800  0.90514600  0.58166800  1
  O  O44  1  0.21294100  0.51174800  0.89429300  1
  O  O45  1  0.78705900  0.48825200  0.39429300  1
  O  O46  1  0.78705900  0.01174800  0.89429300  1
  O  O47  1  0.21294100  0.98825200  0.39429300  1
  O  O48  1  0.21259300  0.69601000  0.68234000  1
  O  O49  1  0.78740700  0.30399000  0.18234000  1
  O  O50  1  0.78740700  0.19601000  0.68234000  1
  O  O51  1  0.21259300  0.80399000  0.18234000  1
  O  O52  1  0.31073900  0.01419100  0.96947400  1
  O  O53  1  0.68926100  0.98580900  0.46947400  1
  O  O54  1  0.68926100  0.51419100  0.96947400  1
  O  O55  1  0.31073900  0.48580900  0.46947400  1
  O  O56  1  0.09396900  0.17856200  0.53118600  1
  O  O57  1  0.90603100  0.82143800  0.03118600  1
  O  O58  1  0.90603100  0.67856200  0.53118600  1
  O  O59  1  0.09396900  0.32143800  0.03118600  1
  O  O60  1  0.38313000  0.08523900  0.79143700  1
  O  O61  1  0.61687000  0.91476100  0.29143700  1
  O  O62  1  0.61687000  0.58523900  0.79143700  1
  O  O63  1  0.38313000  0.41476100  0.29143700  1
