# generated using pymatgen
data_Pr4Mg5Ge6
_symmetry_space_group_name_H-M   'P 1'
_cell_length_a   10.32100876
_cell_length_b   10.32100876
_cell_length_c   16.07264400
_cell_angle_alpha   90.00000000
_cell_angle_beta   90.00000000
_cell_angle_gamma   154.90146255
_symmetry_Int_Tables_number   1
_chemical_formula_structural   Pr4Mg5Ge6
_chemical_formula_sum   'Pr8 Mg10 Ge12'
_cell_volume   726.23642052
_cell_formula_units_Z   2
loop_
 _symmetry_equiv_pos_site_id
 _symmetry_equiv_pos_as_xyz
  1  'x, y, z'
loop_
 _atom_site_type_symbol
 _atom_site_label
 _atom_site_symmetry_multiplicity
 _atom_site_fract_x
 _atom_site_fract_y
 _atom_site_fract_z
 _atom_site_occupancy
  Pr  Pr0  1  0.01338700  0.98661300  0.76382000  1
  Pr  Pr1  1  0.98661300  0.01338700  0.26382000  1
  Pr  Pr2  1  0.03335900  0.96664100  0.50091400  1
  Pr  Pr3  1  0.96664100  0.03335900  0.00091400  1
  Pr  Pr4  1  0.16455300  0.83544700  0.96266400  1
  Pr  Pr5  1  0.83544700  0.16455300  0.46266400  1
  Pr  Pr6  1  0.17476600  0.82523400  0.32232000  1
  Pr  Pr7  1  0.82523400  0.17476600  0.82232000  1
  Mg  Mg8  1  0.15478500  0.84521500  0.64182700  1
  Mg  Mg9  1  0.84521500  0.15478500  0.14182700  1
  Mg  Mg10  1  0.30287100  0.69712900  0.64521200  1
  Mg  Mg11  1  0.69712900  0.30287100  0.14521200  1
  Mg  Mg12  1  0.33985900  0.66014100  0.99795800  1
  Mg  Mg13  1  0.66014100  0.33985900  0.49795800  1
  Mg  Mg14  1  0.44199100  0.55800900  0.59560600  1
  Mg  Mg15  1  0.55800900  0.44199100  0.09560600  1
  Mg  Mg16  1  0.65011500  0.34988500  0.78614600  1
  Mg  Mg17  1  0.34988500  0.65011500  0.28614600  1
  Ge  Ge18  1  0.11359800  0.88640200  0.14611000  1
  Ge  Ge19  1  0.88640200  0.11359800  0.64611000  1
  Ge  Ge20  1  0.22603200  0.77396800  0.78632600  1
  Ge  Ge21  1  0.77396800  0.22603200  0.28632600  1
  Ge  Ge22  1  0.23225000  0.76775000  0.49959500  1
  Ge  Ge23  1  0.76775000  0.23225000  0.99959500  1
  Ge  Ge24  1  0.43292300  0.56707700  0.86350400  1
  Ge  Ge25  1  0.56707700  0.43292300  0.36350400  1
  Ge  Ge26  1  0.55538600  0.44461400  0.91418600  1
  Ge  Ge27  1  0.44461400  0.55538600  0.41418600  1
  Ge  Ge28  1  0.57214600  0.42785400  0.63827100  1
  Ge  Ge29  1  0.42785400  0.57214600  0.13827100  1
