# generated using pymatgen
data_LaTa7O19
_symmetry_space_group_name_H-M   'P 1'
_cell_length_a   6.30073785
_cell_length_b   6.30073785
_cell_length_c   20.19604900
_cell_angle_alpha   90.00000000
_cell_angle_beta   90.00000000
_cell_angle_gamma   119.99999845
_symmetry_Int_Tables_number   1
_chemical_formula_structural   LaTa7O19
_chemical_formula_sum   'La2 Ta14 O38'
_cell_volume   694.35229578
_cell_formula_units_Z   2
loop_
 _symmetry_equiv_pos_site_id
 _symmetry_equiv_pos_as_xyz
  1  'x, y, z'
loop_
 _atom_site_type_symbol
 _atom_site_label
 _atom_site_symmetry_multiplicity
 _atom_site_fract_x
 _atom_site_fract_y
 _atom_site_fract_z
 _atom_site_occupancy
  La  La0  1  0.00000000  0.00000000  0.00000000  1
  La  La1  1  0.00000000  0.00000000  0.50000000  1
  Ta  Ta2  1  0.02572400  0.69058300  0.65606900  1
  Ta  Ta3  1  0.30941700  0.33514200  0.65606900  1
  Ta  Ta4  1  0.02572400  0.69058300  0.84393100  1
  Ta  Ta5  1  0.30941700  0.33514200  0.84393100  1
  Ta  Ta6  1  0.66485800  0.97427600  0.84393100  1
  Ta  Ta7  1  0.30941700  0.97427600  0.15606900  1
  Ta  Ta8  1  0.66485800  0.69058300  0.15606900  1
  Ta  Ta9  1  0.66485800  0.69058300  0.34393100  1
  Ta  Ta10  1  0.30941700  0.97427600  0.34393100  1
  Ta  Ta11  1  0.02572400  0.33514200  0.15606900  1
  Ta  Ta12  1  0.33333300  0.66666700  0.50000000  1
  Ta  Ta13  1  0.33333300  0.66666700  0.00000000  1
  Ta  Ta14  1  0.02572400  0.33514200  0.34393100  1
  Ta  Ta15  1  0.66485800  0.97427600  0.65606900  1
  O  O16  1  0.61243800  0.90231400  0.55719500  1
  O  O17  1  0.09768600  0.38756200  0.44280500  1
  O  O18  1  0.09768600  0.71012400  0.55719500  1
  O  O19  1  0.28987600  0.38756200  0.55719500  1
  O  O20  1  0.09768600  0.71012400  0.94280500  1
  O  O21  1  0.28987600  0.38756200  0.94280500  1
  O  O22  1  0.61243800  0.90231400  0.94280500  1
  O  O23  1  0.28987600  0.90231400  0.05719500  1
  O  O24  1  0.61243800  0.71012400  0.05719500  1
  O  O25  1  0.61243800  0.71012400  0.44280500  1
  O  O26  1  0.28987600  0.90231400  0.44280500  1
  O  O27  1  0.09768600  0.38756200  0.05719500  1
  O  O28  1  0.04112600  0.74829000  0.75000000  1
  O  O29  1  0.25171000  0.29283700  0.75000000  1
  O  O30  1  0.70716300  0.95887400  0.75000000  1
  O  O31  1  0.70716300  0.74829000  0.25000000  1
  O  O32  1  0.42169900  0.33295900  0.15340700  1
  O  O33  1  0.91126000  0.57830100  0.34659300  1
  O  O34  1  0.66704100  0.08874000  0.34659300  1
  O  O35  1  0.66704100  0.08874000  0.15340700  1
  O  O36  1  0.91126000  0.57830100  0.15340700  1
  O  O37  1  0.66704100  0.57830100  0.84659300  1
  O  O38  1  0.91126000  0.33295900  0.84659300  1
  O  O39  1  0.42169900  0.08874000  0.84659300  1
  O  O40  1  0.91126000  0.33295900  0.65340700  1
  O  O41  1  0.42169900  0.08874000  0.65340700  1
  O  O42  1  0.42169900  0.33295900  0.34659300  1
  O  O43  1  0.66704100  0.57830100  0.65340700  1
  O  O44  1  0.33333300  0.66666700  0.16744200  1
  O  O45  1  0.33333300  0.66666700  0.33255800  1
  O  O46  1  0.33333300  0.66666700  0.83255800  1
  O  O47  1  0.33333300  0.66666700  0.66744200  1
  O  O48  1  0.00000000  0.00000000  0.13283100  1
  O  O49  1  0.00000000  0.00000000  0.36716900  1
  O  O50  1  0.00000000  0.00000000  0.86716900  1
  O  O51  1  0.00000000  0.00000000  0.63283100  1
  O  O52  1  0.04112600  0.29283700  0.25000000  1
  O  O53  1  0.25171000  0.95887400  0.25000000  1
