# generated using pymatgen
data_SrTl2Pd
_symmetry_space_group_name_H-M   'P 1'
_cell_length_a   6.00973961
_cell_length_b   6.00973961
_cell_length_c   8.45713100
_cell_angle_alpha   90.00000000
_cell_angle_beta   90.00000000
_cell_angle_gamma   135.54199519
_symmetry_Int_Tables_number   1
_chemical_formula_structural   SrTl2Pd
_chemical_formula_sum   'Sr2 Tl4 Pd2'
_cell_volume   213.93015610
_cell_formula_units_Z   2
loop_
 _symmetry_equiv_pos_site_id
 _symmetry_equiv_pos_as_xyz
  1  'x, y, z'
loop_
 _atom_site_type_symbol
 _atom_site_label
 _atom_site_symmetry_multiplicity
 _atom_site_fract_x
 _atom_site_fract_y
 _atom_site_fract_z
 _atom_site_occupancy
  Sr  Sr0  1  0.56512700  0.43487300  0.75000000  1
  Sr  Sr1  1  0.43487300  0.56512700  0.25000000  1
  Tl  Tl2  1  0.85234500  0.14765500  0.94912400  1
  Tl  Tl3  1  0.14765500  0.85234500  0.05087600  1
  Tl  Tl4  1  0.85234500  0.14765500  0.55087600  1
  Tl  Tl5  1  0.14765500  0.85234500  0.44912400  1
  Pd  Pd6  1  0.71924000  0.28076000  0.25000000  1
  Pd  Pd7  1  0.28076000  0.71924000  0.75000000  1
