# generated using pymatgen
data_KTaW2O9
_symmetry_space_group_name_H-M   'P 1'
_cell_length_a   3.90943000
_cell_length_b   13.03615031
_cell_length_c   13.05103650
_cell_angle_alpha   60.08794905
_cell_angle_beta   89.97222802
_cell_angle_gamma   89.97427961
_symmetry_Int_Tables_number   1
_chemical_formula_structural   KTaW2O9
_chemical_formula_sum   'K3 Ta3 W6 O27'
_cell_volume   576.53088518
_cell_formula_units_Z   3
loop_
 _symmetry_equiv_pos_site_id
 _symmetry_equiv_pos_as_xyz
  1  'x, y, z'
loop_
 _atom_site_type_symbol
 _atom_site_label
 _atom_site_symmetry_multiplicity
 _atom_site_fract_x
 _atom_site_fract_y
 _atom_site_fract_z
 _atom_site_occupancy
  K  K0  1  0.99457300  0.82846000  0.82182900  1
  K  K1  1  0.99484800  0.17627400  0.17642400  1
  K  K2  1  0.81553300  0.49880300  0.50023800  1
  Ta  Ta3  1  0.46550300  0.66483700  0.66683100  1
  Ta  Ta4  1  0.46555900  0.33372100  0.33908500  1
  Ta  Ta5  1  0.43904100  0.16616400  0.66597100  1
  W  W6  1  0.48736000  0.00036200  0.50085800  1
  W  W7  1  0.48587300  0.49932300  0.00128300  1
  W  W8  1  0.49053500  0.00122100  0.99965900  1
  W  W9  1  0.42525000  0.83436100  0.33378000  1
  W  W10  1  0.42341000  0.33251700  0.83435600  1
  W  W11  1  0.42538300  0.66826900  0.16495500  1
  O  O12  1  0.45864200  0.83458700  0.61860800  1
  O  O13  1  0.45873200  0.16435300  0.37834300  1
  O  O14  1  0.45852400  0.38109600  0.16264900  1
  O  O15  1  0.45861800  0.62245900  0.83483900  1
  O  O16  1  0.95358600  0.15644400  0.66922900  1
  O  O17  1  0.95082400  0.83560900  0.32956200  1
  O  O18  1  0.95010700  0.32883200  0.84218600  1
  O  O19  1  0.95164600  0.67194600  0.16074500  1
  O  O20  1  0.96308500  0.99929300  0.49593600  1
  O  O21  1  0.96261100  0.50268100  0.99835400  1
  O  O22  1  0.45652000  0.03607400  0.62412000  1
  O  O23  1  0.45541300  0.95652100  0.37485500  1
  O  O24  1  0.45640100  0.37719600  0.95816000  1
  O  O25  1  0.45666200  0.62585400  0.04152600  1
  O  O26  1  0.95878200  0.66028600  0.66127200  1
  O  O27  1  0.95886600  0.33860900  0.33099900  1
  O  O28  1  0.45705700  0.70950700  0.49242400  1
  O  O29  1  0.45676400  0.29768500  0.50272100  1
  O  O30  1  0.45792500  0.50853100  0.28688900  1
  O  O31  1  0.45656800  0.49172600  0.71216500  1
  O  O32  1  0.45896900  0.28457700  0.71958500  1
  O  O33  1  0.46008400  0.71506200  0.28381800  1
  O  O34  1  0.45935800  0.04085200  0.83992100  1
  O  O35  1  0.45788900  0.95602900  0.16716100  1
  O  O36  1  0.45852500  0.16526100  0.96107200  1
  O  O37  1  0.45994000  0.83500000  0.04322700  1
  O  O38  1  0.96483400  0.99961800  0.00436700  1
