# generated using pymatgen
data_Rb4Mn(AsS4)2
_symmetry_space_group_name_H-M   'P 1'
_cell_length_a   9.20840900
_cell_length_b   9.36835095
_cell_length_c   11.36936235
_cell_angle_alpha   105.92569373
_cell_angle_beta   104.27536975
_cell_angle_gamma   92.15959081
_symmetry_Int_Tables_number   1
_chemical_formula_structural   Rb4Mn(AsS4)2
_chemical_formula_sum   'Rb8 Mn2 As4 S16'
_cell_volume   908.18115209
_cell_formula_units_Z   2
loop_
 _symmetry_equiv_pos_site_id
 _symmetry_equiv_pos_as_xyz
  1  'x, y, z'
loop_
 _atom_site_type_symbol
 _atom_site_label
 _atom_site_symmetry_multiplicity
 _atom_site_fract_x
 _atom_site_fract_y
 _atom_site_fract_z
 _atom_site_occupancy
  Rb  Rb0  1  0.43582700  0.51863900  0.75225000  1
  Rb  Rb1  1  0.56417300  0.48136100  0.24775000  1
  Rb  Rb2  1  0.26395300  0.98344400  0.96100900  1
  Rb  Rb3  1  0.73604700  0.01655600  0.03899100  1
  Rb  Rb4  1  0.10243200  0.73966200  0.52042000  1
  Rb  Rb5  1  0.89756800  0.26033800  0.47958000  1
  Rb  Rb6  1  0.88927500  0.31744000  0.87103400  1
  Rb  Rb7  1  0.11072500  0.68256000  0.12896600  1
  Mn  Mn8  1  0.65084800  0.86098100  0.57288900  1
  Mn  Mn9  1  0.34915200  0.13901900  0.42711100  1
  As  As10  1  0.45281100  0.11185100  0.72672000  1
  As  As11  1  0.54718900  0.88814900  0.27328000  1
  As  As12  1  0.86794400  0.68752900  0.75562100  1
  As  As13  1  0.13205600  0.31247100  0.24437900  1
  S  S14  1  0.51438200  0.25946500  0.91748100  1
  S  S15  1  0.48561800  0.74053500  0.08251900  1
  S  S16  1  0.47504700  0.87931800  0.72499400  1
  S  S17  1  0.52495300  0.12068200  0.27500600  1
  S  S18  1  0.23054000  0.13349100  0.61142500  1
  S  S19  1  0.76946000  0.86650900  0.38857500  1
  S  S20  1  0.90306700  0.92279900  0.75212900  1
  S  S21  1  0.09693300  0.07720100  0.24787100  1
  S  S22  1  0.07308100  0.57961000  0.75838900  1
  S  S23  1  0.92691900  0.42039000  0.24161100  1
  S  S24  1  0.60073200  0.16416800  0.61380500  1
  S  S25  1  0.39926800  0.83583200  0.38619500  1
  S  S26  1  0.78728000  0.66818500  0.91478200  1
  S  S27  1  0.21272000  0.33181500  0.08521800  1
  S  S28  1  0.69155600  0.59017400  0.57620100  1
  S  S29  1  0.30844400  0.40982600  0.42379900  1
