# generated using pymatgen
data_Sr2ReN3
_symmetry_space_group_name_H-M   'P 1'
_cell_length_a   6.31863350
_cell_length_b   6.31863350
_cell_length_c   12.57863990
_cell_angle_alpha   87.55220788
_cell_angle_beta   87.55220788
_cell_angle_gamma   128.40998696
_symmetry_Int_Tables_number   1
_chemical_formula_structural   Sr2ReN3
_chemical_formula_sum   'Sr8 Re4 N12'
_cell_volume   391.61952139
_cell_formula_units_Z   4
loop_
 _symmetry_equiv_pos_site_id
 _symmetry_equiv_pos_as_xyz
  1  'x, y, z'
loop_
 _atom_site_type_symbol
 _atom_site_label
 _atom_site_symmetry_multiplicity
 _atom_site_fract_x
 _atom_site_fract_y
 _atom_site_fract_z
 _atom_site_occupancy
  Sr  Sr0  1  0.97962600  0.58032700  0.35652700  1
  Sr  Sr1  1  0.41967300  0.02037400  0.14347300  1
  Sr  Sr2  1  0.02037400  0.41967300  0.64347300  1
  Sr  Sr3  1  0.58032700  0.97962600  0.85652700  1
  Sr  Sr4  1  0.12449300  0.34616500  0.07585400  1
  Sr  Sr5  1  0.65383500  0.87550700  0.42414600  1
  Sr  Sr6  1  0.87550700  0.65383500  0.92414600  1
  Sr  Sr7  1  0.34616500  0.12449300  0.57585400  1
  Re  Re8  1  0.71467700  0.70688100  0.17304800  1
  Re  Re9  1  0.29311900  0.28532300  0.32695200  1
  Re  Re10  1  0.28532300  0.29311900  0.82695200  1
  Re  Re11  1  0.70688100  0.71467700  0.67304800  1
  N  N12  1  0.37427400  0.62572600  0.25000000  1
  N  N13  1  0.62572600  0.37427400  0.75000000  1
  N  N14  1  0.86328600  0.54035500  0.12870100  1
  N  N15  1  0.45964500  0.13671400  0.37129900  1
  N  N16  1  0.13671400  0.45964500  0.87129900  1
  N  N17  1  0.54035500  0.86328600  0.62870100  1
  N  N18  1  0.82579700  0.65380900  0.54833200  1
  N  N19  1  0.34619100  0.17420300  0.95166800  1
  N  N20  1  0.17420300  0.34619100  0.45166800  1
  N  N21  1  0.65380900  0.82579700  0.04833200  1
  N  N22  1  0.00212900  0.99787100  0.25000000  1
  N  N23  1  0.99787100  0.00212900  0.75000000  1
