# generated using pymatgen
data_Mg5Nb(BO4)3
_symmetry_space_group_name_H-M   'P 1'
_cell_length_a   9.43298400
_cell_length_b   9.47318000
_cell_length_c   9.56623800
_cell_angle_alpha   90.00000000
_cell_angle_beta   90.00000000
_cell_angle_gamma   90.00000000
_symmetry_Int_Tables_number   1
_chemical_formula_structural   Mg5Nb(BO4)3
_chemical_formula_sum   'Mg20 Nb4 B12 O48'
_cell_volume   854.84242723
_cell_formula_units_Z   4
loop_
 _symmetry_equiv_pos_site_id
 _symmetry_equiv_pos_as_xyz
  1  'x, y, z'
loop_
 _atom_site_type_symbol
 _atom_site_label
 _atom_site_symmetry_multiplicity
 _atom_site_fract_x
 _atom_site_fract_y
 _atom_site_fract_z
 _atom_site_occupancy
  Mg  Mg0  1  0.42734600  0.62542700  0.58427300  1
  Mg  Mg1  1  0.07265400  0.12542700  0.91572700  1
  Mg  Mg2  1  0.57265400  0.37457300  0.08427300  1
  Mg  Mg3  1  0.92734600  0.87457300  0.41572700  1
  Mg  Mg4  1  0.57265400  0.37457300  0.41572700  1
  Mg  Mg5  1  0.92734600  0.87457300  0.08427300  1
  Mg  Mg6  1  0.42734600  0.62542700  0.91572700  1
  Mg  Mg7  1  0.07265400  0.12542700  0.58427300  1
  Mg  Mg8  1  0.32124500  0.90171200  0.07595600  1
  Mg  Mg9  1  0.17875500  0.40171200  0.42404400  1
  Mg  Mg10  1  0.67875500  0.09828800  0.57595600  1
  Mg  Mg11  1  0.82124500  0.59828800  0.92404400  1
  Mg  Mg12  1  0.67875500  0.09828800  0.92404400  1
  Mg  Mg13  1  0.82124500  0.59828800  0.57595600  1
  Mg  Mg14  1  0.32124500  0.90171200  0.42404400  1
  Mg  Mg15  1  0.17875500  0.40171200  0.07595600  1
  Mg  Mg16  1  0.80860500  0.60149400  0.25000000  1
  Mg  Mg17  1  0.69139500  0.10149400  0.25000000  1
  Mg  Mg18  1  0.19139500  0.39850600  0.75000000  1
  Mg  Mg19  1  0.30860500  0.89850600  0.75000000  1
  Nb  Nb20  1  0.41265300  0.59756300  0.25000000  1
  Nb  Nb21  1  0.08734700  0.09756300  0.25000000  1
  Nb  Nb22  1  0.58734700  0.40243700  0.75000000  1
  Nb  Nb23  1  0.91265300  0.90243700  0.75000000  1
  B  B24  1  0.12938000  0.67819800  0.25000000  1
  B  B25  1  0.37062000  0.17819800  0.25000000  1
  B  B26  1  0.87062000  0.32180200  0.75000000  1
  B  B27  1  0.62938000  0.82180200  0.75000000  1
  B  B28  1  0.12652900  0.67311600  0.58850900  1
  B  B29  1  0.37347100  0.17311600  0.91149100  1
  B  B30  1  0.87347100  0.32688400  0.08850900  1
  B  B31  1  0.62652900  0.82688400  0.41149100  1
  B  B32  1  0.87347100  0.32688400  0.41149100  1
  B  B33  1  0.62652900  0.82688400  0.08850900  1
  B  B34  1  0.12652900  0.67311600  0.91149100  1
  B  B35  1  0.37347100  0.17311600  0.58850900  1
  O  O36  1  0.15989500  0.53592700  0.25000000  1
  O  O37  1  0.34010500  0.03592700  0.25000000  1
  O  O38  1  0.84010500  0.46407300  0.75000000  1
  O  O39  1  0.65989500  0.96407300  0.75000000  1
  O  O40  1  0.99715000  0.73593600  0.25000000  1
  O  O41  1  0.50285000  0.23593600  0.25000000  1
  O  O42  1  0.00285000  0.26406400  0.75000000  1
  O  O43  1  0.49715000  0.76406400  0.75000000  1
  O  O44  1  0.25457200  0.76147900  0.25000000  1
  O  O45  1  0.24542800  0.26147900  0.25000000  1
  O  O46  1  0.74542800  0.23852100  0.75000000  1
  O  O47  1  0.75457200  0.73852100  0.75000000  1
  O  O48  1  0.13052100  0.52891300  0.58827000  1
  O  O49  1  0.36947900  0.02891300  0.91173000  1
  O  O50  1  0.86947900  0.47108700  0.08827000  1
  O  O51  1  0.63052100  0.97108700  0.41173000  1
  O  O52  1  0.86947900  0.47108700  0.41173000  1
  O  O53  1  0.63052100  0.97108700  0.08827000  1
  O  O54  1  0.13052100  0.52891300  0.91173000  1
  O  O55  1  0.36947900  0.02891300  0.58827000  1
  O  O56  1  0.25075500  0.75250300  0.58352700  1
  O  O57  1  0.24924500  0.25250300  0.91647300  1
  O  O58  1  0.74924500  0.24749700  0.08352700  1
  O  O59  1  0.75075500  0.74749700  0.41647300  1
  O  O60  1  0.74924500  0.24749700  0.41647300  1
  O  O61  1  0.75075500  0.74749700  0.08352700  1
  O  O62  1  0.25075500  0.75250300  0.91647300  1
  O  O63  1  0.24924500  0.25250300  0.58352700  1
  O  O64  1  0.49301200  0.75863100  0.09167900  1
  O  O65  1  0.00698800  0.25863100  0.40832100  1
  O  O66  1  0.50698800  0.24136900  0.59167900  1
  O  O67  1  0.99301200  0.74136900  0.90832100  1
  O  O68  1  0.50698800  0.24136900  0.90832100  1
  O  O69  1  0.99301200  0.74136900  0.59167900  1
  O  O70  1  0.49301200  0.75863100  0.40832100  1
  O  O71  1  0.00698800  0.25863100  0.09167900  1
  O  O72  1  0.89587400  0.02011500  0.25000000  1
  O  O73  1  0.60412600  0.52011500  0.25000000  1
  O  O74  1  0.10412600  0.97988500  0.75000000  1
  O  O75  1  0.39587400  0.47988500  0.75000000  1
  O  O76  1  0.11911000  0.99080500  0.08334600  1
  O  O77  1  0.38089000  0.49080500  0.41665400  1
  O  O78  1  0.88089000  0.00919500  0.58334600  1
  O  O79  1  0.61911000  0.50919500  0.91665400  1
  O  O80  1  0.88089000  0.00919500  0.91665400  1
  O  O81  1  0.61911000  0.50919500  0.58334600  1
  O  O82  1  0.11911000  0.99080500  0.41665400  1
  O  O83  1  0.38089000  0.49080500  0.08334600  1
