# generated using pymatgen
data_Rh2S3
_symmetry_space_group_name_H-M   'P 1'
_cell_length_a   6.05461300
_cell_length_b   6.20018800
_cell_length_c   8.56174000
_cell_angle_alpha   90.00000000
_cell_angle_beta   90.00000000
_cell_angle_gamma   90.00000000
_symmetry_Int_Tables_number   1
_chemical_formula_structural   Rh2S3
_chemical_formula_sum   'Rh8 S12'
_cell_volume   321.40548385
_cell_formula_units_Z   4
loop_
 _symmetry_equiv_pos_site_id
 _symmetry_equiv_pos_as_xyz
  1  'x, y, z'
loop_
 _atom_site_type_symbol
 _atom_site_label
 _atom_site_symmetry_multiplicity
 _atom_site_fract_x
 _atom_site_fract_y
 _atom_site_fract_z
 _atom_site_occupancy
  Rh  Rh0  1  0.75148300  0.03212000  0.39287200  1
  Rh  Rh1  1  0.75148300  0.46788000  0.60712800  1
  Rh  Rh2  1  0.74851700  0.53212000  0.10712800  1
  Rh  Rh3  1  0.74851700  0.96788000  0.89287200  1
  Rh  Rh4  1  0.24851700  0.96788000  0.60712800  1
  Rh  Rh5  1  0.24851700  0.53212000  0.39287200  1
  Rh  Rh6  1  0.25148300  0.46788000  0.89287200  1
  Rh  Rh7  1  0.25148300  0.03212000  0.10712800  1
  S  S8  1  0.45351200  0.25000000  0.50000000  1
  S  S9  1  0.04648800  0.75000000  0.00000000  1
  S  S10  1  0.54648800  0.75000000  0.50000000  1
  S  S11  1  0.95351200  0.25000000  0.00000000  1
  S  S12  1  0.89038000  0.39329000  0.34886000  1
  S  S13  1  0.89038000  0.10671000  0.65114000  1
  S  S14  1  0.60962000  0.89329000  0.15114000  1
  S  S15  1  0.60962000  0.60671000  0.84886000  1
  S  S16  1  0.39038000  0.39329000  0.15114000  1
  S  S17  1  0.39038000  0.10671000  0.84886000  1
  S  S18  1  0.10962000  0.89329000  0.34886000  1
  S  S19  1  0.10962000  0.60671000  0.65114000  1
