# generated using pymatgen
data_BaBe2(PO4)2
_symmetry_space_group_name_H-M   'P 1'
_cell_length_a   5.10920224
_cell_length_b   5.10920224
_cell_length_c   7.50023900
_cell_angle_alpha   90.00000000
_cell_angle_beta   90.00000000
_cell_angle_gamma   120.00000308
_symmetry_Int_Tables_number   1
_chemical_formula_structural   BaBe2(PO4)2
_chemical_formula_sum   'Ba1 Be2 P2 O8'
_cell_volume   169.55551035
_cell_formula_units_Z   1
loop_
 _symmetry_equiv_pos_site_id
 _symmetry_equiv_pos_as_xyz
  1  'x, y, z'
loop_
 _atom_site_type_symbol
 _atom_site_label
 _atom_site_symmetry_multiplicity
 _atom_site_fract_x
 _atom_site_fract_y
 _atom_site_fract_z
 _atom_site_occupancy
  Ba  Ba0  1  0.00000000  0.00000000  0.00000000  1
  Be  Be1  1  0.66666700  0.33333300  0.29751900  1
  Be  Be2  1  0.33333300  0.66666700  0.70248100  1
  P  P3  1  0.33333300  0.66666700  0.29202700  1
  P  P4  1  0.66666700  0.33333300  0.70797300  1
  O  O5  1  0.66666700  0.33333300  0.50762300  1
  O  O6  1  0.33333300  0.66666700  0.49237700  1
  O  O7  1  0.49579700  0.99159500  0.21160000  1
  O  O8  1  0.00840500  0.50420300  0.21160000  1
  O  O9  1  0.49579700  0.50420300  0.21160000  1
  O  O10  1  0.50420300  0.00840500  0.78840000  1
  O  O11  1  0.99159500  0.49579700  0.78840000  1
  O  O12  1  0.50420300  0.49579700  0.78840000  1
