# generated using pymatgen
data_Er5BiPd2
_symmetry_space_group_name_H-M   'P 1'
_cell_length_a   8.82074611
_cell_length_b   8.82074611
_cell_length_c   8.82074611
_cell_angle_alpha   127.91798237
_cell_angle_beta   127.91798237
_cell_angle_gamma   76.75793108
_symmetry_Int_Tables_number   1
_chemical_formula_structural   Er5BiPd2
_chemical_formula_sum   'Er10 Bi2 Pd4'
_cell_volume   414.76863291
_cell_formula_units_Z   2
loop_
 _symmetry_equiv_pos_site_id
 _symmetry_equiv_pos_as_xyz
  1  'x, y, z'
loop_
 _atom_site_type_symbol
 _atom_site_label
 _atom_site_symmetry_multiplicity
 _atom_site_fract_x
 _atom_site_fract_y
 _atom_site_fract_z
 _atom_site_occupancy
  Er  Er0  1  0.00000000  0.00000000  0.00000000  1
  Er  Er1  1  0.50000000  0.50000000  0.00000000  1
  Er  Er2  1  0.79456000  0.29456000  0.81146100  1
  Er  Er3  1  0.20544000  0.70544000  0.18853900  1
  Er  Er4  1  0.48309900  0.98309900  0.18853900  1
  Er  Er5  1  0.29456000  0.48309900  0.50000000  1
  Er  Er6  1  0.01690100  0.20544000  0.50000000  1
  Er  Er7  1  0.51690100  0.01690100  0.81146100  1
  Er  Er8  1  0.70544000  0.51690100  0.50000000  1
  Er  Er9  1  0.98309900  0.79456000  0.50000000  1
  Bi  Bi10  1  0.25000000  0.25000000  0.00000000  1
  Bi  Bi11  1  0.75000000  0.75000000  0.00000000  1
  Pd  Pd12  1  0.13815600  0.63815600  0.77631200  1
  Pd  Pd13  1  0.86184400  0.36184400  0.22368800  1
  Pd  Pd14  1  0.63815600  0.86184400  0.50000000  1
  Pd  Pd15  1  0.36184400  0.13815600  0.50000000  1
