# generated using pymatgen
data_Nb3(Ni10B3)2
_symmetry_space_group_name_H-M   'P 1'
_cell_length_a   7.48710823
_cell_length_b   7.48710823
_cell_length_c   7.48710823
_cell_angle_alpha   60.00000000
_cell_angle_beta   60.00000000
_cell_angle_gamma   60.00000000
_symmetry_Int_Tables_number   1
_chemical_formula_structural   Nb3(Ni10B3)2
_chemical_formula_sum   'Nb3 Ni20 B6'
_cell_volume   296.77501480
_cell_formula_units_Z   1
loop_
 _symmetry_equiv_pos_site_id
 _symmetry_equiv_pos_as_xyz
  1  'x, y, z'
loop_
 _atom_site_type_symbol
 _atom_site_label
 _atom_site_symmetry_multiplicity
 _atom_site_fract_x
 _atom_site_fract_y
 _atom_site_fract_z
 _atom_site_occupancy
  Nb  Nb0  1  0.25000000  0.25000000  0.25000000  1
  Nb  Nb1  1  0.75000000  0.75000000  0.75000000  1
  Nb  Nb2  1  0.00000000  0.00000000  0.00000000  1
  Ni  Ni3  1  0.38461200  0.38461200  0.38461200  1
  Ni  Ni4  1  0.61538800  0.61538800  0.61538800  1
  Ni  Ni5  1  0.38461200  0.38461200  0.84616400  1
  Ni  Ni6  1  0.38461200  0.84616400  0.38461200  1
  Ni  Ni7  1  0.61538800  0.61538800  0.15383600  1
  Ni  Ni8  1  0.61538800  0.15383600  0.61538800  1
  Ni  Ni9  1  0.84616400  0.38461200  0.38461200  1
  Ni  Ni10  1  0.15383600  0.61538800  0.61538800  1
  Ni  Ni11  1  0.34344900  0.00000000  0.00000000  1
  Ni  Ni12  1  0.65655100  0.00000000  0.00000000  1
  Ni  Ni13  1  0.00000000  0.34344900  0.65655100  1
  Ni  Ni14  1  0.00000000  0.65655100  0.34344900  1
  Ni  Ni15  1  0.00000000  0.34344900  0.00000000  1
  Ni  Ni16  1  0.65655100  0.00000000  0.34344900  1
  Ni  Ni17  1  0.00000000  0.65655100  0.00000000  1
  Ni  Ni18  1  0.34344900  0.00000000  0.65655100  1
  Ni  Ni19  1  0.00000000  0.00000000  0.34344900  1
  Ni  Ni20  1  0.00000000  0.00000000  0.65655100  1
  Ni  Ni21  1  0.65655100  0.34344900  0.00000000  1
  Ni  Ni22  1  0.34344900  0.65655100  0.00000000  1
  B  B23  1  0.73247600  0.26752400  0.26752400  1
  B  B24  1  0.26752400  0.73247600  0.73247600  1
  B  B25  1  0.26752400  0.73247600  0.26752400  1
  B  B26  1  0.73247600  0.26752400  0.73247600  1
  B  B27  1  0.26752400  0.26752400  0.73247600  1
  B  B28  1  0.73247600  0.73247600  0.26752400  1
