# generated using pymatgen
data_NbPt3
_symmetry_space_group_name_H-M   'P 1'
_cell_length_a   4.63036100
_cell_length_b   4.94905400
_cell_length_c   5.60751200
_cell_angle_alpha   90.00000000
_cell_angle_beta   90.00000000
_cell_angle_gamma   90.00000000
_symmetry_Int_Tables_number   1
_chemical_formula_structural   NbPt3
_chemical_formula_sum   'Nb2 Pt6'
_cell_volume   128.50122141
_cell_formula_units_Z   2
loop_
 _symmetry_equiv_pos_site_id
 _symmetry_equiv_pos_as_xyz
  1  'x, y, z'
loop_
 _atom_site_type_symbol
 _atom_site_label
 _atom_site_symmetry_multiplicity
 _atom_site_fract_x
 _atom_site_fract_y
 _atom_site_fract_z
 _atom_site_occupancy
  Nb  Nb0  1  0.50000000  0.65641300  0.50000000  1
  Nb  Nb1  1  0.00000000  0.34358700  0.00000000  1
  Pt  Pt2  1  0.50000000  0.16487100  0.75047800  1
  Pt  Pt3  1  0.50000000  0.16487100  0.24952200  1
  Pt  Pt4  1  0.00000000  0.83512900  0.74952200  1
  Pt  Pt5  1  0.00000000  0.83512900  0.25047800  1
  Pt  Pt6  1  0.00000000  0.34124400  0.50000000  1
  Pt  Pt7  1  0.50000000  0.65875600  0.00000000  1
