# generated using pymatgen
data_Rb(WO3)3
_symmetry_space_group_name_H-M   'P 1'
_cell_length_a   7.54730592
_cell_length_b   7.54730592
_cell_length_c   7.79446100
_cell_angle_alpha   90.00000000
_cell_angle_beta   90.00000000
_cell_angle_gamma   120.21596313
_symmetry_Int_Tables_number   1
_chemical_formula_structural   Rb(WO3)3
_chemical_formula_sum   'Rb2 W6 O18'
_cell_volume   383.66431083
_cell_formula_units_Z   2
loop_
 _symmetry_equiv_pos_site_id
 _symmetry_equiv_pos_as_xyz
  1  'x, y, z'
loop_
 _atom_site_type_symbol
 _atom_site_label
 _atom_site_symmetry_multiplicity
 _atom_site_fract_x
 _atom_site_fract_y
 _atom_site_fract_z
 _atom_site_occupancy
  Rb  Rb0  1  0.50000000  0.50000000  0.25000000  1
  Rb  Rb1  1  0.50000000  0.50000000  0.75000000  1
  W  W2  1  0.50000000  0.00000000  0.00000000  1
  W  W3  1  0.00000000  0.00000000  0.00000000  1
  W  W4  1  0.00000000  0.50000000  0.50000000  1
  W  W5  1  0.50000000  0.00000000  0.50000000  1
  W  W6  1  0.00000000  0.00000000  0.50000000  1
  W  W7  1  0.00000000  0.50000000  0.00000000  1
  O  O8  1  0.00000000  0.50000000  0.24102500  1
  O  O9  1  0.00000000  0.00000000  0.75000000  1
  O  O10  1  0.50000000  0.00000000  0.74102500  1
  O  O11  1  0.50000000  0.00000000  0.25897500  1
  O  O12  1  0.00000000  0.00000000  0.25000000  1
  O  O13  1  0.00000000  0.50000000  0.75897500  1
  O  O14  1  0.28902400  0.07876700  0.50000000  1
  O  O15  1  0.71008900  0.28901200  0.00000000  1
  O  O16  1  0.92123300  0.71097600  0.00000000  1
  O  O17  1  0.71097600  0.92123300  0.50000000  1
  O  O18  1  0.71098800  0.28991100  0.50000000  1
  O  O19  1  0.28991100  0.71098800  0.00000000  1
  O  O20  1  0.28461600  0.07928600  0.00000000  1
  O  O21  1  0.07876700  0.28902400  0.00000000  1
  O  O22  1  0.71538400  0.92071400  0.00000000  1
  O  O23  1  0.28901200  0.71008900  0.50000000  1
  O  O24  1  0.92071400  0.71538400  0.50000000  1
  O  O25  1  0.07928600  0.28461600  0.50000000  1
