# generated using pymatgen
data_TaPRu
_symmetry_space_group_name_H-M   'P 1'
_cell_length_a   3.73600500
_cell_length_b   6.33559600
_cell_length_c   7.20760800
_cell_angle_alpha   90.00000000
_cell_angle_beta   90.00000000
_cell_angle_gamma   90.00000000
_symmetry_Int_Tables_number   1
_chemical_formula_structural   TaPRu
_chemical_formula_sum   'Ta4 P4 Ru4'
_cell_volume   170.60277198
_cell_formula_units_Z   4
loop_
 _symmetry_equiv_pos_site_id
 _symmetry_equiv_pos_as_xyz
  1  'x, y, z'
loop_
 _atom_site_type_symbol
 _atom_site_label
 _atom_site_symmetry_multiplicity
 _atom_site_fract_x
 _atom_site_fract_y
 _atom_site_fract_z
 _atom_site_occupancy
  Ta  Ta0  1  0.25000000  0.02378000  0.82895800  1
  Ta  Ta1  1  0.25000000  0.52378000  0.67104200  1
  Ta  Ta2  1  0.75000000  0.97622000  0.17104200  1
  Ta  Ta3  1  0.75000000  0.47622000  0.32895800  1
  P  P4  1  0.25000000  0.76804500  0.37496800  1
  P  P5  1  0.25000000  0.26804500  0.12503200  1
  P  P6  1  0.75000000  0.23195500  0.62503200  1
  P  P7  1  0.75000000  0.73195500  0.87496800  1
  Ru  Ru8  1  0.25000000  0.14547000  0.43625300  1
  Ru  Ru9  1  0.25000000  0.64547000  0.06374700  1
  Ru  Ru10  1  0.75000000  0.85453000  0.56374700  1
  Ru  Ru11  1  0.75000000  0.35453000  0.93625300  1
