# generated using pymatgen
data_KBi3S5
_symmetry_space_group_name_H-M   'P 1'
_cell_length_a   4.11269600
_cell_length_b   16.98907500
_cell_length_c   17.47147800
_cell_angle_alpha   90.00000000
_cell_angle_beta   90.00000000
_cell_angle_gamma   90.00000000
_symmetry_Int_Tables_number   1
_chemical_formula_structural   KBi3S5
_chemical_formula_sum   'K4 Bi12 S20'
_cell_volume   1220.74790610
_cell_formula_units_Z   4
loop_
 _symmetry_equiv_pos_site_id
 _symmetry_equiv_pos_as_xyz
  1  'x, y, z'
loop_
 _atom_site_type_symbol
 _atom_site_label
 _atom_site_symmetry_multiplicity
 _atom_site_fract_x
 _atom_site_fract_y
 _atom_site_fract_z
 _atom_site_occupancy
  K  K0  1  0.25000000  0.50072500  0.29011000  1
  K  K1  1  0.25000000  0.00072500  0.20989000  1
  K  K2  1  0.75000000  0.49927500  0.70989000  1
  K  K3  1  0.75000000  0.99927500  0.79011000  1
  Bi  Bi4  1  0.75000000  0.08354900  0.43132900  1
  Bi  Bi5  1  0.75000000  0.58354900  0.06867100  1
  Bi  Bi6  1  0.25000000  0.91645100  0.56867100  1
  Bi  Bi7  1  0.25000000  0.41645100  0.93132900  1
  Bi  Bi8  1  0.75000000  0.34002600  0.12444700  1
  Bi  Bi9  1  0.75000000  0.84002600  0.37555300  1
  Bi  Bi10  1  0.25000000  0.65997400  0.87555300  1
  Bi  Bi11  1  0.25000000  0.15997400  0.62444700  1
  Bi  Bi12  1  0.25000000  0.23929000  0.29006500  1
  Bi  Bi13  1  0.25000000  0.73929000  0.20993500  1
  Bi  Bi14  1  0.75000000  0.76071000  0.70993500  1
  Bi  Bi15  1  0.75000000  0.26071000  0.79006500  1
  S  S16  1  0.25000000  0.18768200  0.46074200  1
  S  S17  1  0.25000000  0.68768200  0.03925800  1
  S  S18  1  0.75000000  0.81231800  0.53925800  1
  S  S19  1  0.75000000  0.31231800  0.96074200  1
  S  S20  1  0.25000000  0.96123800  0.40010600  1
  S  S21  1  0.25000000  0.46123800  0.09989400  1
  S  S22  1  0.75000000  0.03876200  0.59989400  1
  S  S23  1  0.75000000  0.53876200  0.90010600  1
  S  S24  1  0.25000000  0.23087000  0.13726500  1
  S  S25  1  0.25000000  0.73087000  0.36273500  1
  S  S26  1  0.75000000  0.76913000  0.86273500  1
  S  S27  1  0.75000000  0.26913000  0.63726500  1
  S  S28  1  0.75000000  0.35605800  0.28312300  1
  S  S29  1  0.75000000  0.85605800  0.21687700  1
  S  S30  1  0.25000000  0.64394200  0.71687700  1
  S  S31  1  0.25000000  0.14394200  0.78312300  1
  S  S32  1  0.75000000  0.12495600  0.28067300  1
  S  S33  1  0.75000000  0.62495600  0.21932700  1
  S  S34  1  0.25000000  0.87504400  0.71932700  1
  S  S35  1  0.25000000  0.37504400  0.78067300  1
