# generated using pymatgen
data_USnRh
_symmetry_space_group_name_H-M   'P 1'
_cell_length_a   7.36663521
_cell_length_b   7.36663521
_cell_length_c   4.07562800
_cell_angle_alpha   90.00000000
_cell_angle_beta   90.00000000
_cell_angle_gamma   119.99999287
_symmetry_Int_Tables_number   1
_chemical_formula_structural   USnRh
_chemical_formula_sum   'U3 Sn3 Rh3'
_cell_volume   191.54178424
_cell_formula_units_Z   3
loop_
 _symmetry_equiv_pos_site_id
 _symmetry_equiv_pos_as_xyz
  1  'x, y, z'
loop_
 _atom_site_type_symbol
 _atom_site_label
 _atom_site_symmetry_multiplicity
 _atom_site_fract_x
 _atom_site_fract_y
 _atom_site_fract_z
 _atom_site_occupancy
  U  U0  1  0.41887200  0.41887200  0.50000000  1
  U  U1  1  0.58112800  0.00000000  0.50000000  1
  U  U2  1  0.00000000  0.58112800  0.50000000  1
  Sn  Sn3  1  0.74836300  0.74836300  0.00000000  1
  Sn  Sn4  1  0.25163700  0.00000000  0.00000000  1
  Sn  Sn5  1  0.00000000  0.25163700  0.00000000  1
  Rh  Rh6  1  0.66666700  0.33333300  0.00000000  1
  Rh  Rh7  1  0.33333300  0.66666700  0.00000000  1
  Rh  Rh8  1  0.00000000  0.00000000  0.50000000  1
