# generated using pymatgen
data_Tb2AlNi2
_symmetry_space_group_name_H-M   'P 1'
_cell_length_a   5.44264133
_cell_length_b   5.44264133
_cell_length_c   5.44264133
_cell_angle_alpha   135.81333234
_cell_angle_beta   119.26888109
_cell_angle_gamma   78.11303599
_symmetry_Int_Tables_number   1
_chemical_formula_structural   Tb2AlNi2
_chemical_formula_sum   'Tb2 Al1 Ni2'
_cell_volume   95.21405113
_cell_formula_units_Z   1
loop_
 _symmetry_equiv_pos_site_id
 _symmetry_equiv_pos_as_xyz
  1  'x, y, z'
loop_
 _atom_site_type_symbol
 _atom_site_label
 _atom_site_symmetry_multiplicity
 _atom_site_fract_x
 _atom_site_fract_y
 _atom_site_fract_z
 _atom_site_occupancy
  Tb  Tb0  1  0.70578700  0.20578700  0.50000000  1
  Tb  Tb1  1  0.29421300  0.79421300  0.50000000  1
  Al  Al2  1  0.00000000  0.00000000  0.00000000  1
  Ni  Ni3  1  0.27423000  0.50000000  0.77423000  1
  Ni  Ni4  1  0.72577000  0.50000000  0.22577000  1
