# generated using pymatgen
data_DyCo3P2
_symmetry_space_group_name_H-M   'P 1'
_cell_length_a   3.69411700
_cell_length_b   10.52727700
_cell_length_c   12.15606400
_cell_angle_alpha   90.00000000
_cell_angle_beta   90.00000000
_cell_angle_gamma   90.00000000
_symmetry_Int_Tables_number   1
_chemical_formula_structural   DyCo3P2
_chemical_formula_sum   'Dy6 Co18 P12'
_cell_volume   472.73708695
_cell_formula_units_Z   6
loop_
 _symmetry_equiv_pos_site_id
 _symmetry_equiv_pos_as_xyz
  1  'x, y, z'
loop_
 _atom_site_type_symbol
 _atom_site_label
 _atom_site_symmetry_multiplicity
 _atom_site_fract_x
 _atom_site_fract_y
 _atom_site_fract_z
 _atom_site_occupancy
  Dy  Dy0  1  0.00000000  0.50000000  0.52357200  1
  Dy  Dy1  1  0.50000000  0.00000000  0.47642800  1
  Dy  Dy2  1  0.50000000  0.81667300  0.20574800  1
  Dy  Dy3  1  0.50000000  0.18332700  0.20574800  1
  Dy  Dy4  1  0.00000000  0.68332700  0.79425200  1
  Dy  Dy5  1  0.00000000  0.31667300  0.79425200  1
  Co  Co6  1  0.50000000  0.50000000  0.15906400  1
  Co  Co7  1  0.00000000  0.00000000  0.84093600  1
  Co  Co8  1  0.50000000  0.50000000  0.70295800  1
  Co  Co9  1  0.00000000  0.00000000  0.29704200  1
  Co  Co10  1  0.00000000  0.50000000  0.98565500  1
  Co  Co11  1  0.50000000  0.00000000  0.01434500  1
  Co  Co12  1  0.50000000  0.33301700  0.99398300  1
  Co  Co13  1  0.50000000  0.66698300  0.99398300  1
  Co  Co14  1  0.00000000  0.16698300  0.00601700  1
  Co  Co15  1  0.00000000  0.83301700  0.00601700  1
  Co  Co16  1  0.50000000  0.29661800  0.43114700  1
  Co  Co17  1  0.50000000  0.70338200  0.43114700  1
  Co  Co18  1  0.00000000  0.20338200  0.56885300  1
  Co  Co19  1  0.00000000  0.79661800  0.56885300  1
  Co  Co20  1  0.50000000  0.87934400  0.70858600  1
  Co  Co21  1  0.50000000  0.12065600  0.70858600  1
  Co  Co22  1  0.00000000  0.62065600  0.29141400  1
  Co  Co23  1  0.00000000  0.37934400  0.29141400  1
  P  P24  1  0.50000000  0.50000000  0.88243600  1
  P  P25  1  0.00000000  0.00000000  0.11756400  1
  P  P26  1  0.50000000  0.50000000  0.34461300  1
  P  P27  1  0.00000000  0.00000000  0.65538700  1
  P  P28  1  0.50000000  0.31020600  0.61605100  1
  P  P29  1  0.50000000  0.68979400  0.61605100  1
  P  P30  1  0.00000000  0.18979400  0.38394900  1
  P  P31  1  0.00000000  0.81020600  0.38394900  1
  P  P32  1  0.50000000  0.84844200  0.89323300  1
  P  P33  1  0.50000000  0.15155800  0.89323300  1
  P  P34  1  0.00000000  0.65155800  0.10676700  1
  P  P35  1  0.00000000  0.34844200  0.10676700  1
