# generated using pymatgen
data_Tb(AlCu)6
_symmetry_space_group_name_H-M   'P 1'
_cell_length_a   6.60974290
_cell_length_b   6.60974290
_cell_length_c   6.60974290
_cell_angle_alpha   134.83185226
_cell_angle_beta   99.14913045
_cell_angle_gamma   97.81452462
_symmetry_Int_Tables_number   1
_chemical_formula_structural   Tb(AlCu)6
_chemical_formula_sum   'Tb1 Al6 Cu6'
_cell_volume   189.06915923
_cell_formula_units_Z   1
loop_
 _symmetry_equiv_pos_site_id
 _symmetry_equiv_pos_as_xyz
  1  'x, y, z'
loop_
 _atom_site_type_symbol
 _atom_site_label
 _atom_site_symmetry_multiplicity
 _atom_site_fract_x
 _atom_site_fract_y
 _atom_site_fract_z
 _atom_site_occupancy
  Tb  Tb0  1  0.00000000  0.00000000  0.00000000  1
  Al  Al1  1  0.34916200  0.34916200  0.00000000  1
  Al  Al2  1  0.65083800  0.65083800  0.00000000  1
  Al  Al3  1  0.65351700  0.00000000  0.65351700  1
  Al  Al4  1  0.34648300  0.00000000  0.34648300  1
  Al  Al5  1  0.79435700  0.29435700  0.50000000  1
  Al  Al6  1  0.20564300  0.70564300  0.50000000  1
  Cu  Cu7  1  0.50000000  0.00000000  0.00000000  1
  Cu  Cu8  1  0.50000000  0.50000000  0.50000000  1
  Cu  Cu9  1  0.00000000  0.00000000  0.50000000  1
  Cu  Cu10  1  0.00000000  0.50000000  0.00000000  1
  Cu  Cu11  1  0.22689500  0.50000000  0.72689500  1
  Cu  Cu12  1  0.77310500  0.50000000  0.27310500  1
