# generated using pymatgen
data_Cs3H12N4F3
_symmetry_space_group_name_H-M   'P 1'
_cell_length_a   9.08133984
_cell_length_b   9.08133984
_cell_length_c   9.08133984
_cell_angle_alpha   109.47122063
_cell_angle_beta   109.47122063
_cell_angle_gamma   109.47122063
_symmetry_Int_Tables_number   1
_chemical_formula_structural   Cs3H12N4F3
_chemical_formula_sum   'Cs6 H24 N8 F6'
_cell_volume   576.53794146
_cell_formula_units_Z   2
loop_
 _symmetry_equiv_pos_site_id
 _symmetry_equiv_pos_as_xyz
  1  'x, y, z'
loop_
 _atom_site_type_symbol
 _atom_site_label
 _atom_site_symmetry_multiplicity
 _atom_site_fract_x
 _atom_site_fract_y
 _atom_site_fract_z
 _atom_site_occupancy
  Cs  Cs0  1  0.25000000  0.12500000  0.87500000  1
  Cs  Cs1  1  0.75000000  0.37500000  0.62500000  1
  Cs  Cs2  1  0.37500000  0.62500000  0.75000000  1
  Cs  Cs3  1  0.12500000  0.87500000  0.25000000  1
  Cs  Cs4  1  0.62500000  0.75000000  0.37500000  1
  Cs  Cs5  1  0.87500000  0.25000000  0.12500000  1
  H  H6  1  0.71237700  0.62699900  0.04439200  1
  H  H7  1  0.41739200  0.87300100  0.58537800  1
  H  H8  1  0.08260800  0.66798600  0.45560800  1
  H  H9  1  0.78762300  0.83201400  0.91462200  1
  H  H10  1  0.54439200  0.12699900  0.21237700  1
  H  H11  1  0.08537800  0.37300100  0.91739200  1
  H  H12  1  0.95560800  0.16798600  0.58260800  1
  H  H13  1  0.41462200  0.33201400  0.28762300  1
  H  H14  1  0.62699900  0.04439200  0.71237700  1
  H  H15  1  0.87300100  0.58537800  0.41739200  1
  H  H16  1  0.66798600  0.45560800  0.08260800  1
  H  H17  1  0.83201400  0.91462200  0.78762300  1
  H  H18  1  0.12699900  0.21237700  0.54439200  1
  H  H19  1  0.37300100  0.91739200  0.08537800  1
  H  H20  1  0.16798600  0.58260800  0.95560800  1
  H  H21  1  0.33201400  0.28762300  0.41462200  1
  H  H22  1  0.04439200  0.71237700  0.62699900  1
  H  H23  1  0.58537800  0.41739200  0.87300100  1
  H  H24  1  0.45560800  0.08260800  0.66798600  1
  H  H25  1  0.91462200  0.78762300  0.83201400  1
  H  H26  1  0.21237700  0.54439200  0.12699900  1
  H  H27  1  0.91739200  0.08537800  0.37300100  1
  H  H28  1  0.58260800  0.95560800  0.16798600  1
  H  H29  1  0.28762300  0.41462200  0.33201400  1
  N  N30  1  0.69840600  0.50000000  0.00000000  1
  N  N31  1  0.50000000  0.00000000  0.69840600  1
  N  N32  1  0.00000000  0.69840600  0.50000000  1
  N  N33  1  0.80159400  0.80159400  0.80159400  1
  N  N34  1  0.50000000  0.00000000  0.19840600  1
  N  N35  1  0.19840600  0.50000000  0.00000000  1
  N  N36  1  0.00000000  0.19840600  0.50000000  1
  N  N37  1  0.30159400  0.30159400  0.30159400  1
  F  F38  1  0.75000000  0.87500000  0.12500000  1
  F  F39  1  0.25000000  0.62500000  0.37500000  1
  F  F40  1  0.62500000  0.37500000  0.25000000  1
  F  F41  1  0.87500000  0.12500000  0.75000000  1
  F  F42  1  0.37500000  0.25000000  0.62500000  1
  F  F43  1  0.12500000  0.75000000  0.87500000  1
