# generated using pymatgen
data_NdCrSb3
_symmetry_space_group_name_H-M   'P 1'
_cell_length_a   6.10927900
_cell_length_b   6.24027000
_cell_length_c   13.17837100
_cell_angle_alpha   90.00000000
_cell_angle_beta   90.00000000
_cell_angle_gamma   90.00000000
_symmetry_Int_Tables_number   1
_chemical_formula_structural   NdCrSb3
_chemical_formula_sum   'Nd4 Cr4 Sb12'
_cell_volume   502.40629187
_cell_formula_units_Z   4
loop_
 _symmetry_equiv_pos_site_id
 _symmetry_equiv_pos_as_xyz
  1  'x, y, z'
loop_
 _atom_site_type_symbol
 _atom_site_label
 _atom_site_symmetry_multiplicity
 _atom_site_fract_x
 _atom_site_fract_y
 _atom_site_fract_z
 _atom_site_occupancy
  Nd  Nd0  1  0.25000000  0.50493400  0.30793200  1
  Nd  Nd1  1  0.75000000  0.49506600  0.69206800  1
  Nd  Nd2  1  0.25000000  0.00493400  0.69206800  1
  Nd  Nd3  1  0.75000000  0.99506600  0.30793200  1
  Cr  Cr4  1  0.00000000  0.75000000  0.90685100  1
  Cr  Cr5  1  0.00000000  0.25000000  0.09314900  1
  Cr  Cr6  1  0.50000000  0.25000000  0.09314900  1
  Cr  Cr7  1  0.50000000  0.75000000  0.90685100  1
  Sb  Sb8  1  0.00000000  0.75000000  0.50138500  1
  Sb  Sb9  1  0.00000000  0.25000000  0.49861500  1
  Sb  Sb10  1  0.50000000  0.25000000  0.49861500  1
  Sb  Sb11  1  0.50000000  0.75000000  0.50138500  1
  Sb  Sb12  1  0.25000000  0.59969800  0.06176800  1
  Sb  Sb13  1  0.75000000  0.40030200  0.93823200  1
  Sb  Sb14  1  0.25000000  0.09969800  0.93823200  1
  Sb  Sb15  1  0.75000000  0.90030200  0.06176800  1
  Sb  Sb16  1  0.25000000  0.99890800  0.21877100  1
  Sb  Sb17  1  0.75000000  0.00109200  0.78122900  1
  Sb  Sb18  1  0.25000000  0.49890800  0.78122900  1
  Sb  Sb19  1  0.75000000  0.50109200  0.21877100  1
