# generated using pymatgen
data_Ba3UIn2O9
_symmetry_space_group_name_H-M   'P 1'
_cell_length_a   10.57394676
_cell_length_b   10.57394676
_cell_length_c   10.57394676
_cell_angle_alpha   146.55580166
_cell_angle_beta   131.83773292
_cell_angle_gamma   59.90427135
_symmetry_Int_Tables_number   1
_chemical_formula_structural   Ba3UIn2O9
_chemical_formula_sum   'Ba6 U2 In4 O18'
_cell_volume   481.04780263
_cell_formula_units_Z   2
loop_
 _symmetry_equiv_pos_site_id
 _symmetry_equiv_pos_as_xyz
  1  'x, y, z'
loop_
 _atom_site_type_symbol
 _atom_site_label
 _atom_site_symmetry_multiplicity
 _atom_site_fract_x
 _atom_site_fract_y
 _atom_site_fract_z
 _atom_site_occupancy
  Ba  Ba0  1  0.77224400  0.50000000  0.27224400  1
  Ba  Ba1  1  0.39373100  0.15641300  0.23731700  1
  Ba  Ba2  1  0.08090400  0.84358700  0.23731700  1
  Ba  Ba3  1  0.22775600  0.50000000  0.72775600  1
  Ba  Ba4  1  0.91909600  0.15641300  0.76268300  1
  Ba  Ba5  1  0.60626900  0.84358700  0.76268300  1
  U  U6  1  0.66814100  0.66814100  0.00000000  1
  U  U7  1  0.33185900  0.33185900  0.00000000  1
  In  In8  1  0.50000000  0.00000000  0.50000000  1
  In  In9  1  0.16669000  0.66669000  0.50000000  1
  In  In10  1  0.83331000  0.33331000  0.50000000  1
  In  In11  1  0.00000000  0.00000000  0.00000000  1
  O  O12  1  0.74445500  0.00000000  0.74445500  1
  O  O13  1  0.42624800  0.66842800  0.75782000  1
  O  O14  1  0.08939100  0.33157200  0.75782000  1
  O  O15  1  0.58773700  0.83029900  0.24256200  1
  O  O16  1  0.25162300  0.49524900  0.24362500  1
  O  O17  1  0.91466200  0.16382100  0.24915900  1
  O  O18  1  0.41226300  0.65482500  0.24256200  1
  O  O19  1  0.08533800  0.33449700  0.24915900  1
  O  O20  1  0.74837700  0.99200200  0.24362500  1
  O  O21  1  0.25554500  0.00000000  0.25554500  1
  O  O22  1  0.91060900  0.66842800  0.24218000  1
  O  O23  1  0.57375200  0.33157200  0.24218000  1
  O  O24  1  0.41226300  0.16970100  0.75743800  1
  O  O25  1  0.08533800  0.83617900  0.75084100  1
  O  O26  1  0.74837700  0.50475100  0.75637500  1
  O  O27  1  0.58773700  0.34517500  0.75743800  1
  O  O28  1  0.25162300  0.00799800  0.75637500  1
  O  O29  1  0.91466200  0.66550300  0.75084100  1
