# generated using pymatgen
data_Ti3ZnN
_symmetry_space_group_name_H-M   'P 1'
_cell_length_a   5.57436033
_cell_length_b   5.57436033
_cell_length_c   8.34463700
_cell_angle_alpha   90.00000000
_cell_angle_beta   90.00000000
_cell_angle_gamma   147.92445861
_symmetry_Int_Tables_number   1
_chemical_formula_structural   Ti3ZnN
_chemical_formula_sum   'Ti6 Zn2 N2'
_cell_volume   137.69628794
_cell_formula_units_Z   2
loop_
 _symmetry_equiv_pos_site_id
 _symmetry_equiv_pos_as_xyz
  1  'x, y, z'
loop_
 _atom_site_type_symbol
 _atom_site_label
 _atom_site_symmetry_multiplicity
 _atom_site_fract_x
 _atom_site_fract_y
 _atom_site_fract_z
 _atom_site_occupancy
  Ti  Ti0  1  0.62443700  0.37556300  0.54188800  1
  Ti  Ti1  1  0.37556300  0.62443700  0.04188800  1
  Ti  Ti2  1  0.37556300  0.62443700  0.45811200  1
  Ti  Ti3  1  0.62443700  0.37556300  0.95811200  1
  Ti  Ti4  1  0.96211500  0.03788500  0.75000000  1
  Ti  Ti5  1  0.03788500  0.96211500  0.25000000  1
  Zn  Zn6  1  0.25440100  0.74559900  0.75000000  1
  Zn  Zn7  1  0.74559900  0.25440100  0.25000000  1
  N  N8  1  0.00000000  0.00000000  0.50000000  1
  N  N9  1  0.00000000  0.00000000  0.00000000  1
