# generated using pymatgen
data_SrTh2Se5
_symmetry_space_group_name_H-M   'P 1'
_cell_length_a   7.96907400
_cell_length_b   8.80346400
_cell_length_c   12.66900802
_cell_angle_alpha   89.99685233
_cell_angle_beta   90.00000000
_cell_angle_gamma   90.00000000
_symmetry_Int_Tables_number   1
_chemical_formula_structural   SrTh2Se5
_chemical_formula_sum   'Sr4 Th8 Se20'
_cell_volume   888.80003422
_cell_formula_units_Z   4
loop_
 _symmetry_equiv_pos_site_id
 _symmetry_equiv_pos_as_xyz
  1  'x, y, z'
loop_
 _atom_site_type_symbol
 _atom_site_label
 _atom_site_symmetry_multiplicity
 _atom_site_fract_x
 _atom_site_fract_y
 _atom_site_fract_z
 _atom_site_occupancy
  Sr  Sr0  1  0.96622700  0.50543700  0.82529500  1
  Sr  Sr1  1  0.46622700  0.49456300  0.67470500  1
  Sr  Sr2  1  0.03377300  0.49456300  0.17470500  1
  Sr  Sr3  1  0.53377300  0.50543700  0.32529500  1
  Th  Th4  1  0.57472300  0.25124000  0.00882500  1
  Th  Th5  1  0.92527700  0.25124000  0.50882500  1
  Th  Th6  1  0.42527700  0.74876000  0.99117500  1
  Th  Th7  1  0.07472300  0.74876000  0.49117500  1
  Th  Th8  1  0.51765000  0.00195200  0.32023600  1
  Th  Th9  1  0.01765000  0.99804800  0.17976400  1
  Th  Th10  1  0.48235000  0.99804800  0.67976400  1
  Th  Th11  1  0.98235000  0.00195200  0.82023600  1
  Se  Se12  1  0.83961700  0.95613900  0.60159000  1
  Se  Se13  1  0.82730300  0.77593400  0.31518500  1
  Se  Se14  1  0.67269700  0.77593400  0.81518500  1
  Se  Se15  1  0.17269700  0.22406600  0.68481500  1
  Se  Se16  1  0.54265800  0.22138900  0.50173700  1
  Se  Se17  1  0.04265800  0.77861100  0.99826300  1
  Se  Se18  1  0.45734200  0.77861100  0.49826300  1
  Se  Se19  1  0.95734200  0.22138900  0.00173700  1
  Se  Se20  1  0.19827700  0.76452500  0.71683600  1
  Se  Se21  1  0.69827700  0.23547500  0.78316400  1
  Se  Se22  1  0.80172300  0.23547500  0.28316400  1
  Se  Se23  1  0.66038300  0.95613900  0.10159000  1
  Se  Se24  1  0.82886600  0.54154000  0.58922500  1
  Se  Se25  1  0.32886600  0.45846000  0.91077500  1
  Se  Se26  1  0.17113400  0.45846000  0.41077500  1
  Se  Se27  1  0.67113400  0.54154000  0.08922500  1
  Se  Se28  1  0.30172300  0.76452500  0.21683600  1
  Se  Se29  1  0.33961700  0.04386100  0.89841000  1
  Se  Se30  1  0.16038300  0.04386100  0.39841000  1
  Se  Se31  1  0.32730300  0.22406600  0.18481500  1
