# generated using pymatgen
data_Be15(Nb3Ni4)2
_symmetry_space_group_name_H-M   'P 1'
_cell_length_a   7.58341476
_cell_length_b   7.58341476
_cell_length_c   7.58341476
_cell_angle_alpha   60.00000000
_cell_angle_beta   60.00000000
_cell_angle_gamma   60.00000000
_symmetry_Int_Tables_number   1
_chemical_formula_structural   Be15(Nb3Ni4)2
_chemical_formula_sum   'Be15 Nb6 Ni8'
_cell_volume   308.37519023
_cell_formula_units_Z   1
loop_
 _symmetry_equiv_pos_site_id
 _symmetry_equiv_pos_as_xyz
  1  'x, y, z'
loop_
 _atom_site_type_symbol
 _atom_site_label
 _atom_site_symmetry_multiplicity
 _atom_site_fract_x
 _atom_site_fract_y
 _atom_site_fract_z
 _atom_site_occupancy
  Be  Be0  1  0.32635500  0.32635500  0.32635500  1
  Be  Be1  1  0.67364500  0.67364500  0.67364500  1
  Be  Be2  1  0.32635500  0.32635500  0.02093600  1
  Be  Be3  1  0.32635500  0.02093600  0.32635500  1
  Be  Be4  1  0.67364500  0.67364500  0.97906400  1
  Be  Be5  1  0.67364500  0.97906400  0.67364500  1
  Be  Be6  1  0.02093600  0.32635500  0.32635500  1
  Be  Be7  1  0.97906400  0.67364500  0.67364500  1
  Be  Be8  1  0.50000000  0.00000000  0.00000000  1
  Be  Be9  1  0.00000000  0.50000000  0.50000000  1
  Be  Be10  1  0.00000000  0.50000000  0.00000000  1
  Be  Be11  1  0.50000000  0.00000000  0.50000000  1
  Be  Be12  1  0.00000000  0.00000000  0.50000000  1
  Be  Be13  1  0.50000000  0.50000000  0.00000000  1
  Be  Be14  1  0.00000000  0.00000000  0.00000000  1
  Nb  Nb15  1  0.70346700  0.29653300  0.29653300  1
  Nb  Nb16  1  0.29653300  0.70346700  0.70346700  1
  Nb  Nb17  1  0.29653300  0.70346700  0.29653300  1
  Nb  Nb18  1  0.70346700  0.29653300  0.70346700  1
  Nb  Nb19  1  0.29653300  0.29653300  0.70346700  1
  Nb  Nb20  1  0.70346700  0.70346700  0.29653300  1
  Ni  Ni21  1  0.12280800  0.12280800  0.12280800  1
  Ni  Ni22  1  0.87719200  0.87719200  0.87719200  1
  Ni  Ni23  1  0.12280800  0.12280800  0.63157600  1
  Ni  Ni24  1  0.12280800  0.63157600  0.12280800  1
  Ni  Ni25  1  0.87719200  0.87719200  0.36842400  1
  Ni  Ni26  1  0.87719200  0.36842400  0.87719200  1
  Ni  Ni27  1  0.63157600  0.12280800  0.12280800  1
  Ni  Ni28  1  0.36842400  0.87719200  0.87719200  1
