# generated using pymatgen
data_Lu3Fe2Si3
_symmetry_space_group_name_H-M   'P 1'
_cell_length_a   5.51782054
_cell_length_b   5.51782054
_cell_length_c   13.32083800
_cell_angle_alpha   90.00000000
_cell_angle_beta   90.00000000
_cell_angle_gamma   137.16035209
_symmetry_Int_Tables_number   1
_chemical_formula_structural   Lu3Fe2Si3
_chemical_formula_sum   'Lu6 Fe4 Si6'
_cell_volume   275.76741478
_cell_formula_units_Z   2
loop_
 _symmetry_equiv_pos_site_id
 _symmetry_equiv_pos_as_xyz
  1  'x, y, z'
loop_
 _atom_site_type_symbol
 _atom_site_label
 _atom_site_symmetry_multiplicity
 _atom_site_fract_x
 _atom_site_fract_y
 _atom_site_fract_z
 _atom_site_occupancy
  Lu  Lu0  1  0.63850800  0.36149200  0.25000000  1
  Lu  Lu1  1  0.36149200  0.63850800  0.75000000  1
  Lu  Lu2  1  0.92206500  0.07793500  0.11322100  1
  Lu  Lu3  1  0.07793500  0.92206500  0.88677900  1
  Lu  Lu4  1  0.07793500  0.92206500  0.61322100  1
  Lu  Lu5  1  0.92206500  0.07793500  0.38677900  1
  Fe  Fe6  1  0.78592800  0.21407200  0.58142300  1
  Fe  Fe7  1  0.21407200  0.78592800  0.41857700  1
  Fe  Fe8  1  0.21407200  0.78592800  0.08142300  1
  Fe  Fe9  1  0.78592800  0.21407200  0.91857700  1
  Si  Si10  1  0.32920700  0.67079300  0.25000000  1
  Si  Si11  1  0.67079300  0.32920700  0.75000000  1
  Si  Si12  1  0.62113000  0.37887000  0.03891700  1
  Si  Si13  1  0.37887000  0.62113000  0.96108300  1
  Si  Si14  1  0.37887000  0.62113000  0.53891700  1
  Si  Si15  1  0.62113000  0.37887000  0.46108300  1
