# generated using pymatgen
data_YAlPd
_symmetry_space_group_name_H-M   'P 1'
_cell_length_a   4.48680300
_cell_length_b   6.89859000
_cell_length_c   7.79697300
_cell_angle_alpha   90.00000000
_cell_angle_beta   90.00000000
_cell_angle_gamma   90.00000000
_symmetry_Int_Tables_number   1
_chemical_formula_structural   YAlPd
_chemical_formula_sum   'Y4 Al4 Pd4'
_cell_volume   241.33669804
_cell_formula_units_Z   4
loop_
 _symmetry_equiv_pos_site_id
 _symmetry_equiv_pos_as_xyz
  1  'x, y, z'
loop_
 _atom_site_type_symbol
 _atom_site_label
 _atom_site_symmetry_multiplicity
 _atom_site_fract_x
 _atom_site_fract_y
 _atom_site_fract_z
 _atom_site_occupancy
  Y  Y0  1  0.25000000  0.03308900  0.32029800  1
  Y  Y1  1  0.25000000  0.53308900  0.17970200  1
  Y  Y2  1  0.75000000  0.96691100  0.67970200  1
  Y  Y3  1  0.75000000  0.46691100  0.82029800  1
  Al  Al4  1  0.25000000  0.14560100  0.93949400  1
  Al  Al5  1  0.25000000  0.64560100  0.56050600  1
  Al  Al6  1  0.75000000  0.85439900  0.06050600  1
  Al  Al7  1  0.75000000  0.35439900  0.43949400  1
  Pd  Pd8  1  0.25000000  0.27378600  0.61991000  1
  Pd  Pd9  1  0.25000000  0.77378600  0.88009000  1
  Pd  Pd10  1  0.75000000  0.72621400  0.38009000  1
  Pd  Pd11  1  0.75000000  0.22621400  0.11991000  1
