# generated using pymatgen
data_Ca(ZnN)2
_symmetry_space_group_name_H-M   'P 1'
_cell_length_a   3.47922814
_cell_length_b   3.47922814
_cell_length_c   6.04689200
_cell_angle_alpha   90.00000000
_cell_angle_beta   90.00000000
_cell_angle_gamma   120.00000274
_symmetry_Int_Tables_number   1
_chemical_formula_structural   Ca(ZnN)2
_chemical_formula_sum   'Ca1 Zn2 N2'
_cell_volume   63.39115244
_cell_formula_units_Z   1
loop_
 _symmetry_equiv_pos_site_id
 _symmetry_equiv_pos_as_xyz
  1  'x, y, z'
loop_
 _atom_site_type_symbol
 _atom_site_label
 _atom_site_symmetry_multiplicity
 _atom_site_fract_x
 _atom_site_fract_y
 _atom_site_fract_z
 _atom_site_occupancy
  Ca  Ca0  1  0.00000000  0.00000000  0.50000000  1
  Zn  Zn1  1  0.66666700  0.33333300  0.13926100  1
  Zn  Zn2  1  0.33333300  0.66666700  0.86073900  1
  N  N3  1  0.66666700  0.33333300  0.75878000  1
  N  N4  1  0.33333300  0.66666700  0.24122000  1
