# generated using pymatgen
data_Nd6Si4Ni7
_symmetry_space_group_name_H-M   'P 1'
_cell_length_a   5.94537800
_cell_length_b   7.51714800
_cell_length_c   29.98988200
_cell_angle_alpha   90.00000000
_cell_angle_beta   90.00000000
_cell_angle_gamma   90.00000000
_symmetry_Int_Tables_number   1
_chemical_formula_structural   Nd6Si4Ni7
_chemical_formula_sum   'Nd24 Si16 Ni28'
_cell_volume   1340.31639371
_cell_formula_units_Z   4
loop_
 _symmetry_equiv_pos_site_id
 _symmetry_equiv_pos_as_xyz
  1  'x, y, z'
loop_
 _atom_site_type_symbol
 _atom_site_label
 _atom_site_symmetry_multiplicity
 _atom_site_fract_x
 _atom_site_fract_y
 _atom_site_fract_z
 _atom_site_occupancy
  Nd  Nd0  1  0.11342300  0.38280700  0.07928500  1
  Nd  Nd1  1  0.88657700  0.61719300  0.92071500  1
  Nd  Nd2  1  0.88657700  0.61719300  0.57928500  1
  Nd  Nd3  1  0.88657700  0.88280700  0.42071500  1
  Nd  Nd4  1  0.11342300  0.38280700  0.42071500  1
  Nd  Nd5  1  0.11342300  0.11719300  0.57928500  1
  Nd  Nd6  1  0.11342300  0.11719300  0.92071500  1
  Nd  Nd7  1  0.88657700  0.88280700  0.07928500  1
  Nd  Nd8  1  0.62267500  0.25000000  0.00000000  1
  Nd  Nd9  1  0.37732500  0.75000000  0.00000000  1
  Nd  Nd10  1  0.37732500  0.75000000  0.50000000  1
  Nd  Nd11  1  0.62267500  0.25000000  0.50000000  1
  Nd  Nd12  1  0.12680100  0.02021400  0.25000000  1
  Nd  Nd13  1  0.87319900  0.97978600  0.75000000  1
  Nd  Nd14  1  0.87319900  0.52021400  0.25000000  1
  Nd  Nd15  1  0.12680100  0.47978600  0.75000000  1
  Nd  Nd16  1  0.39352300  0.38880300  0.18169100  1
  Nd  Nd17  1  0.60647700  0.61119700  0.81830900  1
  Nd  Nd18  1  0.60647700  0.61119700  0.68169100  1
  Nd  Nd19  1  0.60647700  0.88880300  0.31830900  1
  Nd  Nd20  1  0.39352300  0.38880300  0.31830900  1
  Nd  Nd21  1  0.39352300  0.11119700  0.68169100  1
  Nd  Nd22  1  0.39352300  0.11119700  0.81830900  1
  Nd  Nd23  1  0.60647700  0.88880300  0.18169100  1
  Si  Si24  1  0.11123500  0.73084400  0.17309500  1
  Si  Si25  1  0.88876500  0.26915600  0.82690500  1
  Si  Si26  1  0.88876500  0.26915600  0.67309500  1
  Si  Si27  1  0.88876500  0.23084400  0.32690500  1
  Si  Si28  1  0.11123500  0.73084400  0.32690500  1
  Si  Si29  1  0.11123500  0.76915600  0.67309500  1
  Si  Si30  1  0.11123500  0.76915600  0.82690500  1
  Si  Si31  1  0.88876500  0.23084400  0.17309500  1
  Si  Si32  1  0.39206300  0.03704800  0.08253200  1
  Si  Si33  1  0.60793700  0.96295200  0.91746800  1
  Si  Si34  1  0.60793700  0.96295200  0.58253200  1
  Si  Si35  1  0.60793700  0.53704800  0.41746800  1
  Si  Si36  1  0.39206300  0.03704800  0.41746800  1
  Si  Si37  1  0.39206300  0.46295200  0.58253200  1
  Si  Si38  1  0.39206300  0.46295200  0.91746800  1
  Si  Si39  1  0.60793700  0.53704800  0.08253200  1
  Ni  Ni40  1  0.68528900  0.17558700  0.25000000  1
  Ni  Ni41  1  0.31471100  0.82441300  0.75000000  1
  Ni  Ni42  1  0.31471100  0.67558700  0.25000000  1
  Ni  Ni43  1  0.68528900  0.32441300  0.75000000  1
  Ni  Ni44  1  0.64668100  0.24275300  0.10982500  1
  Ni  Ni45  1  0.35331900  0.75724700  0.89017500  1
  Ni  Ni46  1  0.35331900  0.75724700  0.60982500  1
  Ni  Ni47  1  0.35331900  0.74275300  0.39017500  1
  Ni  Ni48  1  0.64668100  0.24275300  0.39017500  1
  Ni  Ni49  1  0.64668100  0.25724700  0.60982500  1
  Ni  Ni50  1  0.64668100  0.25724700  0.89017500  1
  Ni  Ni51  1  0.35331900  0.74275300  0.10982500  1
  Ni  Ni52  1  0.14927200  0.09429400  0.01835800  1
  Ni  Ni53  1  0.85072800  0.90570600  0.98164200  1
  Ni  Ni54  1  0.85072800  0.90570600  0.51835800  1
  Ni  Ni55  1  0.85072800  0.59429400  0.48164200  1
  Ni  Ni56  1  0.14927200  0.09429400  0.48164200  1
  Ni  Ni57  1  0.14927200  0.40570600  0.51835800  1
  Ni  Ni58  1  0.14927200  0.40570600  0.98164200  1
  Ni  Ni59  1  0.85072800  0.59429400  0.01835800  1
  Ni  Ni60  1  0.15922200  0.02974400  0.14806800  1
  Ni  Ni61  1  0.84077800  0.97025600  0.85193200  1
  Ni  Ni62  1  0.84077800  0.97025600  0.64806800  1
  Ni  Ni63  1  0.84077800  0.52974400  0.35193200  1
  Ni  Ni64  1  0.15922200  0.02974400  0.35193200  1
  Ni  Ni65  1  0.15922200  0.47025600  0.64806800  1
  Ni  Ni66  1  0.15922200  0.47025600  0.85193200  1
  Ni  Ni67  1  0.84077800  0.52974400  0.14806800  1
