# generated using pymatgen
data_Rb2Pd3Se4
_symmetry_space_group_name_H-M   'P 1'
_cell_length_a   15.18047755
_cell_length_b   14.44674554
_cell_length_c   6.53828501
_cell_angle_alpha   83.61443524
_cell_angle_beta   71.04287118
_cell_angle_gamma   25.34269358
_symmetry_Int_Tables_number   1
_chemical_formula_structural   Rb2Pd3Se4
_chemical_formula_sum   'Rb4 Pd6 Se8'
_cell_volume   518.21970532
_cell_formula_units_Z   2
loop_
 _symmetry_equiv_pos_site_id
 _symmetry_equiv_pos_as_xyz
  1  'x, y, z'
loop_
 _atom_site_type_symbol
 _atom_site_label
 _atom_site_symmetry_multiplicity
 _atom_site_fract_x
 _atom_site_fract_y
 _atom_site_fract_z
 _atom_site_occupancy
  Rb  Rb0  1  0.57438200  0.57438200  0.42561800  1
  Rb  Rb1  1  0.82438200  0.82438200  0.67561800  1
  Rb  Rb2  1  0.67561800  0.67561800  0.82438200  1
  Rb  Rb3  1  0.42561800  0.42561800  0.57438200  1
  Pd  Pd4  1  0.75059100  0.75059100  0.24940900  1
  Pd  Pd5  1  0.00059100  0.00059100  0.49940900  1
  Pd  Pd6  1  0.49940900  0.49940900  0.00059100  1
  Pd  Pd7  1  0.00000000  0.00000000  0.00000000  1
  Pd  Pd8  1  0.25000000  0.25000000  0.25000000  1
  Pd  Pd9  1  0.24940900  0.24940900  0.75059100  1
  Se  Se10  1  0.22787400  0.88826800  0.10410000  1
  Se  Se11  1  0.36173200  0.02212600  0.47024300  1
  Se  Se12  1  0.14590000  0.47024300  0.02212600  1
  Se  Se13  1  0.47024300  0.14590000  0.36173200  1
  Se  Se14  1  0.77975700  0.10410000  0.88826800  1
  Se  Se15  1  0.10410000  0.77975700  0.22787400  1
  Se  Se16  1  0.88826800  0.22787400  0.77975700  1
  Se  Se17  1  0.02212600  0.36173200  0.14590000  1
