# generated using pymatgen
data_BaAg(PO3)3
_symmetry_space_group_name_H-M   'P 1'
_cell_length_a   6.07215100
_cell_length_b   11.30994800
_cell_length_c   12.47107700
_cell_angle_alpha   90.00000000
_cell_angle_beta   90.00000000
_cell_angle_gamma   90.00000000
_symmetry_Int_Tables_number   1
_chemical_formula_structural   BaAg(PO3)3
_chemical_formula_sum   'Ba4 Ag4 P12 O36'
_cell_volume   856.46009311
_cell_formula_units_Z   4
loop_
 _symmetry_equiv_pos_site_id
 _symmetry_equiv_pos_as_xyz
  1  'x, y, z'
loop_
 _atom_site_type_symbol
 _atom_site_label
 _atom_site_symmetry_multiplicity
 _atom_site_fract_x
 _atom_site_fract_y
 _atom_site_fract_z
 _atom_site_occupancy
  Ba  Ba0  1  0.09761200  0.10875000  0.08076800  1
  Ba  Ba1  1  0.59761200  0.39125000  0.91923200  1
  Ba  Ba2  1  0.90238800  0.60875000  0.41923200  1
  Ba  Ba3  1  0.40238800  0.89125000  0.58076800  1
  Ag  Ag4  1  0.10311300  0.48332900  0.13358000  1
  Ag  Ag5  1  0.60311300  0.01667100  0.86642000  1
  Ag  Ag6  1  0.89688700  0.98332900  0.36642000  1
  Ag  Ag7  1  0.39688700  0.51667100  0.63358000  1
  P  P8  1  0.11047500  0.84710000  0.85629100  1
  P  P9  1  0.61047500  0.65290000  0.14370900  1
  P  P10  1  0.88952500  0.34710000  0.64370900  1
  P  P11  1  0.38952500  0.15290000  0.35629100  1
  P  P12  1  0.91349000  0.70728300  0.68564600  1
  P  P13  1  0.41349000  0.79271700  0.31435400  1
  P  P14  1  0.08651000  0.20728300  0.81435400  1
  P  P15  1  0.58651000  0.29271700  0.18564600  1
  P  P16  1  0.10866600  0.58753800  0.86830600  1
  P  P17  1  0.60866600  0.91246200  0.13169400  1
  P  P18  1  0.89133400  0.08753800  0.63169400  1
  P  P19  1  0.39133400  0.41246200  0.36830600  1
  O  O20  1  0.01357900  0.93546800  0.93169400  1
  O  O21  1  0.51357900  0.56453200  0.06830600  1
  O  O22  1  0.98642100  0.43546800  0.56830600  1
  O  O23  1  0.48642100  0.06453200  0.43169400  1
  O  O24  1  0.32593500  0.87038400  0.80082300  1
  O  O25  1  0.82593500  0.62961600  0.19917700  1
  O  O26  1  0.67406500  0.37038400  0.69917700  1
  O  O27  1  0.17406500  0.12961600  0.30082300  1
  O  O28  1  0.69418400  0.70401500  0.63028400  1
  O  O29  1  0.19418400  0.79598500  0.36971600  1
  O  O30  1  0.30581600  0.20401500  0.86971600  1
  O  O31  1  0.80581600  0.29598500  0.13028400  1
  O  O32  1  0.11332500  0.70371500  0.61311800  1
  O  O33  1  0.61332500  0.79628500  0.38688200  1
  O  O34  1  0.88667500  0.20371500  0.88688200  1
  O  O35  1  0.38667500  0.29628500  0.11311800  1
  O  O36  1  0.32726900  0.55289400  0.82114300  1
  O  O37  1  0.82726900  0.94710600  0.17885700  1
  O  O38  1  0.67273100  0.05289400  0.67885700  1
  O  O39  1  0.17273100  0.44710600  0.32114300  1
  O  O40  1  0.38373700  0.28047200  0.41751700  1
  O  O41  1  0.88373700  0.21952800  0.58248300  1
  O  O42  1  0.61626300  0.78047200  0.08248300  1
  O  O43  1  0.11626300  0.71952800  0.91751700  1
  O  O44  1  0.57684400  0.17822700  0.26336000  1
  O  O45  1  0.07684400  0.32177300  0.73664000  1
  O  O46  1  0.42315600  0.67822700  0.23664000  1
  O  O47  1  0.92315600  0.82177300  0.76336000  1
  O  O48  1  0.57502800  0.39863600  0.27325200  1
  O  O49  1  0.07502800  0.10136400  0.72674800  1
  O  O50  1  0.42497200  0.89863600  0.22674800  1
  O  O51  1  0.92497200  0.60136400  0.77325200  1
  O  O52  1  0.49485000  0.49425400  0.44917700  1
  O  O53  1  0.99485000  0.00574600  0.55082300  1
  O  O54  1  0.50515000  0.99425400  0.05082300  1
  O  O55  1  0.00515000  0.50574600  0.94917700  1
