# generated using pymatgen
data_InH12S3(NO4)3
_symmetry_space_group_name_H-M   'P 1'
_cell_length_a   15.97936900
_cell_length_b   9.23992400
_cell_length_c   9.26157527
_cell_angle_alpha   71.23005849
_cell_angle_beta   90.00000000
_cell_angle_gamma   90.00000000
_symmetry_Int_Tables_number   1
_chemical_formula_structural   InH12S3(NO4)3
_chemical_formula_sum   'In4 H48 S12 N12 O48'
_cell_volume   1294.73080647
_cell_formula_units_Z   4
loop_
 _symmetry_equiv_pos_site_id
 _symmetry_equiv_pos_as_xyz
  1  'x, y, z'
loop_
 _atom_site_type_symbol
 _atom_site_label
 _atom_site_symmetry_multiplicity
 _atom_site_fract_x
 _atom_site_fract_y
 _atom_site_fract_z
 _atom_site_occupancy
  In  In0  1  0.24880100  0.71499900  0.77529500  1
  In  In1  1  0.75119900  0.28500100  0.22470500  1
  In  In2  1  0.74880100  0.28500100  0.72470500  1
  In  In3  1  0.25119900  0.71499900  0.27529500  1
  H  H4  1  0.99774300  0.90406600  0.19682100  1
  H  H5  1  0.00225700  0.09593400  0.80317900  1
  H  H6  1  0.49774300  0.09593400  0.30317900  1
  H  H7  1  0.50225700  0.90406600  0.69682100  1
  H  H8  1  0.46069300  0.43492000  0.86689300  1
  H  H9  1  0.53930700  0.56508000  0.13310700  1
  H  H10  1  0.96069300  0.56508000  0.63310700  1
  H  H11  1  0.03930700  0.43492000  0.36689300  1
  H  H12  1  0.99273200  0.91535500  0.37714100  1
  H  H13  1  0.00726800  0.08464500  0.62285900  1
  H  H14  1  0.49273200  0.08464500  0.12285900  1
  H  H15  1  0.50726800  0.91535500  0.87714100  1
  H  H16  1  0.92987700  0.70964800  0.69174700  1
  H  H17  1  0.07012300  0.29035200  0.30825300  1
  H  H18  1  0.42987700  0.29035200  0.80825300  1
  H  H19  1  0.57012300  0.70964800  0.19174700  1
  H  H20  1  0.29496800  0.23574200  0.60280400  1
  H  H21  1  0.70503200  0.76425800  0.39719600  1
  H  H22  1  0.79496800  0.76425800  0.89719600  1
  H  H23  1  0.20503200  0.23574200  0.10280400  1
  H  H24  1  0.07242500  0.20217000  0.67441400  1
  H  H25  1  0.92757500  0.79783000  0.32558600  1
  H  H26  1  0.57242500  0.79783000  0.82558600  1
  H  H27  1  0.42757500  0.20217000  0.17441400  1
  H  H28  1  0.39076600  0.24332900  0.51837500  1
  H  H29  1  0.60923400  0.75667100  0.48162500  1
  H  H30  1  0.89076600  0.75667100  0.98162500  1
  H  H31  1  0.10923400  0.24332900  0.01837500  1
  H  H32  1  0.91551000  0.99029900  0.25051600  1
  H  H33  1  0.08449000  0.00970100  0.74948400  1
  H  H34  1  0.41551000  0.00970100  0.24948400  1
  H  H35  1  0.58449000  0.99029900  0.75051600  1
  H  H36  1  0.83195800  0.91577900  0.94275700  1
  H  H37  1  0.16804200  0.08422100  0.05724300  1
  H  H38  1  0.33195800  0.08422100  0.55724300  1
  H  H39  1  0.66804200  0.91577900  0.44275700  1
  H  H40  1  0.69662100  0.75561200  0.58347700  1
  H  H41  1  0.30337900  0.24438800  0.41652300  1
  H  H42  1  0.19662100  0.24438800  0.91652300  1
  H  H43  1  0.80337900  0.75561200  0.08347700  1
  H  H44  1  0.47902500  0.44668600  0.68368000  1
  H  H45  1  0.52097500  0.55331400  0.31632000  1
  H  H46  1  0.97902500  0.55331400  0.81632000  1
  H  H47  1  0.02097500  0.44668600  0.18368000  1
  H  H48  1  0.03194800  0.68147100  0.67259800  1
  H  H49  1  0.96805200  0.31852900  0.32740200  1
  H  H50  1  0.53194800  0.31852900  0.82740200  1
  H  H51  1  0.46805200  0.68147100  0.17259800  1
  S  S52  1  0.40797900  0.75446200  0.52655100  1
  S  S53  1  0.59202100  0.24553800  0.47344900  1
  S  S54  1  0.90797900  0.24553800  0.97344900  1
  S  S55  1  0.09202100  0.75446200  0.02655100  1
  S  S56  1  0.34803600  0.94611200  0.95881400  1
  S  S57  1  0.65196400  0.05388800  0.04118600  1
  S  S58  1  0.84803600  0.05388800  0.54118600  1
  S  S59  1  0.15196400  0.94611200  0.45881400  1
  S  S60  1  0.17245800  0.45835600  0.60613000  1
  S  S61  1  0.82754200  0.54164400  0.39387000  1
  S  S62  1  0.67245800  0.54164400  0.89387000  1
  S  S63  1  0.32754200  0.45835600  0.10613000  1
  N  N64  1  0.33027600  0.20211300  0.52470800  1
  N  N65  1  0.66972400  0.79788700  0.47529200  1
  N  N66  1  0.83027600  0.79788700  0.97529200  1
  N  N67  1  0.16972400  0.20211300  0.02470800  1
  N  N68  1  0.97529200  0.62666800  0.70556700  1
  N  N69  1  0.02470800  0.37333200  0.29443300  1
  N  N70  1  0.47529200  0.37333200  0.79443300  1
  N  N71  1  0.52470800  0.62666800  0.20556700  1
  N  N72  1  0.95785500  0.90215000  0.28683200  1
  N  N73  1  0.04214500  0.09785000  0.71316800  1
  N  N74  1  0.45785500  0.09785000  0.21316800  1
  N  N75  1  0.54214500  0.90215000  0.78683200  1
  O  O76  1  0.35491300  0.65474700  0.65609000  1
  O  O77  1  0.64508700  0.34525300  0.34391000  1
  O  O78  1  0.85491300  0.34525300  0.84391000  1
  O  O79  1  0.14508700  0.65474700  0.15609000  1
  O  O80  1  0.13738100  0.77994200  0.87644200  1
  O  O81  1  0.86261900  0.22005800  0.12355800  1
  O  O82  1  0.63738100  0.22005800  0.62355800  1
  O  O83  1  0.36261900  0.77994200  0.37644200  1
  O  O84  1  0.48681300  0.67188800  0.52426800  1
  O  O85  1  0.51318700  0.32811200  0.47573200  1
  O  O86  1  0.98681300  0.32811200  0.97573200  1
  O  O87  1  0.01318700  0.67188800  0.02426800  1
  O  O88  1  0.21021000  0.31504500  0.70628300  1
  O  O89  1  0.78979000  0.68495500  0.29371700  1
  O  O90  1  0.71021000  0.68495500  0.79371700  1
  O  O91  1  0.28979000  0.31504500  0.20628300  1
  O  O92  1  0.16624800  0.57462200  0.68866400  1
  O  O93  1  0.83375200  0.42537800  0.31133600  1
  O  O94  1  0.66624800  0.42537800  0.81133600  1
  O  O95  1  0.33375200  0.57462200  0.18866400  1
  O  O96  1  0.07177900  0.88361000  0.53174600  1
  O  O97  1  0.92822100  0.11639000  0.46825400  1
  O  O98  1  0.57177900  0.11639000  0.96825400  1
  O  O99  1  0.42822100  0.88361000  0.03174600  1
  O  O100  1  0.32790500  0.87104000  0.84069500  1
  O  O101  1  0.67209500  0.12896000  0.15930500  1
  O  O102  1  0.82790500  0.12896000  0.65930500  1
  O  O103  1  0.17209500  0.87104000  0.34069500  1
  O  O104  1  0.08722300  0.43296200  0.55917400  1
  O  O105  1  0.91277700  0.56703800  0.44082600  1
  O  O106  1  0.58722300  0.56703800  0.94082600  1
  O  O107  1  0.41277700  0.43296200  0.05917400  1
  O  O108  1  0.42238700  0.90513500  0.54404600  1
  O  O109  1  0.57761300  0.09486500  0.45595400  1
  O  O110  1  0.92238700  0.09486500  0.95595400  1
  O  O111  1  0.07761300  0.90513500  0.04404600  1
  O  O112  1  0.22128700  0.91219300  0.57678300  1
  O  O113  1  0.77871300  0.08780700  0.42321700  1
  O  O114  1  0.72128700  0.08780700  0.92321700  1
  O  O115  1  0.27871300  0.91219300  0.07678300  1
  O  O116  1  0.27055400  0.51596800  0.96970200  1
  O  O117  1  0.72944600  0.48403200  0.03029800  1
  O  O118  1  0.77055400  0.48403200  0.53029800  1
  O  O119  1  0.22944600  0.51596800  0.46970200  1
  O  O120  1  0.85162600  0.88784000  0.61537800  1
  O  O121  1  0.14837400  0.11216000  0.38462200  1
  O  O122  1  0.35162600  0.11216000  0.88462200  1
  O  O123  1  0.64837400  0.88784000  0.11537800  1
