# generated using pymatgen
data_Nd2TeS2
_symmetry_space_group_name_H-M   'P 1'
_cell_length_a   4.65871428
_cell_length_b   4.65871428
_cell_length_c   7.77316800
_cell_angle_alpha   90.00000000
_cell_angle_beta   90.00000000
_cell_angle_gamma   120.00000402
_symmetry_Int_Tables_number   1
_chemical_formula_structural   Nd2TeS2
_chemical_formula_sum   'Nd2 Te1 S2'
_cell_volume   146.10356753
_cell_formula_units_Z   1
loop_
 _symmetry_equiv_pos_site_id
 _symmetry_equiv_pos_as_xyz
  1  'x, y, z'
loop_
 _atom_site_type_symbol
 _atom_site_label
 _atom_site_symmetry_multiplicity
 _atom_site_fract_x
 _atom_site_fract_y
 _atom_site_fract_z
 _atom_site_occupancy
  Nd  Nd0  1  0.66666700  0.33333300  0.73213600  1
  Nd  Nd1  1  0.33333300  0.66666700  0.26786400  1
  Te  Te2  1  0.00000000  0.00000000  0.00000000  1
  S  S3  1  0.33333300  0.66666700  0.63597600  1
  S  S4  1  0.66666700  0.33333300  0.36402400  1
