# generated using pymatgen
data_Ba3TaN3Cl2
_symmetry_space_group_name_H-M   'P 1'
_cell_length_a   15.23975614
_cell_length_b   15.23975614
_cell_length_c   6.46332300
_cell_angle_alpha   90.00000000
_cell_angle_beta   90.00000000
_cell_angle_gamma   120.00000059
_symmetry_Int_Tables_number   1
_chemical_formula_structural   Ba3TaN3Cl2
_chemical_formula_sum   'Ba18 Ta6 N18 Cl12'
_cell_volume   1299.99752125
_cell_formula_units_Z   6
loop_
 _symmetry_equiv_pos_site_id
 _symmetry_equiv_pos_as_xyz
  1  'x, y, z'
loop_
 _atom_site_type_symbol
 _atom_site_label
 _atom_site_symmetry_multiplicity
 _atom_site_fract_x
 _atom_site_fract_y
 _atom_site_fract_z
 _atom_site_occupancy
  Ba  Ba0  1  0.79991700  0.79991700  0.50177200  1
  Ba  Ba1  1  0.00000000  0.20008300  0.50177200  1
  Ba  Ba2  1  0.20008300  0.00000000  0.50177200  1
  Ba  Ba3  1  0.20008300  0.20008300  0.00177200  1
  Ba  Ba4  1  0.00000000  0.79991700  0.00177200  1
  Ba  Ba5  1  0.79991700  0.00000000  0.00177200  1
  Ba  Ba6  1  0.15903700  0.68996400  0.43678400  1
  Ba  Ba7  1  0.53092700  0.84096300  0.43678400  1
  Ba  Ba8  1  0.31003600  0.46907300  0.43678400  1
  Ba  Ba9  1  0.68996400  0.15903700  0.43678400  1
  Ba  Ba10  1  0.84096300  0.53092700  0.43678400  1
  Ba  Ba11  1  0.46907300  0.31003600  0.43678400  1
  Ba  Ba12  1  0.84096300  0.31003600  0.93678400  1
  Ba  Ba13  1  0.46907300  0.15903700  0.93678400  1
  Ba  Ba14  1  0.68996400  0.53092700  0.93678400  1
  Ba  Ba15  1  0.31003600  0.84096300  0.93678400  1
  Ba  Ba16  1  0.15903700  0.46907300  0.93678400  1
  Ba  Ba17  1  0.53092700  0.68996400  0.93678400  1
  Ta  Ta18  1  0.57660500  0.57660500  0.47124700  1
  Ta  Ta19  1  0.00000000  0.42339500  0.47124700  1
  Ta  Ta20  1  0.42339500  0.00000000  0.47124700  1
  Ta  Ta21  1  0.42339500  0.42339500  0.97124700  1
  Ta  Ta22  1  0.00000000  0.57660500  0.97124700  1
  Ta  Ta23  1  0.57660500  0.00000000  0.97124700  1
  N  N24  1  0.51219300  0.51219300  0.19732000  1
  N  N25  1  0.00000000  0.48780700  0.19732000  1
  N  N26  1  0.48780700  0.00000000  0.19732000  1
  N  N27  1  0.48780700  0.48780700  0.69732000  1
  N  N28  1  0.00000000  0.51219300  0.69732000  1
  N  N29  1  0.51219300  0.00000000  0.69732000  1
  N  N30  1  0.11435000  0.71027000  0.01112700  1
  N  N31  1  0.59592000  0.88565000  0.01112700  1
  N  N32  1  0.28973000  0.40408000  0.01112700  1
  N  N33  1  0.71027000  0.11435000  0.01112700  1
  N  N34  1  0.88565000  0.59592000  0.01112700  1
  N  N35  1  0.40408000  0.28973000  0.01112700  1
  N  N36  1  0.88565000  0.28973000  0.51112700  1
  N  N37  1  0.40408000  0.11435000  0.51112700  1
  N  N38  1  0.71027000  0.59592000  0.51112700  1
  N  N39  1  0.28973000  0.88565000  0.51112700  1
  N  N40  1  0.11435000  0.40408000  0.51112700  1
  N  N41  1  0.59592000  0.71027000  0.51112700  1
  Cl  Cl42  1  0.00000000  0.00000000  0.24989300  1
  Cl  Cl43  1  0.00000000  0.00000000  0.74989300  1
  Cl  Cl44  1  0.33333300  0.66666700  0.20047300  1
  Cl  Cl45  1  0.66666700  0.33333300  0.20047300  1
  Cl  Cl46  1  0.66666700  0.33333300  0.70047300  1
  Cl  Cl47  1  0.33333300  0.66666700  0.70047300  1
  Cl  Cl48  1  0.77106700  0.77106700  0.99746500  1
  Cl  Cl49  1  0.00000000  0.22893300  0.99746500  1
  Cl  Cl50  1  0.22893300  0.00000000  0.99746500  1
  Cl  Cl51  1  0.22893300  0.22893300  0.49746500  1
  Cl  Cl52  1  0.00000000  0.77106700  0.49746500  1
  Cl  Cl53  1  0.77106700  0.00000000  0.49746500  1
