# generated using pymatgen
data_SnH6C(NCl)3
_symmetry_space_group_name_H-M   'P 1'
_cell_length_a   7.95321800
_cell_length_b   12.39678900
_cell_length_c   18.29069000
_cell_angle_alpha   90.00000000
_cell_angle_beta   90.00000000
_cell_angle_gamma   90.00000000
_symmetry_Int_Tables_number   1
_chemical_formula_structural   SnH6C(NCl)3
_chemical_formula_sum   'Sn8 H48 C8 N24 Cl24'
_cell_volume   1803.35897359
_cell_formula_units_Z   8
loop_
 _symmetry_equiv_pos_site_id
 _symmetry_equiv_pos_as_xyz
  1  'x, y, z'
loop_
 _atom_site_type_symbol
 _atom_site_label
 _atom_site_symmetry_multiplicity
 _atom_site_fract_x
 _atom_site_fract_y
 _atom_site_fract_z
 _atom_site_occupancy
  Sn  Sn0  1  0.67401700  0.76154100  0.38094600  1
  Sn  Sn1  1  0.17401700  0.73845900  0.61905400  1
  Sn  Sn2  1  0.32598300  0.26154100  0.11905400  1
  Sn  Sn3  1  0.82598300  0.23845900  0.88094600  1
  Sn  Sn4  1  0.32598300  0.23845900  0.61905400  1
  Sn  Sn5  1  0.82598300  0.26154100  0.38094600  1
  Sn  Sn6  1  0.67401700  0.73845900  0.88094600  1
  Sn  Sn7  1  0.17401700  0.76154100  0.11905400  1
  H  H8  1  0.02002500  0.93948400  0.30291200  1
  H  H9  1  0.52002500  0.56051600  0.69708800  1
  H  H10  1  0.97997500  0.43948400  0.19708800  1
  H  H11  1  0.47997500  0.06051600  0.80291200  1
  H  H12  1  0.97997500  0.06051600  0.69708800  1
  H  H13  1  0.47997500  0.43948400  0.30291200  1
  H  H14  1  0.02002500  0.56051600  0.80291200  1
  H  H15  1  0.52002500  0.93948400  0.19708800  1
  H  H16  1  0.10579700  0.05006700  0.25864500  1
  H  H17  1  0.60579700  0.44993300  0.74135500  1
  H  H18  1  0.89420300  0.55006700  0.24135500  1
  H  H19  1  0.39420300  0.94993300  0.75864500  1
  H  H20  1  0.89420300  0.94993300  0.74135500  1
  H  H21  1  0.39420300  0.55006700  0.25864500  1
  H  H22  1  0.10579700  0.44993300  0.75864500  1
  H  H23  1  0.60579700  0.05006700  0.24135500  1
  H  H24  1  0.29589800  0.16513000  0.32168200  1
  H  H25  1  0.79589800  0.33487000  0.67831800  1
  H  H26  1  0.70410200  0.66513000  0.17831800  1
  H  H27  1  0.20410200  0.83487000  0.82168200  1
  H  H28  1  0.70410200  0.83487000  0.67831800  1
  H  H29  1  0.20410200  0.66513000  0.32168200  1
  H  H30  1  0.29589800  0.33487000  0.82168200  1
  H  H31  1  0.79589800  0.16513000  0.17831800  1
  H  H32  1  0.37198600  0.12596600  0.40676400  1
  H  H33  1  0.87198600  0.37403400  0.59323600  1
  H  H34  1  0.62801400  0.62596600  0.09323600  1
  H  H35  1  0.12801400  0.87403400  0.90676400  1
  H  H36  1  0.62801400  0.87403400  0.59323600  1
  H  H37  1  0.12801400  0.62596600  0.40676400  1
  H  H38  1  0.37198600  0.37403400  0.90676400  1
  H  H39  1  0.87198600  0.12596600  0.09323600  1
  H  H40  1  0.09275700  0.90297600  0.42527200  1
  H  H41  1  0.59275700  0.59702400  0.57472800  1
  H  H42  1  0.90724300  0.40297600  0.07472800  1
  H  H43  1  0.40724300  0.09702400  0.92527200  1
  H  H44  1  0.90724300  0.09702400  0.57472800  1
  H  H45  1  0.40724300  0.40297600  0.42527200  1
  H  H46  1  0.09275700  0.59702400  0.92527200  1
  H  H47  1  0.59275700  0.90297600  0.07472800  1
  H  H48  1  0.26279600  0.97182800  0.46346800  1
  H  H49  1  0.76279600  0.52817200  0.53653200  1
  H  H50  1  0.73720400  0.47182800  0.03653200  1
  H  H51  1  0.23720400  0.02817200  0.96346800  1
  H  H52  1  0.73720400  0.02817200  0.53653200  1
  H  H53  1  0.23720400  0.47182800  0.46346800  1
  H  H54  1  0.26279600  0.52817200  0.96346800  1
  H  H55  1  0.76279600  0.97182800  0.03653200  1
  C  C56  1  0.18872400  0.02741100  0.36329200  1
  C  C57  1  0.68872400  0.47258900  0.63670800  1
  C  C58  1  0.81127600  0.52741100  0.13670800  1
  C  C59  1  0.31127600  0.97258900  0.86329200  1
  C  C60  1  0.81127600  0.97258900  0.63670800  1
  C  C61  1  0.31127600  0.52741100  0.36329200  1
  C  C62  1  0.18872400  0.47258900  0.86329200  1
  C  C63  1  0.68872400  0.02741100  0.13670800  1
  N  N64  1  0.08637300  0.00994500  0.30630000  1
  N  N65  1  0.58637300  0.49005500  0.69370000  1
  N  N66  1  0.91362700  0.50994500  0.19370000  1
  N  N67  1  0.41362700  0.99005500  0.80630000  1
  N  N68  1  0.91362700  0.99005500  0.69370000  1
  N  N69  1  0.41362700  0.50994500  0.30630000  1
  N  N70  1  0.08637300  0.49005500  0.80630000  1
  N  N71  1  0.58637300  0.00994500  0.19370000  1
  N  N72  1  0.29637300  0.11030000  0.36293700  1
  N  N73  1  0.79637300  0.38970000  0.63706300  1
  N  N74  1  0.70362700  0.61030000  0.13706300  1
  N  N75  1  0.20362700  0.88970000  0.86293700  1
  N  N76  1  0.70362700  0.88970000  0.63706300  1
  N  N77  1  0.20362700  0.61030000  0.36293700  1
  N  N78  1  0.29637300  0.38970000  0.86293700  1
  N  N79  1  0.79637300  0.11030000  0.13706300  1
  N  N80  1  0.18275900  0.96097300  0.42077300  1
  N  N81  1  0.68275900  0.53902700  0.57922700  1
  N  N82  1  0.81724100  0.46097300  0.07922700  1
  N  N83  1  0.31724100  0.03902700  0.92077300  1
  N  N84  1  0.81724100  0.03902700  0.57922700  1
  N  N85  1  0.31724100  0.46097300  0.42077300  1
  N  N86  1  0.18275900  0.53902700  0.92077300  1
  N  N87  1  0.68275900  0.96097300  0.07922700  1
  Cl  Cl88  1  0.88862800  0.76894100  0.27288000  1
  Cl  Cl89  1  0.38862800  0.73105900  0.72712000  1
  Cl  Cl90  1  0.11137200  0.26894100  0.22712000  1
  Cl  Cl91  1  0.61137200  0.23105900  0.77288000  1
  Cl  Cl92  1  0.11137200  0.23105900  0.72712000  1
  Cl  Cl93  1  0.61137200  0.26894100  0.27288000  1
  Cl  Cl94  1  0.88862800  0.73105900  0.77288000  1
  Cl  Cl95  1  0.38862800  0.76894100  0.22712000  1
  Cl  Cl96  1  0.67296100  0.96317300  0.39382100  1
  Cl  Cl97  1  0.17296100  0.53682700  0.60617900  1
  Cl  Cl98  1  0.32703900  0.46317300  0.10617900  1
  Cl  Cl99  1  0.82703900  0.03682700  0.89382100  1
  Cl  Cl100  1  0.32703900  0.03682700  0.60617900  1
  Cl  Cl101  1  0.82703900  0.46317300  0.39382100  1
  Cl  Cl102  1  0.67296100  0.53682700  0.89382100  1
  Cl  Cl103  1  0.17296100  0.96317300  0.10617900  1
  Cl  Cl104  1  0.91770700  0.74682900  0.47325500  1
  Cl  Cl105  1  0.41770700  0.75317100  0.52674500  1
  Cl  Cl106  1  0.08229300  0.24682900  0.02674500  1
  Cl  Cl107  1  0.58229300  0.25317100  0.97325500  1
  Cl  Cl108  1  0.08229300  0.25317100  0.52674500  1
  Cl  Cl109  1  0.58229300  0.24682900  0.47325500  1
  Cl  Cl110  1  0.91770700  0.75317100  0.97325500  1
  Cl  Cl111  1  0.41770700  0.74682900  0.02674500  1
