# generated using pymatgen
data_Rb2LaI5
_symmetry_space_group_name_H-M   'P 1'
_cell_length_a   9.55873600
_cell_length_b   10.14505300
_cell_length_c   15.17900500
_cell_angle_alpha   90.00000000
_cell_angle_beta   90.00000000
_cell_angle_gamma   90.00000000
_symmetry_Int_Tables_number   1
_chemical_formula_structural   Rb2LaI5
_chemical_formula_sum   'Rb8 La4 I20'
_cell_volume   1471.96705998
_cell_formula_units_Z   4
loop_
 _symmetry_equiv_pos_site_id
 _symmetry_equiv_pos_as_xyz
  1  'x, y, z'
loop_
 _atom_site_type_symbol
 _atom_site_label
 _atom_site_symmetry_multiplicity
 _atom_site_fract_x
 _atom_site_fract_y
 _atom_site_fract_z
 _atom_site_occupancy
  Rb  Rb0  1  0.94143500  0.00244500  0.82557600  1
  Rb  Rb1  1  0.05856500  0.99755500  0.17442400  1
  Rb  Rb2  1  0.44143500  0.99755500  0.67442400  1
  Rb  Rb3  1  0.05856500  0.50244500  0.17442400  1
  Rb  Rb4  1  0.55856500  0.00244500  0.32557600  1
  Rb  Rb5  1  0.94143500  0.49755500  0.82557600  1
  Rb  Rb6  1  0.55856500  0.49755500  0.32557600  1
  Rb  Rb7  1  0.44143500  0.50244500  0.67442400  1
  La  La8  1  0.92328400  0.75000000  0.50542400  1
  La  La9  1  0.07671600  0.25000000  0.49457600  1
  La  La10  1  0.42328400  0.25000000  0.99457600  1
  La  La11  1  0.57671600  0.75000000  0.00542400  1
  I  I12  1  0.12292800  0.75000000  0.67592000  1
  I  I13  1  0.87707200  0.25000000  0.32408000  1
  I  I14  1  0.62292800  0.25000000  0.82408000  1
  I  I15  1  0.37707200  0.75000000  0.17592000  1
  I  I16  1  0.83529900  0.04594900  0.57457000  1
  I  I17  1  0.16470100  0.95405100  0.42543000  1
  I  I18  1  0.33529900  0.95405100  0.92543000  1
  I  I19  1  0.16470100  0.54594900  0.42543000  1
  I  I20  1  0.66470100  0.04594900  0.07457000  1
  I  I21  1  0.83529900  0.45405100  0.57457000  1
  I  I22  1  0.66470100  0.45405100  0.07457000  1
  I  I23  1  0.33529900  0.54594900  0.92543000  1
  I  I24  1  0.58137900  0.75000000  0.51041700  1
  I  I25  1  0.41862100  0.25000000  0.48958300  1
  I  I26  1  0.08137900  0.25000000  0.98958300  1
  I  I27  1  0.91862100  0.75000000  0.01041700  1
  I  I28  1  0.65747800  0.75000000  0.79901900  1
  I  I29  1  0.34252200  0.25000000  0.20098100  1
  I  I30  1  0.15747800  0.25000000  0.70098100  1
  I  I31  1  0.84252200  0.75000000  0.29901900  1
