# generated using pymatgen
data_KLa(SeO4)2
_symmetry_space_group_name_H-M   'P 1'
_cell_length_a   7.56237000
_cell_length_b   8.94465000
_cell_length_c   11.27635836
_cell_angle_alpha   88.37009326
_cell_angle_beta   90.00000000
_cell_angle_gamma   90.00000000
_symmetry_Int_Tables_number   1
_chemical_formula_structural   KLa(SeO4)2
_chemical_formula_sum   'K4 La4 Se8 O32'
_cell_volume   762.45531067
_cell_formula_units_Z   4
loop_
 _symmetry_equiv_pos_site_id
 _symmetry_equiv_pos_as_xyz
  1  'x, y, z'
loop_
 _atom_site_type_symbol
 _atom_site_label
 _atom_site_symmetry_multiplicity
 _atom_site_fract_x
 _atom_site_fract_y
 _atom_site_fract_z
 _atom_site_occupancy
  K  K0  1  0.34767300  0.43320400  0.83723300  1
  K  K1  1  0.65232700  0.56679600  0.16276700  1
  K  K2  1  0.84767300  0.56679600  0.66276700  1
  K  K3  1  0.15232700  0.43320400  0.33723300  1
  La  La4  1  0.16211800  0.94105900  0.84733100  1
  La  La5  1  0.83788200  0.05894100  0.15266900  1
  La  La6  1  0.66211800  0.05894100  0.65266900  1
  La  La7  1  0.33788200  0.94105900  0.34733100  1
  Se  Se8  1  0.16280400  0.19376900  0.60568700  1
  Se  Se9  1  0.83719600  0.80623100  0.39431300  1
  Se  Se10  1  0.66280400  0.80623100  0.89431300  1
  Se  Se11  1  0.33719600  0.19376900  0.10568700  1
  Se  Se12  1  0.33744400  0.71572800  0.58894100  1
  Se  Se13  1  0.66255600  0.28427200  0.41105900  1
  Se  Se14  1  0.83744400  0.28427200  0.91105900  1
  Se  Se15  1  0.16255600  0.71572800  0.08894100  1
  O  O16  1  0.81524500  0.86346600  0.53275900  1
  O  O17  1  0.18475500  0.13653400  0.46724100  1
  O  O18  1  0.31524500  0.13653400  0.96724100  1
  O  O19  1  0.68475500  0.86346600  0.03275900  1
  O  O20  1  0.50119100  0.90710300  0.82286800  1
  O  O21  1  0.49880900  0.09289700  0.17713200  1
  O  O22  1  0.00119100  0.09289700  0.67713200  1
  O  O23  1  0.99880900  0.90710300  0.32286800  1
  O  O24  1  0.13177800  0.37485700  0.60644000  1
  O  O25  1  0.86822200  0.62514300  0.39356000  1
  O  O26  1  0.63177800  0.62514300  0.89356000  1
  O  O27  1  0.36822200  0.37485700  0.10644000  1
  O  O28  1  0.25282500  0.69401800  0.95451200  1
  O  O29  1  0.74717500  0.30598200  0.04548800  1
  O  O30  1  0.75282500  0.30598200  0.54548800  1
  O  O31  1  0.24717500  0.69401800  0.45451200  1
  O  O32  1  0.43568400  0.88536700  0.56108800  1
  O  O33  1  0.56431600  0.11463300  0.43891200  1
  O  O34  1  0.93568400  0.11463300  0.93891200  1
  O  O35  1  0.06431600  0.88536700  0.06108800  1
  O  O36  1  0.47950700  0.58629200  0.63067600  1
  O  O37  1  0.52049300  0.41370800  0.36932400  1
  O  O38  1  0.97950700  0.41370800  0.86932400  1
  O  O39  1  0.02049300  0.58629200  0.13067600  1
  O  O40  1  0.83779000  0.85485900  0.80588800  1
  O  O41  1  0.16221000  0.14514100  0.19411200  1
  O  O42  1  0.33779000  0.14514100  0.69411200  1
  O  O43  1  0.66221000  0.85485900  0.30588800  1
  O  O44  1  0.18096200  0.73928900  0.69277100  1
  O  O45  1  0.81903800  0.26071100  0.30722900  1
  O  O46  1  0.68096200  0.26071100  0.80722900  1
  O  O47  1  0.31903800  0.73928900  0.19277100  1
