# generated using pymatgen
data_Fe3B7IO13
_symmetry_space_group_name_H-M   'P 1'
_cell_length_a   8.76586175
_cell_length_b   8.76586175
_cell_length_c   8.76586237
_cell_angle_alpha   60.04540112
_cell_angle_beta   60.04540112
_cell_angle_gamma   60.04539716
_symmetry_Int_Tables_number   1
_chemical_formula_structural   Fe3B7IO13
_chemical_formula_sum   'Fe6 B14 I2 O26'
_cell_volume   476.77728548
_cell_formula_units_Z   2
loop_
 _symmetry_equiv_pos_site_id
 _symmetry_equiv_pos_as_xyz
  1  'x, y, z'
loop_
 _atom_site_type_symbol
 _atom_site_label
 _atom_site_symmetry_multiplicity
 _atom_site_fract_x
 _atom_site_fract_y
 _atom_site_fract_z
 _atom_site_occupancy
  Fe  Fe0  1  0.03356000  0.49724500  0.49782100  1
  Fe  Fe1  1  0.49724500  0.49782100  0.03356000  1
  Fe  Fe2  1  0.49782100  0.03356000  0.49724500  1
  Fe  Fe3  1  0.99724500  0.53356000  0.99782100  1
  Fe  Fe4  1  0.53356000  0.99782100  0.99724500  1
  Fe  Fe5  1  0.99782100  0.99724500  0.53356000  1
  B  B6  1  0.25828200  0.76596100  0.26070600  1
  B  B7  1  0.76596100  0.26070600  0.25828200  1
  B  B8  1  0.26070600  0.25828200  0.76596100  1
  B  B9  1  0.26596100  0.75828200  0.76070600  1
  B  B10  1  0.75828200  0.76070600  0.26596100  1
  B  B11  1  0.76070600  0.26596100  0.75828200  1
  B  B12  1  0.28150500  0.58313100  0.58600400  1
  B  B13  1  0.58313100  0.58600400  0.28150500  1
  B  B14  1  0.58600400  0.28150500  0.58313100  1
  B  B15  1  0.08313100  0.78150500  0.08600400  1
  B  B16  1  0.78150500  0.08600400  0.08313100  1
  B  B17  1  0.08600400  0.08313100  0.78150500  1
  B  B18  1  0.11368100  0.11368100  0.11368100  1
  B  B19  1  0.61368100  0.61368100  0.61368100  1
  I  I20  1  0.26790100  0.26790100  0.26790100  1
  I  I21  1  0.76790100  0.76790100  0.76790100  1
  O  O22  1  0.49919200  0.49919200  0.49919200  1
  O  O23  1  0.99919200  0.99919200  0.99919200  1
  O  O24  1  0.44449900  0.76099600  0.21678000  1
  O  O25  1  0.76099600  0.21678000  0.44449900  1
  O  O26  1  0.21678000  0.44449900  0.76099600  1
  O  O27  1  0.26099600  0.94449900  0.71678000  1
  O  O28  1  0.94449900  0.71678000  0.26099600  1
  O  O29  1  0.71678000  0.26099600  0.94449900  1
  O  O30  1  0.25437000  0.73048200  0.11639500  1
  O  O31  1  0.73048200  0.11639500  0.25437000  1
  O  O32  1  0.11639500  0.25437000  0.73048200  1
  O  O33  1  0.23048200  0.75437000  0.61639500  1
  O  O34  1  0.75437000  0.61639500  0.23048200  1
  O  O35  1  0.61639500  0.23048200  0.75437000  1
  O  O36  1  0.95770100  0.27326500  0.12102700  1
  O  O37  1  0.27326500  0.12102700  0.95770100  1
  O  O38  1  0.12102700  0.95770100  0.27326500  1
  O  O39  1  0.77326500  0.45770100  0.62102700  1
  O  O40  1  0.45770100  0.62102700  0.77326500  1
  O  O41  1  0.62102700  0.77326500  0.45770100  1
  O  O42  1  0.20215300  0.62720000  0.44732500  1
  O  O43  1  0.62720000  0.44732500  0.20215300  1
  O  O44  1  0.44732500  0.20215300  0.62720000  1
  O  O45  1  0.12720000  0.70215300  0.94732500  1
  O  O46  1  0.70215300  0.94732500  0.12720000  1
  O  O47  1  0.94732500  0.12720000  0.70215300  1
