# generated using pymatgen
data_CaLaFeSbO6
_symmetry_space_group_name_H-M   'P 1'
_cell_length_a   5.60387550
_cell_length_b   8.06243277
_cell_length_c   5.76048910
_cell_angle_alpha   90.26838520
_cell_angle_beta   88.55186553
_cell_angle_gamma   89.61926305
_symmetry_Int_Tables_number   1
_chemical_formula_structural   CaLaFeSbO6
_chemical_formula_sum   'Ca2 La2 Fe2 Sb2 O12'
_cell_volume   260.17197113
_cell_formula_units_Z   2
loop_
 _symmetry_equiv_pos_site_id
 _symmetry_equiv_pos_as_xyz
  1  'x, y, z'
loop_
 _atom_site_type_symbol
 _atom_site_label
 _atom_site_symmetry_multiplicity
 _atom_site_fract_x
 _atom_site_fract_y
 _atom_site_fract_z
 _atom_site_occupancy
  Ca  Ca0  1  0.50953800  0.25270900  0.55376400  1
  Ca  Ca1  1  0.02057800  0.74933700  0.94544400  1
  La  La2  1  0.98050300  0.24939700  0.05041800  1
  La  La3  1  0.49299000  0.74799600  0.45035400  1
  Fe  Fe4  1  0.50015400  0.50098300  0.99976600  1
  Fe  Fe5  1  0.99872500  0.00079600  0.50031100  1
  Sb  Sb6  1  0.00148700  0.49881700  0.50249800  1
  Sb  Sb7  1  0.49823900  0.99926300  0.99763400  1
  O  O8  1  0.60564500  0.76160700  0.03199500  1
  O  O9  1  0.10144400  0.26038900  0.46887800  1
  O  O10  1  0.20578100  0.94824100  0.19788600  1
  O  O11  1  0.71277800  0.45027300  0.31212900  1
  O  O12  1  0.19382000  0.55216000  0.20869200  1
  O  O13  1  0.68544900  0.05843000  0.28127500  1
  O  O14  1  0.90650800  0.73886300  0.53640900  1
  O  O15  1  0.39952500  0.23888800  0.96216500  1
  O  O16  1  0.28711000  0.54825700  0.69374900  1
  O  O17  1  0.78734600  0.05183900  0.79539300  1
  O  O18  1  0.30717300  0.94199500  0.71835600  1
  O  O19  1  0.80521000  0.44975900  0.79288500  1
