# generated using pymatgen
data_Zr4Ni3As8
_symmetry_space_group_name_H-M   'P 1'
_cell_length_a   3.83936400
_cell_length_b   3.83936400
_cell_length_c   17.74005500
_cell_angle_alpha   90.00000000
_cell_angle_beta   90.00000000
_cell_angle_gamma   90.00000000
_symmetry_Int_Tables_number   1
_chemical_formula_structural   Zr4Ni3As8
_chemical_formula_sum   'Zr4 Ni3 As8'
_cell_volume   261.50111124
_cell_formula_units_Z   1
loop_
 _symmetry_equiv_pos_site_id
 _symmetry_equiv_pos_as_xyz
  1  'x, y, z'
loop_
 _atom_site_type_symbol
 _atom_site_label
 _atom_site_symmetry_multiplicity
 _atom_site_fract_x
 _atom_site_fract_y
 _atom_site_fract_z
 _atom_site_occupancy
  Zr  Zr0  1  0.50000000  0.00000000  0.12621600  1
  Zr  Zr1  1  0.50000000  0.00000000  0.63243600  1
  Zr  Zr2  1  0.00000000  0.50000000  0.87378400  1
  Zr  Zr3  1  0.00000000  0.50000000  0.36756400  1
  Ni  Ni4  1  0.50000000  0.50000000  0.50000000  1
  Ni  Ni5  1  0.00000000  0.00000000  0.00000000  1
  Ni  Ni6  1  0.00000000  0.00000000  0.50000000  1
  As  As7  1  0.50000000  0.00000000  0.92806100  1
  As  As8  1  0.50000000  0.00000000  0.41977500  1
  As  As9  1  0.00000000  0.50000000  0.07193900  1
  As  As10  1  0.00000000  0.50000000  0.58022500  1
  As  As11  1  0.50000000  0.50000000  0.75318200  1
  As  As12  1  0.50000000  0.50000000  0.24681800  1
  As  As13  1  0.00000000  0.00000000  0.75270300  1
  As  As14  1  0.00000000  0.00000000  0.24729700  1
