# generated using pymatgen
data_Cs10Tl6SiO4
_symmetry_space_group_name_H-M   'P 1'
_cell_length_a   11.75459200
_cell_length_b   15.27448400
_cell_length_c   19.63669169
_cell_angle_alpha   89.75150256
_cell_angle_beta   90.00000000
_cell_angle_gamma   90.00000000
_symmetry_Int_Tables_number   1
_chemical_formula_structural   Cs10Tl6SiO4
_chemical_formula_sum   'Cs40 Tl24 Si4 O16'
_cell_volume   3525.64307891
_cell_formula_units_Z   4
loop_
 _symmetry_equiv_pos_site_id
 _symmetry_equiv_pos_as_xyz
  1  'x, y, z'
loop_
 _atom_site_type_symbol
 _atom_site_label
 _atom_site_symmetry_multiplicity
 _atom_site_fract_x
 _atom_site_fract_y
 _atom_site_fract_z
 _atom_site_occupancy
  Cs  Cs0  1  0.03786500  0.18788900  0.24470800  1
  Cs  Cs1  1  0.53786500  0.31211100  0.75529200  1
  Cs  Cs2  1  0.96213500  0.81211100  0.75529200  1
  Cs  Cs3  1  0.46213500  0.68788900  0.24470800  1
  Cs  Cs4  1  0.32157900  0.54413900  0.74598300  1
  Cs  Cs5  1  0.82157900  0.95586100  0.25401700  1
  Cs  Cs6  1  0.67842100  0.45586100  0.25401700  1
  Cs  Cs7  1  0.17842100  0.04413900  0.74598300  1
  Cs  Cs8  1  0.71803000  0.58445500  0.75332200  1
  Cs  Cs9  1  0.21803000  0.91554500  0.24667800  1
  Cs  Cs10  1  0.28197000  0.41554500  0.24667800  1
  Cs  Cs11  1  0.78197000  0.08445500  0.75332200  1
  Cs  Cs12  1  0.67304600  0.18825800  0.25424300  1
  Cs  Cs13  1  0.17304600  0.31174200  0.74575700  1
  Cs  Cs14  1  0.32695400  0.81174200  0.74575700  1
  Cs  Cs15  1  0.82695400  0.68825800  0.25424300  1
  Cs  Cs16  1  0.18909700  0.29883800  0.42635200  1
  Cs  Cs17  1  0.68909700  0.20116200  0.57364800  1
  Cs  Cs18  1  0.81090300  0.70116200  0.57364800  1
  Cs  Cs19  1  0.31090300  0.79883800  0.42635200  1
  Cs  Cs20  1  0.82129800  0.69437700  0.93492200  1
  Cs  Cs21  1  0.32129800  0.80562300  0.06507800  1
  Cs  Cs22  1  0.17870200  0.30562300  0.06507800  1
  Cs  Cs23  1  0.67870200  0.19437700  0.93492200  1
  Cs  Cs24  1  0.85125800  0.32011400  0.40515700  1
  Cs  Cs25  1  0.35125800  0.17988600  0.59484300  1
  Cs  Cs26  1  0.14874200  0.67988600  0.59484300  1
  Cs  Cs27  1  0.64874200  0.82011400  0.40515700  1
  Cs  Cs28  1  0.15925800  0.67167300  0.90338900  1
  Cs  Cs29  1  0.65925800  0.82832700  0.09661100  1
  Cs  Cs30  1  0.84074200  0.32832700  0.09661100  1
  Cs  Cs31  1  0.34074200  0.17167300  0.90338900  1
  Cs  Cs32  1  0.96089000  0.44419800  0.62137000  1
  Cs  Cs33  1  0.46089000  0.05580200  0.37863000  1
  Cs  Cs34  1  0.03911000  0.55580200  0.37863000  1
  Cs  Cs35  1  0.53911000  0.94419800  0.62137000  1
  Cs  Cs36  1  0.03352700  0.56190000  0.12428900  1
  Cs  Cs37  1  0.53352700  0.93810000  0.87571100  1
  Cs  Cs38  1  0.96647300  0.43810000  0.87571100  1
  Cs  Cs39  1  0.46647300  0.06190000  0.12428900  1
  Tl  Tl40  1  0.51472100  0.35820800  0.43353700  1
  Tl  Tl41  1  0.01472100  0.14179200  0.56646300  1
  Tl  Tl42  1  0.48527900  0.64179200  0.56646300  1
  Tl  Tl43  1  0.98527900  0.85820800  0.43353700  1
  Tl  Tl44  1  0.49288300  0.63844700  0.92868300  1
  Tl  Tl45  1  0.99288300  0.86155300  0.07131700  1
  Tl  Tl46  1  0.50711700  0.36155300  0.07131700  1
  Tl  Tl47  1  0.00711700  0.13844700  0.92868300  1
  Tl  Tl48  1  0.33104100  0.44157300  0.56501800  1
  Tl  Tl49  1  0.83104100  0.05842700  0.43498200  1
  Tl  Tl50  1  0.66895900  0.55842700  0.43498200  1
  Tl  Tl51  1  0.16895900  0.94157300  0.56501800  1
  Tl  Tl52  1  0.64789600  0.56820000  0.07648000  1
  Tl  Tl53  1  0.14789600  0.93180000  0.92352000  1
  Tl  Tl54  1  0.35210400  0.43180000  0.92352000  1
  Tl  Tl55  1  0.85210400  0.06820000  0.07648000  1
  Tl  Tl56  1  0.59938000  0.45769700  0.56707100  1
  Tl  Tl57  1  0.09938000  0.04230300  0.43292900  1
  Tl  Tl58  1  0.40062000  0.54230300  0.43292900  1
  Tl  Tl59  1  0.90062000  0.95769700  0.56707100  1
  Tl  Tl60  1  0.38234300  0.54167400  0.05659300  1
  Tl  Tl61  1  0.88234300  0.95832600  0.94340700  1
  Tl  Tl62  1  0.61765700  0.45832600  0.94340700  1
  Tl  Tl63  1  0.11765700  0.04167400  0.05659300  1
  Si  Si64  1  0.97495500  0.40040200  0.24972300  1
  Si  Si65  1  0.47495500  0.09959800  0.75027700  1
  Si  Si66  1  0.02504500  0.59959800  0.75027700  1
  Si  Si67  1  0.52504500  0.90040200  0.24972300  1
  O  O68  1  0.86395500  0.33105700  0.25048700  1
  O  O69  1  0.36395500  0.16894300  0.74951300  1
  O  O70  1  0.13604500  0.66894300  0.74951300  1
  O  O71  1  0.63604500  0.83105700  0.25048700  1
  O  O72  1  0.05630900  0.37919800  0.31769900  1
  O  O73  1  0.55630900  0.12080200  0.68230100  1
  O  O74  1  0.94369100  0.62080200  0.68230100  1
  O  O75  1  0.44369100  0.87919800  0.31769900  1
  O  O76  1  0.94818000  0.61846100  0.82076000  1
  O  O77  1  0.44818000  0.88153900  0.17924000  1
  O  O78  1  0.05182000  0.38153900  0.17924000  1
  O  O79  1  0.55182000  0.11846100  0.82076000  1
  O  O80  1  0.93127400  0.50429500  0.25080000  1
  O  O81  1  0.43127400  0.99570500  0.74920000  1
  O  O82  1  0.06872600  0.49570500  0.74920000  1
  O  O83  1  0.56872600  0.00429500  0.25080000  1
