# generated using pymatgen
data_KSi5N7
_symmetry_space_group_name_H-M   'P 1'
_cell_length_a   4.94101400
_cell_length_b   11.71353400
_cell_length_c   21.28156800
_cell_angle_alpha   90.00000000
_cell_angle_beta   90.00000000
_cell_angle_gamma   90.00000000
_symmetry_Int_Tables_number   1
_chemical_formula_structural   KSi5N7
_chemical_formula_sum   'K8 Si40 N56'
_cell_volume   1231.70768181
_cell_formula_units_Z   8
loop_
 _symmetry_equiv_pos_site_id
 _symmetry_equiv_pos_as_xyz
  1  'x, y, z'
loop_
 _atom_site_type_symbol
 _atom_site_label
 _atom_site_symmetry_multiplicity
 _atom_site_fract_x
 _atom_site_fract_y
 _atom_site_fract_z
 _atom_site_occupancy
  K  K0  1  0.43924100  0.77939200  0.98809300  1
  K  K1  1  0.93924100  0.22060800  0.01190700  1
  K  K2  1  0.93924100  0.72060800  0.48809300  1
  K  K3  1  0.43924100  0.27939200  0.51190700  1
  K  K4  1  0.44490100  0.14754400  0.80175400  1
  K  K5  1  0.94490100  0.85245600  0.19824600  1
  K  K6  1  0.94490100  0.35245600  0.30175400  1
  K  K7  1  0.44490100  0.64754400  0.69824600  1
  Si  Si8  1  0.73434600  0.65592400  0.84824400  1
  Si  Si9  1  0.23434600  0.34407600  0.15175600  1
  Si  Si10  1  0.23434600  0.84407600  0.34824400  1
  Si  Si11  1  0.73434600  0.15592400  0.65175600  1
  Si  Si12  1  0.22995100  0.15507700  0.65194300  1
  Si  Si13  1  0.72995100  0.84492300  0.34805700  1
  Si  Si14  1  0.72995100  0.34492300  0.15194300  1
  Si  Si15  1  0.22995100  0.65507700  0.84805700  1
  Si  Si16  1  0.96782700  0.85926500  0.77708900  1
  Si  Si17  1  0.46782700  0.14073500  0.22291100  1
  Si  Si18  1  0.46782700  0.64073500  0.27708900  1
  Si  Si19  1  0.96782700  0.35926500  0.72291100  1
  Si  Si20  1  0.46847300  0.42008900  0.80098800  1
  Si  Si21  1  0.96847300  0.57991100  0.19901200  1
  Si  Si22  1  0.96847300  0.07991100  0.30098800  1
  Si  Si23  1  0.46847300  0.92008900  0.69901200  1
  Si  Si24  1  0.45974700  0.05855900  0.96743500  1
  Si  Si25  1  0.95974700  0.94144100  0.03256500  1
  Si  Si26  1  0.95974700  0.44144100  0.46743500  1
  Si  Si27  1  0.45974700  0.55855900  0.53256500  1
  Si  Si28  1  0.46256400  0.50591900  0.04368600  1
  Si  Si29  1  0.96256400  0.49408100  0.95631400  1
  Si  Si30  1  0.96256400  0.99408100  0.54368600  1
  Si  Si31  1  0.46256400  0.00591900  0.45631400  1
  Si  Si32  1  0.45151500  0.69622600  0.13866700  1
  Si  Si33  1  0.95151500  0.30377400  0.86133300  1
  Si  Si34  1  0.95151500  0.80377400  0.63866700  1
  Si  Si35  1  0.45151500  0.19622600  0.36133300  1
  Si  Si36  1  0.94993200  0.66649300  0.06493200  1
  Si  Si37  1  0.44993200  0.33350700  0.93506800  1
  Si  Si38  1  0.44993200  0.83350700  0.56493200  1
  Si  Si39  1  0.94993200  0.16649300  0.43506800  1
  Si  Si40  1  0.45884900  0.96863000  0.10871000  1
  Si  Si41  1  0.95884900  0.03137000  0.89129000  1
  Si  Si42  1  0.95884900  0.53137000  0.60871000  1
  Si  Si43  1  0.45884900  0.46863000  0.39129000  1
  Si  Si44  1  0.46994400  0.89881600  0.84717500  1
  Si  Si45  1  0.96994400  0.10118400  0.15282500  1
  Si  Si46  1  0.96994400  0.60118400  0.34717500  1
  Si  Si47  1  0.46994400  0.39881600  0.65282500  1
  N  N48  1  0.47917800  0.75405500  0.86811000  1
  N  N49  1  0.97917800  0.24594500  0.13189000  1
  N  N50  1  0.97917800  0.74594500  0.36811000  1
  N  N51  1  0.47917800  0.25405500  0.63189000  1
  N  N52  1  0.98248000  0.71497300  0.79985900  1
  N  N53  1  0.48248000  0.28502700  0.20014100  1
  N  N54  1  0.48248000  0.78502700  0.29985900  1
  N  N55  1  0.98248000  0.21497300  0.70014100  1
  N  N56  1  0.29943500  0.99439100  0.03459500  1
  N  N57  1  0.79943500  0.00560900  0.96540500  1
  N  N58  1  0.79943500  0.50560900  0.53459500  1
  N  N59  1  0.29943500  0.49439100  0.46540500  1
  N  N60  1  0.48487800  0.39929400  0.10185600  1
  N  N61  1  0.98487800  0.60070600  0.89814400  1
  N  N62  1  0.98487800  0.10070600  0.60185600  1
  N  N63  1  0.48487800  0.89929400  0.39814400  1
  N  N64  1  0.80358000  0.93710500  0.83538300  1
  N  N65  1  0.30358000  0.06289500  0.16461700  1
  N  N66  1  0.30358000  0.56289500  0.33538300  1
  N  N67  1  0.80358000  0.43710500  0.66461700  1
  N  N68  1  0.79563200  0.36608300  0.79345100  1
  N  N69  1  0.29563200  0.63391700  0.20654900  1
  N  N70  1  0.29563200  0.13391700  0.29345100  1
  N  N71  1  0.79563200  0.86608300  0.70654900  1
  N  N72  1  0.29237300  0.34902600  0.85965200  1
  N  N73  1  0.79237300  0.65097400  0.14034800  1
  N  N74  1  0.79237300  0.15097400  0.35965200  1
  N  N75  1  0.29237300  0.84902600  0.64034800  1
  N  N76  1  0.48368400  0.06348400  0.67873100  1
  N  N77  1  0.98368400  0.93651600  0.32126900  1
  N  N78  1  0.98368400  0.43651600  0.17873100  1
  N  N79  1  0.48368400  0.56348400  0.82126900  1
  N  N80  1  0.78721400  0.55335500  0.02019300  1
  N  N81  1  0.28721400  0.44664500  0.97980700  1
  N  N82  1  0.28721400  0.94664500  0.52019300  1
  N  N83  1  0.78721400  0.05335500  0.47980700  1
  N  N84  1  0.78919600  0.37866900  0.92416600  1
  N  N85  1  0.28919600  0.62133100  0.07583400  1
  N  N86  1  0.28919600  0.12133100  0.42416600  1
  N  N87  1  0.78919600  0.87866900  0.57583400  1
  N  N88  1  0.30253000  0.98670500  0.90034600  1
  N  N89  1  0.80253000  0.01329500  0.09965400  1
  N  N90  1  0.80253000  0.51329500  0.40034600  1
  N  N91  1  0.30253000  0.48670500  0.59965400  1
  N  N92  1  0.42136100  0.83638400  0.13547400  1
  N  N93  1  0.92136100  0.16361600  0.86452600  1
  N  N94  1  0.92136100  0.66361600  0.63547400  1
  N  N95  1  0.42136100  0.33638400  0.36452600  1
  N  N96  1  0.92763900  0.79853500  0.03537200  1
  N  N97  1  0.42763900  0.20146500  0.96462800  1
  N  N98  1  0.42763900  0.70146500  0.53537200  1
  N  N99  1  0.92763900  0.29853500  0.46462800  1
  N  N100  1  0.30325900  0.90501200  0.77240000  1
  N  N101  1  0.80325900  0.09498800  0.22760000  1
  N  N102  1  0.80325900  0.59498800  0.27240000  1
  N  N103  1  0.30325900  0.40501200  0.72760000  1
