# generated using pymatgen
data_BaV2(PO5)2
_symmetry_space_group_name_H-M   'P 1'
_cell_length_a   9.35086900
_cell_length_b   5.29680200
_cell_length_c   16.58598520
_cell_angle_alpha   87.26925142
_cell_angle_beta   90.00000000
_cell_angle_gamma   90.00000000
_symmetry_Int_Tables_number   1
_chemical_formula_structural   BaV2(PO5)2
_chemical_formula_sum   'Ba4 V8 P8 O40'
_cell_volume   820.56604574
_cell_formula_units_Z   4
loop_
 _symmetry_equiv_pos_site_id
 _symmetry_equiv_pos_as_xyz
  1  'x, y, z'
loop_
 _atom_site_type_symbol
 _atom_site_label
 _atom_site_symmetry_multiplicity
 _atom_site_fract_x
 _atom_site_fract_y
 _atom_site_fract_z
 _atom_site_occupancy
  Ba  Ba0  1  0.70132200  0.00110500  0.68089000  1
  Ba  Ba1  1  0.20132200  0.99889500  0.81911000  1
  Ba  Ba2  1  0.29867800  0.99889500  0.31911000  1
  Ba  Ba3  1  0.79867800  0.00110500  0.18089000  1
  V  V4  1  0.54659200  0.53831900  0.84287800  1
  V  V5  1  0.04659200  0.46168100  0.65712200  1
  V  V6  1  0.45340800  0.46168100  0.15712200  1
  V  V7  1  0.95340800  0.53831900  0.34287800  1
  V  V8  1  0.31398800  0.87486100  0.56498100  1
  V  V9  1  0.81398800  0.12513900  0.93501900  1
  V  V10  1  0.68601200  0.12513900  0.43501900  1
  V  V11  1  0.18601200  0.87486100  0.06498100  1
  P  P12  1  0.90274800  0.62240900  0.82863400  1
  P  P13  1  0.40274800  0.37759100  0.67136600  1
  P  P14  1  0.09725200  0.37759100  0.17136600  1
  P  P15  1  0.59725200  0.62240900  0.32863400  1
  P  P16  1  0.79770800  0.61447800  0.52405300  1
  P  P17  1  0.29770800  0.38552200  0.97594700  1
  P  P18  1  0.20229200  0.38552200  0.47594700  1
  P  P19  1  0.70229200  0.61447800  0.02405300  1
  O  O20  1  0.60335900  0.64255300  0.95100000  1
  O  O21  1  0.10335900  0.35744700  0.54900000  1
  O  O22  1  0.39664100  0.35744700  0.04900000  1
  O  O23  1  0.89664100  0.64255300  0.45100000  1
  O  O24  1  0.37465500  0.37078800  0.89282400  1
  O  O25  1  0.87465500  0.62921200  0.60717600  1
  O  O26  1  0.62534500  0.62921200  0.10717600  1
  O  O27  1  0.12534500  0.37078800  0.39282400  1
  O  O28  1  0.51214500  0.34462300  0.74155300  1
  O  O29  1  0.01214500  0.65537700  0.75844700  1
  O  O30  1  0.48785500  0.65537700  0.25844700  1
  O  O31  1  0.98785500  0.34462300  0.24155300  1
  O  O32  1  0.74815000  0.61473500  0.79493200  1
  O  O33  1  0.24815000  0.38526500  0.70506800  1
  O  O34  1  0.43932500  0.62300800  0.62135000  1
  O  O35  1  0.25185000  0.38526500  0.20506800  1
  O  O36  1  0.47179300  0.80215700  0.80401200  1
  O  O37  1  0.97179300  0.19784300  0.69598800  1
  O  O38  1  0.52820700  0.19784300  0.19598800  1
  O  O39  1  0.02820700  0.80215700  0.30401200  1
  O  O40  1  0.33348900  0.82247900  0.11824900  1
  O  O41  1  0.83348900  0.17752100  0.38175100  1
  O  O42  1  0.66651100  0.17752100  0.88175100  1
  O  O43  1  0.16651100  0.82247900  0.61824900  1
  O  O44  1  0.19640200  0.14896800  0.97666100  1
  O  O45  1  0.69640200  0.85103200  0.52333900  1
  O  O46  1  0.80359800  0.85103200  0.02333900  1
  O  O47  1  0.30359800  0.14896800  0.47666100  1
  O  O48  1  0.07396300  0.13529000  0.12335500  1
  O  O49  1  0.57396300  0.86471000  0.37664500  1
  O  O50  1  0.92603700  0.86471000  0.87664500  1
  O  O51  1  0.42603700  0.13529000  0.62335500  1
  O  O52  1  0.21546100  0.64147500  0.97466700  1
  O  O53  1  0.71546100  0.35852500  0.52533300  1
  O  O54  1  0.78453900  0.35852500  0.02533300  1
  O  O55  1  0.28453900  0.64147500  0.47466700  1
  O  O56  1  0.06067500  0.62300800  0.12135000  1
  O  O57  1  0.56067500  0.37699200  0.37865000  1
  O  O58  1  0.93932500  0.37699200  0.87865000  1
  O  O59  1  0.75185000  0.61473500  0.29493200  1
