# generated using pymatgen
data_AlAu
_symmetry_space_group_name_H-M   'P 1'
_cell_length_a   3.41142900
_cell_length_b   6.41211800
_cell_length_c   6.45642510
_cell_angle_alpha   87.50773952
_cell_angle_beta   90.00000000
_cell_angle_gamma   90.00000000
_symmetry_Int_Tables_number   1
_chemical_formula_structural   AlAu
_chemical_formula_sum   'Al4 Au4'
_cell_volume   141.09738625
_cell_formula_units_Z   4
loop_
 _symmetry_equiv_pos_site_id
 _symmetry_equiv_pos_as_xyz
  1  'x, y, z'
loop_
 _atom_site_type_symbol
 _atom_site_label
 _atom_site_symmetry_multiplicity
 _atom_site_fract_x
 _atom_site_fract_y
 _atom_site_fract_z
 _atom_site_occupancy
  Al  Al0  1  0.25000000  0.45044000  0.82028700  1
  Al  Al1  1  0.75000000  0.54956000  0.17971300  1
  Al  Al2  1  0.25000000  0.07839200  0.31933800  1
  Al  Al3  1  0.75000000  0.92160800  0.68066200  1
  Au  Au4  1  0.25000000  0.69235200  0.47784100  1
  Au  Au5  1  0.75000000  0.30764800  0.52215900  1
  Au  Au6  1  0.25000000  0.81141900  0.00318300  1
  Au  Au7  1  0.75000000  0.18858100  0.99681700  1
