# generated using pymatgen
data_TbFe2SiC
_symmetry_space_group_name_H-M   'P 1'
_cell_length_a   5.55528806
_cell_length_b   5.55528806
_cell_length_c   6.73678900
_cell_angle_alpha   90.00000000
_cell_angle_beta   90.00000000
_cell_angle_gamma   140.22828594
_symmetry_Int_Tables_number   1
_chemical_formula_structural   TbFe2SiC
_chemical_formula_sum   'Tb2 Fe4 Si2 C2'
_cell_volume   133.00349573
_cell_formula_units_Z   2
loop_
 _symmetry_equiv_pos_site_id
 _symmetry_equiv_pos_as_xyz
  1  'x, y, z'
loop_
 _atom_site_type_symbol
 _atom_site_label
 _atom_site_symmetry_multiplicity
 _atom_site_fract_x
 _atom_site_fract_y
 _atom_site_fract_z
 _atom_site_occupancy
  Tb  Tb0  1  0.55155700  0.44844300  0.25000000  1
  Tb  Tb1  1  0.44844300  0.55155700  0.75000000  1
  Fe  Fe2  1  0.83458700  0.16541300  0.06330300  1
  Fe  Fe3  1  0.16541300  0.83458700  0.93669700  1
  Fe  Fe4  1  0.16541300  0.83458700  0.56330300  1
  Fe  Fe5  1  0.83458700  0.16541300  0.43669700  1
  Si  Si6  1  0.27076700  0.72923300  0.25000000  1
  Si  Si7  1  0.72923300  0.27076700  0.75000000  1
  C  C8  1  0.00000000  0.00000000  0.00000000  1
  C  C9  1  0.00000000  0.00000000  0.50000000  1
