# generated using pymatgen
data_KBP2PbO8
_symmetry_space_group_name_H-M   'P 1'
_cell_length_a   7.16414025
_cell_length_b   7.16414025
_cell_length_c   8.77310665
_cell_angle_alpha   67.46579674
_cell_angle_beta   67.46579674
_cell_angle_gamma   90.74879144
_symmetry_Int_Tables_number   1
_chemical_formula_structural   KBP2PbO8
_chemical_formula_sum   'K2 B2 P4 Pb2 O16'
_cell_volume   377.33598956
_cell_formula_units_Z   2
loop_
 _symmetry_equiv_pos_site_id
 _symmetry_equiv_pos_as_xyz
  1  'x, y, z'
loop_
 _atom_site_type_symbol
 _atom_site_label
 _atom_site_symmetry_multiplicity
 _atom_site_fract_x
 _atom_site_fract_y
 _atom_site_fract_z
 _atom_site_occupancy
  K  K0  1  0.23486200  0.37654600  0.25411300  1
  K  K1  1  0.37654600  0.23486200  0.75411300  1
  B  B2  1  0.73602500  0.01606600  0.49981300  1
  B  B3  1  0.01606600  0.73602500  0.99981300  1
  P  P4  1  0.02067100  0.86660600  0.26528700  1
  P  P5  1  0.72201100  0.38186100  0.24148600  1
  P  P6  1  0.86660600  0.02067100  0.76528700  1
  P  P7  1  0.38186100  0.72201100  0.74148600  1
  Pb  Pb8  1  0.52611800  0.90757600  0.21853700  1
  Pb  Pb9  1  0.90757600  0.52611800  0.71853700  1
  O  O10  1  0.05863000  0.66293700  0.38495500  1
  O  O11  1  0.20342700  0.04115200  0.17914400  1
  O  O12  1  0.57115600  0.51320400  0.30168500  1
  O  O13  1  0.65126900  0.25627900  0.15945200  1
  O  O14  1  0.04115200  0.20342700  0.67914400  1
  O  O15  1  0.51320400  0.57115600  0.80168500  1
  O  O16  1  0.25627900  0.65126900  0.65945200  1
  O  O17  1  0.66293700  0.05863000  0.88495500  1
  O  O18  1  0.80885000  0.91300300  0.37667400  1
  O  O19  1  0.95977800  0.84856100  0.11539000  1
  O  O20  1  0.77515200  0.24049600  0.40458100  1
  O  O21  1  0.94558600  0.51217800  0.09888200  1
  O  O22  1  0.84856100  0.95977800  0.61539000  1
  O  O23  1  0.24049600  0.77515200  0.90458100  1
  O  O24  1  0.51217800  0.94558600  0.59888200  1
  O  O25  1  0.91300300  0.80885000  0.87667400  1
