# generated using pymatgen
data_ThAsS
_symmetry_space_group_name_H-M   'P 1'
_cell_length_a   4.02632700
_cell_length_b   4.02632700
_cell_length_c   8.36825600
_cell_angle_alpha   90.00000000
_cell_angle_beta   90.00000000
_cell_angle_gamma   90.00000000
_symmetry_Int_Tables_number   1
_chemical_formula_structural   ThAsS
_chemical_formula_sum   'Th2 As2 S2'
_cell_volume   135.66038474
_cell_formula_units_Z   2
loop_
 _symmetry_equiv_pos_site_id
 _symmetry_equiv_pos_as_xyz
  1  'x, y, z'
loop_
 _atom_site_type_symbol
 _atom_site_label
 _atom_site_symmetry_multiplicity
 _atom_site_fract_x
 _atom_site_fract_y
 _atom_site_fract_z
 _atom_site_occupancy
  Th  Th0  1  0.00000000  0.50000000  0.71869400  1
  Th  Th1  1  0.50000000  0.00000000  0.28130600  1
  As  As2  1  0.00000000  0.00000000  0.00000000  1
  As  As3  1  0.50000000  0.50000000  0.00000000  1
  S  S4  1  0.00000000  0.50000000  0.36565000  1
  S  S5  1  0.50000000  0.00000000  0.63435000  1
