# generated using pymatgen
data_Ce2(Ga3Ir)3
_symmetry_space_group_name_H-M   'P 1'
_cell_length_a   7.68997601
_cell_length_b   7.68997601
_cell_length_c   9.49264200
_cell_angle_alpha   90.00000000
_cell_angle_beta   90.00000000
_cell_angle_gamma   119.81299576
_symmetry_Int_Tables_number   1
_chemical_formula_structural   Ce2(Ga3Ir)3
_chemical_formula_sum   'Ce4 Ga18 Ir6'
_cell_volume   487.06059926
_cell_formula_units_Z   2
loop_
 _symmetry_equiv_pos_site_id
 _symmetry_equiv_pos_as_xyz
  1  'x, y, z'
loop_
 _atom_site_type_symbol
 _atom_site_label
 _atom_site_symmetry_multiplicity
 _atom_site_fract_x
 _atom_site_fract_y
 _atom_site_fract_z
 _atom_site_occupancy
  Ce  Ce0  1  0.99721700  0.66826400  0.25000000  1
  Ce  Ce1  1  0.00278300  0.33173600  0.75000000  1
  Ce  Ce2  1  0.66826400  0.99721700  0.25000000  1
  Ce  Ce3  1  0.33173600  0.00278300  0.75000000  1
  Ga  Ga4  1  0.12904400  0.12904400  0.25000000  1
  Ga  Ga5  1  0.87095600  0.87095600  0.75000000  1
  Ga  Ga6  1  0.00100500  0.33422300  0.07924300  1
  Ga  Ga7  1  0.99899500  0.66577700  0.92075700  1
  Ga  Ga8  1  0.99899500  0.66577700  0.57924300  1
  Ga  Ga9  1  0.33422300  0.00100500  0.42075700  1
  Ga  Ga10  1  0.00100500  0.33422300  0.42075700  1
  Ga  Ga11  1  0.66577700  0.99899500  0.57924300  1
  Ga  Ga12  1  0.66577700  0.99899500  0.92075700  1
  Ga  Ga13  1  0.33422300  0.00100500  0.07924300  1
  Ga  Ga14  1  0.33384300  0.33384300  0.56424000  1
  Ga  Ga15  1  0.66615700  0.66615700  0.43576000  1
  Ga  Ga16  1  0.66615700  0.66615700  0.06424000  1
  Ga  Ga17  1  0.33384300  0.33384300  0.93576000  1
  Ga  Ga18  1  0.33909900  0.54401500  0.25000000  1
  Ga  Ga19  1  0.66090100  0.45598500  0.75000000  1
  Ga  Ga20  1  0.54401500  0.33909900  0.25000000  1
  Ga  Ga21  1  0.45598500  0.66090100  0.75000000  1
  Ir  Ir22  1  0.67157400  0.32842600  0.00000000  1
  Ir  Ir23  1  0.32842600  0.67157400  0.00000000  1
  Ir  Ir24  1  0.32842600  0.67157400  0.50000000  1
  Ir  Ir25  1  0.67157400  0.32842600  0.50000000  1
  Ir  Ir26  1  0.00000000  0.00000000  0.00000000  1
  Ir  Ir27  1  0.00000000  0.00000000  0.50000000  1
