# generated using pymatgen
data_Mg149Sc
_symmetry_space_group_name_H-M   'P 1'
_cell_length_a   15.94400128
_cell_length_b   15.94400698
_cell_length_c   15.58741473
_cell_angle_alpha   90.00000000
_cell_angle_beta   90.00000000
_cell_angle_gamma   120.00001183
_symmetry_Int_Tables_number   1
_chemical_formula_structural   Mg149Sc
_chemical_formula_sum   'Mg149 Sc1'
_cell_volume   3431.62218640
_cell_formula_units_Z   1
loop_
 _symmetry_equiv_pos_site_id
 _symmetry_equiv_pos_as_xyz
  1  'x, y, z'
loop_
 _atom_site_type_symbol
 _atom_site_label
 _atom_site_symmetry_multiplicity
 _atom_site_fract_x
 _atom_site_fract_y
 _atom_site_fract_z
 _atom_site_occupancy
  Mg  Mg0  1  0.60071141  0.99999147  0.00000000  1
  Mg  Mg1  1  0.39928105  0.99999147  0.00000000  1
  Mg  Mg2  1  0.59985155  0.19970210  0.00000000  1
  Mg  Mg3  1  0.00149548  0.20064499  0.00000000  1
  Mg  Mg4  1  0.19915051  0.20064499  0.00000000  1
  Mg  Mg5  1  0.79967734  0.20032266  0.00000000  1
  Mg  Mg6  1  0.40064531  0.20032266  0.00000000  1
  Mg  Mg7  1  0.00000853  0.39928959  0.00000000  1
  Mg  Mg8  1  0.39928105  0.39928959  0.00000000  1
  Mg  Mg9  1  0.80029790  0.40014945  0.00000000  1
  Mg  Mg10  1  0.59985155  0.40014945  0.00000000  1
  Mg  Mg11  1  0.20064747  0.40129595  0.00000000  1
  Mg  Mg12  1  0.79967734  0.59935469  0.00000000  1
  Mg  Mg13  1  0.39994171  0.60005729  0.00000000  1
  Mg  Mg14  1  0.20011558  0.60005729  0.00000000  1
  Mg  Mg15  1  0.60071141  0.60071995  0.00000000  1
  Mg  Mg16  1  0.00000853  0.60071995  0.00000000  1
  Mg  Mg17  1  0.20064747  0.79935153  0.00000000  1
  Mg  Mg18  1  0.59870405  0.79935153  0.00000000  1
  Mg  Mg19  1  0.39994171  0.79988442  0.00000000  1
  Mg  Mg20  1  0.00149548  0.80084949  0.00000000  1
  Mg  Mg21  1  0.79935501  0.80084949  0.00000000  1
  Mg  Mg22  1  0.79935501  0.99850452  0.00000000  1
  Mg  Mg23  1  0.19915051  0.99850552  0.00000000  1
  Mg  Mg24  1  0.26531130  0.13265565  0.16544452  1
  Mg  Mg25  1  0.86734435  0.13265565  0.16544452  1
  Mg  Mg26  1  0.86734435  0.73468870  0.16544452  1
  Mg  Mg27  1  0.06662725  0.13325350  0.16655088  1
  Mg  Mg28  1  0.86674650  0.93337375  0.16655088  1
  Mg  Mg29  1  0.06662725  0.93337375  0.16655088  1
  Mg  Mg30  1  0.66666700  0.33333300  0.16619712  1
  Mg  Mg31  1  0.66710338  0.13307448  0.16653146  1
  Mg  Mg32  1  0.46597111  0.13307448  0.16653146  1
  Mg  Mg33  1  0.46597111  0.33289662  0.16653146  1
  Mg  Mg34  1  0.86692552  0.33289662  0.16653146  1
  Mg  Mg35  1  0.66710338  0.53402889  0.16653146  1
  Mg  Mg36  1  0.86692552  0.53402889  0.16653146  1
  Mg  Mg37  1  0.46669774  0.53330226  0.16677710  1
  Mg  Mg38  1  0.06660451  0.53330226  0.16677710  1
  Mg  Mg39  1  0.46669774  0.93339649  0.16677710  1
  Mg  Mg40  1  0.26691570  0.33435674  0.16703801  1
  Mg  Mg41  1  0.06744104  0.33435674  0.16703801  1
  Mg  Mg42  1  0.66564326  0.73308430  0.16703801  1
  Mg  Mg43  1  0.06744104  0.73308430  0.16703801  1
  Mg  Mg44  1  0.66564326  0.93255896  0.16703801  1
  Mg  Mg45  1  0.26691570  0.93255896  0.16703801  1
  Mg  Mg46  1  0.26689873  0.53379745  0.16702805  1
  Mg  Mg47  1  0.26689873  0.73310127  0.16702805  1
  Mg  Mg48  1  0.46620255  0.73310127  0.16702805  1
  Mg  Mg49  1  0.19989797  0.99986767  0.33282090  1
  Mg  Mg50  1  0.79996970  0.99986867  0.33282090  1
  Mg  Mg51  1  0.00013233  0.20003030  0.33282090  1
  Mg  Mg52  1  0.19989797  0.20003030  0.33282090  1
  Mg  Mg53  1  0.79996970  0.80010203  0.33282090  1
  Mg  Mg54  1  0.00013233  0.80010203  0.33282090  1
  Mg  Mg55  1  0.59994824  0.19989748  0.33295147  1
  Mg  Mg56  1  0.80010252  0.40005076  0.33295147  1
  Mg  Mg57  1  0.59994824  0.40005076  0.33295147  1
  Mg  Mg58  1  0.39969418  0.19984759  0.33317006  1
  Mg  Mg59  1  0.80015241  0.19984759  0.33317006  1
  Mg  Mg60  1  0.80015241  0.60030582  0.33317006  1
  Mg  Mg61  1  0.60001082  0.00008153  0.33341994  1
  Mg  Mg62  1  0.40007171  0.00008253  0.33341994  1
  Mg  Mg63  1  0.99991747  0.39998918  0.33341994  1
  Mg  Mg64  1  0.40007171  0.39998918  0.33341994  1
  Mg  Mg65  1  0.99991747  0.59992829  0.33341994  1
  Mg  Mg66  1  0.60001082  0.59992929  0.33341994  1
  Mg  Mg67  1  0.40006780  0.59993220  0.33358321  1
  Mg  Mg68  1  0.19986439  0.59993220  0.33358321  1
  Mg  Mg69  1  0.40006780  0.80013461  0.33358321  1
  Mg  Mg70  1  0.20014248  0.40028496  0.33383269  1
  Mg  Mg71  1  0.20014248  0.79985752  0.33383269  1
  Mg  Mg72  1  0.59971404  0.79985752  0.33383269  1
  Mg  Mg73  1  0.00000000  0.00000000  0.33415889  1
  Mg  Mg74  1  0.26658319  0.13329159  0.50000000  1
  Mg  Mg75  1  0.86670841  0.13329159  0.50000000  1
  Mg  Mg76  1  0.06669871  0.13339743  0.50000000  1
  Mg  Mg77  1  0.66700650  0.13391446  0.50000000  1
  Mg  Mg78  1  0.46690795  0.13391446  0.50000000  1
  Mg  Mg79  1  0.46690795  0.33299250  0.50000000  1
  Mg  Mg80  1  0.86608554  0.33299350  0.50000000  1
  Mg  Mg81  1  0.06649333  0.33308937  0.50000000  1
  Mg  Mg82  1  0.26659604  0.33308937  0.50000000  1
  Mg  Mg83  1  0.66666700  0.33333300  0.50000000  1
  Mg  Mg84  1  0.86608554  0.53309305  0.50000000  1
  Mg  Mg85  1  0.66700650  0.53309305  0.50000000  1
  Mg  Mg86  1  0.46699440  0.53300560  0.50000000  1
  Mg  Mg87  1  0.06601120  0.53300560  0.50000000  1
  Mg  Mg88  1  0.26662236  0.53324571  0.50000000  1
  Mg  Mg89  1  0.06649333  0.73340396  0.50000000  1
  Mg  Mg90  1  0.66691063  0.73340396  0.50000000  1
  Mg  Mg91  1  0.26662236  0.73337764  0.50000000  1
  Mg  Mg92  1  0.46675529  0.73337764  0.50000000  1
  Mg  Mg93  1  0.86670841  0.73341681  0.50000000  1
  Mg  Mg94  1  0.06669871  0.93330129  0.50000000  1
  Mg  Mg95  1  0.86660257  0.93330129  0.50000000  1
  Mg  Mg96  1  0.26659604  0.93350667  0.50000000  1
  Mg  Mg97  1  0.66691063  0.93350667  0.50000000  1
  Mg  Mg98  1  0.46699440  0.93398880  0.50000000  1
  Mg  Mg99  1  0.00000000  0.00000000  0.66584111  1
  Mg  Mg100  1  0.20014248  0.40028496  0.66616831  1
  Mg  Mg101  1  0.20014248  0.79985752  0.66616831  1
  Mg  Mg102  1  0.59971404  0.79985752  0.66616831  1
  Mg  Mg103  1  0.40006780  0.59993220  0.66641679  1
  Mg  Mg104  1  0.19986439  0.59993220  0.66641679  1
  Mg  Mg105  1  0.40006780  0.80013461  0.66641679  1
  Mg  Mg106  1  0.60001082  0.00008153  0.66658006  1
  Mg  Mg107  1  0.40007171  0.00008253  0.66658006  1
  Mg  Mg108  1  0.99991747  0.39998918  0.66658006  1
  Mg  Mg109  1  0.40007171  0.39998918  0.66658006  1
  Mg  Mg110  1  0.99991747  0.59992829  0.66658006  1
  Mg  Mg111  1  0.60001082  0.59992929  0.66658006  1
  Mg  Mg112  1  0.39969418  0.19984759  0.66682994  1
  Mg  Mg113  1  0.80015241  0.19984759  0.66682994  1
  Mg  Mg114  1  0.80015241  0.60030582  0.66682994  1
  Mg  Mg115  1  0.59994824  0.19989748  0.66704753  1
  Mg  Mg116  1  0.80010252  0.40005076  0.66704753  1
  Mg  Mg117  1  0.59994824  0.40005076  0.66704753  1
  Mg  Mg118  1  0.19989797  0.99986767  0.66717910  1
  Mg  Mg119  1  0.79996970  0.99986867  0.66717910  1
  Mg  Mg120  1  0.00013233  0.20003030  0.66717910  1
  Mg  Mg121  1  0.19989797  0.20003030  0.66717910  1
  Mg  Mg122  1  0.79996970  0.80010203  0.66717910  1
  Mg  Mg123  1  0.00013233  0.80010203  0.66717910  1
  Mg  Mg124  1  0.26689873  0.53379745  0.83297195  1
  Mg  Mg125  1  0.26689873  0.73310127  0.83297195  1
  Mg  Mg126  1  0.46620255  0.73310127  0.83297195  1
  Mg  Mg127  1  0.26691570  0.33435674  0.83296199  1
  Mg  Mg128  1  0.06744104  0.33435674  0.83296199  1
  Mg  Mg129  1  0.66564326  0.73308430  0.83296199  1
  Mg  Mg130  1  0.06744104  0.73308430  0.83296199  1
  Mg  Mg131  1  0.66564326  0.93255896  0.83296199  1
  Mg  Mg132  1  0.26691570  0.93255896  0.83296199  1
  Mg  Mg133  1  0.46669774  0.53330226  0.83322290  1
  Mg  Mg134  1  0.06660451  0.53330226  0.83322290  1
  Mg  Mg135  1  0.46669774  0.93339649  0.83322290  1
  Mg  Mg136  1  0.66710338  0.13307448  0.83346854  1
  Mg  Mg137  1  0.46597111  0.13307448  0.83346854  1
  Mg  Mg138  1  0.46597111  0.33289662  0.83346854  1
  Mg  Mg139  1  0.86692552  0.33289662  0.83346854  1
  Mg  Mg140  1  0.66710338  0.53402889  0.83346854  1
  Mg  Mg141  1  0.86692552  0.53402889  0.83346854  1
  Mg  Mg142  1  0.66666700  0.33333300  0.83380288  1
  Mg  Mg143  1  0.06662725  0.13325350  0.83344812  1
  Mg  Mg144  1  0.86674650  0.93337375  0.83344812  1
  Mg  Mg145  1  0.06662725  0.93337375  0.83344812  1
  Mg  Mg146  1  0.26531130  0.13265565  0.83455548  1
  Mg  Mg147  1  0.86734435  0.13265565  0.83455548  1
  Mg  Mg148  1  0.86734435  0.73468870  0.83455548  1
  Sc  Sc149  1  0.00000000  0.00000000  0.00000000  1
