# generated using pymatgen
data_K(FeS)2
_symmetry_space_group_name_H-M   'P 1'
_cell_length_a   6.93283730
_cell_length_b   6.93283730
_cell_length_c   6.93283730
_cell_angle_alpha   149.10508403
_cell_angle_beta   149.10508403
_cell_angle_gamma   44.25665074
_symmetry_Int_Tables_number   1
_chemical_formula_structural   K(FeS)2
_chemical_formula_sum   'K1 Fe2 S2'
_cell_volume   87.59614023
_cell_formula_units_Z   1
loop_
 _symmetry_equiv_pos_site_id
 _symmetry_equiv_pos_as_xyz
  1  'x, y, z'
loop_
 _atom_site_type_symbol
 _atom_site_label
 _atom_site_symmetry_multiplicity
 _atom_site_fract_x
 _atom_site_fract_y
 _atom_site_fract_z
 _atom_site_occupancy
  K  K0  1  0.00000000  0.00000000  0.00000000  1
  Fe  Fe1  1  0.75000000  0.25000000  0.50000000  1
  Fe  Fe2  1  0.25000000  0.75000000  0.50000000  1
  S  S3  1  0.65863500  0.65863500  0.00000000  1
  S  S4  1  0.34136500  0.34136500  0.00000000  1
