# generated using pymatgen
data_KTb(MoO4)2
_symmetry_space_group_name_H-M   'P 1'
_cell_length_a   5.15831300
_cell_length_b   8.16187000
_cell_length_c   18.46751100
_cell_angle_alpha   90.00000000
_cell_angle_beta   90.00000000
_cell_angle_gamma   90.00000000
_symmetry_Int_Tables_number   1
_chemical_formula_structural   KTb(MoO4)2
_chemical_formula_sum   'K4 Tb4 Mo8 O32'
_cell_volume   777.50954733
_cell_formula_units_Z   4
loop_
 _symmetry_equiv_pos_site_id
 _symmetry_equiv_pos_as_xyz
  1  'x, y, z'
loop_
 _atom_site_type_symbol
 _atom_site_label
 _atom_site_symmetry_multiplicity
 _atom_site_fract_x
 _atom_site_fract_y
 _atom_site_fract_z
 _atom_site_occupancy
  K  K0  1  0.00000000  0.75000000  0.76989500  1
  K  K1  1  0.00000000  0.25000000  0.23010500  1
  K  K2  1  0.50000000  0.25000000  0.73010500  1
  K  K3  1  0.50000000  0.75000000  0.26989500  1
  Tb  Tb4  1  0.00000000  0.75000000  0.00604300  1
  Tb  Tb5  1  0.00000000  0.25000000  0.99395700  1
  Tb  Tb6  1  0.50000000  0.25000000  0.49395700  1
  Tb  Tb7  1  0.50000000  0.75000000  0.50604300  1
  Mo  Mo8  1  0.02314300  0.51638700  0.39909300  1
  Mo  Mo9  1  0.97685700  0.48361300  0.60090700  1
  Mo  Mo10  1  0.47685700  0.01638700  0.10090700  1
  Mo  Mo11  1  0.97685700  0.98361300  0.39909300  1
  Mo  Mo12  1  0.52314300  0.98361300  0.89909300  1
  Mo  Mo13  1  0.02314300  0.01638700  0.60090700  1
  Mo  Mo14  1  0.52314300  0.48361300  0.10090700  1
  Mo  Mo15  1  0.47685700  0.51638700  0.89909300  1
  O  O16  1  0.10228300  0.97450500  0.31077500  1
  O  O17  1  0.89771700  0.02549500  0.68922500  1
  O  O18  1  0.39771700  0.47450500  0.18922500  1
  O  O19  1  0.89771700  0.52549500  0.31077500  1
  O  O20  1  0.60228300  0.52549500  0.81077500  1
  O  O21  1  0.10228300  0.47450500  0.68922500  1
  O  O22  1  0.60228300  0.02549500  0.18922500  1
  O  O23  1  0.39771700  0.97450500  0.81077500  1
  O  O24  1  0.27025600  0.83895800  0.09905800  1
  O  O25  1  0.72974400  0.16104200  0.90094200  1
  O  O26  1  0.22974400  0.33895800  0.40094200  1
  O  O27  1  0.72974400  0.66104200  0.09905800  1
  O  O28  1  0.77025600  0.66104200  0.59905800  1
  O  O29  1  0.27025600  0.33895800  0.90094200  1
  O  O30  1  0.77025600  0.16104200  0.40094200  1
  O  O31  1  0.22974400  0.83895800  0.59905800  1
  O  O32  1  0.24972000  0.50407400  0.03506600  1
  O  O33  1  0.75028000  0.49592600  0.96493400  1
  O  O34  1  0.25028000  0.00407400  0.46493400  1
  O  O35  1  0.75028000  0.99592600  0.03506600  1
  O  O36  1  0.74972000  0.99592600  0.53506600  1
  O  O37  1  0.24972000  0.00407400  0.96493400  1
  O  O38  1  0.74972000  0.49592600  0.46493400  1
  O  O39  1  0.25028000  0.50407400  0.53506600  1
  O  O40  1  0.24519700  0.68872700  0.40736800  1
  O  O41  1  0.75480300  0.31127300  0.59263200  1
  O  O42  1  0.25480300  0.18872700  0.09263200  1
  O  O43  1  0.75480300  0.81127300  0.40736800  1
  O  O44  1  0.74519700  0.81127300  0.90736800  1
  O  O45  1  0.24519700  0.18872700  0.59263200  1
  O  O46  1  0.74519700  0.31127300  0.09263200  1
  O  O47  1  0.25480300  0.68872700  0.90736800  1
