# generated using pymatgen
data_Na6Si2Se7
_symmetry_space_group_name_H-M   'P 1'
_cell_length_a   7.24008715
_cell_length_b   7.24008715
_cell_length_c   15.98160302
_cell_angle_alpha   80.43840700
_cell_angle_beta   80.43840700
_cell_angle_gamma   98.14543141
_symmetry_Int_Tables_number   1
_chemical_formula_structural   Na6Si2Se7
_chemical_formula_sum   'Na12 Si4 Se14'
_cell_volume   802.18453669
_cell_formula_units_Z   2
loop_
 _symmetry_equiv_pos_site_id
 _symmetry_equiv_pos_as_xyz
  1  'x, y, z'
loop_
 _atom_site_type_symbol
 _atom_site_label
 _atom_site_symmetry_multiplicity
 _atom_site_fract_x
 _atom_site_fract_y
 _atom_site_fract_z
 _atom_site_occupancy
  Na  Na0  1  0.58154600  0.41845400  0.75000000  1
  Na  Na1  1  0.41845400  0.58154600  0.25000000  1
  Na  Na2  1  0.50000000  0.50000000  0.00000000  1
  Na  Na3  1  0.50000000  0.50000000  0.50000000  1
  Na  Na4  1  0.26715800  0.97146700  0.92858600  1
  Na  Na5  1  0.02853300  0.73284200  0.57141400  1
  Na  Na6  1  0.73284200  0.02853300  0.07141400  1
  Na  Na7  1  0.97146700  0.26715800  0.42858600  1
  Na  Na8  1  0.51131200  0.95509200  0.64211000  1
  Na  Na9  1  0.04490800  0.48868800  0.85789000  1
  Na  Na10  1  0.48868800  0.04490800  0.35789000  1
  Na  Na11  1  0.95509200  0.51131200  0.14211000  1
  Si  Si12  1  0.76384300  0.92313700  0.85922200  1
  Si  Si13  1  0.07686300  0.23615700  0.64077800  1
  Si  Si14  1  0.92313700  0.76384300  0.35922200  1
  Si  Si15  1  0.23615700  0.07686300  0.14077800  1
  Se  Se16  1  0.03603200  0.96396800  0.75000000  1
  Se  Se17  1  0.96396800  0.03603200  0.25000000  1
  Se  Se18  1  0.69127500  0.20008400  0.89376500  1
  Se  Se19  1  0.79991600  0.30872500  0.60623500  1
  Se  Se20  1  0.30872500  0.79991600  0.10623500  1
  Se  Se21  1  0.20008400  0.69127500  0.39376500  1
  Se  Se22  1  0.87018900  0.74075900  0.96715200  1
  Se  Se23  1  0.25924100  0.12981100  0.53284800  1
  Se  Se24  1  0.12981100  0.25924100  0.03284800  1
  Se  Se25  1  0.74075900  0.87018900  0.46715200  1
  Se  Se26  1  0.50852100  0.75590500  0.82109600  1
  Se  Se27  1  0.24409500  0.49147900  0.67890400  1
  Se  Se28  1  0.49147900  0.24409500  0.17890400  1
  Se  Se29  1  0.75590500  0.50852100  0.32109600  1
