# generated using pymatgen
data_AsPdSe
_symmetry_space_group_name_H-M   'P 1'
_cell_length_a   6.18942300
_cell_length_b   6.18942300
_cell_length_c   6.18942300
_cell_angle_alpha   90.00000000
_cell_angle_beta   90.00000000
_cell_angle_gamma   90.00000000
_symmetry_Int_Tables_number   1
_chemical_formula_structural   AsPdSe
_chemical_formula_sum   'As4 Pd4 Se4'
_cell_volume   237.11034001
_cell_formula_units_Z   4
loop_
 _symmetry_equiv_pos_site_id
 _symmetry_equiv_pos_as_xyz
  1  'x, y, z'
loop_
 _atom_site_type_symbol
 _atom_site_label
 _atom_site_symmetry_multiplicity
 _atom_site_fract_x
 _atom_site_fract_y
 _atom_site_fract_z
 _atom_site_occupancy
  As  As0  1  0.11661900  0.88338100  0.38338100  1
  As  As1  1  0.88338100  0.38338100  0.11661900  1
  As  As2  1  0.61661900  0.61661900  0.61661900  1
  As  As3  1  0.38338100  0.11661900  0.88338100  1
  Pd  Pd4  1  0.99319200  0.50680800  0.49319200  1
  Pd  Pd5  1  0.50680800  0.49319200  0.99319200  1
  Pd  Pd6  1  0.49319200  0.99319200  0.50680800  1
  Pd  Pd7  1  0.00680800  0.00680800  0.00680800  1
  Se  Se8  1  0.11338800  0.61338800  0.88661200  1
  Se  Se9  1  0.88661200  0.11338800  0.61338800  1
  Se  Se10  1  0.61338800  0.88661200  0.11338800  1
  Se  Se11  1  0.38661200  0.38661200  0.38661200  1
