# generated using pymatgen
data_ThPbI12
_symmetry_space_group_name_H-M   'P 1'
_cell_length_a   9.23988100
_cell_length_b   4.78004600
_cell_length_c   16.13242086
_cell_angle_alpha   82.88526144
_cell_angle_beta   90.00000000
_cell_angle_gamma   90.00000000
_symmetry_Int_Tables_number   1
_chemical_formula_structural   ThPbI12
_chemical_formula_sum   'Th1 Pb1 I12'
_cell_volume   707.03520179
_cell_formula_units_Z   1
loop_
 _symmetry_equiv_pos_site_id
 _symmetry_equiv_pos_as_xyz
  1  'x, y, z'
loop_
 _atom_site_type_symbol
 _atom_site_label
 _atom_site_symmetry_multiplicity
 _atom_site_fract_x
 _atom_site_fract_y
 _atom_site_fract_z
 _atom_site_occupancy
  Th  Th0  1  0.50000000  0.56439100  0.26177900  1
  Pb  Pb1  1  0.00000000  0.41725400  0.76718300  1
  I  I2  1  0.19798800  0.53414800  0.32386700  1
  I  I3  1  0.80201200  0.53414800  0.32386700  1
  I  I4  1  0.00000000  0.13519300  0.13698700  1
  I  I5  1  0.18040700  0.81377600  0.88243800  1
  I  I6  1  0.81959300  0.81377600  0.88243800  1
  I  I7  1  0.00000000  0.88646200  0.62151000  1
  I  I8  1  0.50000000  0.01038000  0.38933300  1
  I  I9  1  0.67472100  0.12575600  0.13446800  1
  I  I10  1  0.32527900  0.12575600  0.13446800  1
  I  I11  1  0.50000000  0.80695200  0.87560900  1
  I  I12  1  0.65054400  0.61600300  0.63407600  1
  I  I13  1  0.34945600  0.61600300  0.63407600  1
