# generated using pymatgen
data_GdB(SO4)3
_symmetry_space_group_name_H-M   'P 1'
_cell_length_a   9.01078579
_cell_length_b   9.01078579
_cell_length_c   11.17113138
_cell_angle_alpha   87.43737616
_cell_angle_beta   87.43737616
_cell_angle_gamma   80.13976187
_symmetry_Int_Tables_number   1
_chemical_formula_structural   GdB(SO4)3
_chemical_formula_sum   'Gd4 B4 S12 O48'
_cell_volume   892.10687263
_cell_formula_units_Z   4
loop_
 _symmetry_equiv_pos_site_id
 _symmetry_equiv_pos_as_xyz
  1  'x, y, z'
loop_
 _atom_site_type_symbol
 _atom_site_label
 _atom_site_symmetry_multiplicity
 _atom_site_fract_x
 _atom_site_fract_y
 _atom_site_fract_z
 _atom_site_occupancy
  Gd  Gd0  1  0.73651900  0.63723700  0.84545100  1
  Gd  Gd1  1  0.36276300  0.26348100  0.65454900  1
  Gd  Gd2  1  0.26348100  0.36276300  0.15454900  1
  Gd  Gd3  1  0.63723700  0.73651900  0.34545100  1
  B  B4  1  0.83085900  0.17103600  0.02751000  1
  B  B5  1  0.82896400  0.16914100  0.47249000  1
  B  B6  1  0.16914100  0.82896400  0.97249000  1
  B  B7  1  0.17103600  0.83085900  0.52751000  1
  S  S8  1  0.43658800  0.84112800  0.63801100  1
  S  S9  1  0.15887200  0.56341200  0.86198900  1
  S  S10  1  0.56341200  0.15887200  0.36198900  1
  S  S11  1  0.84112800  0.43658800  0.13801100  1
  S  S12  1  0.86020700  0.88360900  0.57626100  1
  S  S13  1  0.11639100  0.13979300  0.92373900  1
  S  S14  1  0.13979300  0.11639100  0.42373900  1
  S  S15  1  0.88360900  0.86020700  0.07626100  1
  S  S16  1  0.57167000  0.27436600  0.91957600  1
  S  S17  1  0.72563400  0.42833000  0.58042400  1
  S  S18  1  0.42833000  0.72563400  0.08042400  1
  S  S19  1  0.27436600  0.57167000  0.41957600  1
  O  O20  1  0.52226800  0.83707500  0.52294200  1
  O  O21  1  0.16292500  0.47773200  0.97705800  1
  O  O22  1  0.47773200  0.16292500  0.47705800  1
  O  O23  1  0.83707500  0.52226800  0.02294200  1
  O  O24  1  0.39814900  0.99444400  0.68179900  1
  O  O25  1  0.00555600  0.60185100  0.81820100  1
  O  O26  1  0.60185100  0.00555600  0.31820100  1
  O  O27  1  0.99444400  0.39814900  0.18179900  1
  O  O28  1  0.51026300  0.73356700  0.72745200  1
  O  O29  1  0.26643300  0.48973700  0.77254800  1
  O  O30  1  0.48973700  0.26643300  0.27254800  1
  O  O31  1  0.73356700  0.51026300  0.22745200  1
  O  O32  1  0.28526700  0.78599800  0.61692300  1
  O  O33  1  0.21400200  0.71473300  0.88307700  1
  O  O34  1  0.71473300  0.21400200  0.38307700  1
  O  O35  1  0.78599800  0.28526700  0.11692300  1
  O  O36  1  0.79672000  0.83203800  0.68788300  1
  O  O37  1  0.16796200  0.20328000  0.81211700  1
  O  O38  1  0.20328000  0.16796200  0.31211700  1
  O  O39  1  0.83203800  0.79672000  0.18788300  1
  O  O40  1  0.84183800  0.80368400  0.46911400  1
  O  O41  1  0.19631600  0.15816200  0.03088600  1
  O  O42  1  0.15816200  0.19631600  0.53088600  1
  O  O43  1  0.80368400  0.84183800  0.96911400  1
  O  O44  1  0.78894800  0.05044200  0.56063600  1
  O  O45  1  0.94955800  0.21105200  0.93936400  1
  O  O46  1  0.21105200  0.94955800  0.43936400  1
  O  O47  1  0.05044200  0.78894800  0.06063600  1
  O  O48  1  0.02769000  0.88711100  0.59534800  1
  O  O49  1  0.11288900  0.97231000  0.90465200  1
  O  O50  1  0.97231000  0.11288900  0.40465200  1
  O  O51  1  0.88711100  0.02769000  0.09534800  1
  O  O52  1  0.70280400  0.14896900  0.95891500  1
  O  O53  1  0.85103100  0.29719600  0.54108500  1
  O  O54  1  0.29719600  0.85103100  0.04108500  1
  O  O55  1  0.14896900  0.70280400  0.45891500  1
  O  O56  1  0.50499000  0.20450400  0.82389900  1
  O  O57  1  0.79549600  0.49501000  0.67610100  1
  O  O58  1  0.49501000  0.79549600  0.17610100  1
  O  O59  1  0.20450400  0.50499000  0.32389900  1
  O  O60  1  0.63404800  0.40777100  0.87922000  1
  O  O61  1  0.59222900  0.36595200  0.62078000  1
  O  O62  1  0.36595200  0.59222900  0.12078000  1
  O  O63  1  0.40777100  0.63404800  0.37922000  1
  O  O64  1  0.46694800  0.30071100  0.02309400  1
  O  O65  1  0.69928900  0.53305200  0.47690600  1
  O  O66  1  0.53305200  0.69928900  0.97690600  1
  O  O67  1  0.30071100  0.46694800  0.52309400  1
