# generated using pymatgen
data_K3Ce(PO4)2
_symmetry_space_group_name_H-M   'P 1'
_cell_length_a   5.70658600
_cell_length_b   7.55773100
_cell_length_c   9.68644842
_cell_angle_alpha   89.14067735
_cell_angle_beta   90.00000000
_cell_angle_gamma   90.00000000
_symmetry_Int_Tables_number   1
_chemical_formula_structural   K3Ce(PO4)2
_chemical_formula_sum   'K6 Ce2 P4 O16'
_cell_volume   417.71831721
_cell_formula_units_Z   2
loop_
 _symmetry_equiv_pos_site_id
 _symmetry_equiv_pos_as_xyz
  1  'x, y, z'
loop_
 _atom_site_type_symbol
 _atom_site_label
 _atom_site_symmetry_multiplicity
 _atom_site_fract_x
 _atom_site_fract_y
 _atom_site_fract_z
 _atom_site_occupancy
  K  K0  1  0.25000000  0.79619600  0.58342600  1
  K  K1  1  0.25000000  0.50801000  0.30856700  1
  K  K2  1  0.75000000  0.20380400  0.41657400  1
  K  K3  1  0.75000000  0.63939300  0.09433700  1
  K  K4  1  0.75000000  0.49199000  0.69143300  1
  K  K5  1  0.25000000  0.36060700  0.90566300  1
  Ce  Ce6  1  0.75000000  0.99142700  0.79116000  1
  Ce  Ce7  1  0.25000000  0.00857300  0.20884000  1
  P  P8  1  0.25000000  0.80016200  0.92611900  1
  P  P9  1  0.75000000  0.76403700  0.41433900  1
  P  P10  1  0.25000000  0.23596300  0.58566100  1
  P  P11  1  0.75000000  0.19983800  0.07388100  1
  O  O12  1  0.97344100  0.25797100  0.15433900  1
  O  O13  1  0.75000000  0.28454600  0.92581200  1
  O  O14  1  0.97328800  0.84341400  0.34221100  1
  O  O15  1  0.52655900  0.25797100  0.15433900  1
  O  O16  1  0.75000000  0.56173900  0.39995500  1
  O  O17  1  0.25000000  0.71545400  0.07418800  1
  O  O18  1  0.02655900  0.74202900  0.84566100  1
  O  O19  1  0.75000000  0.81922600  0.56925000  1
  O  O20  1  0.52671200  0.84341400  0.34221100  1
  O  O21  1  0.47328800  0.15658600  0.65778900  1
  O  O22  1  0.47344100  0.74202900  0.84566100  1
  O  O23  1  0.02671200  0.15658600  0.65778900  1
  O  O24  1  0.25000000  0.18077400  0.43075000  1
  O  O25  1  0.75000000  0.99558600  0.05664900  1
  O  O26  1  0.25000000  0.43826100  0.60004500  1
  O  O27  1  0.25000000  0.00441400  0.94335100  1
