# generated using pymatgen
data_Li3Dy3(TeO6)2
_symmetry_space_group_name_H-M   'P 1'
_cell_length_a   10.74683140
_cell_length_b   10.74683140
_cell_length_c   10.74683140
_cell_angle_alpha   109.47122063
_cell_angle_beta   109.47122063
_cell_angle_gamma   109.47122063
_symmetry_Int_Tables_number   1
_chemical_formula_structural   Li3Dy3(TeO6)2
_chemical_formula_sum   'Li12 Dy12 Te8 O48'
_cell_volume   955.47519221
_cell_formula_units_Z   4
loop_
 _symmetry_equiv_pos_site_id
 _symmetry_equiv_pos_as_xyz
  1  'x, y, z'
loop_
 _atom_site_type_symbol
 _atom_site_label
 _atom_site_symmetry_multiplicity
 _atom_site_fract_x
 _atom_site_fract_y
 _atom_site_fract_z
 _atom_site_occupancy
  Li  Li0  1  0.25000000  0.62500000  0.37500000  1
  Li  Li1  1  0.75000000  0.37500000  0.62500000  1
  Li  Li2  1  0.75000000  0.87500000  0.12500000  1
  Li  Li3  1  0.37500000  0.25000000  0.62500000  1
  Li  Li4  1  0.62500000  0.75000000  0.37500000  1
  Li  Li5  1  0.25000000  0.12500000  0.87500000  1
  Li  Li6  1  0.12500000  0.75000000  0.87500000  1
  Li  Li7  1  0.87500000  0.25000000  0.12500000  1
  Li  Li8  1  0.62500000  0.37500000  0.25000000  1
  Li  Li9  1  0.37500000  0.62500000  0.75000000  1
  Li  Li10  1  0.87500000  0.12500000  0.75000000  1
  Li  Li11  1  0.12500000  0.87500000  0.25000000  1
  Dy  Dy12  1  0.25000000  0.37500000  0.12500000  1
  Dy  Dy13  1  0.75000000  0.62500000  0.87500000  1
  Dy  Dy14  1  0.75000000  0.12500000  0.37500000  1
  Dy  Dy15  1  0.12500000  0.25000000  0.37500000  1
  Dy  Dy16  1  0.37500000  0.75000000  0.12500000  1
  Dy  Dy17  1  0.25000000  0.87500000  0.62500000  1
  Dy  Dy18  1  0.87500000  0.75000000  0.62500000  1
  Dy  Dy19  1  0.62500000  0.25000000  0.87500000  1
  Dy  Dy20  1  0.37500000  0.12500000  0.25000000  1
  Dy  Dy21  1  0.62500000  0.87500000  0.75000000  1
  Dy  Dy22  1  0.12500000  0.37500000  0.75000000  1
  Dy  Dy23  1  0.87500000  0.62500000  0.25000000  1
  Te  Te24  1  0.00000000  0.00000000  0.00000000  1
  Te  Te25  1  0.50000000  0.00000000  0.50000000  1
  Te  Te26  1  0.00000000  0.50000000  0.50000000  1
  Te  Te27  1  0.50000000  0.00000000  0.00000000  1
  Te  Te28  1  0.50000000  0.50000000  0.00000000  1
  Te  Te29  1  0.50000000  0.50000000  0.50000000  1
  Te  Te30  1  0.00000000  0.00000000  0.50000000  1
  Te  Te31  1  0.00000000  0.50000000  0.00000000  1
  O  O32  1  0.47256600  0.37946200  0.30058800  1
  O  O33  1  0.52743400  0.62053800  0.69941200  1
  O  O34  1  0.57887300  0.17197700  0.19941200  1
  O  O35  1  0.92112700  0.12053800  0.59310400  1
  O  O36  1  0.30058800  0.47256600  0.37946200  1
  O  O37  1  0.32802300  0.92112700  0.30058800  1
  O  O38  1  0.42112700  0.82802300  0.80058800  1
  O  O39  1  0.07887300  0.87946200  0.40689600  1
  O  O40  1  0.69941200  0.52743400  0.62053800  1
  O  O41  1  0.67197700  0.07887300  0.69941200  1
  O  O42  1  0.02743400  0.32802300  0.90689600  1
  O  O43  1  0.19941200  0.57887300  0.17197700  1
  O  O44  1  0.12053800  0.02743400  0.19941200  1
  O  O45  1  0.97256600  0.67197700  0.09310400  1
  O  O46  1  0.80058800  0.42112700  0.82802300  1
  O  O47  1  0.87946200  0.97256600  0.80058800  1
  O  O48  1  0.59310400  0.92112700  0.12053800  1
  O  O49  1  0.17197700  0.47256600  0.59310400  1
  O  O50  1  0.40689600  0.07887300  0.87946200  1
  O  O51  1  0.82802300  0.52743400  0.40689600  1
  O  O52  1  0.90689600  0.02743400  0.32802300  1
  O  O53  1  0.37946200  0.57887300  0.90689600  1
  O  O54  1  0.09310400  0.97256600  0.67197700  1
  O  O55  1  0.62053800  0.42112700  0.09310400  1
  O  O56  1  0.37946200  0.30058800  0.47256600  1
  O  O57  1  0.57887300  0.90689600  0.37946200  1
  O  O58  1  0.62053800  0.69941200  0.52743400  1
  O  O59  1  0.42112700  0.09310400  0.62053800  1
  O  O60  1  0.12053800  0.59310400  0.92112700  1
  O  O61  1  0.02743400  0.19941200  0.12053800  1
  O  O62  1  0.87946200  0.40689600  0.07887300  1
  O  O63  1  0.97256600  0.80058800  0.87946200  1
  O  O64  1  0.32802300  0.90689600  0.02743400  1
  O  O65  1  0.92112700  0.30058800  0.32802300  1
  O  O66  1  0.67197700  0.09310400  0.97256600  1
  O  O67  1  0.07887300  0.69941200  0.67197700  1
  O  O68  1  0.17197700  0.19941200  0.57887300  1
  O  O69  1  0.47256600  0.59310400  0.17197700  1
  O  O70  1  0.82802300  0.80058800  0.42112700  1
  O  O71  1  0.52743400  0.40689600  0.82802300  1
  O  O72  1  0.30058800  0.32802300  0.92112700  1
  O  O73  1  0.69941200  0.67197700  0.07887300  1
  O  O74  1  0.19941200  0.12053800  0.02743400  1
  O  O75  1  0.80058800  0.87946200  0.97256600  1
  O  O76  1  0.90689600  0.37946200  0.57887300  1
  O  O77  1  0.09310400  0.62053800  0.42112700  1
  O  O78  1  0.59310400  0.17197700  0.47256600  1
  O  O79  1  0.40689600  0.82802300  0.52743400  1
