# generated using pymatgen
data_Na2Y3Te4(ClO4)3
_symmetry_space_group_name_H-M   'P 1'
_cell_length_a   12.39251600
_cell_length_b   12.39251600
_cell_length_c   16.82496449
_cell_angle_alpha   47.50573819
_cell_angle_beta   47.50573819
_cell_angle_gamma   26.09571142
_symmetry_Int_Tables_number   1
_chemical_formula_structural   Na2Y3Te4(ClO4)3
_chemical_formula_sum   'Na4 Y6 Te8 Cl6 O24'
_cell_volume   818.94386476
_cell_formula_units_Z   2
loop_
 _symmetry_equiv_pos_site_id
 _symmetry_equiv_pos_as_xyz
  1  'x, y, z'
loop_
 _atom_site_type_symbol
 _atom_site_label
 _atom_site_symmetry_multiplicity
 _atom_site_fract_x
 _atom_site_fract_y
 _atom_site_fract_z
 _atom_site_occupancy
  Na  Na0  1  0.10837100  0.56037000  0.57411700  1
  Na  Na1  1  0.43963000  0.89162900  0.92588300  1
  Na  Na2  1  0.89162900  0.43963000  0.42588300  1
  Na  Na3  1  0.56037000  0.10837100  0.07411700  1
  Y  Y4  1  0.24937900  0.75062100  0.25000000  1
  Y  Y5  1  0.75062100  0.24937900  0.75000000  1
  Y  Y6  1  0.24955400  0.74835200  0.58593400  1
  Y  Y7  1  0.25164800  0.75044600  0.91406600  1
  Y  Y8  1  0.75044600  0.25164800  0.41406600  1
  Y  Y9  1  0.74835200  0.24955400  0.08593400  1
  Te  Te10  1  0.66529700  0.06393600  0.40355200  1
  Te  Te11  1  0.93606400  0.33470300  0.09644800  1
  Te  Te12  1  0.33470300  0.93606400  0.59644800  1
  Te  Te13  1  0.06393600  0.66529700  0.90355200  1
  Te  Te14  1  0.16263100  0.57207700  0.19667800  1
  Te  Te15  1  0.42792300  0.83736900  0.30332200  1
  Te  Te16  1  0.83736900  0.42792300  0.80332200  1
  Te  Te17  1  0.57207700  0.16263100  0.69667800  1
  Cl  Cl18  1  0.00000000  0.50000000  0.50000000  1
  Cl  Cl19  1  0.50000000  0.00000000  0.00000000  1
  Cl  Cl20  1  0.00340900  0.49694300  0.16872000  1
  Cl  Cl21  1  0.50305700  0.99659100  0.33128000  1
  Cl  Cl22  1  0.99659100  0.50305700  0.83128000  1
  Cl  Cl23  1  0.49694400  0.00340900  0.66872000  1
  O  O24  1  0.47822100  0.37548300  0.38477400  1
  O  O25  1  0.62451700  0.52177900  0.11522600  1
  O  O26  1  0.52177900  0.62451700  0.61522600  1
  O  O27  1  0.37548300  0.47822100  0.88477400  1
  O  O28  1  0.00335800  0.85407400  0.75703600  1
  O  O29  1  0.14592600  0.99664200  0.74296400  1
  O  O30  1  0.99664200  0.14592600  0.24296400  1
  O  O31  1  0.85407400  0.00335800  0.25703600  1
  O  O32  1  0.93076800  0.89690600  0.42661100  1
  O  O33  1  0.10309400  0.06923200  0.07338900  1
  O  O34  1  0.06923200  0.10309400  0.57338900  1
  O  O35  1  0.89690600  0.93076800  0.92661100  1
  O  O36  1  0.98313500  0.87848300  0.09043600  1
  O  O37  1  0.12151700  0.01686500  0.40956400  1
  O  O38  1  0.01686500  0.12151700  0.90956400  1
  O  O39  1  0.87848300  0.98313500  0.59043600  1
  O  O40  1  0.35322800  0.51378100  0.21104000  1
  O  O41  1  0.48621900  0.64677200  0.28896000  1
  O  O42  1  0.64677200  0.48621900  0.78896000  1
  O  O43  1  0.51378100  0.35322800  0.71104000  1
  O  O44  1  0.40000100  0.43118900  0.57671500  1
  O  O45  1  0.56881100  0.59999900  0.92328500  1
  O  O46  1  0.59999900  0.56881100  0.42328500  1
  O  O47  1  0.43118900  0.40000100  0.07671500  1
