# generated using pymatgen
data_Al4Tc
_symmetry_space_group_name_H-M   'P 1'
_cell_length_a   9.17735871
_cell_length_b   9.17735871
_cell_length_c   5.17034908
_cell_angle_alpha   86.83738184
_cell_angle_beta   86.83738184
_cell_angle_gamma   147.08131371
_symmetry_Int_Tables_number   1
_chemical_formula_structural   Al4Tc
_chemical_formula_sum   'Al12 Tc3'
_cell_volume   232.12412416
_cell_formula_units_Z   3
loop_
 _symmetry_equiv_pos_site_id
 _symmetry_equiv_pos_as_xyz
  1  'x, y, z'
loop_
 _atom_site_type_symbol
 _atom_site_label
 _atom_site_symmetry_multiplicity
 _atom_site_fract_x
 _atom_site_fract_y
 _atom_site_fract_z
 _atom_site_occupancy
  Al  Al0  1  0.85217600  0.85217600  0.50624800  1
  Al  Al1  1  0.50659400  0.50659400  0.14593900  1
  Al  Al2  1  0.26271700  0.41576200  0.68076800  1
  Al  Al3  1  0.41576200  0.26271700  0.68076800  1
  Al  Al4  1  0.06183000  0.30158900  0.21336100  1
  Al  Al5  1  0.30158900  0.06183000  0.21336100  1
  Al  Al6  1  0.94191600  0.69218100  0.81035600  1
  Al  Al7  1  0.69218100  0.94191600  0.81035600  1
  Al  Al8  1  0.08229100  0.54861600  0.59243000  1
  Al  Al9  1  0.54861600  0.08229100  0.59243000  1
  Al  Al10  1  0.23145500  0.72897400  0.07169900  1
  Al  Al11  1  0.72897400  0.23145500  0.07169900  1
  Tc  Tc12  1  0.01302700  0.01302700  0.99268000  1
  Tc  Tc13  1  0.80539500  0.53247700  0.33195300  1
  Tc  Tc14  1  0.53247700  0.80539500  0.33195300  1
