# generated using pymatgen
data_BaTi(PO4)2
_symmetry_space_group_name_H-M   'P 1'
_cell_length_a   4.91572020
_cell_length_b   4.91572020
_cell_length_c   7.84115487
_cell_angle_alpha   86.50878802
_cell_angle_beta   86.50878802
_cell_angle_gamma   64.64427924
_symmetry_Int_Tables_number   1
_chemical_formula_structural   BaTi(PO4)2
_chemical_formula_sum   'Ba1 Ti1 P2 O8'
_cell_volume   170.77802887
_cell_formula_units_Z   1
loop_
 _symmetry_equiv_pos_site_id
 _symmetry_equiv_pos_as_xyz
  1  'x, y, z'
loop_
 _atom_site_type_symbol
 _atom_site_label
 _atom_site_symmetry_multiplicity
 _atom_site_fract_x
 _atom_site_fract_y
 _atom_site_fract_z
 _atom_site_occupancy
  Ba  Ba0  1  0.00000000  0.00000000  0.50000000  1
  Ti  Ti1  1  0.00000000  0.00000000  0.00000000  1
  P  P2  1  0.36665400  0.36665400  0.79434700  1
  P  P3  1  0.63334600  0.63334600  0.20565300  1
  O  O4  1  0.31362200  0.31362200  0.61167300  1
  O  O5  1  0.68637800  0.68637800  0.38832700  1
  O  O6  1  0.71295100  0.23162200  0.82031700  1
  O  O7  1  0.28704900  0.76837800  0.17968300  1
  O  O8  1  0.76837800  0.28704900  0.17968300  1
  O  O9  1  0.23162200  0.71295100  0.82031700  1
  O  O10  1  0.22596300  0.22596300  0.93482600  1
  O  O11  1  0.77403700  0.77403700  0.06517400  1
