# generated using pymatgen
data_DyAu3
_symmetry_space_group_name_H-M   'P 1'
_cell_length_a   5.06761500
_cell_length_b   5.17274000
_cell_length_c   6.17911500
_cell_angle_alpha   90.00000000
_cell_angle_beta   90.00000000
_cell_angle_gamma   90.00000000
_symmetry_Int_Tables_number   1
_chemical_formula_structural   DyAu3
_chemical_formula_sum   'Dy2 Au6'
_cell_volume   161.97595185
_cell_formula_units_Z   2
loop_
 _symmetry_equiv_pos_site_id
 _symmetry_equiv_pos_as_xyz
  1  'x, y, z'
loop_
 _atom_site_type_symbol
 _atom_site_label
 _atom_site_symmetry_multiplicity
 _atom_site_fract_x
 _atom_site_fract_y
 _atom_site_fract_z
 _atom_site_occupancy
  Dy  Dy0  1  0.50000000  0.65502300  0.50000000  1
  Dy  Dy1  1  0.00000000  0.34497700  0.00000000  1
  Au  Au2  1  0.50000000  0.15798300  0.75509300  1
  Au  Au3  1  0.50000000  0.15798300  0.24490700  1
  Au  Au4  1  0.00000000  0.84201700  0.74490700  1
  Au  Au5  1  0.00000000  0.84201700  0.25509300  1
  Au  Au6  1  0.00000000  0.33876400  0.50000000  1
  Au  Au7  1  0.50000000  0.66123600  0.00000000  1
