# generated using pymatgen
data_Ba2MnSe3
_symmetry_space_group_name_H-M   'P 1'
_cell_length_a   4.52444100
_cell_length_b   9.24743600
_cell_length_c   17.90888200
_cell_angle_alpha   90.00000000
_cell_angle_beta   90.00000000
_cell_angle_gamma   90.00000000
_symmetry_Int_Tables_number   1
_chemical_formula_structural   Ba2MnSe3
_chemical_formula_sum   'Ba8 Mn4 Se12'
_cell_volume   749.29828489
_cell_formula_units_Z   4
loop_
 _symmetry_equiv_pos_site_id
 _symmetry_equiv_pos_as_xyz
  1  'x, y, z'
loop_
 _atom_site_type_symbol
 _atom_site_label
 _atom_site_symmetry_multiplicity
 _atom_site_fract_x
 _atom_site_fract_y
 _atom_site_fract_z
 _atom_site_occupancy
  Ba  Ba0  1  0.25000000  0.25325700  0.54232300  1
  Ba  Ba1  1  0.75000000  0.74674300  0.45767700  1
  Ba  Ba2  1  0.25000000  0.75325700  0.95767700  1
  Ba  Ba3  1  0.75000000  0.24674300  0.04232300  1
  Ba  Ba4  1  0.25000000  0.41684400  0.28590200  1
  Ba  Ba5  1  0.75000000  0.58315600  0.71409800  1
  Ba  Ba6  1  0.25000000  0.91684400  0.21409800  1
  Ba  Ba7  1  0.75000000  0.08315600  0.78590200  1
  Mn  Mn8  1  0.75000000  0.12948200  0.36590300  1
  Mn  Mn9  1  0.25000000  0.37051800  0.86590300  1
  Mn  Mn10  1  0.75000000  0.62948200  0.13409700  1
  Mn  Mn11  1  0.25000000  0.87051800  0.63409700  1
  Se  Se12  1  0.25000000  0.12647100  0.92758100  1
  Se  Se13  1  0.75000000  0.87352900  0.07241900  1
  Se  Se14  1  0.25000000  0.62647100  0.57241900  1
  Se  Se15  1  0.75000000  0.37352900  0.42758100  1
  Se  Se16  1  0.25000000  0.00278300  0.39915900  1
  Se  Se17  1  0.75000000  0.49721700  0.89915900  1
  Se  Se18  1  0.25000000  0.50278300  0.10084100  1
  Se  Se19  1  0.75000000  0.99721700  0.60084100  1
  Se  Se20  1  0.75000000  0.17975500  0.22740000  1
  Se  Se21  1  0.25000000  0.82024500  0.77260000  1
  Se  Se22  1  0.75000000  0.67975500  0.27260000  1
  Se  Se23  1  0.25000000  0.32024500  0.72740000  1
