# generated using pymatgen
data_K2Na4Co2O5
_symmetry_space_group_name_H-M   'P 1'
_cell_length_a   6.38590400
_cell_length_b   6.38738100
_cell_length_c   12.25157003
_cell_angle_alpha   58.67505421
_cell_angle_beta   90.00000000
_cell_angle_gamma   90.00000000
_symmetry_Int_Tables_number   1
_chemical_formula_structural   K2Na4Co2O5
_chemical_formula_sum   'K4 Na8 Co4 O10'
_cell_volume   426.88714220
_cell_formula_units_Z   2
loop_
 _symmetry_equiv_pos_site_id
 _symmetry_equiv_pos_as_xyz
  1  'x, y, z'
loop_
 _atom_site_type_symbol
 _atom_site_label
 _atom_site_symmetry_multiplicity
 _atom_site_fract_x
 _atom_site_fract_y
 _atom_site_fract_z
 _atom_site_occupancy
  K  K0  1  0.80406100  0.28539900  0.51860900  1
  K  K1  1  0.69593900  0.28539900  0.01860900  1
  K  K2  1  0.19593900  0.71460100  0.48139100  1
  K  K3  1  0.30406100  0.71460100  0.98139100  1
  Na  Na4  1  0.50072800  0.77527100  0.72073800  1
  Na  Na5  1  0.99927200  0.77527100  0.22073800  1
  Na  Na6  1  0.49927200  0.22472900  0.27926200  1
  Na  Na7  1  0.00072800  0.22472900  0.77926200  1
  Na  Na8  1  0.00087400  0.25436200  0.25000300  1
  Na  Na9  1  0.49912600  0.25436200  0.75000300  1
  Na  Na10  1  0.99912600  0.74563800  0.74999700  1
  Na  Na11  1  0.50087400  0.74563800  0.24999700  1
  Co  Co12  1  0.28695300  0.21216600  0.50087400  1
  Co  Co13  1  0.71304700  0.78783400  0.49912600  1
  Co  Co14  1  0.21304700  0.21216600  0.00087400  1
  Co  Co15  1  0.78695300  0.78783400  0.99912600  1
  O  O16  1  0.21454100  0.44810700  0.33879800  1
  O  O17  1  0.78612300  0.87911500  0.33623900  1
  O  O18  1  0.28545900  0.44810700  0.83879800  1
  O  O19  1  0.71387700  0.87911500  0.83623900  1
  O  O20  1  0.78545900  0.55189300  0.66120200  1
  O  O21  1  0.21387700  0.12088500  0.66376100  1
  O  O22  1  0.71454100  0.55189300  0.16120200  1
  O  O23  1  0.28612300  0.12088500  0.16376100  1
  O  O24  1  0.50000000  0.00000000  0.50000000  1
  O  O25  1  0.00000000  0.00000000  0.00000000  1
