# generated using pymatgen
data_Ca3(AlAs2)2
_symmetry_space_group_name_H-M   'P 1'
_cell_length_a   8.28826547
_cell_length_b   8.28826547
_cell_length_c   6.68271084
_cell_angle_alpha   89.27696738
_cell_angle_beta   89.27696738
_cell_angle_gamma   75.90820186
_symmetry_Int_Tables_number   1
_chemical_formula_structural   Ca3(AlAs2)2
_chemical_formula_sum   'Ca6 Al4 As8'
_cell_volume   445.19921774
_cell_formula_units_Z   2
loop_
 _symmetry_equiv_pos_site_id
 _symmetry_equiv_pos_as_xyz
  1  'x, y, z'
loop_
 _atom_site_type_symbol
 _atom_site_label
 _atom_site_symmetry_multiplicity
 _atom_site_fract_x
 _atom_site_fract_y
 _atom_site_fract_z
 _atom_site_occupancy
  Ca  Ca0  1  0.59902200  0.40097800  0.75000000  1
  Ca  Ca1  1  0.40097800  0.59902200  0.25000000  1
  Ca  Ca2  1  0.00666600  0.75050700  0.97194700  1
  Ca  Ca3  1  0.24949300  0.99333400  0.52805300  1
  Ca  Ca4  1  0.99333400  0.24949300  0.02805300  1
  Ca  Ca5  1  0.75050700  0.00666600  0.47194700  1
  Al  Al6  1  0.17194000  0.42043300  0.58886100  1
  Al  Al7  1  0.57956700  0.82806000  0.91113900  1
  Al  Al8  1  0.82806000  0.57956700  0.41113900  1
  Al  Al9  1  0.42043300  0.17194000  0.08886100  1
  As  As10  1  0.56586700  0.74264300  0.56163600  1
  As  As11  1  0.25735700  0.43413300  0.93836400  1
  As  As12  1  0.43413300  0.25735700  0.43836400  1
  As  As13  1  0.74264300  0.56586700  0.06163600  1
  As  As14  1  0.94049900  0.28137300  0.52355500  1
  As  As15  1  0.71862700  0.05950100  0.97644500  1
  As  As16  1  0.05950100  0.71862700  0.47644500  1
  As  As17  1  0.28137300  0.94049900  0.02355500  1
